data_PCOD9066152
_publ_section_title
;
Structure prediction by ZEFSAII (Michael W. Deem and Ramdas Pophale) SiO2 
 PCOD9066152
Probable space group: P -1
;
_chemical_formula_sum "Si O2"
_cell_formula_units_Z 13
_cell_length_a 7.056305
_cell_length_b 16.909227
_cell_length_c 12.127648
_cell_angle_alpha 45.307443
_cell_angle_beta 53.286312
_cell_angle_gamma 89.614488
_cell_volume 567.106000
_symmetry_space_group_name_H-M "P -1"
_symmetry_group_IT_number 2
_symmetry_cell_setting 'triclinic'
loop_
_space_group_symop_operation_xyz
x,y,z
-x,-y,-z
loop_
_atom_site_type_symbol
_atom_site_label
_atom_site_fract_x
_atom_site_fract_y
_atom_site_fract_z
Si Si1 0.366392 0.717738 0.323432
Si Si2 0.389933 0.080143 0.164534
Si Si3 0.369744 0.078963 0.759550
Si Si4 0.370086 0.463677 0.318511
Si Si5 0.374743 0.254502 0.177922
Si Si6 0.500000 0.500000 0.500000
Si Si7 0.377098 0.665870 0.744694
O O1 0.374480 0.788146 0.365447
O O2 0.463540 0.624305 0.400187
O O3 0.996824 0.604643 0.506382
O O4 0.617439 0.864252 0.005938
O O5 0.508122 0.210028 0.086734
O O6 0.629436 0.053810 0.109592
O O7 0.010010 0.910118 0.494173
O O8 0.502321 0.176134 0.503681
O O9 0.000000 0.000000 0.000000
O O10 0.470894 0.499039 0.375384
O O11 0.371101 0.341029 0.387721
O O12 0.624474 0.625986 0.997650
O O13 0.598947 0.328564 0.137544
O O14 0.000000 0.500000 0.000000
#
# Coordination Sequence:
#
# PCOD9066152 Si02
#       7
#     2   2   2   2   2   1   2
#     4  12  25  47  74 103 143 183 238 298 354 411
#     4  11  25  45  69 101 145 188 228 291 358 417
#     4  12  25  44  70 105 141 188 239 286 351 427
#     4  12  25  47  74 103 143 183 238 298 354 411
#     4  11  25  45  69 101 145 188 228 291 358 417
#     4  12  26  44  78 104 138 176 250 294 352 416
#     4  12  25  44  70 105 141 188 239 286 351 427
#
# _framework density 22.923403
#
# number of rings (size 3 to 8) (size 9 to 14) (size 15 to 20)
#    0.000    0.308    3.077    6.000    0.000    0.615 
#    0.000    0.000    0.000    0.000    0.000    0.000 
#    0.000    0.000    0.000    0.000    0.000    0.000 
#
# Total GULP energy -72635.813236 kJ/mol
# GULP energy per Si atom -5587.370249 kJ/mol
# Density = 2.287123 g / cm^3
# Si number density = 22.923403 Si / 1000 Ang^3
#
#
#
# Elastic Constant Matrix: (Units=GPa)
#
#
# Indices 1 2 3 4 5 6 
#
# 1 119.4109 31.9524 36.5809 9.1613 28.3628 25.4073
# 2 31.9524 95.3732 -26.2918 3.4504 11.7461 8.9099
# 3 36.5809 -26.2918 74.6212 2.1762 17.5103 2.7273
# 4 9.1613 3.4504 2.1762 17.4275 6.6164 -2.7153
# 5 28.3628 11.7461 17.5103 6.6164 35.1517 19.7596
# 6 25.4073 8.9099 2.7273 -2.7153 19.7596 36.8564
#
#
#
# Elastic Compliance Matrix: (Units=1/GPa)
#
#
# Indices 1 2 3 4 5 6 
#
# 1 0.015521 -0.006926 -0.009847 -0.007685 0.001610 -0.009726
# 2 -0.006926 0.016300 0.010888 0.003074 -0.008593 0.004862
# 3 -0.009847 0.010888 0.025223 0.007839 -0.016238 0.011573
# 4 -0.007685 0.003074 0.007839 0.073052 -0.025394 0.022970
# 5 0.001610 -0.008593 -0.016238 -0.025394 0.061150 -0.032486
# 6 -0.009726 0.004862 0.011573 0.022970 -0.032486 0.050914
#
#
# Mechanical properties :
#
#
# Convention : Reuss Voigt Hill
#
# Bulk Modulus (GPa) = 22.08852 41.54314 31.81583
# Shear Modulus (GPa) = 18.58578 34.36472 26.47525
#
# Velocity S-wave (km/s) = 2.85050 3.87604 3.40213
# Velocity P-wave (km/s) = 4.52665 6.18009 5.41683
#
# Compressibility (1/GPa) = 0.04527238
#
# Stress axis : x y z
#
# Youngs Moduli (GPa) = 64.42885 61.35010 39.64597
#
# Poissons Ratio (x) = 0.42492 0.39040
# Poissons Ratio (y) = 0.44625 -0.43165
# Poissons Ratio (z) = 0.63445 -0.66795
#
# Static dielectric constant tensor:
#      x y z
#    x 1.874220 -0.013700 -0.075140 
#    y -0.013700 1.814730 0.010510 
#    z -0.075140 0.010510 1.972490 
# 
# From -- ./inp_files/47072.got.cif
#   From: 2010.05.17/outbox.cif.g08.bks.cpg/sg2_24_cif.got.tgz:47072.got - 2010.06.03 11:33:40.
