data_PCOD9066316
_publ_section_title
;
Structure prediction by ZEFSAII (Michael W. Deem and Ramdas Pophale) SiO2 
 PCOD9066316
Probable space group: P -1
;
_chemical_formula_sum "Si O2"
_cell_formula_units_Z 16
_cell_length_a 16.586761
_cell_length_b 9.432881
_cell_length_c 4.924709
_cell_angle_alpha 99.645680
_cell_angle_beta 102.955391
_cell_angle_gamma 67.440122
_cell_volume 690.598118
_symmetry_space_group_name_H-M "P -1"
_symmetry_group_IT_number 2
_symmetry_cell_setting 'triclinic'
loop_
_space_group_symop_operation_xyz
x,y,z
-x,-y,-z
loop_
_atom_site_type_symbol
_atom_site_label
_atom_site_fract_x
_atom_site_fract_y
_atom_site_fract_z
Si Si1 0.644042 0.081434 0.047212
Si Si2 0.498719 0.391989 0.217447
Si Si3 0.823067 0.319756 0.477594
Si Si4 0.235358 0.329027 0.473129
Si Si5 0.231115 0.817753 0.152918
Si Si6 0.354817 0.234772 0.031527
Si Si7 0.167303 0.094464 0.584582
Si Si8 0.996892 0.893559 0.218532
O O1 0.580455 0.229824 0.201136
O O2 0.603831 0.948147 0.925095
O O3 0.736435 0.988146 0.236640
O O4 0.681353 0.147264 0.840769
O O5 0.500000 0.500000 0.500000
O O6 0.500000 0.500000 0.000000
O O7 0.415842 0.334739 0.150305
O O8 0.805525 0.491924 0.433617
O O9 0.752670 0.313811 0.651042
O O10 0.915194 0.255004 0.698465
O O11 0.000000 0.000000 0.000000
O O12 0.322465 0.255816 0.702841
O O13 0.169163 0.243031 0.475721
O O14 0.268446 0.300145 0.180437
O O15 0.167095 0.967671 0.318087
O O16 0.189972 0.773965 0.830277
O O17 0.093075 0.134944 0.776526
O O18 0.000000 0.000000 0.500000
#
# Coordination Sequence:
#
# PCOD9066316 Si02
#       8
#     2   2   2   2   2   2   2   2
#     4  11  25  47  72 101 139 189 240 279 360 411
#     4  12  30  45  71 108 143 182 231 297 353 415
#     4  12  26  41  70 105 144 182 230 298 354 402
#     4  11  26  45  71 105 143 185 233 287 360 406
#     4  12  23  42  71 103 132 190 234 287 338 423
#     4  11  25  48  71 100 143 188 233 286 346 432
#     4  11  25  45  74 102 140 187 242 287 339 434
#     4  12  25  43  70 107 140 183 241 289 347 410
#
# _framework density 23.168323999999998
#
# number of rings (size 3 to 8) (size 9 to 14) (size 15 to 20)
#    0.000    0.500    3.750    3.375    7.000    0.500 
#    0.000    3.125    0.000    5.250    0.000    0.000 
#    0.000    0.000    0.000    0.000    0.000    0.000 
#
# Total GULP energy -89367.044091 kJ/mol
# GULP energy per Si atom -5585.440256 kJ/mol
# Density = 2.311559 g / cm^3
# Si number density = 23.168324 Si / 1000 Ang^3
#
#
#
# Elastic Constant Matrix: (Units=GPa)
#
#
# Indices 1 2 3 4 5 6 
#
# 1 117.3657 54.8338 31.1243 -7.4744 -19.2144 22.9199
# 2 54.8338 163.0843 29.4855 -2.0883 -9.7287 30.9770
# 3 31.1243 29.4855 122.3326 8.2428 -24.6240 15.6449
# 4 -7.4744 -2.0883 8.2428 33.4340 5.3063 -4.9116
# 5 -19.2144 -9.7287 -24.6240 5.3063 33.1269 -1.6163
# 6 22.9199 30.9770 15.6449 -4.9116 -1.6163 34.1345
#
#
#
# Elastic Compliance Matrix: (Units=1/GPa)
#
#
# Indices 1 2 3 4 5 6 
#
# 1 0.011781 -0.002589 -0.000828 0.001176 0.005036 -0.004774
# 2 -0.002589 0.008154 -0.000456 -0.000839 0.000417 -0.005553
# 3 -0.000828 -0.000456 0.011026 -0.004871 0.008147 -0.004399
# 4 0.001176 -0.000839 -0.004871 0.033606 -0.008244 0.006650
# 5 0.005036 0.000417 0.008147 -0.008244 0.040276 -0.006773
# 6 -0.004774 -0.005553 -0.004399 0.006650 -0.006773 0.040193
#
#
# Mechanical properties :
#
#
# Convention : Reuss Voigt Hill
#
# Bulk Modulus (GPa) = 43.07780 70.40777 56.74278
# Shear Modulus (GPa) = 31.14864 39.29502 35.22183
#
# Velocity S-wave (km/s) = 3.67065 4.12280 3.90328
# Velocity P-wave (km/s) = 6.04968 7.28828 6.69767
#
# Compressibility (1/GPa) = 0.02321381
#
# Stress axis : x y z
#
# Youngs Moduli (GPa) = 84.87994 122.64361 90.69735
#
# Poissons Ratio (x) = 0.31756 0.07514
# Poissons Ratio (y) = 0.21978 0.04134
# Poissons Ratio (z) = 0.07032 0.05590
#
# Static dielectric constant tensor:
#      x y z
#    x 2.014060 0.010810 0.046720 
#    y 0.010810 1.855920 -0.006650 
#    z 0.046720 -0.006650 1.868700 
# 
# From -- ./inp_files/90152.got.cif
#   From: 2010.05.17/outbox.cif.g08.bks.cpg/sg2_46_cif.got.tgz:90152.got - 2010.06.03 11:33:40.
