data_PCOD9066599
_publ_section_title
;
Structure prediction by ZEFSAII (Michael W. Deem and Ramdas Pophale) SiO2 
 PCOD9066599
Probable space group: P -1
;
_chemical_formula_sum "Si O2"
_cell_formula_units_Z 14
_cell_length_a 8.894553
_cell_length_b 21.018108
_cell_length_c 11.957748
_cell_angle_alpha 28.986782
_cell_angle_beta 61.293186
_cell_angle_gamma 43.610696
_cell_volume 664.335897
_symmetry_space_group_name_H-M "P -1"
_symmetry_group_IT_number 2
_symmetry_cell_setting 'triclinic'
loop_
_space_group_symop_operation_xyz
x,y,z
-x,-y,-z
loop_
_atom_site_type_symbol
_atom_site_label
_atom_site_fract_x
_atom_site_fract_y
_atom_site_fract_z
Si Si1 0.350550 0.103247 0.508607
Si Si2 0.278343 0.530405 0.565406
Si Si3 0.240890 0.439900 0.136848
Si Si4 0.211972 0.275068 0.976903
Si Si5 0.450856 0.808367 0.373957
Si Si6 0.145594 0.236440 0.824359
Si Si7 0.178275 0.693925 0.593342
O O1 0.251165 0.302633 0.268114
O O2 0.113871 0.138952 0.537372
O O3 0.500000 0.000000 0.500000
O O4 0.565367 0.949474 0.755168
O O5 0.500000 0.500000 0.500000
O O6 0.345346 0.341520 0.829434
O O7 0.197505 0.615022 0.587661
O O8 0.060609 0.661651 0.352323
O O9 0.425257 0.309359 0.374053
O O10 0.980796 0.613271 0.023977
O O11 0.290793 0.536197 0.890678
O O12 0.064445 0.332765 0.826434
O O13 0.652386 0.771232 0.281965
O O14 0.317722 0.755608 0.449077
O O15 0.255900 0.031447 0.117727
#
# Coordination Sequence:
#
# PCOD9066599 Si02
#       7
#     2   2   2   2   2   2   2
#     4  12  24  45  72 107 144 190 233 294 364 419
#     4  12  27  45  72 109 143 187 242 304 355 421
#     4  12  24  50  72 105 145 191 238 293 365 434
#     4  12  24  45  74 102 143 194 239 283 369 431
#     4  11  25  46  72 105 144 195 240 293 356 431
#     4  11  25  48  72 100 147 196 240 288 360 433
#     4  12  26  45  72 110 147 182 243 305 354 420
#
# _framework density 21.073677
#
# number of rings (size 3 to 8) (size 9 to 14) (size 15 to 20)
#    0.000    0.286    5.714    3.000    6.000    0.571 
#    0.000    1.429    0.000    0.000    0.000    0.000 
#    0.000    0.000    0.000    0.000    0.000    0.000 
#
# Total GULP energy -78265.818048 kJ/mol
# GULP energy per Si atom -5590.415575 kJ/mol
# Density = 2.102571 g / cm^3
# Si number density = 21.073677 Si / 1000 Ang^3
#
#
#
# Elastic Constant Matrix: (Units=GPa)
#
#
# Indices 1 2 3 4 5 6 
#
# 1 122.0509 41.5811 46.7276 7.5335 -19.8120 10.9374
# 2 41.5811 103.1309 41.4836 4.4273 -7.6530 12.9181
# 3 46.7276 41.4836 110.7511 -4.9507 -13.9906 4.1670
# 4 7.5335 4.4273 -4.9507 33.4494 3.2585 2.4028
# 5 -19.8120 -7.6530 -13.9906 3.2585 30.9084 7.1175
# 6 10.9374 12.9181 4.1670 2.4028 7.1175 36.9629
#
#
#
# Elastic Compliance Matrix: (Units=1/GPa)
#
#
# Indices 1 2 3 4 5 6 
#
# 1 0.011845 -0.002405 -0.003277 -0.003239 0.006628 -0.003360
# 2 -0.002405 0.012651 -0.003547 -0.001504 0.000924 -0.003390
# 3 -0.003277 -0.003547 0.012128 0.002774 0.002162 0.000245
# 4 -0.003239 -0.001504 0.002774 0.031677 -0.004528 -0.000016
# 5 0.006628 0.000924 0.002162 -0.004528 0.040602 -0.010052
# 6 -0.003360 -0.003390 0.000245 -0.000016 -0.010052 0.031142
#
#
# Mechanical properties :
#
#
# Convention : Reuss Voigt Hill
#
# Bulk Modulus (GPa) = 55.05159 66.16862 60.61011
# Shear Modulus (GPa) = 30.38430 34.00686 32.19558
#
# Velocity S-wave (km/s) = 3.80124 4.02146 3.91290
# Velocity P-wave (km/s) = 6.74137 7.28215 7.01697
#
# Compressibility (1/GPa) = 0.01816478
#
# Stress axis : x y z
#
# Youngs Moduli (GPa) = 84.42682 79.04772 82.45147
#
# Poissons Ratio (x) = 0.19014 0.27023
# Poissons Ratio (y) = 0.20308 0.29242
# Poissons Ratio (z) = 0.27670 0.28034
#
# Static dielectric constant tensor:
#      x y z
#    x 1.743930 0.021070 0.055290 
#    y 0.021070 1.787780 0.016290 
#    z 0.055290 0.016290 1.820890 
# 
# From -- ./inp_files/344911.got.cif
#   From: 2010.05.17/outbox.cif.g08.bks.cpg/sg2_173_cif.got.tgz:344911.got - 2010.06.03 11:33:40.
