data_PCOD9066650
_publ_section_title
;
Structure prediction by ZEFSAII (Michael W. Deem and Ramdas Pophale) SiO2 
 PCOD9066650
Probable space group: P -1
;
_chemical_formula_sum "Si O2"
_cell_formula_units_Z 14
_cell_length_a 12.363940
_cell_length_b 10.670573
_cell_length_c 5.041686
_cell_angle_alpha 118.605853
_cell_angle_beta 82.752937
_cell_angle_gamma 65.906269
_cell_volume 488.281994
_symmetry_space_group_name_H-M "P -1"
_symmetry_group_IT_number 2
_symmetry_cell_setting 'triclinic'
loop_
_space_group_symop_operation_xyz
x,y,z
-x,-y,-z
loop_
_atom_site_type_symbol
_atom_site_label
_atom_site_fract_x
_atom_site_fract_y
_atom_site_fract_z
Si Si1 0.279516 0.167055 0.104663
Si Si2 0.875805 0.275270 0.865733
Si Si3 0.355324 0.444061 0.415724
Si Si4 0.108343 0.995058 0.775645
Si Si5 0.009683 0.391777 0.635419
Si Si6 0.608437 0.025567 0.616816
Si Si7 0.611401 0.283448 0.533679
O O1 0.315217 0.309942 0.221154
O O2 0.377403 0.022199 0.131416
O O3 0.147870 0.227459 0.363894
O O4 0.275120 0.108665 0.749389
O O5 0.860293 0.126089 0.613868
O O6 0.898764 0.354980 0.678180
O O7 0.758823 0.416292 0.216296
O O8 0.015349 0.184802 0.878273
O O9 0.488493 0.345769 0.444516
O O10 0.372279 0.556520 0.302168
O O11 0.247058 0.877888 0.762954
O O12 0.000000 0.000000 0.000000
O O13 0.000000 0.500000 0.500000
O O14 0.000000 0.500000 0.000000
O O15 0.500000 0.000000 0.500000
O O16 0.585118 0.205447 0.724094
#
# Coordination Sequence:
#
# PCOD9066650 Si02
#       7
#     2   2   2   2   2   2   2
#     4  12  27  50  78 112 160 200 266 320 394 463
#     4  11  26  47  74 110 150 197 260 314 388 461
#     4  11  25  48  76 119 146 199 261 332 379 456
#     4  11  25  46  73 104 147 200 246 313 384 470
#     4  12  27  44  76 111 149 199 251 317 389 452
#     4  12  27  51  77 109 156 213 253 317 393 479
#     4  11  26  47  78 109 154 199 260 316 394 457
#
# _framework density 28.671958
#
# number of rings (size 3 to 8) (size 9 to 14) (size 15 to 20)
#    0.000    0.571    4.286    2.143    6.000    1.714 
#    2.571    0.000    0.000    0.000    0.000    0.000 
#    0.000    0.000    0.000    0.000    0.000    0.000 
#
# Total GULP energy -78449.886733 kJ/mol
# GULP energy per Si atom -5603.563338 kJ/mol
# Density = 2.860670 g / cm^3
# Si number density = 28.671958 Si / 1000 Ang^3
#
#
#
# Elastic Constant Matrix: (Units=GPa)
#
#
# Indices 1 2 3 4 5 6 
#
# 1 133.0996 59.7885 31.5179 9.2919 -14.4681 -16.0168
# 2 59.7885 218.7216 64.1809 -3.7918 -3.0224 11.9939
# 3 31.5179 64.1809 159.9814 15.6657 1.5849 -7.5558
# 4 9.2919 -3.7918 15.6657 68.7263 -0.6837 -9.7187
# 5 -14.4681 -3.0224 1.5849 -0.6837 52.8264 7.3583
# 6 -16.0168 11.9939 -7.5558 -9.7187 7.3583 66.3492
#
#
#
# Elastic Compliance Matrix: (Units=1/GPa)
#
#
# Indices 1 2 3 4 5 6 
#
# 1 0.009346 -0.002466 -0.000678 -0.000905 0.002113 0.002258
# 2 -0.002466 0.005969 -0.002079 0.000885 -0.000012 -0.001780
# 3 -0.000678 -0.002079 0.007424 -0.001595 -0.000673 0.000899
# 4 -0.000905 0.000885 -0.001595 0.015324 -0.000189 0.001706
# 5 0.002113 -0.000012 -0.000673 -0.000189 0.019774 -0.001785
# 6 0.002258 -0.001780 0.000899 0.001706 -0.001785 0.016489
#
#
# Mechanical properties :
#
#
# Convention : Reuss Voigt Hill
#
# Bulk Modulus (GPa) = 81.35074 91.41968 86.38521
# Shear Modulus (GPa) = 56.26173 61.33474 58.79824
#
# Velocity S-wave (km/s) = 4.43454 4.63015 4.53340
# Velocity P-wave (km/s) = 7.39288 7.78064 7.58924
#
# Compressibility (1/GPa) = 0.01229245
#
# Stress axis : x y z
#
# Youngs Moduli (GPa) = 106.99763 167.52776 134.70346
#
# Poissons Ratio (x) = 0.41317 0.09126
# Poissons Ratio (y) = 0.26389 0.28011
# Poissons Ratio (z) = 0.07249 0.34836
#
# Static dielectric constant tensor:
#      x y z
#    x 5.728200 -2.603230 0.483580 
#    y -2.603230 4.524980 -0.456080 
#    z 0.483580 -0.456080 2.374670 
# 
# From -- ./inp_files/92575.got.cif
#   From: 2010.05.17/outbox.cif.g08.bks.cpg/sg2_47_cif.got.tgz:92575.got - 2010.06.03 11:33:40.
