data_PCOD9066618
_publ_section_title
;
Structure prediction by ZEFSAII (Michael W. Deem and Ramdas Pophale) SiO2 
 PCOD9066618
Probable space group: P -1
;
_chemical_formula_sum "Si O2"
_cell_formula_units_Z 16
_cell_length_a 6.205923
_cell_length_b 10.870607
_cell_length_c 21.613160
_cell_angle_alpha 31.300183
_cell_angle_beta 108.902501
_cell_angle_gamma 118.713362
_cell_volume 652.257997
_symmetry_space_group_name_H-M "P -1"
_symmetry_group_IT_number 2
_symmetry_cell_setting 'triclinic'
loop_
_space_group_symop_operation_xyz
x,y,z
-x,-y,-z
loop_
_atom_site_type_symbol
_atom_site_label
_atom_site_fract_x
_atom_site_fract_y
_atom_site_fract_z
Si Si1 0.286162 0.590640 0.693012
Si Si2 0.228584 0.954932 0.422662
Si Si3 0.370165 0.869867 0.957750
Si Si4 0.095323 0.778185 0.091410
Si Si5 0.292060 0.426494 0.460251
Si Si6 0.841026 0.150750 0.674485
Si Si7 0.264325 0.438408 0.052583
Si Si8 0.663918 0.694317 0.292573
O O1 0.243921 0.782818 0.556464
O O2 0.263165 0.351245 0.750060
O O3 0.085605 0.477186 0.778185
O O4 0.568781 0.754270 0.672778
O O5 0.280871 0.870607 0.395202
O O6 0.929590 0.858715 0.431555
O O7 0.619545 0.094166 0.912764
O O8 0.337673 0.024896 0.828997
O O9 0.135360 0.763383 0.028307
O O10 0.404800 0.619815 0.045635
O O11 0.000000 0.000000 0.000000
O O12 0.500000 0.500000 0.500000
O O13 0.222834 0.673941 0.357520
O O14 0.405268 0.463919 0.386246
O O15 0.139409 0.305301 0.638402
O O16 0.805423 0.863622 0.812893
O O17 0.500000 0.500000 0.000000
O O18 0.000000 0.500000 0.000000
#
# Coordination Sequence:
#
# PCOD9066618 Si02
#       8
#     2   2   2   2   2   2   2   2
#     4  11  25  46  75 108 152 197 257 330 387 484
#     4  11  25  46  72 109 148 201 254 321 401 474
#     4  11  26  45  75 114 147 205 266 326 407 483
#     4  11  25  47  77 105 150 208 258 331 408 485
#     4  12  24  44  77 109 149 204 261 325 401 485
#     4  12  26  47  75 108 159 202 264 328 407 486
#     4  12  29  47  77 120 161 209 269 335 404 484
#     4  12  23  44  76 108 148 199 259 317 403 478
#
# _framework density 24.530172
#
# number of rings (size 3 to 8) (size 9 to 14) (size 15 to 20)
#    0.000    0.500    5.000    2.625    5.250    0.500 
#    0.000    2.500    0.000    0.000    0.000    0.000 
#    0.000    0.000    0.000    0.000    0.000    0.000 
#
# Total GULP energy -89130.770388 kJ/mol
# GULP energy per Si atom -5570.673149 kJ/mol
# Density = 2.447434 g / cm^3
# Si number density = 24.530172 Si / 1000 Ang^3
#
#
#
# Elastic Constant Matrix: (Units=GPa)
#
#
# Indices 1 2 3 4 5 6 
#
# 1 112.2984 23.5574 56.8685 7.0076 -34.0828 -6.3310
# 2 23.5574 83.3220 20.5311 -10.1298 -23.6801 13.1109
# 3 56.8685 20.5311 110.2353 -11.7890 -24.4854 9.9550
# 4 7.0076 -10.1298 -11.7890 37.0634 4.7168 -5.8108
# 5 -34.0828 -23.6801 -24.4854 4.7168 52.1927 4.5224
# 6 -6.3310 13.1109 9.9550 -5.8108 4.5224 40.8535
#
#
#
# Elastic Compliance Matrix: (Units=1/GPa)
#
#
# Indices 1 2 3 4 5 6 
#
# 1 0.015326 -0.002129 -0.007123 -0.005989 0.005957 0.003283
# 2 -0.002129 0.015481 0.000393 0.003111 0.006023 -0.005618
# 3 -0.007123 0.000393 0.014033 0.005009 0.002018 -0.004160
# 4 -0.005989 0.003111 0.005009 0.031209 -0.003112 0.001636
# 5 0.005957 0.006023 0.002018 -0.003112 0.027442 -0.004982
# 6 0.003283 -0.005618 -0.004160 0.001636 -0.004982 0.028588
#
#
# Mechanical properties :
#
#
# Convention : Reuss Voigt Hill
#
# Bulk Modulus (GPa) = 36.87327 56.41885 46.64606
# Shear Modulus (GPa) = 31.47882 39.68183 35.58033
#
# Velocity S-wave (km/s) = 3.58616 4.02640 3.81264
# Velocity P-wave (km/s) = 5.67555 6.68323 6.19989
#
# Compressibility (1/GPa) = 0.02711991
#
# Stress axis : x y z
#
# Youngs Moduli (GPa) = 65.25059 64.59557 71.26224
#
# Poissons Ratio (x) = 0.13755 0.50763
# Poissons Ratio (y) = 0.13895 -0.02803
# Poissons Ratio (z) = 0.46481 -0.02540
#
# Static dielectric constant tensor:
#      x y z
#    x 2.156370 0.074980 0.037560 
#    y 0.074980 2.007570 0.038000 
#    z 0.037560 0.038000 1.954540 
# 
# From -- ./inp_files/604412.got.cif
#   From: 2010.05.17/outbox.cif.g08.bks.cpg/sg2_303_cif.got.tgz:604412.got - 2010.06.03 11:33:40.
