data_PCOD9066926
_publ_section_title
;
Structure prediction by ZEFSAII (Michael W. Deem and Ramdas Pophale) SiO2 
 PCOD9066926
Probable space group: P -1
;
_chemical_formula_sum "Si O2"
_cell_formula_units_Z 12
_cell_length_a 24.445529
_cell_length_b 9.350715
_cell_length_c 27.449786
_cell_angle_alpha 146.568698
_cell_angle_beta 9.003317
_cell_angle_gamma 145.427856
_cell_volume 540.947223
_symmetry_space_group_name_H-M "P -1"
_symmetry_group_IT_number 2
_symmetry_cell_setting 'triclinic'
loop_
_space_group_symop_operation_xyz
x,y,z
-x,-y,-z
loop_
_atom_site_type_symbol
_atom_site_label
_atom_site_fract_x
_atom_site_fract_y
_atom_site_fract_z
Si Si1 0.186501 0.334794 0.011856
Si Si2 0.187004 0.134465 0.759553
Si Si3 0.177459 0.464127 0.237733
Si Si4 0.886210 0.427208 0.200497
Si Si5 0.562572 0.302328 0.022822
Si Si6 0.130532 0.027410 0.673827
O O1 0.235623 0.570398 0.072868
O O2 0.524549 0.147583 0.668613
O O3 0.143896 0.417342 0.017069
O O4 0.854821 0.159665 0.268531
O O5 0.562332 0.248197 0.449093
O O6 0.997015 0.127761 0.872288
O O7 0.032687 0.307461 0.987688
O O8 0.814947 0.554677 0.606774
O O9 0.136535 0.166593 0.171956
O O10 0.500000 0.500000 0.000000
O O11 0.233391 0.632916 0.187674
O O12 0.787842 0.723065 0.359212
O O13 0.500000 0.000000 0.000000
#
# Coordination Sequence:
#
# PCOD9066926 Si02
#       6
#     2   2   2   2   2   2
#     4  11  26  46  70 100 141 179 227 284 341 401
#     4  12  24  46  65 102 141 180 228 280 334 402
#     4  11  25  47  73 102 138 178 228 290 350 409
#     4  12  28  40  71 102 135 186 230 270 336 416
#     4  11  25  47  73 102 138 178 228 290 350 409
#     4  11  26  46  70 100 141 179 227 284 341 401
#
# _framework density 22.183309999999999
#
# number of rings (size 3 to 8) (size 9 to 14) (size 15 to 20)
#    0.000    0.667    3.333    3.000    7.000    0.000 
#    3.000    0.000    0.000    0.000    0.000    0.000 
#    0.000    0.000    0.000    0.000    0.000    0.000 
#
# Total GULP energy -67187.265683 kJ/mol
# GULP energy per Si atom -5598.938807 kJ/mol
# Density = 2.213282 g / cm^3
# Si number density = 22.183310 Si / 1000 Ang^3
#
#
#
# Elastic Constant Matrix: (Units=GPa)
#
#
# Indices 1 2 3 4 5 6 
#
# 1 138.8967 68.1353 33.1735 5.8122 -9.7338 18.5753
# 2 68.1353 127.5736 0.5034 4.9005 -11.2433 17.3175
# 3 33.1735 0.5034 56.8053 -2.6135 9.2797 4.5767
# 4 5.8122 4.9005 -2.6135 17.6641 -7.7954 -5.0563
# 5 -9.7338 -11.2433 9.2797 -7.7954 33.5045 -12.4184
# 6 18.5753 17.3175 4.5767 -5.0563 -12.4184 32.3362
#
#
#
# Elastic Compliance Matrix: (Units=1/GPa)
#
#
# Indices 1 2 3 4 5 6 
#
# 1 0.012615 -0.006027 -0.007559 -0.003569 0.001872 -0.002788
# 2 -0.006027 0.011587 0.003781 -0.002200 -0.000891 -0.003964
# 3 -0.007559 0.003781 0.023887 -0.000564 -0.009446 -0.004779
# 4 -0.003569 -0.002200 -0.000564 0.076789 0.025563 0.025132
# 5 0.001872 -0.000891 -0.009446 0.025563 0.047118 0.022831
# 6 -0.002788 -0.003964 -0.004779 0.025132 0.022831 0.048024
#
#
# Mechanical properties :
#
#
# Convention : Reuss Voigt Hill
#
# Bulk Modulus (GPa) = 35.11446 58.54444 46.82945
# Shear Modulus (GPa) = 20.07047 31.46516 25.76782
#
# Velocity S-wave (km/s) = 3.01118 3.77027 3.41190
# Velocity P-wave (km/s) = 5.28708 6.73808 6.05619
#
# Compressibility (1/GPa) = 0.02847830
#
# Stress axis : x y z
#
# Youngs Moduli (GPa) = 79.27141 86.30530 41.86378
#
# Poissons Ratio (x) = 0.52017 0.31645
# Poissons Ratio (y) = 0.47777 -0.15828
# Poissons Ratio (z) = 0.59921 -0.32630
#
# Static dielectric constant tensor:
#      x y z
#    x 1.810050 0.001070 -0.019210 
#    y 0.001070 1.788460 0.010310 
#    z -0.019210 0.010310 1.866890 
# 
# From -- ./inp_files/198203.got.cif
#   From: 2010.05.17/outbox.cif.g08.bks.cpg/sg2_100_cif.got.tgz:198203.got - 2010.06.03 11:33:40.
