data_PCOD9066159
_publ_section_title
;
Structure prediction by ZEFSAII (Michael W. Deem and Ramdas Pophale) SiO2 
 PCOD9066159
Probable space group: P -1
;
_chemical_formula_sum "Si O2"
_cell_formula_units_Z 14
_cell_length_a 16.617737
_cell_length_b 22.350446
_cell_length_c 5.357808
_cell_angle_alpha 113.052133
_cell_angle_beta 57.053265
_cell_angle_gamma 156.254080
_cell_volume 638.347355
_symmetry_space_group_name_H-M "P -1"
_symmetry_group_IT_number 2
_symmetry_cell_setting 'triclinic'
loop_
_space_group_symop_operation_xyz
x,y,z
-x,-y,-z
loop_
_atom_site_type_symbol
_atom_site_label
_atom_site_fract_x
_atom_site_fract_y
_atom_site_fract_z
Si Si1 0.627733 0.821655 0.218885
Si Si2 0.555436 0.089807 0.257251
Si Si3 0.308666 0.400746 0.861125
Si Si4 0.172553 0.990453 0.314909
Si Si5 0.823477 0.141576 0.124847
Si Si6 0.286984 0.277349 0.069112
Si Si7 0.843135 0.399640 0.346550
O O1 0.712738 0.910257 0.468964
O O2 0.353732 0.666150 0.404428
O O3 0.748144 0.922092 0.924896
O O4 0.696318 0.789157 0.096681
O O5 0.719775 0.147242 0.250373
O O6 0.697006 0.244014 0.276337
O O7 0.304386 0.954418 0.560869
O O8 0.500000 0.000000 0.000000
O O9 0.500000 0.500000 0.500000
O O10 0.453733 0.537020 0.019457
O O11 0.213138 0.278465 0.967098
O O12 0.095948 0.308060 0.955329
O O13 0.898444 0.824584 0.564456
O O14 0.244260 0.959635 0.106428
O O15 0.000000 0.500000 0.500000
O O16 0.000000 0.500000 0.000000
#
# Coordination Sequence:
#
# PCOD9066159 Si02
#       7
#     2   2   2   2   2   2   2
#     4  12  27  46  77 104 150 195 248 299 382 445
#     4  11  27  47  81 108 142 206 260 307 377 448
#     4  11  25  45  69 105 150 190 244 307 372 440
#     4  12  24  47  74 109 144 193 245 312 358 461
#     4  11  25  45  77 103 147 187 259 304 366 446
#     4  11  27  43  71 108 145 195 240 303 377 447
#     4  12  29  50  73 113 157 193 250 320 384 447
#
# _framework density 21.931630999999999
#
# number of rings (size 3 to 8) (size 9 to 14) (size 15 to 20)
#    0.000    0.571    2.857    3.429   10.000    1.143 
#    0.000    0.000    0.000    0.000    0.000    0.000 
#    0.000    0.000    0.000    0.000    0.000    0.000 
#
# Total GULP energy -78126.403868 kJ/mol
# GULP energy per Si atom -5580.457419 kJ/mol
# Density = 2.188171 g / cm^3
# Si number density = 21.931631 Si / 1000 Ang^3
#
#
#
# Elastic Constant Matrix: (Units=GPa)
#
#
# Indices 1 2 3 4 5 6 
#
# 1 56.6444 1.8478 27.2073 0.6483 -2.0369 -8.5350
# 2 1.8478 71.6846 33.5365 0.5269 6.0180 11.5094
# 3 27.2073 33.5365 150.5971 -7.4164 2.3254 -2.5470
# 4 0.6483 0.5269 -7.4164 44.3658 3.4535 -5.3376
# 5 -2.0369 6.0180 2.3254 3.4535 44.7997 7.0489
# 6 -8.5350 11.5094 -2.5470 -5.3376 7.0489 40.2885
#
#
#
# Elastic Compliance Matrix: (Units=1/GPa)
#
#
# Indices 1 2 3 4 5 6 
#
# 1 0.019997 0.000596 -0.003716 -0.000516 0.000483 0.003678
# 2 0.000596 0.016670 -0.003952 -0.001365 -0.001136 -0.004868
# 3 -0.003716 -0.003952 0.008299 0.001656 -0.000378 0.001152
# 4 -0.000516 -0.001365 0.001656 0.023494 -0.002352 0.003910
# 5 0.000483 -0.001136 -0.000378 -0.002352 0.023325 -0.003990
# 6 0.003678 -0.004868 0.001152 0.003910 -0.003990 0.028280
#
#
# Mechanical properties :
#
#
# Convention : Reuss Voigt Hill
#
# Bulk Modulus (GPa) = 32.44498 44.90101 38.67300
# Shear Modulus (GPa) = 34.60618 40.31310 37.45964
#
# Velocity S-wave (km/s) = 3.97660 4.29199 4.13730
# Velocity P-wave (km/s) = 5.99252 6.71410 6.36355
#
# Compressibility (1/GPa) = 0.03082141
#
# Stress axis : x y z
#
# Youngs Moduli (GPa) = 50.00764 59.98623 120.50333
#
# Poissons Ratio (x) = -0.03573 0.44779
# Poissons Ratio (y) = -0.02979 0.47622
# Poissons Ratio (z) = 0.18583 0.23706
#
# Static dielectric constant tensor:
#      x y z
#    x 1.874100 0.011550 0.058960 
#    y 0.011550 1.966300 0.015570 
#    z 0.058960 0.015570 1.775190 
# 
# From -- ./inp_files/112968.got.cif
#   From: 2010.05.17/outbox.cif.g08.bks.cpg/sg2_57_cif.got.tgz:112968.got - 2010.06.03 11:33:40.
