data_PCOD9066592
_publ_section_title
;
Structure prediction by ZEFSAII (Michael W. Deem and Ramdas Pophale) SiO2 
 PCOD9066592
Probable space group: P -1
;
_chemical_formula_sum "Si O2"
_cell_formula_units_Z 16
_cell_length_a 14.823406
_cell_length_b 8.890933
_cell_length_c 8.242171
_cell_angle_alpha 85.200483
_cell_angle_beta 92.228461
_cell_angle_gamma 40.653403
_cell_volume 696.380987
_symmetry_space_group_name_H-M "P -1"
_symmetry_group_IT_number 2
_symmetry_cell_setting 'triclinic'
loop_
_space_group_symop_operation_xyz
x,y,z
-x,-y,-z
loop_
_atom_site_type_symbol
_atom_site_label
_atom_site_fract_x
_atom_site_fract_y
_atom_site_fract_z
Si Si1 0.352496 0.247231 0.032895
Si Si2 0.107300 0.619573 0.555133
Si Si3 0.856931 0.097523 0.322549
Si Si4 0.953563 0.436501 0.134337
Si Si5 0.608561 0.244053 0.451139
Si Si6 0.348659 0.145089 0.411063
Si Si7 0.422606 0.479183 0.111455
Si Si8 0.129728 0.947623 0.039823
O O1 0.331401 0.223680 0.219208
O O2 0.370559 0.403272 0.012673
O O3 0.213260 0.373177 0.920034
O O4 0.500000 0.000000 0.000000
O O5 0.142988 0.721877 0.661331
O O6 0.035084 0.584230 0.667616
O O7 0.234572 0.375540 0.494397
O O8 0.004905 0.830737 0.400115
O O9 0.744261 0.167050 0.425248
O O10 0.822610 0.089246 0.138821
O O11 0.000000 0.500000 0.000000
O O12 0.055154 0.173821 0.109282
O O13 0.500000 0.500000 0.500000
O O14 0.531016 0.292339 0.274837
O O15 0.651155 0.037424 0.565975
O O16 0.500000 0.000000 0.500000
O O17 0.500000 0.500000 0.000000
O O18 0.275539 0.721571 0.157759
O O19 0.000000 0.000000 0.000000
#
# Coordination Sequence:
#
# PCOD9066592 Si02
#       8
#     2   2   2   2   2   2   2   2
#     4  12  28  49  74 107 147 193 239 298 368 437
#     4  11  26  46  72 104 144 191 241 297 370 428
#     4  11  25  46  72 104 143 190 242 303 356 439
#     4  12  29  45  73 108 146 191 243 301 361 435
#     4  12  29  45  73 105 142 190 247 299 367 433
#     4  12  26  47  72 102 146 189 236 301 363 436
#     4  12  27  47  75 105 144 193 242 303 357 432
#     4  12  24  47  72 105 146 192 243 294 361 428
#
# _framework density 22.975930000000002
#
# number of rings (size 3 to 8) (size 9 to 14) (size 15 to 20)
#    0.000    0.250    5.000    2.250    8.750    0.500 
#    0.000    0.000    0.000    0.000    0.000    0.000 
#    0.000    0.000    0.000    0.000    0.000    0.000 
#
# Total GULP energy -89444.276632 kJ/mol
# GULP energy per Si atom -5590.267290 kJ/mol
# Density = 2.292364 g / cm^3
# Si number density = 22.975930 Si / 1000 Ang^3
#
#
#
# Elastic Constant Matrix: (Units=GPa)
#
#
# Indices 1 2 3 4 5 6 
#
# 1 80.3279 30.9940 3.5628 -9.7261 -31.4899 -11.9125
# 2 30.9940 193.2665 18.8272 9.5297 -21.6637 -16.9083
# 3 3.5628 18.8272 88.0472 -1.8644 -16.8291 4.2404
# 4 -9.7261 9.5297 -1.8644 38.4084 -6.8100 1.9398
# 5 -31.4899 -21.6637 -16.8291 -6.8100 44.5069 -5.1939
# 6 -11.9125 -16.9083 4.2404 1.9398 -5.1939 25.0980
#
#
#
# Elastic Compliance Matrix: (Units=1/GPa)
#
#
# Indices 1 2 3 4 5 6 
#
# 1 0.023939 -0.001074 0.002715 0.009399 0.020477 0.013691
# 2 -0.001074 0.006155 -0.001126 -0.001710 0.002061 0.004386
# 3 0.002715 -0.001126 0.012831 0.002783 0.006593 -0.000489
# 4 0.009399 -0.001710 0.002783 0.030946 0.011946 0.002920
# 5 0.020477 0.002061 0.006593 0.011946 0.044412 0.018261
# 6 0.013691 0.004386 -0.000489 0.002920 0.018261 0.052933
#
#
# Mechanical properties :
#
#
# Convention : Reuss Voigt Hill
#
# Bulk Modulus (GPa) = 22.75108 52.04551 37.39830
# Shear Modulus (GPa) = 27.05068 42.15316 34.60192
#
# Velocity S-wave (km/s) = 3.43497 4.28795 3.88494
# Velocity P-wave (km/s) = 5.06514 6.87144 6.03624
#
# Compressibility (1/GPa) = 0.04395396
#
# Stress axis : x y z
#
# Youngs Moduli (GPa) = 41.77321 162.46640 77.93514
#
# Poissons Ratio (x) = 0.17446 -0.21156
# Poissons Ratio (y) = 0.04486 0.08778
# Poissons Ratio (z) = -0.11339 0.18298
#
# Static dielectric constant tensor:
#      x y z
#    x 1.873950 -0.011820 -0.001570 
#    y -0.011820 1.653610 0.069230 
#    z -0.001570 0.069230 1.873570 
# 
# From -- ./inp_files/297853.got.cif
#   From: 2010.05.17/outbox.cif.g08.bks.cpg/sg2_149_cif.got.tgz:297853.got - 2010.06.03 11:33:40.
