data_PCOD9066941
_publ_section_title
;
Structure prediction by ZEFSAII (Michael W. Deem and Ramdas Pophale) SiO2 
 PCOD9066941
Probable space group: P -1
;
_chemical_formula_sum "Si O2"
_cell_formula_units_Z 14
_cell_length_a 5.471082
_cell_length_b 13.738847
_cell_length_c 18.124023
_cell_angle_alpha 31.618725
_cell_angle_beta 65.047057
_cell_angle_gamma 55.894813
_cell_volume 586.504224
_symmetry_space_group_name_H-M "P -1"
_symmetry_group_IT_number 2
_symmetry_cell_setting 'triclinic'
loop_
_space_group_symop_operation_xyz
x,y,z
-x,-y,-z
loop_
_atom_site_type_symbol
_atom_site_label
_atom_site_fract_x
_atom_site_fract_y
_atom_site_fract_z
Si Si1 0.714799 0.871050 0.950279
Si Si2 0.268785 0.535366 0.821527
Si Si3 0.581643 0.648063 0.842537
Si Si4 0.226562 0.838993 0.514880
Si Si5 0.896021 0.816640 0.121528
Si Si6 0.902171 0.577605 0.545797
Si Si7 0.038481 0.034931 0.687332
O O1 0.448800 0.077483 0.878822
O O2 0.594332 0.710685 0.038731
O O3 0.909390 0.768726 0.063944
O O4 0.892744 0.931662 0.827783
O O5 0.462571 0.614811 0.798095
O O6 0.235757 0.629450 0.683237
O O7 0.924430 0.597641 0.845480
O O8 0.386152 0.880887 0.741363
O O9 0.500000 0.500000 0.000000
O O10 0.572830 0.742439 0.506536
O O11 0.063692 0.957862 0.387090
O O12 0.000000 0.000000 0.500000
O O13 0.036849 0.617278 0.283720
O O14 0.000000 0.000000 0.000000
O O15 0.070117 0.724546 0.439318
O O16 0.000000 0.500000 0.500000
#
# Coordination Sequence:
#
# PCOD9066941 Si02
#       7
#     2   2   2   2   2   2   2
#     4  11  26  44  74 108 148 208 265 340 398 487
#     4  12  27  47  79 114 157 209 269 328 409 476
#     4  12  27  47  78 116 160 205 267 334 402 486
#     4  12  27  47  76 112 158 208 264 333 405 484
#     4  11  25  47  73 108 151 203 275 330 406 483
#     4  12  28  48  78 112 157 212 268 337 406 490
#     4  12  27  46  75 109 160 202 270 329 413 478
#
# _framework density 23.870246000000002
#
# number of rings (size 3 to 8) (size 9 to 14) (size 15 to 20)
#    0.000    0.286    2.857    4.714    6.000    6.857 
#    0.000    0.000    0.000    0.000    0.000    0.000 
#    0.000    0.000    0.000    0.000    0.000    0.000 
#
# Total GULP energy -78085.066096 kJ/mol
# GULP energy per Si atom -5577.504721 kJ/mol
# Density = 2.381592 g / cm^3
# Si number density = 23.870246 Si / 1000 Ang^3
#
#
#
# Elastic Constant Matrix: (Units=GPa)
#
#
# Indices 1 2 3 4 5 6 
#
# 1 43.3090 46.2861 15.5860 -5.3408 2.2665 7.6332
# 2 46.2861 144.3472 78.0861 8.8082 4.1578 -0.3530
# 3 15.5860 78.0861 168.2034 -4.0597 9.8775 12.8758
# 4 -5.3408 8.8082 -4.0597 47.6959 2.7889 5.8857
# 5 2.2665 4.1578 9.8775 2.7889 36.0744 -10.3535
# 6 7.6332 -0.3530 12.8758 5.8857 -10.3535 39.8563
#
#
#
# Elastic Compliance Matrix: (Units=1/GPa)
#
#
# Indices 1 2 3 4 5 6 
#
# 1 0.044330 -0.017951 0.005994 0.010951 -0.007247 -0.014085
# 2 -0.017951 0.016907 -0.007198 -0.006962 0.003977 0.007974
# 3 0.005994 -0.007198 0.009519 0.003784 -0.004146 -0.005923
# 4 0.010951 -0.006962 0.003784 0.025155 -0.005298 -0.008472
# 5 -0.007247 0.003977 -0.004146 -0.005298 0.032719 0.012044
# 6 -0.014085 0.007974 -0.005923 -0.008472 0.012044 0.034152
#
#
# Mechanical properties :
#
#
# Convention : Reuss Voigt Hill
#
# Bulk Modulus (GPa) = 30.81936 70.64178 50.73057
# Shear Modulus (GPa) = 23.59511 39.11875 31.35693
#
# Velocity S-wave (km/s) = 3.14741 4.05261 3.62835
# Velocity P-wave (km/s) = 5.11346 7.18029 6.23314
#
# Compressibility (1/GPa) = 0.03244714
#
# Stress axis : x y z
#
# Youngs Moduli (GPa) = 22.55794 59.14592 105.04968
#
# Poissons Ratio (x) = 1.06175 -0.62967
# Poissons Ratio (y) = 0.40495 0.75610
# Poissons Ratio (z) = -0.13521 0.42571
#
# Static dielectric constant tensor:
#      x y z
#    x 1.927570 -0.429120 -0.073510 
#    y -0.429120 0.174680 -0.217580 
#    z -0.073510 -0.217580 1.833060 
# 
# From -- ./inp_files/550001.got.cif
#   From: 2010.05.17/outbox.cif.g08.bks.cpg/sg2_276_cif.got.tgz:550001.got - 2010.06.03 11:33:40.
