data_PCOD9066285
_publ_section_title
;
Structure prediction by ZEFSAII (Michael W. Deem and Ramdas Pophale) SiO2 
 PCOD9066285
Probable space group: P -1
;
_chemical_formula_sum "Si O2"
_cell_formula_units_Z 14
_cell_length_a 9.537018
_cell_length_b 28.330050
_cell_length_c 8.991480
_cell_angle_alpha 153.611709
_cell_angle_beta 131.704720
_cell_angle_gamma 37.988489
_cell_volume 657.174609
_symmetry_space_group_name_H-M "P -1"
_symmetry_group_IT_number 2
_symmetry_cell_setting 'triclinic'
loop_
_space_group_symop_operation_xyz
x,y,z
-x,-y,-z
loop_
_atom_site_type_symbol
_atom_site_label
_atom_site_fract_x
_atom_site_fract_y
_atom_site_fract_z
Si Si1 0.963195 0.156651 0.288254
Si Si2 0.600939 0.397373 0.914311
Si Si3 0.189068 0.957745 0.388639
Si Si4 0.373950 0.143111 0.388556
Si Si5 0.008450 0.388379 0.284402
Si Si6 0.212122 0.378924 0.720118
Si Si7 0.768876 0.901153 0.425851
O O1 0.769907 0.263337 0.565236
O O2 0.124664 0.188777 0.405307
O O3 0.149777 0.054205 0.251323
O O4 0.847400 0.119451 0.980735
O O5 0.406726 0.400479 0.876333
O O6 0.500000 0.500000 0.000000
O O7 0.754037 0.421787 0.196561
O O8 0.442165 0.878538 0.418001
O O9 0.134276 0.084861 0.620866
O O10 0.000000 0.000000 0.500000
O O11 0.326362 0.248568 0.530419
O O12 0.500000 0.000000 0.000000
O O13 0.110753 0.372865 0.474737
O O14 0.000000 0.500000 0.500000
O O15 0.160483 0.244158 0.912288
O O16 0.000000 0.500000 0.000000
O O17 0.500000 0.000000 0.500000
#
# Coordination Sequence:
#
# PCOD9066285 Si02
#       7
#     2   2   2   2   2   2   2
#     4  11  26  43  74 104 147 186 245 288 359 426
#     4  11  25  47  74 105 139 190 249 291 352 437
#     4  12  26  43  70 107 149 187 233 296 365 420
#     4  12  26  45  70 108 152 184 233 301 359 422
#     4  11  26  47  75 103 144 188 243 295 356 429
#     4  12  29  47  75 105 147 188 240 300 366 423
#     4  11  25  45  73 107 140 189 239 293 356 426
#
# _framework density 21.303321
#
# number of rings (size 3 to 8) (size 9 to 14) (size 15 to 20)
#    0.000    0.571    4.286    2.143    8.000    1.714 
#    0.000    0.000    0.000    0.000    0.000    0.000 
#    0.000    0.000    0.000    0.000    0.000    0.000 
#
# Total GULP energy -78247.533286 kJ/mol
# GULP energy per Si atom -5589.109520 kJ/mol
# Density = 2.125483 g / cm^3
# Si number density = 21.303321 Si / 1000 Ang^3
#
#
#
# Elastic Constant Matrix: (Units=GPa)
#
#
# Indices 1 2 3 4 5 6 
#
# 1 171.2603 52.3294 56.8345 4.1201 21.7225 -1.5943
# 2 52.3294 173.3633 72.2825 -28.0255 28.4071 10.1349
# 3 56.8345 72.2825 112.9826 -20.4216 14.1738 -2.0290
# 4 4.1201 -28.0255 -20.4216 52.4486 2.5712 7.5831
# 5 21.7225 28.4071 14.1738 2.5712 32.8191 2.0426
# 6 -1.5943 10.1349 -2.0290 7.5831 2.0426 50.8479
#
#
#
# Elastic Compliance Matrix: (Units=1/GPa)
#
#
# Indices 1 2 3 4 5 6 
#
# 1 0.007625 -0.000891 -0.003339 -0.002350 -0.002696 0.000742
# 2 -0.000891 0.009628 -0.004228 0.004229 -0.006094 -0.002502
# 3 -0.003339 -0.004228 0.013906 0.003322 -0.000448 0.000815
# 4 -0.002350 0.004229 0.003322 0.023650 -0.005137 -0.004105
# 5 -0.002696 -0.006094 -0.000448 -0.005137 0.038103 0.000348
# 6 0.000742 -0.002502 0.000815 -0.004105 0.000348 0.020819
#
#
# Mechanical properties :
#
#
# Convention : Reuss Voigt Hill
#
# Bulk Modulus (GPa) = 70.20260 91.16656 80.68458
# Shear Modulus (GPa) = 36.92917 45.63378 41.28148
#
# Velocity S-wave (km/s) = 4.16804 4.63330 4.40682
# Velocity P-wave (km/s) = 7.49592 8.45640 7.99060
#
# Compressibility (1/GPa) = 0.01424449
#
# Stress axis : x y z
#
# Youngs Moduli (GPa) = 131.15300 103.85957 71.90933
#
# Poissons Ratio (x) = 0.09255 0.24009
# Poissons Ratio (y) = 0.11687 0.30401
# Poissons Ratio (z) = 0.43789 0.43908
#
# Static dielectric constant tensor:
#      x y z
#    x 1.746090 0.029800 0.046740 
#    y 0.029800 1.795200 -0.044860 
#    z 0.046740 -0.044860 1.820750 
# 
# From -- ./inp_files/227668.got.cif
#   From: 2010.05.17/outbox.cif.g08.bks.cpg/sg2_114_cif.got.tgz:227668.got - 2010.06.03 11:33:40.
