data_PCOD9066144
_publ_section_title
;
Structure prediction by ZEFSAII (Michael W. Deem and Ramdas Pophale) SiO2 
 PCOD9066144
Probable space group: P -1
;
_chemical_formula_sum "Si O2"
_cell_formula_units_Z 16
_cell_length_a 5.286126
_cell_length_b 9.513577
_cell_length_c 18.546204
_cell_angle_alpha 64.704650
_cell_angle_beta 113.140430
_cell_angle_gamma 123.775236
_cell_volume 685.780561
_symmetry_space_group_name_H-M "P -1"
_symmetry_group_IT_number 2
_symmetry_cell_setting 'triclinic'
loop_
_space_group_symop_operation_xyz
x,y,z
-x,-y,-z
loop_
_atom_site_type_symbol
_atom_site_label
_atom_site_fract_x
_atom_site_fract_y
_atom_site_fract_z
Si Si1 0.646759 0.039163 0.696128
Si Si2 0.485505 0.433266 0.354556
Si Si3 0.377135 0.109821 0.510359
Si Si4 0.376801 0.209505 0.728980
Si Si5 0.605566 0.275956 0.892675
Si Si6 0.952350 0.090256 0.045991
Si Si7 0.537282 0.574543 0.906998
Si Si8 0.797311 0.364656 0.268973
O O1 0.544192 0.127405 0.601274
O O2 0.504953 0.083205 0.740591
O O3 0.012496 0.109460 0.725598
O O4 0.474412 0.832962 0.708493
O O5 0.484377 0.294821 0.442114
O O6 0.579510 0.627498 0.352105
O O7 0.718862 0.458198 0.307489
O O8 0.121796 0.359174 0.309327
O O9 0.500000 0.000000 0.500000
O O10 0.000000 0.000000 0.500000
O O11 0.597845 0.303616 0.801204
O O12 0.623097 0.443912 0.899231
O O13 0.298905 0.083444 0.905142
O O14 0.840769 0.224811 0.971052
O O15 0.227868 0.218084 0.101004
O O16 0.000000 0.000000 0.000000
O O17 0.255058 0.567933 0.829332
O O18 0.500000 0.500000 0.000000
#
# Coordination Sequence:
#
# PCOD9066144 Si02
#       8
#     2   2   2   2   2   2   2   2
#     4  12  26  46  75 109 145 192 242 302 368 439
#     4  12  25  47  74 107 145 192 238 305 362 443
#     4  12  23  46  76 107 146 189 245 300 363 438
#     4  12  28  44  72 107 149 187 238 305 374 428
#     4  11  26  46  70  98 146 189 241 309 371 437
#     4  11  25  45  68 103 137 187 246 306 369 438
#     4  12  26  44  75 105 141 194 248 305 372 442
#     4  12  26  46  74 108 141 193 252 292 367 445
#
# _framework density 23.331078999999999
#
# number of rings (size 3 to 8) (size 9 to 14) (size 15 to 20)
#    0.000    0.250    5.000    3.375    5.250    2.000 
#    0.000    0.000    0.000    0.000    0.000    0.000 
#    0.000    0.000    0.000    0.000    0.000    0.000 
#
# Total GULP energy -89406.786553 kJ/mol
# GULP energy per Si atom -5587.924160 kJ/mol
# Density = 2.327798 g / cm^3
# Si number density = 23.331079 Si / 1000 Ang^3
#
#
#
# Elastic Constant Matrix: (Units=GPa)
#
#
# Indices 1 2 3 4 5 6 
#
# 1 102.2586 4.2021 27.0635 21.8806 36.0745 -8.9462
# 2 4.2021 114.3409 -43.5758 5.2770 -15.4867 3.1744
# 3 27.0635 -43.5758 130.2586 -0.4712 43.2115 -17.1961
# 4 21.8806 5.2770 -0.4712 48.3220 -2.2786 -3.1027
# 5 36.0745 -15.4867 43.2115 -2.2786 66.5369 -13.9509
# 6 -8.9462 3.1744 -17.1961 -3.1027 -13.9509 60.0808
#
#
#
# Elastic Compliance Matrix: (Units=1/GPa)
#
#
# Indices 1 2 3 4 5 6 
#
# 1 0.014242 -0.001636 -0.000995 -0.006658 -0.007730 -0.000216
# 2 -0.001636 0.010278 0.003468 -0.000266 0.001113 0.000450
# 3 -0.000995 0.003468 0.011082 0.000020 -0.005523 0.001559
# 4 -0.006658 -0.000266 0.000020 0.024044 0.004641 0.001348
# 5 -0.007730 0.001113 -0.005523 0.004641 0.023851 0.002987
# 6 -0.000216 0.000450 0.001559 0.001348 0.002987 0.017798
#
#
# Mechanical properties :
#
#
# Convention : Reuss Voigt Hill
#
# Bulk Modulus (GPa) = 26.82729 35.80419 31.31574
# Shear Modulus (GPa) = 44.62401 58.93250 51.77825
#
# Velocity S-wave (km/s) = 4.37812 5.03131 4.71604
# Velocity P-wave (km/s) = 6.08940 7.00939 6.56553
#
# Compressibility (1/GPa) = 0.03727548
#
# Stress axis : x y z
#
# Youngs Moduli (GPa) = 70.21269 97.29587 90.23794
#
# Poissons Ratio (x) = 0.15920 0.08977
# Poissons Ratio (y) = 0.11488 -0.31291
# Poissons Ratio (z) = 0.06985 -0.33739
#
# Static dielectric constant tensor:
#      x y z
#    x 1.940900 -0.024830 -0.041460 
#    y -0.024830 1.745460 0.103230 
#    z -0.041460 0.103230 1.891800 
# 
# From -- ./inp_files/125358.got.cif
#   From: 2010.05.17/outbox.cif.g08.bks.cpg/sg2_63_cif.got.tgz:125358.got - 2010.06.03 11:33:40.
