data_PCOD9066473
_publ_section_title
;
Structure prediction by ZEFSAII (Michael W. Deem and Ramdas Pophale) SiO2 
 PCOD9066473
Probable space group: P -1
;
_chemical_formula_sum "Si O2"
_cell_formula_units_Z 12
_cell_length_a 9.089492
_cell_length_b 10.670349
_cell_length_c 11.834716
_cell_angle_alpha 57.430531
_cell_angle_beta 142.396434
_cell_angle_gamma 124.671105
_cell_volume 567.176966
_symmetry_space_group_name_H-M "P -1"
_symmetry_group_IT_number 2
_symmetry_cell_setting 'triclinic'
loop_
_space_group_symop_operation_xyz
x,y,z
-x,-y,-z
loop_
_atom_site_type_symbol
_atom_site_label
_atom_site_fract_x
_atom_site_fract_y
_atom_site_fract_z
Si Si1 0.396415 0.651060 0.850038
Si Si2 0.732091 0.911004 0.428649
Si Si3 0.934338 0.831224 0.096611
Si Si4 0.048489 0.357581 0.238281
Si Si5 0.694008 0.142209 0.486742
Si Si6 0.786040 0.292704 0.869224
O O1 0.152857 0.643711 0.782578
O O2 0.356605 0.702263 0.671328
O O3 0.500000 0.500000 0.000000
O O4 0.642764 0.783240 0.972590
O O5 0.476226 0.840247 0.237818
O O6 0.781227 0.757553 0.585761
O O7 0.710486 0.045495 0.432966
O O8 0.000000 0.000000 0.500000
O O9 0.081361 0.815283 0.307758
O O10 0.021614 0.735879 0.095350
O O11 0.000000 0.000000 0.000000
O O12 0.221463 0.532199 0.243632
O O13 0.894905 0.300404 0.057549
O O14 0.500000 0.000000 0.500000
#
# Coordination Sequence:
#
# PCOD9066473 Si02
#       6
#     2   2   2   2   2   2
#     4  12  26  46  69 105 141 180 237 289 341 415
#     4  12  25  44  68 102 138 175 234 282 338 417
#     4  12  24  44  72 102 138 184 232 284 351 415
#     4  11  26  46  69 100 138 182 229 283 353 406
#     4  12  25  45  72 103 139 186 231 283 352 412
#     4  11  25  46  68  98 139 185 222 285 350 415
#
# _framework density 21.157419000000001
#
# number of rings (size 3 to 8) (size 9 to 14) (size 15 to 20)
#    0.000    0.333    6.667    1.500    2.333    1.333 
#    3.000    0.000    0.000    0.000    0.000    0.000 
#    0.000    0.000    0.000    0.000    0.000    0.000 
#
# Total GULP energy -66863.018999 kJ/mol
# GULP energy per Si atom -5571.918250 kJ/mol
# Density = 2.110926 g / cm^3
# Si number density = 21.157419 Si / 1000 Ang^3
#
#
#
# Elastic Constant Matrix: (Units=GPa)
#
#
# Indices 1 2 3 4 5 6 
#
# 1 17.8055 41.1320 32.0647 41.7713 2.6973 6.4813
# 2 41.1320 49.6700 3.0465 -31.1167 -18.6364 -1.0941
# 3 32.0647 3.0465 105.6176 -25.2298 -28.0627 6.2077
# 4 41.7713 -31.1167 -25.2298 33.3137 -1.3954 16.4131
# 5 2.6973 -18.6364 -28.0627 -1.3954 24.9108 2.7095
# 6 6.4813 -1.0941 6.2077 16.4131 2.7095 28.7387
#
#
#
# Elastic Compliance Matrix: (Units=1/GPa)
#
#
# Indices 1 2 3 4 5 6 
#
# 1 0.004146 0.007836 0.005132 0.011134 0.012831 -0.009313
# 2 0.007836 0.008396 -0.005218 -0.008211 -0.001395 0.004500
# 3 0.005132 -0.005218 0.008640 -0.003778 0.005232 -0.001558
# 4 0.011134 -0.008211 -0.003778 0.007767 -0.010577 -0.005446
# 5 0.012831 -0.001395 0.005232 -0.010577 0.043242 -0.002113
# 6 -0.009313 0.004500 -0.001558 -0.005446 -0.002113 0.040714
#
#
# Mechanical properties :
#
#
# Convention : Reuss Voigt Hill
#
# Bulk Modulus (GPa) = 27.26130 36.17551 31.71841
# Shear Modulus (GPa) = 45.60755 23.84930 34.72843
#
# Velocity S-wave (km/s) = 4.64791 3.36107 4.05585
# Velocity P-wave (km/s) = 6.45888 5.67431 6.07926
#
# Compressibility (1/GPa) = 0.03668203
#
# Stress axis : x y z
#
# Youngs Moduli (GPa) = 241.21257 119.10721 115.74280
#
# Poissons Ratio (x) = -0.93336 -0.59395
# Poissons Ratio (y) = -1.89021 0.60390
# Poissons Ratio (z) = -1.23781 0.62145
#
# Static dielectric constant tensor:
#      x y z
#    x 1.089820 -1.338810 1.064570 
#    y -1.338810 -1.023480 2.127990 
#    z 1.064570 2.127990 0.195230 
# 
# From -- ./inp_files/42801.got.cif
#   From: 2010.05.17/outbox.cif.g08.bks.cpg/sg2_22_cif.got.tgz:42801.got - 2010.06.03 11:33:40.
