data_PCOD9067296
_publ_section_title
;
Structure prediction by ZEFSAII (Michael W. Deem and Ramdas Pophale) SiO2 
 PCOD9067296
Probable space group: P -1
;
_chemical_formula_sum "Si O2"
_cell_formula_units_Z 16
_cell_length_a 5.936601
_cell_length_b 11.280945
_cell_length_c 21.872727
_cell_angle_alpha 31.730837
_cell_angle_beta 109.195235
_cell_angle_gamma 120.332702
_cell_volume 648.350982
_symmetry_space_group_name_H-M "P -1"
_symmetry_group_IT_number 2
_symmetry_cell_setting 'triclinic'
loop_
_space_group_symop_operation_xyz
x,y,z
-x,-y,-z
loop_
_atom_site_type_symbol
_atom_site_label
_atom_site_fract_x
_atom_site_fract_y
_atom_site_fract_z
Si Si1 0.266385 0.595143 0.688270
Si Si2 0.196462 0.007514 0.427259
Si Si3 0.382817 0.949044 0.917977
Si Si4 0.077093 0.780321 0.083624
Si Si5 0.595214 0.739100 0.450241
Si Si6 0.726578 0.010258 0.695594
Si Si7 0.292897 0.495197 0.036700
Si Si8 0.786652 0.673704 0.317975
O O1 0.211615 0.827520 0.560651
O O2 0.133263 0.383324 0.716858
O O3 0.143923 0.477702 0.793869
O O4 0.588606 0.705344 0.666098
O O5 0.892862 0.912635 0.423591
O O6 0.299893 0.961569 0.391173
O O7 0.452582 0.747739 0.979433
O O8 0.637382 0.147743 0.890802
O O9 0.298974 0.106341 0.794968
O O10 0.139198 0.798789 0.009301
O O11 0.000000 0.000000 0.000000
O O12 0.500000 0.500000 0.500000
O O13 0.447334 0.582336 0.565986
O O14 0.512570 0.938947 0.323243
O O15 0.749005 0.756577 0.821009
O O16 0.981884 0.233924 0.651751
O O17 0.500000 0.500000 0.000000
O O18 0.000000 0.500000 0.000000
#
# Coordination Sequence:
#
# PCOD9067296 Si02
#       8
#     2   2   2   2   2   2   2   2
#     4  11  25  48  77 109 161 206 263 339 396 499
#     4  11  26  49  71 115 153 205 262 322 422 470
#     4  11  27  48  77 115 154 213 272 329 415 486
#     4  11  25  48  77 112 152 210 268 336 403 488
#     4  12  25  45  80 112 155 206 263 336 409 492
#     4  12  27  48  76 112 161 204 266 334 414 491
#     4  12  31  51  78 117 166 217 273 339 409 499
#     4  12  23  47  77 112 155 202 267 326 410 485
#
# _framework density 24.677990999999999
#
# number of rings (size 3 to 8) (size 9 to 14) (size 15 to 20)
#    0.000    0.500    5.000    1.875    8.750    0.500 
#    2.250    0.000    0.000    0.000    0.000    0.000 
#    0.000    0.000    0.000    0.000    0.000    0.000 
#
# Total GULP energy -89424.427688 kJ/mol
# GULP energy per Si atom -5589.026731 kJ/mol
# Density = 2.462182 g / cm^3
# Si number density = 24.677991 Si / 1000 Ang^3
#
#
#
# Elastic Constant Matrix: (Units=GPa)
#
#
# Indices 1 2 3 4 5 6 
#
# 1 86.8996 21.4844 73.2637 2.2864 11.7844 -0.4888
# 2 21.4844 90.2997 28.0785 -4.1152 7.6880 3.1642
# 3 73.2637 28.0785 154.8679 -2.9682 1.6688 2.0343
# 4 2.2864 -4.1152 -2.9682 31.4144 -2.1656 -2.5259
# 5 11.7844 7.6880 1.6688 -2.1656 33.6683 0.7083
# 6 -0.4888 3.1642 2.0343 -2.5259 0.7083 53.2203
#
#
#
# Elastic Compliance Matrix: (Units=1/GPa)
#
#
# Indices 1 2 3 4 5 6 
#
# 1 0.021042 -0.001590 -0.009660 -0.003068 -0.006733 0.000601
# 2 -0.001590 0.012144 -0.001393 0.001386 -0.002046 -0.000590
# 3 -0.009660 -0.001393 0.011284 0.001780 0.003263 -0.000396
# 4 -0.003068 0.001386 0.001780 0.032702 0.002745 0.001337
# 5 -0.006733 -0.002046 0.003263 0.002745 0.032548 -0.000368
# 6 0.000601 -0.000590 -0.000396 0.001337 -0.000368 0.018914
#
#
# Mechanical properties :
#
#
# Convention : Reuss Voigt Hill
#
# Bulk Modulus (GPa) = 52.13029 64.19115 58.16072
# Shear Modulus (GPa) = 31.18839 37.60998 34.39918
#
# Velocity S-wave (km/s) = 3.55887 3.90812 3.73758
# Velocity P-wave (km/s) = 6.16908 6.81414 6.49961
#
# Compressibility (1/GPa) = 0.01918270
#
# Stress axis : x y z
#
# Youngs Moduli (GPa) = 47.52296 82.34653 88.62163
#
# Poissons Ratio (x) = 0.13095 0.85612
# Poissons Ratio (y) = 0.07557 0.12346
# Poissons Ratio (z) = 0.45909 0.11472
#
# Static dielectric constant tensor:
#      x y z
#    x 2.490850 -0.555840 0.160540 
#    y -0.555840 2.748910 -0.217490 
#    z 0.160540 -0.217490 2.012590 
# 
# From -- ./inp_files/604411.got.cif
#   From: 2010.05.17/outbox.cif.g08.bks.cpg/sg2_303_cif.got.tgz:604411.got - 2010.06.03 11:33:40.
