data_PCOD9067624
_publ_section_title
;
Structure prediction by ZEFSAII (Michael W. Deem and Ramdas Pophale) SiO2 
 PCOD9067624
Probable space group: P -1
;
_chemical_formula_sum "Si O2"
_cell_formula_units_Z 16
_cell_length_a 10.707152
_cell_length_b 7.190880
_cell_length_c 14.783118
_cell_angle_alpha 51.839915
_cell_angle_beta 64.263424
_cell_angle_gamma 44.340334
_cell_volume 625.443439
_symmetry_space_group_name_H-M "P -1"
_symmetry_group_IT_number 2
_symmetry_cell_setting 'triclinic'
loop_
_space_group_symop_operation_xyz
x,y,z
-x,-y,-z
loop_
_atom_site_type_symbol
_atom_site_label
_atom_site_fract_x
_atom_site_fract_y
_atom_site_fract_z
Si Si1 0.567539 0.200090 0.187485
Si Si2 0.363033 0.420621 0.661746
Si Si3 0.717426 0.362647 0.574499
Si Si4 0.861005 0.934208 0.046053
Si Si5 0.171000 0.802325 0.783726
Si Si6 0.711753 0.789769 0.976362
Si Si7 0.879408 0.712715 0.754079
Si Si8 0.212265 0.546293 0.286484
O O1 0.697210 0.127591 0.251256
O O2 0.372053 0.487829 0.194518
O O3 0.567429 0.921909 0.250676
O O4 0.671228 0.202967 0.070008
O O5 0.531633 0.416343 0.616945
O O6 0.270662 0.540294 0.557134
O O7 0.234498 0.634461 0.718674
O O8 0.971083 0.111657 0.760695
O O9 0.867578 0.003212 0.653631
O O10 0.187500 0.129483 0.015660
O O11 0.946651 0.623700 0.169890
O O12 0.000000 0.000000 0.000000
O O13 0.725624 0.531638 0.605826
O O14 0.206350 0.549293 0.917811
O O15 0.753982 0.799656 0.855750
O O16 0.500000 0.000000 0.000000
O O17 0.821172 0.660922 0.692920
#
# Coordination Sequence:
#
# PCOD9067624 Si02
#       8
#     2   2   2   2   2   2   2   2
#     4  12  25  50  80 112 159 205 266 328 404 477
#     4  11  25  51  81 114 160 215 267 336 401 481
#     4  11  26  48  80 115 163 211 270 333 406 472
#     4  12  27  49  79 118 163 212 270 340 398 488
#     4  12  26  51  80 119 155 210 271 334 395 481
#     4  12  27  50  82 113 162 219 269 324 410 488
#     4  12  26  46  73 115 161 206 262 330 400 476
#     4  12  27  46  81 114 160 206 267 333 396 480
#
# _framework density 25.581848000000001
#
# number of rings (size 3 to 8) (size 9 to 14) (size 15 to 20)
#    0.000    0.250    5.000    3.375    1.750    2.000 
#    0.000    3.750    0.000    0.000    0.000    0.000 
#    0.000    0.000    0.000    0.000    0.000    0.000 
#
# Total GULP energy -89681.805638 kJ/mol
# GULP energy per Si atom -5605.112852 kJ/mol
# Density = 2.552362 g / cm^3
# Si number density = 25.581848 Si / 1000 Ang^3
#
#
#
# Elastic Constant Matrix: (Units=GPa)
#
#
# Indices 1 2 3 4 5 6 
#
# 1 145.6482 64.1414 17.8113 16.4524 23.6448 26.6886
# 2 64.1414 173.6112 30.9580 24.1074 10.9411 -5.7562
# 3 17.8113 30.9580 77.1388 17.4396 24.3367 25.2870
# 4 16.4524 24.1074 17.4396 26.1377 8.5095 20.7939
# 5 23.6448 10.9411 24.3367 8.5095 34.9459 18.7633
# 6 26.6886 -5.7562 25.2870 20.7939 18.7633 60.4344
#
#
#
# Elastic Compliance Matrix: (Units=1/GPa)
#
#
# Indices 1 2 3 4 5 6 
#
# 1 0.009847 -0.004047 0.002022 0.001364 -0.004666 -0.004601
# 2 -0.004047 0.009410 -0.003123 -0.009999 0.000494 0.007277
# 3 0.002022 -0.003123 0.019551 -0.004351 -0.010463 -0.004626
# 4 0.001364 -0.009999 -0.004351 0.067755 0.001336 -0.023462
# 5 -0.004666 0.000494 -0.010463 0.001336 0.042414 -0.007143
# 6 -0.004601 0.007277 -0.004626 -0.023462 -0.007143 0.031497
#
#
# Mechanical properties :
#
#
# Convention : Reuss Voigt Hill
#
# Bulk Modulus (GPa) = 35.07116 69.13549 52.10332
# Shear Modulus (GPa) = 24.96567 43.20277 34.08422
#
# Velocity S-wave (km/s) = 3.12735 4.11397 3.65411
# Velocity P-wave (km/s) = 5.17490 7.04629 6.18182
#
# Compressibility (1/GPa) = 0.02851346
#
# Stress axis : x y z
#
# Youngs Moduli (GPa) = 101.55344 106.26497 51.14790
#
# Poissons Ratio (x) = 0.43000 -0.10343
# Poissons Ratio (y) = 0.41094 0.15975
# Poissons Ratio (z) = -0.20536 0.33189
#
# Static dielectric constant tensor:
#      x y z
#    x 2.082200 -0.039050 -0.010370 
#    y -0.039050 2.000660 0.035260 
#    z -0.010370 0.035260 2.004860 
# 
# From -- ./inp_files/527252.got.cif
#   From: 2010.05.17/outbox.cif.g08.bks.cpg/sg2_264_cif.got.tgz:527252.got - 2010.06.03 11:33:40.
