data_PCOD9067033
_publ_section_title
;
Structure prediction by ZEFSAII (Michael W. Deem and Ramdas Pophale) SiO2 
 PCOD9067033
Probable space group: P -1
;
_chemical_formula_sum "Si O2"
_cell_formula_units_Z 14
_cell_length_a 6.500295
_cell_length_b 9.575186
_cell_length_c 27.897562
_cell_angle_alpha 152.696208
_cell_angle_beta 56.157026
_cell_angle_gamma 129.285444
_cell_volume 616.408179
_symmetry_space_group_name_H-M "P -1"
_symmetry_group_IT_number 2
_symmetry_cell_setting 'triclinic'
loop_
_space_group_symop_operation_xyz
x,y,z
-x,-y,-z
loop_
_atom_site_type_symbol
_atom_site_label
_atom_site_fract_x
_atom_site_fract_y
_atom_site_fract_z
Si Si1 0.123995 0.257236 0.604930
Si Si2 0.253110 0.427374 0.381314
Si Si3 0.794505 0.721265 0.548021
Si Si4 0.543564 0.660880 0.903120
Si Si5 0.945685 0.804958 0.819870
Si Si6 0.015657 0.815467 0.157985
Si Si7 0.748630 0.695155 0.993911
O O1 0.438938 0.334938 0.593892
O O2 0.076951 0.596772 0.708204
O O3 0.000000 0.000000 0.500000
O O4 0.933646 0.086924 0.622053
O O5 0.236727 0.282854 0.392466
O O6 0.021337 0.578746 0.458818
O O7 0.172091 0.140594 0.265916
O O8 0.500000 0.500000 0.500000
O O9 0.674423 0.599960 0.818451
O O10 0.300398 0.325319 0.842164
O O11 0.694907 0.723721 0.953879
O O12 0.500000 0.000000 0.000000
O O13 0.909991 0.087813 0.877551
O O14 0.126526 0.963842 0.890680
O O15 0.072711 0.520075 0.085569
O O16 0.500000 0.500000 0.000000
#
# Coordination Sequence:
#
# PCOD9067033 Si02
#       7
#     2   2   2   2   2   2   2
#     4  12  26  47  77 104 149 196 256 312 378 452
#     4  11  27  45  75 109 144 200 246 315 383 445
#     4  11  25  47  76 103 148 191 254 311 383 441
#     4  12  27  46  75 108 152 195 251 307 373 454
#     4  12  27  45  74 109 146 201 250 310 376 444
#     4  12  27  46  72 107 153 190 247 307 377 447
#     4  12  24  47  75 102 151 194 242 304 378 449
#
# _framework density 22.712223000000002
#
# number of rings (size 3 to 8) (size 9 to 14) (size 15 to 20)
#    0.000    0.286    4.286    3.857    4.000    1.143 
#    0.000    0.000    0.000    0.000    0.000    0.000 
#    0.000    0.000    0.000    0.000    0.000    0.000 
#
# Total GULP energy -78190.256221 kJ/mol
# GULP energy per Si atom -5585.018301 kJ/mol
# Density = 2.266053 g / cm^3
# Si number density = 22.712223 Si / 1000 Ang^3
#
#
#
# Elastic Constant Matrix: (Units=GPa)
#
#
# Indices 1 2 3 4 5 6 
#
# 1 108.0687 53.5776 46.3375 -0.3662 19.6445 -6.4600
# 2 53.5776 152.4764 15.4610 5.0109 13.1626 -5.4064
# 3 46.3375 15.4610 87.4681 2.1395 14.5816 9.4237
# 4 -0.3662 5.0109 2.1395 30.1297 4.4428 2.9382
# 5 19.6445 13.1626 14.5816 4.4428 42.0885 8.6705
# 6 -6.4600 -5.4064 9.4237 2.9382 8.6705 42.7117
#
#
#
# Elastic Compliance Matrix: (Units=1/GPa)
#
#
# Indices 1 2 3 4 5 6 
#
# 1 0.015519 -0.004242 -0.007221 0.001655 -0.004453 0.004194
# 2 -0.004242 0.008085 0.000941 -0.001385 -0.000818 0.000435
# 3 -0.007221 0.000941 0.015798 -0.000749 -0.001472 -0.004108
# 4 0.001655 -0.001385 -0.000749 0.034132 -0.003390 -0.001420
# 5 -0.004453 -0.000818 -0.001472 -0.003390 0.028186 -0.005941
# 6 0.004194 0.000435 -0.004108 -0.001420 -0.005941 0.026312
#
#
# Mechanical properties :
#
#
# Convention : Reuss Voigt Hill
#
# Bulk Modulus (GPa) = 54.47110 64.30727 59.38919
# Shear Modulus (GPa) = 32.21766 38.49512 35.35639
#
# Velocity S-wave (km/s) = 3.77041 4.12139 3.94980
# Velocity P-wave (km/s) = 6.55666 7.14306 6.85613
#
# Compressibility (1/GPa) = 0.01835836
#
# Stress axis : x y z
#
# Youngs Moduli (GPa) = 64.43902 123.68469 63.29834
#
# Poissons Ratio (x) = 0.52467 0.45709
# Poissons Ratio (y) = 0.27335 -0.05959
# Poissons Ratio (z) = 0.46533 -0.11645
#
# Static dielectric constant tensor:
#      x y z
#    x 1.994990 0.107100 -0.082250 
#    y 0.107100 1.930320 -0.004150 
#    z -0.082250 -0.004150 1.889800 
# 
# From -- ./inp_files/615308.got.cif
#   From: 2010.05.17/outbox.cif.g08.bks.cpg/sg2_308_cif.got.tgz:615308.got - 2010.06.03 11:33:40.
