data_PCOD9067262
_publ_section_title
;
Structure prediction by ZEFSAII (Michael W. Deem and Ramdas Pophale) SiO2 
 PCOD9067262
Probable space group: P -1
;
_chemical_formula_sum "Si O2"
_cell_formula_units_Z 14
_cell_length_a 27.868844
_cell_length_b 22.574290
_cell_length_c 5.291711
_cell_angle_alpha 113.268957
_cell_angle_beta 67.938657
_cell_angle_gamma 169.318013
_cell_volume 565.330019
_symmetry_space_group_name_H-M "P -1"
_symmetry_group_IT_number 2
_symmetry_cell_setting 'triclinic'
loop_
_space_group_symop_operation_xyz
x,y,z
-x,-y,-z
loop_
_atom_site_type_symbol
_atom_site_label
_atom_site_fract_x
_atom_site_fract_y
_atom_site_fract_z
Si Si1 0.544949 0.730407 0.888471
Si Si2 0.296422 0.882514 0.104382
Si Si3 0.428931 0.668132 0.453055
Si Si4 0.054668 0.138998 0.547712
Si Si5 0.646293 0.727966 0.912621
Si Si6 0.014560 0.770870 0.539990
Si Si7 0.543635 0.125117 0.532271
O O1 0.302194 0.464877 0.773312
O O2 0.605975 0.855330 0.195320
O O3 0.472440 0.569257 0.852333
O O4 0.778728 0.000377 0.689107
O O5 0.360897 0.035917 0.296818
O O6 0.399189 0.967210 0.288907
O O7 0.000000 0.500000 0.000000
O O8 0.446361 0.050204 0.830491
O O9 0.212883 0.343867 0.325414
O O10 0.210953 0.457822 0.505611
O O11 0.000000 0.000000 0.500000
O O12 0.812941 0.889645 0.658010
O O13 0.500000 0.500000 0.000000
O O14 0.834827 0.002858 0.169884
O O15 0.847660 0.509409 0.540580
O O16 0.500000 0.000000 0.500000
#
# Coordination Sequence:
#
# PCOD9067262 Si02
#       7
#     2   2   2   2   2   2   2
#     4  12  26  46  76 108 146 210 250 316 396 450
#     4  11  26  51  80 115 155 203 260 329 398 473
#     4  11  25  48  76 105 152 199 257 320 387 470
#     4  12  26  45  72 109 152 197 260 319 381 465
#     4  12  26  45  72 109 152 197 260 319 381 465
#     4  11  25  48  76 105 152 199 257 320 387 470
#     4  11  26  51  80 115 155 203 260 329 398 473
#
# _framework density 24.764294
#
# number of rings (size 3 to 8) (size 9 to 14) (size 15 to 20)
#    0.000    0.571    2.857    4.286    6.000    4.571 
#    5.143    0.000    0.000    0.000    0.000    0.000 
#    0.000    0.000    0.000    0.000    0.000    0.000 
#
# Total GULP energy -78199.042443 kJ/mol
# GULP energy per Si atom -5585.645889 kJ/mol
# Density = 2.470793 g / cm^3
# Si number density = 24.764294 Si / 1000 Ang^3
#
#
#
# Elastic Constant Matrix: (Units=GPa)
#
#
# Indices 1 2 3 4 5 6 
#
# 1 122.6019 18.5640 13.1482 32.7245 18.2765 -12.2420
# 2 18.5640 113.2586 13.6155 -3.9788 -18.3145 -20.8415
# 3 13.1482 13.6155 118.5863 15.1553 -0.5805 11.7839
# 4 32.7245 -3.9788 15.1553 75.2757 28.0430 -5.9961
# 5 18.2765 -18.3145 -0.5805 28.0430 67.9943 2.8118
# 6 -12.2420 -20.8415 11.7839 -5.9961 2.8118 60.9661
#
#
#
# Elastic Compliance Matrix: (Units=1/GPa)
#
#
# Indices 1 2 3 4 5 6 
#
# 1 0.009786 -0.001708 -0.000572 -0.003497 -0.001704 0.001226
# 2 -0.001708 0.010391 -0.001438 0.000826 0.002763 0.003441
# 3 -0.000572 -0.001438 0.009211 -0.002216 0.000869 -0.002645
# 4 -0.003497 0.000826 -0.002216 0.017798 -0.006282 0.002049
# 5 -0.001704 0.002763 0.000869 -0.006282 0.018550 -0.001039
# 6 0.001226 0.003441 -0.002645 0.002049 -0.001039 0.018586
#
#
# Mechanical properties :
#
#
# Convention : Reuss Voigt Hill
#
# Bulk Modulus (GPa) = 45.55152 49.45579 47.50365
# Shear Modulus (GPa) = 50.46614 61.45516 55.96065
#
# Velocity S-wave (km/s) = 4.51916 4.98697 4.75882
# Velocity P-wave (km/s) = 6.75754 7.29204 7.02987
#
# Compressibility (1/GPa) = 0.02195317
#
# Stress axis : x y z
#
# Youngs Moduli (GPa) = 102.18322 96.23635 108.56035
#
# Poissons Ratio (x) = 0.16437 0.06212
# Poissons Ratio (y) = 0.17452 0.15607
# Poissons Ratio (z) = 0.05847 0.13836
#
# Static dielectric constant tensor:
#      x y z
#    x 2.000340 0.109440 -0.023610 
#    y 0.109440 1.875620 0.123710 
#    z -0.023610 0.123710 1.825750 
# 
# From -- ./inp_files/128815.got.cif
#   From: 2010.05.17/outbox.cif.g08.bks.cpg/sg2_65_cif.got.tgz:128815.got - 2010.06.03 11:33:40.
