data_PCOD9067162
_publ_section_title
;
Structure prediction by ZEFSAII (Michael W. Deem and Ramdas Pophale) SiO2 
 PCOD9067162
Probable space group: P -1
;
_chemical_formula_sum "Si O2"
_cell_formula_units_Z 14
_cell_length_a 16.189857
_cell_length_b 9.332949
_cell_length_c 11.067815
_cell_angle_alpha 40.926718
_cell_angle_beta 146.249783
_cell_angle_gamma 128.818366
_cell_volume 608.646729
_symmetry_space_group_name_H-M "P -1"
_symmetry_group_IT_number 2
_symmetry_cell_setting 'triclinic'
loop_
_space_group_symop_operation_xyz
x,y,z
-x,-y,-z
loop_
_atom_site_type_symbol
_atom_site_label
_atom_site_fract_x
_atom_site_fract_y
_atom_site_fract_z
Si Si1 0.177144 0.895085 0.716718
Si Si2 0.271503 0.384205 0.575671
Si Si3 0.941622 0.879515 0.229519
Si Si4 0.386420 0.610811 0.997970
Si Si5 0.878045 0.317850 0.956865
Si Si6 0.816684 0.280377 0.547725
Si Si7 0.339573 0.113583 0.250941
O O1 0.040894 0.838438 0.495987
O O2 0.202170 0.154641 0.596703
O O3 0.320485 0.779283 0.907348
O O4 0.150759 0.798667 0.878018
O O5 0.440790 0.350786 0.840047
O O6 0.265721 0.559925 0.347509
O O7 0.185756 0.519341 0.489185
O O8 0.024591 0.759849 0.297004
O O9 0.763929 0.849905 0.018350
O O10 0.946805 0.141840 0.060488
O O11 0.362099 0.359375 0.169075
O O12 0.295360 0.655792 0.736630
O O13 0.000000 0.500000 0.000000
O O14 0.753306 0.056104 0.671585
O O15 0.500000 0.000000 0.500000
#
# Coordination Sequence:
#
# PCOD9067162 Si02
#       7
#     2   2   2   2   2   2   2
#     4  11  28  47  72 104 146 191 242 296 354 435
#     4  12  25  46  74 106 145 191 237 297 364 425
#     4  11  25  48  71 108 141 189 239 298 359 423
#     4  11  27  46  72 108 143 192 238 297 363 425
#     4  12  26  44  70 103 143 187 243 291 359 423
#     4  11  26  45  74 107 145 189 239 302 355 433
#     4  12  25  45  74 109 145 183 241 294 365 423
#
# _framework density 23.001847999999999
#
# number of rings (size 3 to 8) (size 9 to 14) (size 15 to 20)
#    0.000    0.571    4.286    1.714    4.000    4.000 
#    0.000    0.000    0.000    0.000    0.000    0.000 
#    0.000    0.000    0.000    0.000    0.000    0.000 
#
# Total GULP energy -78299.428772 kJ/mol
# GULP energy per Si atom -5592.816341 kJ/mol
# Density = 2.294949 g / cm^3
# Si number density = 23.001848 Si / 1000 Ang^3
#
#
#
# Elastic Constant Matrix: (Units=GPa)
#
#
# Indices 1 2 3 4 5 6 
#
# 1 92.5759 61.7071 59.5854 -20.8048 7.9305 -21.2371
# 2 61.7071 135.3903 43.5768 -22.9639 11.8605 -16.7763
# 3 59.5854 43.5768 158.0685 -5.4642 9.2810 -4.8393
# 4 -20.8048 -22.9639 -5.4642 43.5728 10.2518 5.3333
# 5 7.9305 11.8605 9.2810 10.2518 34.9352 -12.7384
# 6 -21.2371 -16.7763 -4.8393 5.3333 -12.7384 35.4008
#
#
#
# Elastic Compliance Matrix: (Units=1/GPa)
#
#
# Indices 1 2 3 4 5 6 
#
# 1 0.022044 -0.006076 -0.006198 0.005389 0.000335 0.008806
# 2 -0.006076 0.011235 -0.000476 0.003813 -0.003509 -0.000223
# 3 -0.006198 -0.000476 0.008738 -0.001396 -0.001461 -0.003065
# 4 0.005389 0.003813 -0.001396 0.030920 -0.012835 -0.004427
# 5 0.000335 -0.003509 -0.001461 -0.012835 0.039127 0.014351
# 6 0.008806 -0.000223 -0.003065 -0.004427 0.014351 0.038837
#
#
# Mechanical properties :
#
#
# Convention : Reuss Voigt Hill
#
# Bulk Modulus (GPa) = 60.54674 79.53038 70.03856
# Shear Modulus (GPa) = 27.48651 37.52612 32.50631
#
# Velocity S-wave (km/s) = 3.46058 4.04349 3.76334
# Velocity P-wave (km/s) = 6.50747 7.51335 7.02843
#
# Compressibility (1/GPa) = 0.01651617
#
# Stress axis : x y z
#
# Youngs Moduli (GPa) = 45.36330 89.00702 114.44539
#
# Poissons Ratio (x) = 0.54082 0.70938
# Poissons Ratio (y) = 0.27564 0.05446
# Poissons Ratio (z) = 0.28118 0.04235
#
# Static dielectric constant tensor:
#      x y z
#    x 1.894230 -0.011800 -0.045340 
#    y -0.011800 1.861020 0.018250 
#    z -0.045340 0.018250 1.917250 
# 
# From -- ./inp_files/461839.got.cif
#   From: 2010.05.17/outbox.cif.g08.bks.cpg/sg2_231_cif.got.tgz:461839.got - 2010.06.03 11:33:40.
