data_PCOD9067017
_publ_section_title
;
Structure prediction by ZEFSAII (Michael W. Deem and Ramdas Pophale) SiO2 
 PCOD9067017
Probable space group: P -1
;
_chemical_formula_sum "Si O2"
_cell_formula_units_Z 14
_cell_length_a 14.260657
_cell_length_b 9.599082
_cell_length_c 14.421178
_cell_angle_alpha 36.641661
_cell_angle_beta 31.859708
_cell_angle_gamma 40.421711
_cell_volume 601.601887
_symmetry_space_group_name_H-M "P -1"
_symmetry_group_IT_number 2
_symmetry_cell_setting 'triclinic'
loop_
_space_group_symop_operation_xyz
x,y,z
-x,-y,-z
loop_
_atom_site_type_symbol
_atom_site_label
_atom_site_fract_x
_atom_site_fract_y
_atom_site_fract_z
Si Si1 0.700510 0.634125 0.544720
Si Si2 0.447190 0.532649 0.663417
Si Si3 0.417466 0.745277 0.889761
Si Si4 0.059541 0.557724 0.023042
Si Si5 0.985999 0.756131 0.591724
Si Si6 0.620984 0.078304 0.641308
Si Si7 0.004334 0.918306 0.144785
O O1 0.593376 0.647958 0.530181
O O2 0.530067 0.711891 0.716861
O O3 0.849620 0.371459 0.549249
O O4 0.833076 0.806928 0.363187
O O5 0.547803 0.265755 0.685703
O O6 0.350980 0.725569 0.563016
O O7 0.279225 0.495818 0.884321
O O8 0.465929 0.961279 0.791553
O O9 0.500000 0.500000 0.000000
O O10 0.204999 0.748381 0.070939
O O11 0.999728 0.432130 0.232545
O O12 0.000000 0.500000 0.000000
O O13 0.996061 0.845369 0.924440
O O14 0.794437 0.859520 0.641085
O O15 0.000000 0.000000 0.500000
O O16 0.000000 0.000000 0.000000
#
# Coordination Sequence:
#
# PCOD9067017 Si02
#       7
#     2   2   2   2   2   2   2
#     4  12  27  49  77 110 148 201 252 309 372 447
#     4  11  25  47  79 107 146 198 255 305 373 444
#     4  12  29  47  74 111 153 194 250 310 380 446
#     4  12  27  46  78 113 149 198 255 304 372 449
#     4  12  26  48  74 110 156 191 245 316 375 440
#     4  11  25  47  75 109 147 195 251 314 371 442
#     4  12  25  49  77 108 150 196 254 308 367 446
#
# _framework density 23.271203
#
# number of rings (size 3 to 8) (size 9 to 14) (size 15 to 20)
#    0.000    0.286    2.857    5.143    4.000    8.000 
#    0.000    0.000    0.000    0.000    0.000    0.000 
#    0.000    0.000    0.000    0.000    0.000    0.000 
#
# Total GULP energy -78116.732299 kJ/mol
# GULP energy per Si atom -5579.766593 kJ/mol
# Density = 2.321824 g / cm^3
# Si number density = 23.271203 Si / 1000 Ang^3
#
#
#
# Elastic Constant Matrix: (Units=GPa)
#
#
# Indices 1 2 3 4 5 6 
#
# 1 93.5373 42.9740 13.8106 10.0993 -14.4155 -8.3038
# 2 42.9740 130.8727 28.5150 0.9597 -1.5885 4.8717
# 3 13.8106 28.5150 72.8209 12.1092 -19.0039 11.7957
# 4 10.0993 0.9597 12.1092 37.9422 -3.3844 -11.6082
# 5 -14.4155 -1.5885 -19.0039 -3.3844 16.7291 4.3831
# 6 -8.3038 4.8717 11.7957 -11.6082 4.3831 42.8384
#
#
#
# Elastic Compliance Matrix: (Units=1/GPa)
#
#
# Indices 1 2 3 4 5 6 
#
# 1 0.015890 -0.005988 0.004750 -0.004157 0.017808 -0.000495
# 2 -0.005988 0.010901 -0.006959 0.002950 -0.011832 0.001526
# 3 0.004750 -0.006959 0.029575 -0.011208 0.038268 -0.013384
# 4 -0.004157 0.002950 -0.011208 0.033626 -0.012463 0.012332
# 5 0.017808 -0.011832 0.038268 -0.012463 0.120569 -0.021453
# 6 -0.000495 0.001526 -0.013384 0.012332 -0.021453 0.032296
#
#
# Mechanical properties :
#
#
# Convention : Reuss Voigt Hill
#
# Bulk Modulus (GPa) = 25.01657 51.98112 38.49884
# Shear Modulus (GPa) = 18.34367 33.63070 25.98718
#
# Velocity S-wave (km/s) = 2.81064 3.80566 3.34535
# Velocity P-wave (km/s) = 4.61587 6.45727 5.61260
#
# Compressibility (1/GPa) = 0.03997351
#
# Stress axis : x y z
#
# Youngs Moduli (GPa) = 62.93316 91.73272 33.81257
#
# Poissons Ratio (x) = 0.54925 -0.16061
# Poissons Ratio (y) = 0.37681 0.23529
# Poissons Ratio (z) = -0.29893 0.63834
#
# Static dielectric constant tensor:
#      x y z
#    x -0.003370 -0.505210 0.079110 
#    y -0.505210 1.759750 0.001930 
#    z 0.079110 0.001930 1.948360 
# 
# From -- ./inp_files/529253.got.cif
#   From: 2010.05.17/outbox.cif.g08.bks.cpg/sg2_265_cif.got.tgz:529253.got - 2010.06.03 11:33:40.
