data_PCOD9067295
_publ_section_title
;
Structure prediction by ZEFSAII (Michael W. Deem and Ramdas Pophale) SiO2 
 PCOD9067295
Probable space group: P -1
;
_chemical_formula_sum "Si O2"
_cell_formula_units_Z 14
_cell_length_a 14.696337
_cell_length_b 8.591396
_cell_length_c 5.110630
_cell_angle_alpha 80.297694
_cell_angle_beta 92.916688
_cell_angle_gamma 62.448116
_cell_volume 557.754309
_symmetry_space_group_name_H-M "P -1"
_symmetry_group_IT_number 2
_symmetry_cell_setting 'triclinic'
loop_
_space_group_symop_operation_xyz
x,y,z
-x,-y,-z
loop_
_atom_site_type_symbol
_atom_site_label
_atom_site_fract_x
_atom_site_fract_y
_atom_site_fract_z
Si Si1 0.237651 0.443505 0.295481
Si Si2 0.752196 0.845138 0.249668
Si Si3 0.903789 0.691643 0.930123
Si Si4 0.830359 0.025197 0.540566
Si Si5 0.117326 0.843308 0.010005
Si Si6 0.450181 0.871632 0.080281
Si Si7 0.529175 0.631302 0.648946
O O1 0.252093 0.331833 0.599879
O O2 0.196984 0.332087 0.144335
O O3 0.144804 0.643996 0.164530
O O4 0.346776 0.442277 0.269204
O O5 0.741581 0.982870 0.440581
O O6 0.668825 0.982596 0.002516
O O7 0.868951 0.780596 0.181684
O O8 0.918245 0.824647 0.697994
O O9 0.000000 0.500000 0.000000
O O10 0.809183 0.126588 0.781443
O O11 0.855715 0.131932 0.290750
O O12 0.000000 0.000000 0.000000
O O13 0.480417 0.714244 0.905857
O O14 0.488513 0.794675 0.393708
O O15 0.500000 0.000000 0.000000
O O16 0.500000 0.500000 0.500000
#
# Coordination Sequence:
#
# PCOD9067295 Si02
#       7
#     2   2   2   2   2   2   2
#     4  11  28  44  75 111 155 192 260 307 384 450
#     4  11  26  46  77 108 148 200 258 312 374 452
#     4  11  25  48  77 109 151 199 259 316 372 446
#     4  11  26  45  71 103 143 193 250 293 379 432
#     4  12  27  47  72 106 150 197 242 311 377 450
#     4  12  26  49  80 107 152 197 265 313 384 457
#     4  12  29  49  76 116 157 200 248 323 395 461
#
# _framework density 25.100657000000002
#
# number of rings (size 3 to 8) (size 9 to 14) (size 15 to 20)
#    0.000    0.571    2.857    3.000   12.000    1.143 
#    0.000    0.000    0.000    0.000    0.000    0.000 
#    0.000    0.000    0.000    0.000    0.000    0.000 
#
# Total GULP energy -78021.165772 kJ/mol
# GULP energy per Si atom -5572.940412 kJ/mol
# Density = 2.504353 g / cm^3
# Si number density = 25.100657 Si / 1000 Ang^3
#
#
#
# Elastic Constant Matrix: (Units=GPa)
#
#
# Indices 1 2 3 4 5 6 
#
# 1 94.1070 38.2426 17.4975 4.3965 3.5204 -0.4586
# 2 38.2426 106.6293 33.3825 -12.0430 5.0340 -7.9327
# 3 17.4975 33.3825 125.9787 -1.8926 -6.0905 -10.9361
# 4 4.3965 -12.0430 -1.8926 47.2946 4.3289 4.7054
# 5 3.5204 5.0340 -6.0905 4.3289 34.9097 -1.6334
# 6 -0.4586 -7.9327 -10.9361 4.7054 -1.6334 48.6618
#
#
#
# Elastic Compliance Matrix: (Units=1/GPa)
#
#
# Indices 1 2 3 4 5 6 
#
# 1 0.012760 -0.004654 -0.000646 -0.002297 -0.000471 -0.000577
# 2 -0.004654 0.012450 -0.002619 0.003601 -0.002184 0.000976
# 3 -0.000646 -0.002619 0.008966 -0.000617 0.002164 0.001714
# 4 -0.002297 0.003601 -0.000617 0.022739 -0.003303 -0.001883
# 5 -0.000471 -0.002184 0.002164 -0.003303 0.029863 0.001448
# 6 -0.000577 0.000976 0.001714 -0.001883 0.001448 0.021319
#
#
# Mechanical properties :
#
#
# Convention : Reuss Voigt Hill
#
# Bulk Modulus (GPa) = 54.53796 56.10669 55.32233
# Shear Modulus (GPa) = 38.44717 42.01273 40.22995
#
# Velocity S-wave (km/s) = 3.91796 4.09561 4.00777
# Velocity P-wave (km/s) = 6.49940 6.69078 6.59578
#
# Compressibility (1/GPa) = 0.01833585
#
# Stress axis : x y z
#
# Youngs Moduli (GPa) = 78.37148 80.32198 111.53390
#
# Poissons Ratio (x) = 0.37382 0.07209
# Poissons Ratio (y) = 0.36474 0.29215
# Poissons Ratio (z) = 0.05066 0.21040
#
# Static dielectric constant tensor:
#      x y z
#    x 2.051500 0.079280 0.016750 
#    y 0.079280 2.099350 0.172090 
#    z 0.016750 0.172090 2.168550 
# 
# From -- ./inp_files/104958.got.cif
#   From: 2010.05.17/outbox.cif.g08.bks.cpg/sg2_53_cif.got.tgz:104958.got - 2010.06.03 11:33:40.
