data_PCOD9067585
_publ_section_title
;
Structure prediction by ZEFSAII (Michael W. Deem and Ramdas Pophale) SiO2 
 PCOD9067585
Probable space group: P -1
;
_chemical_formula_sum "Si O2"
_cell_formula_units_Z 11
_cell_length_a 6.153883
_cell_length_b 11.123843
_cell_length_c 12.040994
_cell_angle_alpha 46.654271
_cell_angle_beta 130.567075
_cell_angle_gamma 114.706099
_cell_volume 454.747505
_symmetry_space_group_name_H-M "P -1"
_symmetry_group_IT_number 2
_symmetry_cell_setting 'triclinic'
loop_
_space_group_symop_operation_xyz
x,y,z
-x,-y,-z
loop_
_atom_site_type_symbol
_atom_site_label
_atom_site_fract_x
_atom_site_fract_y
_atom_site_fract_z
Si Si1 0.211456 0.271627 0.588881
Si Si2 0.500000 0.000000 0.000000
Si Si3 0.694739 0.505829 0.834532
Si Si4 0.398931 0.210086 0.037488
Si Si5 0.190888 0.631426 0.288675
Si Si6 0.607633 0.170740 0.383343
O O1 0.287806 0.168156 0.791338
O O2 0.124655 0.470387 0.441162
O O3 0.524987 0.284499 0.628832
O O4 0.948323 0.191435 0.491505
O O5 0.468522 0.933353 0.905547
O O6 0.740929 0.441404 0.765858
O O7 0.544069 0.685385 0.683542
O O8 0.506166 0.382077 0.918716
O O9 0.000000 0.500000 0.000000
O O10 0.500158 0.191695 0.208644
O O11 0.055503 0.228304 0.903921
O O12 0.500000 0.000000 0.500000
#
# Coordination Sequence:
#
# PCOD9067585 Si02
#       6
#     2   1   2   2   2   2
#     4  11  27  50  76 117 155 207 259 325 385 469
#     4  12  30  48  78 110 168 196 260 326 388 456
#     4  12  24  48  83 116 151 210 257 321 393 471
#     4  12  27  54  77 116 155 210 264 322 391 472
#     4  11  25  50  83 110 155 208 267 318 392 473
#     4  12  29  49  83 118 161 204 261 329 395 461
#
# _framework density 24.189250000000001
#
# number of rings (size 3 to 8) (size 9 to 14) (size 15 to 20)
#    0.000    0.364    5.455    1.636    7.636    5.818 
#    0.000    0.000    0.000    0.000    0.000    0.000 
#    0.000    0.000    0.000    0.000    0.000    0.000 
#
# Total GULP energy -61344.069142 kJ/mol
# GULP energy per Si atom -5576.733558 kJ/mol
# Density = 2.413419 g / cm^3
# Si number density = 24.189250 Si / 1000 Ang^3
#
#
#
# Elastic Constant Matrix: (Units=GPa)
#
#
# Indices 1 2 3 4 5 6 
#
# 1 81.4855 67.5123 51.9362 14.2939 1.4680 -4.2785
# 2 67.5123 135.0412 52.7090 -11.4322 6.7876 8.2691
# 3 51.9362 52.7090 164.8187 7.9743 4.2734 14.3552
# 4 14.2939 -11.4322 7.9743 45.1516 18.8887 3.0749
# 5 1.4680 6.7876 4.2734 18.8887 48.5412 16.8717
# 6 -4.2785 8.2691 14.3552 3.0749 16.8717 53.3178
#
#
#
# Elastic Compliance Matrix: (Units=1/GPa)
#
#
# Indices 1 2 3 4 5 6 
#
# 1 0.031310 -0.015820 -0.004645 -0.015999 0.006088 0.005213
# 2 -0.015820 0.017027 -0.000662 0.011947 -0.005569 -0.002659
# 3 -0.004645 -0.000662 0.007959 -0.000125 0.000469 -0.002554
# 4 -0.015999 0.011947 -0.000125 0.036697 -0.015327 -0.000369
# 5 0.006088 -0.005569 0.000469 -0.015327 0.029646 -0.007271
# 6 0.005213 -0.002659 -0.002554 -0.000369 -0.007271 0.022596
#
#
# Mechanical properties :
#
#
# Convention : Reuss Voigt Hill
#
# Bulk Modulus (GPa) = 71.21404 80.62894 75.92149
# Shear Modulus (GPa) = 26.01884 43.34800 34.68342
#
# Velocity S-wave (km/s) = 3.28325 4.23784 3.79071
# Velocity P-wave (km/s) = 6.62399 7.57302 7.11435
#
# Compressibility (1/GPa) = 0.01404218
#
# Stress axis : x y z
#
# Youngs Moduli (GPa) = 31.93855 58.73128 125.64388
#
# Poissons Ratio (x) = 0.92912 0.58359
# Poissons Ratio (y) = 0.50526 0.08320
# Poissons Ratio (z) = 0.14835 0.03889
#
# Static dielectric constant tensor:
#      x y z
#    x 1.860940 0.119490 -0.047600 
#    y 0.119490 1.869890 0.019970 
#    z -0.047600 0.019970 1.902540 
# 
# From -- ./inp_files/361773.got.cif
#   From: 2010.05.17/outbox.cif.g08.bks.cpg/sg2_181_cif.got.tgz:361773.got - 2010.06.03 11:33:40.
