data_PCOD9067186
_publ_section_title
;
Structure prediction by ZEFSAII (Michael W. Deem and Ramdas Pophale) SiO2 
 PCOD9067186
Probable space group: P -1
;
_chemical_formula_sum "Si O2"
_cell_formula_units_Z 14
_cell_length_a 4.933834
_cell_length_b 15.172697
_cell_length_c 7.290256
_cell_angle_alpha 85.000040
_cell_angle_beta 104.409349
_cell_angle_gamma 102.837180
_cell_volume 515.072574
_symmetry_space_group_name_H-M "P -1"
_symmetry_group_IT_number 2
_symmetry_cell_setting 'triclinic'
loop_
_space_group_symop_operation_xyz
x,y,z
-x,-y,-z
loop_
_atom_site_type_symbol
_atom_site_label
_atom_site_fract_x
_atom_site_fract_y
_atom_site_fract_z
Si Si1 0.645621 0.855792 0.206161
Si Si2 0.767705 0.048002 0.657458
Si Si3 0.011838 0.601172 0.300741
Si Si4 0.832973 0.862649 0.819865
Si Si5 0.572745 0.512434 0.792510
Si Si6 0.415722 0.687724 0.673976
Si Si7 0.188073 0.721619 0.006912
O O1 0.410485 0.909744 0.228178
O O2 0.467197 0.753659 0.176752
O O3 0.950017 0.875980 0.360106
O O4 0.729431 0.877871 0.005214
O O5 0.500000 0.000000 0.500000
O O6 0.913598 0.962760 0.738104
O O7 0.187856 0.538087 0.230019
O O8 0.189739 0.658603 0.481344
O O9 0.957104 0.668641 0.117543
O O10 0.725202 0.538955 0.338483
O O11 0.584997 0.792189 0.682716
O O12 0.082373 0.807980 0.893230
O O13 0.623305 0.616537 0.721128
O O14 0.500000 0.500000 0.000000
O O15 0.271201 0.672361 0.852605
#
# Coordination Sequence:
#
# PCOD9067186 Si02
#       7
#     2   2   2   2   2   2   2
#     4  11  25  48  72  98 145 188 240 289 371 426
#     4  12  27  47  72 107 140 188 243 298 358 436
#     4  12  28  47  76 105 148 194 241 302 362 428
#     4  11  26  46  75 102 146 189 239 303 361 433
#     4  12  25  49  75 104 146 198 241 298 362 431
#     4  11  27  45  73 111 146 187 251 295 366 429
#     4  11  26  48  75 109 149 195 237 307 364 429
#
# _framework density 27.180634999999999
#
# number of rings (size 3 to 8) (size 9 to 14) (size 15 to 20)
#    0.000    0.571    2.857    3.429   12.000    0.000 
#    2.571    0.000    0.000    0.000    0.000    0.000 
#    0.000    0.000    0.000    0.000    0.000    0.000 
#
# Total GULP energy -78447.132871 kJ/mol
# GULP energy per Si atom -5603.366634 kJ/mol
# Density = 2.711877 g / cm^3
# Si number density = 27.180635 Si / 1000 Ang^3
#
#
#
# Elastic Constant Matrix: (Units=GPa)
#
#
# Indices 1 2 3 4 5 6 
#
# 1 148.7093 48.9225 12.7769 14.7792 14.7161 -9.7837
# 2 48.9225 95.4330 38.3270 27.1797 2.1124 -7.5686
# 3 12.7769 38.3270 87.2580 35.8873 5.5264 4.1552
# 4 14.7792 27.1797 35.8873 51.3187 5.5262 6.5682
# 5 14.7161 2.1124 5.5264 5.5262 37.6456 10.3721
# 6 -9.7837 -7.5686 4.1552 6.5682 10.3721 60.9780
#
#
#
# Elastic Compliance Matrix: (Units=1/GPa)
#
#
# Indices 1 2 3 4 5 6 
#
# 1 0.008621 -0.004490 0.001163 -0.000716 -0.003578 0.001433
# 2 -0.004490 0.016028 -0.004838 -0.004221 0.001700 0.001764
# 3 0.001163 -0.004838 0.017575 -0.009888 -0.001218 -0.000339
# 4 -0.000716 -0.004221 -0.009888 0.029377 -0.001555 -0.002865
# 5 -0.003578 0.001700 -0.001218 -0.001555 0.029697 -0.005164
# 6 0.001433 0.001764 -0.000339 -0.002865 -0.005164 0.018058
#
#
# Mechanical properties :
#
#
# Convention : Reuss Voigt Hill
#
# Bulk Modulus (GPa) = 38.61971 59.05034 48.83503
# Shear Modulus (GPa) = 34.64577 45.41340 40.02959
#
# Velocity S-wave (km/s) = 3.57410 4.09198 3.84177
# Velocity P-wave (km/s) = 5.59210 6.64063 6.13880
#
# Compressibility (1/GPa) = 0.02589351
#
# Stress axis : x y z
#
# Youngs Moduli (GPa) = 115.99324 62.39193 56.89836
#
# Poissons Ratio (x) = 0.28012 -0.06615
# Poissons Ratio (y) = 0.52078 0.27528
# Poissons Ratio (z) = -0.13485 0.30186
#
# Static dielectric constant tensor:
#      x y z
#    x 2.094570 0.069520 0.076300 
#    y 0.069520 2.124540 0.041550 
#    z 0.076300 0.041550 2.199560 
# 
# From -- ./inp_files/135200.got.cif
#   From: 2010.05.17/outbox.cif.g08.bks.cpg/sg2_68_cif.got.tgz:135200.got - 2010.06.03 11:33:40.
