data_PCOD9067708
_publ_section_title
;
Structure prediction by ZEFSAII (Michael W. Deem and Ramdas Pophale) SiO2 
 PCOD9067708
Probable space group: P -1
;
_chemical_formula_sum "Si O2"
_cell_formula_units_Z 12
_cell_length_a 7.111016
_cell_length_b 15.855175
_cell_length_c 8.682728
_cell_angle_alpha 134.898306
_cell_angle_beta 82.495293
_cell_angle_gamma 124.892912
_cell_volume 501.994954
_symmetry_space_group_name_H-M "P -1"
_symmetry_group_IT_number 2
_symmetry_cell_setting 'triclinic'
loop_
_space_group_symop_operation_xyz
x,y,z
-x,-y,-z
loop_
_atom_site_type_symbol
_atom_site_label
_atom_site_fract_x
_atom_site_fract_y
_atom_site_fract_z
Si Si1 0.407702 0.147312 0.566439
Si Si2 0.877387 0.573554 0.496697
Si Si3 0.455251 0.841717 0.782055
Si Si4 0.896677 0.376883 0.992630
Si Si5 0.677947 0.721130 0.739294
Si Si6 0.124934 0.228830 0.867097
O O1 0.532942 0.190754 0.439982
O O2 0.622069 0.205704 0.745431
O O3 0.309111 0.237067 0.739106
O O4 0.156027 0.955410 0.347710
O O5 0.842640 0.694016 0.593266
O O6 0.623446 0.447431 0.465777
O O7 0.165942 0.694789 0.688616
O O8 0.855907 0.459265 0.231020
O O9 0.671390 0.854140 0.858238
O O10 0.500000 0.000000 0.000000
O O11 0.081976 0.348423 0.985909
O O12 0.000000 0.500000 0.000000
O O13 0.767957 0.746910 0.939985
#
# Coordination Sequence:
#
# PCOD9067708 Si02
#       6
#     2   2   2   2   2   2
#     4  11  26  47  71 104 141 188 234 291 346 417
#     4  11  26  44  72 104 141 188 230 289 350 413
#     4  12  28  46  74 104 143 185 236 290 351 419
#     4  12  26  45  75 105 141 184 239 290 349 417
#     4  11  27  47  73 105 143 184 236 289 352 416
#     4  11  27  47  74 103 143 188 234 288 353 414
#
# _framework density 23.904623999999998
#
# number of rings (size 3 to 8) (size 9 to 14) (size 15 to 20)
#    0.000    0.667    3.333    2.000   11.667    6.000 
#    0.000    0.000    0.000    0.000    0.000    0.000 
#    0.000    0.000    0.000    0.000    0.000    0.000 
#
# Total GULP energy -67151.914314 kJ/mol
# GULP energy per Si atom -5595.992860 kJ/mol
# Density = 2.385022 g / cm^3
# Si number density = 23.904624 Si / 1000 Ang^3
#
#
#
# Elastic Constant Matrix: (Units=GPa)
#
#
# Indices 1 2 3 4 5 6 
#
# 1 224.8520 42.8170 83.4144 -12.2490 -27.4886 -36.2274
# 2 42.8170 46.7789 38.7253 -8.6121 -5.6473 -3.9777
# 3 83.4144 38.7253 151.5405 -4.2605 -11.9572 -16.4711
# 4 -12.2490 -8.6121 -4.2605 31.0525 16.9543 1.8236
# 5 -27.4886 -5.6473 -11.9572 16.9543 50.5905 7.9776
# 6 -36.2274 -3.9777 -16.4711 1.8236 7.9776 44.6693
#
#
#
# Elastic Compliance Matrix: (Units=1/GPa)
#
#
# Indices 1 2 3 4 5 6 
#
# 1 0.006930 -0.003931 -0.002197 -0.000097 0.002198 0.004072
# 2 -0.003931 0.030802 -0.005948 0.007543 -0.002229 -0.002548
# 3 -0.002197 -0.005948 0.009462 -0.001707 0.000776 0.001109
# 4 -0.000097 0.007543 -0.001707 0.041408 -0.013602 0.000702
# 5 0.002198 -0.002229 0.000776 -0.013602 0.025798 -0.002182
# 6 0.004072 -0.002548 0.001109 0.000702 -0.002182 0.026232
#
#
# Mechanical properties :
#
#
# Convention : Reuss Voigt Hill
#
# Bulk Modulus (GPa) = 43.39895 83.67610 63.53753
# Shear Modulus (GPa) = 28.99118 42.47679 35.73398
#
# Velocity S-wave (km/s) = 3.48628 4.21993 3.87053
# Velocity P-wave (km/s) = 5.86515 7.66968 6.82730
#
# Compressibility (1/GPa) = 0.02304203
#
# Stress axis : x y z
#
# Youngs Moduli (GPa) = 144.29125 32.46502 105.68576
#
# Poissons Ratio (x) = 0.12762 0.23219
# Poissons Ratio (y) = 0.56721 0.62866
# Poissons Ratio (z) = 0.31700 0.19312
#
# Static dielectric constant tensor:
#      x y z
#    x 1.949900 -0.034150 -0.017840 
#    y -0.034150 1.984720 0.030290 
#    z -0.017840 0.030290 1.906850 
# 
# From -- ./inp_files/39315.got.cif
#   From: 2010.05.17/outbox.cif.g08.bks.cpg/sg2_20_cif.got.tgz:39315.got - 2010.06.03 11:33:40.
