data_PCOD9067409
_publ_section_title
;
Structure prediction by ZEFSAII (Michael W. Deem and Ramdas Pophale) SiO2 
 PCOD9067409
Probable space group: P -1
;
_chemical_formula_sum "Si O2"
_cell_formula_units_Z 16
_cell_length_a 8.612418
_cell_length_b 15.698095
_cell_length_c 15.509301
_cell_angle_alpha 152.458061
_cell_angle_beta 107.058377
_cell_angle_gamma 91.286443
_cell_volume 712.852559
_symmetry_space_group_name_H-M "P -1"
_symmetry_group_IT_number 2
_symmetry_cell_setting 'triclinic'
loop_
_space_group_symop_operation_xyz
x,y,z
-x,-y,-z
loop_
_atom_site_type_symbol
_atom_site_label
_atom_site_fract_x
_atom_site_fract_y
_atom_site_fract_z
Si Si1 0.283136 0.277516 0.018667
Si Si2 0.051489 0.721953 0.264877
Si Si3 0.955803 0.254731 0.265540
Si Si4 0.325131 0.957551 0.132795
Si Si5 0.327528 0.271428 0.824983
Si Si6 0.414200 0.421992 0.514547
Si Si7 0.980850 0.552765 0.822798
Si Si8 0.247501 0.893653 0.727496
O O1 0.443954 0.366926 0.204592
O O2 0.151575 0.367919 0.093331
O O3 0.384697 0.333093 0.990938
O O4 0.142398 0.992071 0.750892
O O5 0.028068 0.614600 0.258563
O O6 0.875490 0.744127 0.233000
O O7 0.262129 0.009924 0.556565
O O8 0.000000 0.500000 0.000000
O O9 0.780342 0.092379 0.163501
O O10 0.000000 0.500000 0.500000
O O11 0.171901 0.307790 0.368089
O O12 0.861102 0.149873 0.063215
O O13 0.423705 0.230672 0.391065
O O14 0.513760 0.966430 0.138813
O O15 0.212578 0.795316 0.053025
O O16 0.500000 0.500000 0.000000
O O17 0.500000 0.500000 0.500000
O O18 0.876744 0.380887 0.567884
#
# Coordination Sequence:
#
# PCOD9067409 Si02
#       8
#     2   2   2   2   2   2   2   2
#     4  12  25  47  71 104 145 190 235 298 360 430
#     4  11  25  49  75 107 147 189 233 307 370 434
#     4  12  23  42  67  98 142 190 236 300 355 416
#     4  12  25  44  70 101 140 191 242 296 360 427
#     4  11  27  47  76 110 147 190 247 298 367 445
#     4  12  25  44  72 107 146 193 247 293 361 431
#     4  12  25  46  71 103 143 183 239 295 361 431
#     4  12  25  45  68 102 144 182 244 293 358 428
#
# _framework density 22.445036000000002
#
# number of rings (size 3 to 8) (size 9 to 14) (size 15 to 20)
#    0.000    0.250    5.000    4.500    1.750    1.500 
#    0.000    0.000    0.000    0.000    0.000    0.000 
#    0.000    0.000    0.000    0.000    0.000    0.000 
#
# Total GULP energy -89275.494850 kJ/mol
# GULP energy per Si atom -5579.718428 kJ/mol
# Density = 2.239395 g / cm^3
# Si number density = 22.445036 Si / 1000 Ang^3
#
#
#
# Elastic Constant Matrix: (Units=GPa)
#
#
# Indices 1 2 3 4 5 6 
#
# 1 65.9904 27.3425 42.2682 7.7848 -13.4769 -3.9586
# 2 27.3425 128.5668 53.6043 28.8763 -4.2219 17.2459
# 3 42.2682 53.6043 116.1422 21.3520 -18.5665 12.0307
# 4 7.7848 28.8763 21.3520 46.6343 -8.2727 -1.3327
# 5 -13.4769 -4.2219 -18.5665 -8.2727 37.6128 10.4545
# 6 -3.9586 17.2459 12.0307 -1.3327 10.4545 38.4253
#
#
#
# Elastic Compliance Matrix: (Units=1/GPa)
#
#
# Indices 1 2 3 4 5 6 
#
# 1 0.021357 -0.002626 -0.006922 0.001905 0.003028 0.004788
# 2 -0.002626 0.011383 -0.003018 -0.005560 -0.001179 -0.004306
# 3 -0.006922 -0.003018 0.014425 -0.002816 0.005178 -0.005382
# 4 0.001905 -0.005560 -0.002816 0.026585 0.003534 0.003534
# 5 0.003028 -0.001179 0.005178 0.003534 0.033596 -0.009798
# 6 0.004788 -0.004306 -0.005382 0.003534 -0.009798 0.032924
#
#
# Mechanical properties :
#
#
# Convention : Reuss Voigt Hill
#
# Bulk Modulus (GPa) = 45.38991 61.90326 53.64659
# Shear Modulus (GPa) = 28.94399 37.03343 32.98871
#
# Velocity S-wave (km/s) = 3.59493 4.06638 3.83790
# Velocity P-wave (km/s) = 6.12355 7.04890 6.60246
#
# Compressibility (1/GPa) = 0.02203133
#
# Stress axis : x y z
#
# Youngs Moduli (GPa) = 46.82321 87.85259 69.32341
#
# Poissons Ratio (x) = 0.23074 0.47988
# Poissons Ratio (y) = 0.12298 0.20921
# Poissons Ratio (z) = 0.32413 0.26513
#
# Static dielectric constant tensor:
#      x y z
#    x 3.043000 3.497060 3.069350 
#    y 3.497060 12.307050 9.333750 
#    z 3.069350 9.333750 10.273450 
# 
# From -- ./inp_files/505931.got.cif
#   From: 2010.05.17/outbox.cif.g08.bks.cpg/sg2_253_cif.got.tgz:505931.got - 2010.06.03 11:33:40.
