data_PCOD9067482
_publ_section_title
;
Structure prediction by ZEFSAII (Michael W. Deem and Ramdas Pophale) SiO2 
 PCOD9067482
Probable space group: P -1
;
_chemical_formula_sum "Si O2"
_cell_formula_units_Z 10
_cell_length_a 8.420176
_cell_length_b 8.053119
_cell_length_c 8.213083
_cell_angle_alpha 69.174940
_cell_angle_beta 47.361960
_cell_angle_gamma 91.478546
_cell_volume 352.970577
_symmetry_space_group_name_H-M "P -1"
_symmetry_group_IT_number 2
_symmetry_cell_setting 'triclinic'
loop_
_space_group_symop_operation_xyz
x,y,z
-x,-y,-z
loop_
_atom_site_type_symbol
_atom_site_label
_atom_site_fract_x
_atom_site_fract_y
_atom_site_fract_z
Si Si1 0.182876 0.396539 0.921893
Si Si2 0.168637 0.828028 0.239080
Si Si3 0.215360 0.899627 0.532199
Si Si4 0.321619 0.118369 0.724971
Si Si5 0.646746 0.510657 0.734287
O O1 0.194727 0.258735 0.815694
O O2 0.453232 0.510360 0.737479
O O3 0.000000 0.500000 0.000000
O O4 0.049726 0.247086 0.209090
O O5 0.235761 0.961547 0.308494
O O6 0.295472 0.679907 0.230778
O O7 0.894942 0.687719 0.485555
O O8 0.240126 0.947418 0.980164
O O9 0.399677 0.797723 0.466807
O O10 0.273708 0.037939 0.602027
O O11 0.500000 0.500000 0.000000
#
# Coordination Sequence:
#
# PCOD9067482 Si02
#       5
#     2   2   2   2   2
#     4  12  28  51  80 120 167 216 268 332 411 490
#     4  11  25  51  87 118 159 213 280 339 402 477
#     4  11  25  50  81 120 160 210 273 339 406 473
#     4  11  27  52  82 121 160 216 275 334 405 484
#     4  11  25  49  81 124 162 214 270 337 412 480
#
# _framework density 28.330974999999999
#
# number of rings (size 3 to 8) (size 9 to 14) (size 15 to 20)
#    0.000    0.800    4.000    1.200    2.800    3.200 
#    7.200    0.000    0.000    1.200    0.000    0.000 
#    0.000    0.000    0.000    0.000    0.000    0.000 
#
# Total GULP energy -56029.780190 kJ/mol
# GULP energy per Si atom -5602.978019 kJ/mol
# Density = 2.826649 g / cm^3
# Si number density = 28.330975 Si / 1000 Ang^3
#
#
#
# Elastic Constant Matrix: (Units=GPa)
#
#
# Indices 1 2 3 4 5 6 
#
# 1 220.7150 133.2834 86.6859 18.2225 -12.2312 -13.6896
# 2 133.2834 151.0462 63.0539 50.1393 4.9278 -22.8692
# 3 86.6859 63.0539 180.2813 11.8789 -19.7051 7.9879
# 4 18.2225 50.1393 11.8789 47.1770 11.3753 -16.5039
# 5 -12.2312 4.9278 -19.7051 11.3753 82.2842 10.6672
# 6 -13.6896 -22.8692 7.9879 -16.5039 10.6672 69.0466
#
#
#
# Elastic Compliance Matrix: (Units=1/GPa)
#
#
# Indices 1 2 3 4 5 6 
#
# 1 0.013009 -0.014064 -0.001956 0.010399 0.000804 0.000509
# 2 -0.014064 0.027377 -0.001502 -0.022584 -0.001127 0.001229
# 3 -0.001956 -0.001502 0.007375 -0.000754 0.001957 -0.002221
# 4 0.010399 -0.022584 -0.000754 0.044465 -0.004200 0.005946
# 5 0.000804 -0.001127 0.001957 -0.004200 0.013854 -0.003585
# 6 0.000509 0.001229 -0.002221 0.005946 -0.003585 0.017223
#
#
# Mechanical properties :
#
#
# Convention : Reuss Voigt Hill
#
# Bulk Modulus (GPa) = 78.63863 124.23211 101.43537
# Shear Modulus (GPa) = 30.75258 57.63618 44.19438
#
# Velocity S-wave (km/s) = 3.29823 4.51531 3.95388
# Velocity P-wave (km/s) = 6.50552 8.43383 7.53164
#
# Compressibility (1/GPa) = 0.01271640
#
# Stress axis : x y z
#
# Youngs Moduli (GPa) = 76.86698 36.52664 135.59149
#
# Poissons Ratio (x) = 0.51371 0.26527
# Poissons Ratio (y) = 1.08105 0.20371
# Poissons Ratio (z) = 0.15038 0.05488
#
# Static dielectric constant tensor:
#      x y z
#    x 2.328910 0.005760 0.046250 
#    y 0.005760 2.282910 -0.037790 
#    z 0.046250 -0.037790 2.188170 
# 
# From -- ./inp_files/157830.got.cif
#   From: 2010.05.17/outbox.cif.g08.bks.cpg/sg2_79_cif.got.tgz:157830.got - 2010.06.03 11:33:40.
