data_PCOD9067561
_publ_section_title
;
Structure prediction by ZEFSAII (Michael W. Deem and Ramdas Pophale) SiO2 
 PCOD9067561
Probable space group: P -1
;
_chemical_formula_sum "Si O2"
_cell_formula_units_Z 14
_cell_length_a 4.885768
_cell_length_b 8.031432
_cell_length_c 17.382544
_cell_angle_alpha 123.911011
_cell_angle_beta 87.951398
_cell_angle_gamma 69.464937
_cell_volume 506.044409
_symmetry_space_group_name_H-M "P -1"
_symmetry_group_IT_number 2
_symmetry_cell_setting 'triclinic'
loop_
_space_group_symop_operation_xyz
x,y,z
-x,-y,-z
loop_
_atom_site_type_symbol
_atom_site_label
_atom_site_fract_x
_atom_site_fract_y
_atom_site_fract_z
Si Si1 0.810237 0.360890 0.130821
Si Si2 0.429553 0.714408 0.108998
Si Si3 0.051524 0.975181 0.705370
Si Si4 0.301555 0.032066 0.932910
Si Si5 0.069228 0.350866 0.689337
Si Si6 0.682245 0.717217 0.579404
Si Si7 0.314323 0.767842 0.436988
O O1 0.568726 0.596680 0.158948
O O2 0.010341 0.428558 0.203450
O O3 0.700606 0.204954 0.138648
O O4 0.978028 0.216429 0.017088
O O5 0.580797 0.855890 0.103843
O O6 0.088710 0.894665 0.180524
O O7 0.500000 0.500000 0.000000
O O8 0.394908 0.776131 0.655667
O O9 0.482473 0.742122 0.509786
O O10 0.821423 0.884872 0.649075
O O11 0.061225 0.162091 0.696349
O O12 0.500000 0.000000 0.000000
O O13 0.413790 0.261091 0.630792
O O14 0.000000 0.500000 0.500000
O O15 0.165651 0.609507 0.367781
O O16 0.000000 0.000000 0.500000
#
# Coordination Sequence:
#
# PCOD9067561 Si02
#       7
#     2   2   2   2   2   2   2
#     4  11  26  48  81 122 169 232 289 358 433 525
#     4  12  25  49  87 125 170 235 286 353 455 517
#     4  12  27  49  84 121 168 225 299 358 428 544
#     4  11  25  50  78 119 180 219 289 365 422 526
#     4  12  26  47  83 123 159 218 299 355 424 518
#     4  12  28  54  80 120 176 228 287 366 454 518
#     4  12  26  46  84 118 161 215 285 365 428 510
#
# _framework density 27.665558000000001
#
# number of rings (size 3 to 8) (size 9 to 14) (size 15 to 20)
#    0.000    0.286    2.857    5.571    2.000    1.143 
#    2.571    1.429    3.143    0.000    0.000    0.000 
#    0.000    0.000    0.000    0.000    0.000    0.000 
#
# Total GULP energy -78454.919847 kJ/mol
# GULP energy per Si atom -5603.922846 kJ/mol
# Density = 2.760259 g / cm^3
# Si number density = 27.665558 Si / 1000 Ang^3
#
#
#
# Elastic Constant Matrix: (Units=GPa)
#
#
# Indices 1 2 3 4 5 6 
#
# 1 225.0187 81.8807 97.3587 10.8496 -3.4322 -13.4190
# 2 81.8807 154.6450 59.2168 10.8922 -8.0339 -6.5543
# 3 97.3587 59.2168 214.8448 13.1971 -9.4784 8.8620
# 4 10.8496 10.8922 13.1971 26.9500 10.6599 -3.1412
# 5 -3.4322 -8.0339 -9.4784 10.6599 80.8349 4.8340
# 6 -13.4190 -6.5543 8.8620 -3.1412 4.8340 60.7925
#
#
#
# Elastic Compliance Matrix: (Units=1/GPa)
#
#
# Indices 1 2 3 4 5 6 
#
# 1 0.006429 -0.002464 -0.002299 -0.000169 -0.000309 0.001504
# 2 -0.002464 0.008381 -0.001033 -0.002198 0.000878 0.000327
# 3 -0.002299 -0.001033 0.006233 -0.002279 0.000934 -0.001720
# 4 -0.000169 -0.002198 -0.002279 0.041942 -0.006186 0.002717
# 5 -0.000309 0.000878 0.000934 -0.006186 0.013460 -0.001500
# 6 0.001504 0.000327 -0.001720 0.002717 -0.001500 0.017327
#
#
# Mechanical properties :
#
#
# Convention : Reuss Voigt Hill
#
# Bulk Modulus (GPa) = 105.81950 119.04679 112.43315
# Shear Modulus (GPa) = 46.07673 57.45229 51.76451
#
# Velocity S-wave (km/s) = 4.08547 4.56200 4.33029
# Velocity P-wave (km/s) = 7.78379 8.41862 8.10742
#
# Compressibility (1/GPa) = 0.00945005
#
# Stress axis : x y z
#
# Youngs Moduli (GPa) = 155.55438 119.31977 160.42435
#
# Poissons Ratio (x) = 0.29397 0.36889
# Poissons Ratio (y) = 0.38324 0.16576
# Poissons Ratio (z) = 0.35769 0.12329
#
# Static dielectric constant tensor:
#      x y z
#    x 2.196400 -0.112040 -0.012870 
#    y -0.112040 2.384760 0.012610 
#    z -0.012870 0.012610 2.148770 
# 
# From -- ./inp_files/547453.got.cif
#   From: 2010.05.17/outbox.cif.g08.bks.cpg/sg2_274_cif.got.tgz:547453.got - 2010.06.03 11:33:40.
