data_PCOD9067004
_publ_section_title
;
Structure prediction by ZEFSAII (Michael W. Deem and Ramdas Pophale) SiO2 
 PCOD9067004
Probable space group: P -1
;
_chemical_formula_sum "Si O2"
_cell_formula_units_Z 13
_cell_length_a 14.379542
_cell_length_b 13.818617
_cell_length_c 7.918089
_cell_angle_alpha 121.137920
_cell_angle_beta 62.305065
_cell_angle_gamma 159.142041
_cell_volume 478.610787
_symmetry_space_group_name_H-M "P -1"
_symmetry_group_IT_number 2
_symmetry_cell_setting 'triclinic'
loop_
_space_group_symop_operation_xyz
x,y,z
-x,-y,-z
loop_
_atom_site_type_symbol
_atom_site_label
_atom_site_fract_x
_atom_site_fract_y
_atom_site_fract_z
Si Si1 0.000000 0.500000 0.500000
Si Si2 0.510909 0.539551 0.226745
Si Si3 0.305980 0.569445 0.341260
Si Si4 0.034715 0.931701 0.229342
Si Si5 0.487425 0.860123 0.824986
Si Si6 0.049171 0.789617 0.410026
Si Si7 0.726243 0.020067 0.112612
O O1 0.233028 0.632410 0.456625
O O2 0.153003 0.743610 0.711934
O O3 0.470540 0.634053 0.368417
O O4 0.776750 0.749683 0.259984
O O5 0.500000 0.500000 0.000000
O O6 0.281424 0.250832 0.260528
O O7 0.023552 0.250625 0.373375
O O8 0.493893 0.750078 0.183733
O O9 0.051875 0.890610 0.360765
O O10 0.041523 0.838938 0.998396
O O11 0.701647 0.048124 0.667524
O O12 0.202047 0.534571 0.726167
O O13 0.592280 0.897392 0.931917
O O14 0.500000 0.000000 0.000000
#
# Coordination Sequence:
#
# PCOD9067004 Si02
#       7
#     1   2   2   2   2   2   2
#     4  12  28  46  72 112 152 190 250 314 372 436
#     4  12  25  46  80 110 143 199 251 308 371 445
#     4  12  29  45  76 112 154 196 249 318 375 441
#     4  11  25  49  76 108 147 194 255 304 367 456
#     4  11  25  47  75 103 150 208 252 298 368 454
#     4  11  27  46  72 111 153 193 248 309 381 437
#     4  11  26  47  77 106 150 201 251 310 373 451
#
# _framework density 27.161944999999999
#
# number of rings (size 3 to 8) (size 9 to 14) (size 15 to 20)
#    0.000    0.615    1.538    5.077   10.769    1.231 
#    0.000    0.000    0.000    0.000    0.000    0.000 
#    0.000    0.000    0.000    0.000    0.000    0.000 
#
# Total GULP energy -72482.649906 kJ/mol
# GULP energy per Si atom -5575.588454 kJ/mol
# Density = 2.710012 g / cm^3
# Si number density = 27.161945 Si / 1000 Ang^3
#
#
#
# Elastic Constant Matrix: (Units=GPa)
#
#
# Indices 1 2 3 4 5 6 
#
# 1 145.5399 46.1775 24.3784 -20.1387 -35.3060 35.0719
# 2 46.1775 160.7971 32.0566 -5.9441 -20.4993 20.9509
# 3 24.3784 32.0566 91.9986 -4.3659 -18.3669 -2.9670
# 4 -20.1387 -5.9441 -4.3659 49.8165 2.8950 -3.8827
# 5 -35.3060 -20.4993 -18.3669 2.8950 63.5544 -17.1748
# 6 35.0719 20.9509 -2.9670 -3.8827 -17.1748 41.6100
#
#
#
# Elastic Compliance Matrix: (Units=1/GPa)
#
#
# Indices 1 2 3 4 5 6 
#
# 1 0.010319 -0.001248 -0.001797 0.003175 0.002848 -0.006725
# 2 -0.001248 0.007426 -0.002286 -0.000049 0.000306 -0.002728
# 3 -0.001797 -0.002286 0.012990 0.000335 0.003357 0.005009
# 4 0.003175 -0.000049 0.000335 0.021311 0.000789 -0.000313
# 5 0.002848 0.000306 0.003357 0.000789 0.019972 0.006001
# 6 -0.006725 -0.002728 0.005009 -0.000313 0.006001 0.033880
#
#
# Mechanical properties :
#
#
# Convention : Reuss Voigt Hill
#
# Bulk Modulus (GPa) = 49.81961 67.06228 58.44095
# Shear Modulus (GPa) = 40.56796 50.71106 45.63951
#
# Velocity S-wave (km/s) = 3.86885 4.32555 4.10356
# Velocity P-wave (km/s) = 6.19184 7.04916 6.63436
#
# Compressibility (1/GPa) = 0.02007242
#
# Stress axis : x y z
#
# Youngs Moduli (GPa) = 96.90789 134.66391 76.98256
#
# Poissons Ratio (x) = 0.16812 0.13833
# Poissons Ratio (y) = 0.12098 0.17598
# Poissons Ratio (z) = 0.17414 0.30783
#
# Static dielectric constant tensor:
#      x y z
#    x 2.213140 0.061510 0.131130 
#    y 0.061510 2.157590 0.191280 
#    z 0.131130 0.191280 2.310760 
# 
# From -- ./inp_files/313826.got.cif
#   From: 2010.05.17/outbox.cif.g08.bks.cpg/sg2_157_cif.got.tgz:313826.got - 2010.06.03 11:33:40.
