data_PCOD9067431
_publ_section_title
;
Structure prediction by ZEFSAII (Michael W. Deem and Ramdas Pophale) SiO2 
 PCOD9067431
Probable space group: P -1
;
_chemical_formula_sum "Si O2"
_cell_formula_units_Z 14
_cell_length_a 15.201978
_cell_length_b 18.043698
_cell_length_c 5.997319
_cell_angle_alpha 87.341394
_cell_angle_beta 80.692751
_cell_angle_gamma 156.658582
_cell_volume 557.622109
_symmetry_space_group_name_H-M "P -1"
_symmetry_group_IT_number 2
_symmetry_cell_setting 'triclinic'
loop_
_space_group_symop_operation_xyz
x,y,z
-x,-y,-z
loop_
_atom_site_type_symbol
_atom_site_label
_atom_site_fract_x
_atom_site_fract_y
_atom_site_fract_z
Si Si1 0.461077 0.682157 0.490228
Si Si2 0.998902 0.165745 0.125412
Si Si3 0.586432 0.036301 0.713787
Si Si4 0.021682 0.957939 0.201168
Si Si5 0.242529 0.633910 0.858074
Si Si6 0.552003 0.620966 0.754813
Si Si7 0.112752 0.404918 0.283565
O O1 0.316386 0.646742 0.603761
O O2 0.394870 0.561541 0.690342
O O3 0.358955 0.576318 0.307492
O O4 0.766024 0.937527 0.367524
O O5 0.988240 0.238798 0.224536
O O6 0.932221 0.088306 0.910783
O O7 0.304755 0.383447 0.993076
O O8 0.481961 0.871829 0.784263
O O9 0.500000 0.000000 0.500000
O O10 0.892940 0.270578 0.543729
O O11 0.500000 0.000000 0.000000
O O12 0.754861 0.742849 0.481732
O O13 0.254295 0.177858 0.206691
O O14 0.000000 0.000000 0.000000
O O15 0.000000 0.500000 0.000000
O O16 0.198687 0.534311 0.060723
#
# Coordination Sequence:
#
# PCOD9067431 Si02
#       7
#     2   2   2   2   2   2   2
#     4  12  27  47  73 112 151 198 261 323 388 478
#     4  12  25  47  74 109 151 201 251 311 402 457
#     4  12  28  50  80 116 153 208 268 333 410 474
#     4  11  25  49  76 111 153 194 259 319 381 481
#     4  12  26  48  75 108 154 198 265 328 391 469
#     4  11  26  49  73 111 151 202 253 320 396 466
#     4  12  28  47  76 110 154 205 261 331 399 473
#
# _framework density 25.10661
#
# number of rings (size 3 to 8) (size 9 to 14) (size 15 to 20)
#    0.000    0.286    5.714    2.143    2.000    4.000 
#    0.000    0.000    0.000    0.000    0.000    0.000 
#    0.000    0.000    0.000    0.000    0.000    0.000 
#
# Total GULP energy -78107.613014 kJ/mol
# GULP energy per Si atom -5579.115215 kJ/mol
# Density = 2.504947 g / cm^3
# Si number density = 25.106610 Si / 1000 Ang^3
#
#
#
# Elastic Constant Matrix: (Units=GPa)
#
#
# Indices 1 2 3 4 5 6 
#
# 1 65.4730 31.3744 23.7145 20.4733 -14.7638 -12.1693
# 2 31.3744 157.4327 50.4636 -10.2402 9.6315 -17.1230
# 3 23.7145 50.4636 130.9868 -13.0805 -30.1088 -6.4767
# 4 20.4733 -10.2402 -13.0805 51.4917 -3.0838 -9.6138
# 5 -14.7638 9.6315 -30.1088 -3.0838 45.9348 -1.0299
# 6 -12.1693 -17.1230 -6.4767 -9.6138 -1.0299 47.8559
#
#
#
# Elastic Compliance Matrix: (Units=1/GPa)
#
#
# Indices 1 2 3 4 5 6 
#
# 1 0.023228 -0.004944 -0.001607 -0.009827 0.006836 0.002093
# 2 -0.004944 0.009234 -0.003559 0.002942 -0.005614 0.002035
# 3 -0.001607 -0.003559 0.011528 0.003481 0.008037 0.000751
# 4 -0.009827 0.002942 0.003481 0.025595 0.000319 0.004174
# 5 0.006836 -0.005614 0.008037 0.000319 0.030468 0.001537
# 6 0.002093 0.002035 0.000751 0.004174 0.001537 0.023130
#
#
# Mechanical properties :
#
#
# Convention : Reuss Voigt Hill
#
# Bulk Modulus (GPa) = 42.06723 62.77748 52.42235
# Shear Modulus (GPa) = 33.04125 45.61247 39.32686
#
# Velocity S-wave (km/s) = 3.63166 4.26696 3.96206
# Velocity P-wave (km/s) = 5.86320 7.02386 6.46961
#
# Compressibility (1/GPa) = 0.02377147
#
# Stress axis : x y z
#
# Youngs Moduli (GPa) = 43.05174 108.29548 86.74244
#
# Poissons Ratio (x) = 0.53536 0.13941
# Poissons Ratio (y) = 0.21283 0.30868
# Poissons Ratio (z) = 0.06919 0.38538
#
# Static dielectric constant tensor:
#      x y z
#    x 2.049440 0.075790 -0.222740 
#    y 0.075790 1.948900 -0.029670 
#    z -0.222740 -0.029670 2.420990 
# 
# From -- ./inp_files/111959.got.cif
#   From: 2010.05.17/outbox.cif.g08.bks.cpg/sg2_56_cif.got.tgz:111959.got - 2010.06.03 11:33:40.
