data_PCOD9067950
_publ_section_title
;
Structure prediction by ZEFSAII (Michael W. Deem and Ramdas Pophale) SiO2 
 PCOD9067950
Probable space group: P -1
;
_chemical_formula_sum "Si O2"
_cell_formula_units_Z 16
_cell_length_a 9.052809
_cell_length_b 17.415951
_cell_length_c 15.955322
_cell_angle_alpha 147.776340
_cell_angle_beta 134.214185
_cell_angle_gamma 31.972863
_cell_volume 708.439337
_symmetry_space_group_name_H-M "P -1"
_symmetry_group_IT_number 2
_symmetry_cell_setting 'triclinic'
loop_
_space_group_symop_operation_xyz
x,y,z
-x,-y,-z
loop_
_atom_site_type_symbol
_atom_site_label
_atom_site_fract_x
_atom_site_fract_y
_atom_site_fract_z
Si Si1 0.218957 0.430873 0.597367
Si Si2 0.237657 0.282852 0.861806
Si Si3 0.661635 0.802095 0.431778
Si Si4 0.581394 0.801189 0.959856
Si Si5 0.839547 0.207781 0.586452
Si Si6 0.073553 0.213505 0.057331
Si Si7 0.714363 0.434435 0.597972
Si Si8 0.572258 0.303468 0.872618
O O1 0.309299 0.232843 0.489833
O O2 0.516673 0.365959 0.635698
O O3 0.000000 0.500000 0.500000
O O4 0.063261 0.607141 0.766644
O O5 0.395040 0.293751 0.860321
O O6 0.058925 0.232326 0.713245
O O7 0.408547 0.174393 0.914417
O O8 0.000000 0.500000 0.000000
O O9 0.475649 0.754938 0.286663
O O10 0.983674 0.653735 0.394367
O O11 0.500000 0.000000 0.500000
O O12 0.838376 0.744591 0.954363
O O13 0.587056 0.626497 0.780726
O O14 0.327295 0.012306 0.016465
O O15 0.782405 0.254451 0.508053
O O16 0.000000 0.000000 0.500000
O O17 0.870784 0.181078 0.919087
O O18 0.500000 0.500000 0.500000
O O19 0.500000 0.500000 0.000000
#
# Coordination Sequence:
#
# PCOD9067950 Si02
#       8
#     2   2   2   2   2   2   2   2
#     4  12  27  48  74 109 154 194 249 310 374 448
#     4  12  24  46  74 104 145 192 254 309 366 444
#     4  12  26  46  73 108 145 195 248 307 368 441
#     4  11  26  46  75 107 149 197 250 308 378 447
#     4  12  28  47  75 113 149 200 248 307 378 443
#     4  11  26  47  73 109 146 199 248 309 379 444
#     4  12  25  48  70 104 149 197 246 301 372 447
#     4  12  24  46  75 103 146 191 254 311 369 438
#
# _framework density 22.584854
#
# number of rings (size 3 to 8) (size 9 to 14) (size 15 to 20)
#    0.000    0.250    5.000    3.000    5.250    1.500 
#    0.000    0.000    0.000    0.000    0.000    0.000 
#    0.000    0.000    0.000    0.000    0.000    0.000 
#
# Total GULP energy -89278.575019 kJ/mol
# GULP energy per Si atom -5579.910939 kJ/mol
# Density = 2.253345 g / cm^3
# Si number density = 22.584854 Si / 1000 Ang^3
#
#
#
# Elastic Constant Matrix: (Units=GPa)
#
#
# Indices 1 2 3 4 5 6 
#
# 1 126.2483 63.8412 27.5281 -13.3043 16.2097 10.2677
# 2 63.8412 168.7715 55.3903 -23.5674 9.8847 22.7669
# 3 27.5281 55.3903 77.4082 -16.1555 16.2319 6.1812
# 4 -13.3043 -23.5674 -16.1555 36.9172 8.8744 -3.0281
# 5 16.2097 9.8847 16.2319 8.8744 36.2174 2.8458
# 6 10.2677 22.7669 6.1812 -3.0281 2.8458 52.3454
#
#
#
# Elastic Compliance Matrix: (Units=1/GPa)
#
#
# Indices 1 2 3 4 5 6 
#
# 1 0.010459 -0.003344 0.000230 0.002809 -0.004543 -0.000215
# 2 -0.003344 0.009498 -0.005114 0.002179 0.000882 -0.002793
# 3 0.000230 -0.005114 0.020166 0.008060 -0.009783 0.000796
# 4 0.002809 0.002179 0.008060 0.036528 -0.014450 0.000448
# 5 -0.004543 0.000882 -0.009783 -0.014450 0.037423 -0.001208
# 6 -0.000215 -0.002793 0.000796 0.000448 -0.001208 0.020358
#
#
# Mechanical properties :
#
#
# Convention : Reuss Voigt Hill
#
# Bulk Modulus (GPa) = 42.25624 73.99414 58.12519
# Shear Modulus (GPa) = 31.49012 40.14055 35.81534
#
# Velocity S-wave (km/s) = 3.73809 4.22040 3.98655
# Velocity P-wave (km/s) = 6.11406 7.52216 6.85436
#
# Compressibility (1/GPa) = 0.02366514
#
# Stress axis : x y z
#
# Youngs Moduli (GPa) = 95.61409 105.28382 49.58741
#
# Poissons Ratio (x) = 0.35210 -0.01139
# Poissons Ratio (y) = 0.31977 0.25361
# Poissons Ratio (z) = -0.02196 0.53846
#
# Static dielectric constant tensor:
#      x y z
#    x 2.079280 0.013150 0.053120 
#    y 0.013150 1.858020 0.050250 
#    z 0.053120 0.050250 1.878850 
# 
# From -- ./inp_files/562102.got.cif
#   From: 2010.05.17/outbox.cif.g08.bks.cpg/sg2_282_cif.got.tgz:562102.got - 2010.06.03 11:33:40.
