data_PCOD9067864
_publ_section_title
;
Structure prediction by ZEFSAII (Michael W. Deem and Ramdas Pophale) SiO2 
 PCOD9067864
Probable space group: P -1
;
_chemical_formula_sum "Si O2"
_cell_formula_units_Z 16
_cell_length_a 15.405584
_cell_length_b 20.642268
_cell_length_c 6.852590
_cell_angle_alpha 77.159973
_cell_angle_beta 63.595729
_cell_angle_gamma 23.438850
_cell_volume 662.473341
_symmetry_space_group_name_H-M "P -1"
_symmetry_group_IT_number 2
_symmetry_cell_setting 'triclinic'
loop_
_space_group_symop_operation_xyz
x,y,z
-x,-y,-z
loop_
_atom_site_type_symbol
_atom_site_label
_atom_site_fract_x
_atom_site_fract_y
_atom_site_fract_z
Si Si1 0.566177 0.890310 0.624977
Si Si2 0.520076 0.311819 0.250030
Si Si3 0.984982 0.012800 0.274243
Si Si4 0.986585 0.229269 0.180778
Si Si5 0.972610 0.659088 0.724791
Si Si6 0.117654 0.070199 0.515646
Si Si7 0.265666 0.289711 0.795991
Si Si8 0.273574 0.594269 0.082742
O O1 0.695464 0.752457 0.441558
O O2 0.785732 0.770631 0.648278
O O3 0.500000 0.000000 0.500000
O O4 0.289979 0.040042 0.905156
O O5 0.715625 0.213828 0.296120
O O6 0.270068 0.434414 0.524794
O O7 0.367747 0.463241 0.161699
O O8 0.738969 0.135989 0.003999
O O9 0.972259 0.941362 0.292780
O O10 0.000000 0.000000 0.500000
O O11 0.982391 0.169530 0.371575
O O12 0.955813 0.313118 0.294283
O O13 0.764498 0.376500 0.130418
O O14 0.792874 0.743325 0.020688
O O15 0.013446 0.195870 0.676186
O O16 0.448493 0.862945 0.308609
O O17 0.000000 0.500000 0.000000
O O18 0.500000 0.500000 0.000000
#
# Coordination Sequence:
#
# PCOD9067864 Si02
#       8
#     2   2   2   2   2   2   2   2
#     4  12  23  44  75 104 149 196 245 307 370 446
#     4  11  26  46  70 107 142 187 251 305 370 449
#     4  11  28  49  74  97 149 202 246 309 381 450
#     4  12  25  42  78 112 146 191 249 321 376 443
#     4  12  25  43  74 111 145 189 251 304 377 449
#     4  12  25  48  73 108 149 193 250 311 380 450
#     4  12  27  46  71 109 158 201 245 305 381 462
#     4  12  26  45  76 108 146 191 256 319 373 438
#
# _framework density 24.151914999999999
#
# number of rings (size 3 to 8) (size 9 to 14) (size 15 to 20)
#    0.000    0.250    6.250    2.625    3.500    2.000 
#    2.250    0.000    0.000    0.000    0.000    0.000 
#    0.000    0.000    0.000    0.000    0.000    0.000 
#
# Total GULP energy -89532.884675 kJ/mol
# GULP energy per Si atom -5595.805292 kJ/mol
# Density = 2.409694 g / cm^3
# Si number density = 24.151915 Si / 1000 Ang^3
#
#
#
# Elastic Constant Matrix: (Units=GPa)
#
#
# Indices 1 2 3 4 5 6 
#
# 1 54.3538 26.9626 15.2151 -9.1848 16.0788 -14.0302
# 2 26.9626 126.1667 42.4572 -6.9538 18.7703 -23.2753
# 3 15.2151 42.4572 131.8403 0.1620 15.7756 -20.4613
# 4 -9.1848 -6.9538 0.1620 54.5880 -7.0339 0.4714
# 5 16.0788 18.7703 15.7756 -7.0339 46.1065 -7.3163
# 6 -14.0302 -23.2753 -20.4613 0.4714 -7.3163 44.9101
#
#
#
# Elastic Compliance Matrix: (Units=1/GPa)
#
#
# Indices 1 2 3 4 5 6 
#
# 1 0.023320 -0.003031 -0.000328 0.002773 -0.005630 0.004619
# 2 -0.003031 0.010178 -0.002251 0.000541 -0.001756 0.003011
# 3 -0.000328 -0.002251 0.008948 -0.000612 -0.001722 0.002533
# 4 0.002773 0.000541 -0.000612 0.019118 0.002099 0.001009
# 5 -0.005630 -0.001756 -0.001722 0.002099 0.025381 0.000659
# 6 0.004619 0.003011 0.002533 0.001009 0.000659 0.026521
#
#
# Mechanical properties :
#
#
# Convention : Reuss Voigt Hill
#
# Bulk Modulus (GPa) = 32.02538 53.51451 42.76994
# Shear Modulus (GPa) = 37.01145 44.30265 40.65705
#
# Velocity S-wave (km/s) = 3.91889 4.28756 4.10736
# Velocity P-wave (km/s) = 5.81083 6.83494 6.34358
#
# Compressibility (1/GPa) = 0.03122524
#
# Stress axis : x y z
#
# Youngs Moduli (GPa) = 42.88249 98.25421 111.76025
#
# Poissons Ratio (x) = 0.29776 0.03668
# Poissons Ratio (y) = 0.12996 0.25159
# Poissons Ratio (z) = 0.01407 0.22118
#
# Static dielectric constant tensor:
#      x y z
#    x 1.949700 0.041750 -0.008980 
#    y 0.041750 1.959260 0.024810 
#    z -0.008980 0.024810 1.943870 
# 
# From -- ./inp_files/112816.got.cif
#   From: 2010.05.17/outbox.cif.g08.bks.cpg/sg2_57_cif.got.tgz:112816.got - 2010.06.03 11:33:40.
