data_PCOD9067216
_publ_section_title
;
Structure prediction by ZEFSAII (Michael W. Deem and Ramdas Pophale) SiO2 
 PCOD9067216
Probable space group: P -1
;
_chemical_formula_sum "Si O2"
_cell_formula_units_Z 16
_cell_length_a 7.997696
_cell_length_b 19.736245
_cell_length_c 6.167418
_cell_angle_alpha 98.149365
_cell_angle_beta 57.963617
_cell_angle_gamma 124.974557
_cell_volume 657.488130
_symmetry_space_group_name_H-M "P -1"
_symmetry_group_IT_number 2
_symmetry_cell_setting 'triclinic'
loop_
_space_group_symop_operation_xyz
x,y,z
-x,-y,-z
loop_
_atom_site_type_symbol
_atom_site_label
_atom_site_fract_x
_atom_site_fract_y
_atom_site_fract_z
Si Si1 0.685355 0.709461 0.099138
Si Si2 0.023493 0.757063 0.515273
Si Si3 0.617007 0.599823 0.433455
Si Si4 0.119661 0.913712 0.273074
Si Si5 0.270186 0.687658 0.125530
Si Si6 0.566860 0.807537 0.565342
Si Si7 0.552881 0.063646 0.302676
Si Si8 0.918853 0.501598 0.303911
O O1 0.736483 0.645503 0.143030
O O2 0.449663 0.666682 0.085112
O O3 0.635782 0.760928 0.326066
O O4 0.919364 0.765894 0.811057
O O5 0.780580 0.673075 0.529312
O O6 0.128337 0.841297 0.346632
O O7 0.224298 0.738987 0.350356
O O8 0.500000 0.500000 0.500000
O O9 0.355404 0.583015 0.561007
O O10 0.843778 0.881227 0.488055
O O11 0.326321 0.005510 0.267006
O O12 0.203975 0.913961 0.972413
O O13 0.001065 0.597850 0.266525
O O14 0.390414 0.741918 0.848475
O O15 0.454774 0.857804 0.596341
O O16 0.500000 0.000000 0.500000
O O17 0.000000 0.500000 0.500000
O O18 0.000000 0.500000 0.000000
#
# Coordination Sequence:
#
# PCOD9067216 Si02
#       8
#     2   2   2   2   2   2   2   2
#     4  12  26  44  75 109 143 200 258 308 383 460
#     4  12  26  48  74 107 149 195 255 316 378 462
#     4  12  26  47  69 106 154 200 256 321 384 452
#     4  11  25  48  74 105 150 183 242 306 370 457
#     4  12  26  46  75 105 147 208 252 315 390 453
#     4  12  26  48  77 106 151 194 247 310 384 461
#     4  11  28  47  75 112 144 188 242 305 385 465
#     4  12  26  46  74 109 158 203 267 335 392 467
#
# _framework density 24.335038999999998
#
# number of rings (size 3 to 8) (size 9 to 14) (size 15 to 20)
#    0.000    0.250    6.250    1.875    3.500    3.000 
#    0.000    0.000    0.000    0.000    0.000    0.000 
#    0.000    0.000    0.000    0.000    0.000    0.000 
#
# Total GULP energy -89107.656319 kJ/mol
# GULP energy per Si atom -5569.228520 kJ/mol
# Density = 2.427965 g / cm^3
# Si number density = 24.335039 Si / 1000 Ang^3
#
#
#
# Elastic Constant Matrix: (Units=GPa)
#
#
# Indices 1 2 3 4 5 6 
#
# 1 50.6912 27.1409 6.3216 -1.8191 1.9728 -13.5403
# 2 27.1409 146.6795 56.6172 6.2414 8.7545 -8.1405
# 3 6.3216 56.6172 148.1132 -14.4684 14.4107 -18.1691
# 4 -1.8191 6.2414 -14.4684 40.8603 -1.2905 -0.9363
# 5 1.9728 8.7545 14.4107 -1.2905 37.4427 -11.5966
# 6 -13.5403 -8.1405 -18.1691 -0.9363 -11.5966 58.6343
#
#
#
# Elastic Compliance Matrix: (Units=1/GPa)
#
#
# Indices 1 2 3 4 5 6 
#
# 1 0.023674 -0.004897 0.001691 0.002562 0.001057 0.005561
# 2 -0.004897 0.009261 -0.003679 -0.002994 -0.000974 -0.001226
# 3 0.001691 -0.003679 0.008920 0.003793 -0.001804 0.002347
# 4 0.002562 -0.002994 0.003793 0.026450 0.000603 0.001893
# 5 0.001057 -0.000974 -0.001804 0.000603 0.029250 0.005345
# 6 0.005561 -0.001226 0.002347 0.001893 0.005345 0.019984
#
#
# Mechanical properties :
#
#
# Convention : Reuss Voigt Hill
#
# Bulk Modulus (GPa) = 35.60570 58.40479 47.00525
# Shear Modulus (GPa) = 35.54376 44.41442 39.97909
#
# Velocity S-wave (km/s) = 3.82593 4.27678 4.05762
# Velocity P-wave (km/s) = 5.84638 6.95990 6.42730
#
# Compressibility (1/GPa) = 0.02808539
#
# Stress axis : x y z
#
# Youngs Moduli (GPa) = 42.23961 107.97541 112.10995
#
# Poissons Ratio (x) = 0.52873 -0.18957
# Poissons Ratio (y) = 0.20684 0.41248
# Poissons Ratio (z) = -0.07142 0.39727
#
# Static dielectric constant tensor:
#      x y z
#    x -2.337340 1.509690 -3.070230 
#    y 1.509690 1.516430 1.068090 
#    z -3.070230 1.068090 -0.151700 
# 
# From -- ./inp_files/53233.got.cif
#   From: 2010.05.17/outbox.cif.g08.bks.cpg/sg2_27_cif.got.tgz:53233.got - 2010.06.03 11:33:40.
