data_PCOD9067436
_publ_section_title
;
Structure prediction by ZEFSAII (Michael W. Deem and Ramdas Pophale) SiO2 
 PCOD9067436
Probable space group: P -1
;
_chemical_formula_sum "Si O2"
_cell_formula_units_Z 12
_cell_length_a 10.398592
_cell_length_b 4.774645
_cell_length_c 15.311909
_cell_angle_alpha 98.475711
_cell_angle_beta 36.693988
_cell_angle_gamma 90.542034
_cell_volume 441.639268
_symmetry_space_group_name_H-M "P -1"
_symmetry_group_IT_number 2
_symmetry_cell_setting 'triclinic'
loop_
_space_group_symop_operation_xyz
x,y,z
-x,-y,-z
loop_
_atom_site_type_symbol
_atom_site_label
_atom_site_fract_x
_atom_site_fract_y
_atom_site_fract_z
Si Si1 0.497528 0.120298 0.717949
Si Si2 0.122686 0.868275 0.819964
Si Si3 0.166245 0.581571 0.025991
Si Si4 0.176956 0.259007 0.343363
Si Si5 0.301862 0.621644 0.546688
Si Si6 0.894245 0.313355 0.737758
O O1 0.336647 0.939247 0.750108
O O2 0.654298 0.906749 0.686685
O O3 0.357680 0.373484 0.863568
O O4 0.613052 0.266565 0.583915
O O5 0.163748 0.872035 0.693506
O O6 0.912643 0.114120 0.963167
O O7 0.049275 0.569103 0.867120
O O8 0.203674 0.639958 0.109794
O O9 0.906486 0.002216 0.673136
O O10 0.000000 0.500000 0.500000
O O11 0.252690 0.451080 0.234463
O O12 0.500000 0.500000 0.500000
O O13 0.134213 0.404667 0.612396
#
# Coordination Sequence:
#
# PCOD9067436 Si02
#       6
#     2   2   2   2   2   2
#     4  12  28  48  82 120 159 211 273 315 398 477
#     4  11  25  49  76 115 162 204 259 332 401 462
#     4  11  26  51  81 113 160 209 257 335 396 470
#     4  12  31  49  80 116 163 210 265 331 380 472
#     4  11  27  49  84 120 158 207 265 333 399 467
#     4  11  27  52  76 111 166 207 262 325 399 455
#
# _framework density 27.171493999999999
#
# number of rings (size 3 to 8) (size 9 to 14) (size 15 to 20)
#    0.000    0.667    0.000    6.000    9.333    5.333 
#    3.000    0.000    0.000    0.000    0.000    0.000 
#    0.000    0.000    0.000    0.000    0.000    0.000 
#
# Total GULP energy -67450.275985 kJ/mol
# GULP energy per Si atom -5620.856332 kJ/mol
# Density = 2.710965 g / cm^3
# Si number density = 27.171494 Si / 1000 Ang^3
#
#
#
# Elastic Constant Matrix: (Units=GPa)
#
#
# Indices 1 2 3 4 5 6 
#
# 1 208.8517 81.3262 79.8961 13.0349 28.0563 9.4751
# 2 81.3262 176.6242 66.5273 13.6766 14.4567 2.0740
# 3 79.8961 66.5273 168.1648 10.3378 24.5065 8.1952
# 4 13.0349 13.6766 10.3378 56.9339 3.0697 2.5212
# 5 28.0563 14.4567 24.5065 3.0697 40.9771 3.6468
# 6 9.4751 2.0740 8.1952 2.5212 3.6468 67.7359
#
#
#
# Elastic Compliance Matrix: (Units=1/GPa)
#
#
# Indices 1 2 3 4 5 6 
#
# 1 0.006764 -0.002124 -0.001932 -0.000523 -0.002644 -0.000486
# 2 -0.002124 0.007420 -0.001884 -0.000969 0.000006 0.000334
# 3 -0.001932 -0.001884 0.008060 -0.000398 -0.002760 -0.000484
# 4 -0.000523 -0.000969 -0.000398 0.018031 -0.000368 -0.000500
# 5 -0.002644 0.000006 -0.002760 -0.000368 0.027960 -0.000788
# 6 -0.000486 0.000334 -0.000484 -0.000500 -0.000788 0.014941
#
#
# Mechanical properties :
#
#
# Convention : Reuss Voigt Hill
#
# Bulk Modulus (GPa) = 96.48840 112.12667 104.30754
# Shear Modulus (GPa) = 50.75558 54.85544 52.80551
#
# Velocity S-wave (km/s) = 4.32669 4.49805 4.41320
# Velocity P-wave (km/s) = 7.78128 8.26634 8.02748
#
# Compressibility (1/GPa) = 0.01036394
#
# Stress axis : x y z
#
# Youngs Moduli (GPa) = 147.83499 134.77156 124.06820
#
# Poissons Ratio (x) = 0.28627 0.23974
# Poissons Ratio (y) = 0.31402 0.23372
# Poissons Ratio (z) = 0.28566 0.25388
#
# Static dielectric constant tensor:
#      x y z
#    x 2.130230 -0.037800 -0.002820 
#    y -0.037800 2.105470 0.040950 
#    z -0.002820 0.040950 2.153580 
# 
# From -- ./inp_files/335846.got.cif
#   From: 2010.05.17/outbox.cif.g08.bks.cpg/sg2_168_cif.got.tgz:335846.got - 2010.06.03 11:33:40.
