data_PCOD9067664
_publ_section_title
;
Structure prediction by ZEFSAII (Michael W. Deem and Ramdas Pophale) SiO2 
 PCOD9067664
Probable space group: P -1
;
_chemical_formula_sum "Si O2"
_cell_formula_units_Z 16
_cell_length_a 6.841489
_cell_length_b 14.877201
_cell_length_c 15.406006
_cell_angle_alpha 143.228342
_cell_angle_beta 51.211788
_cell_angle_gamma 114.264354
_cell_volume 717.668798
_symmetry_space_group_name_H-M "P -1"
_symmetry_group_IT_number 2
_symmetry_cell_setting 'triclinic'
loop_
_space_group_symop_operation_xyz
x,y,z
-x,-y,-z
loop_
_atom_site_type_symbol
_atom_site_label
_atom_site_fract_x
_atom_site_fract_y
_atom_site_fract_z
Si Si1 0.039853 0.415988 0.515915
Si Si2 0.334963 0.004973 0.825383
Si Si3 0.923311 0.015946 0.635386
Si Si4 0.540313 0.154680 0.155576
Si Si5 0.837889 0.717969 0.252614
Si Si6 0.014785 0.686265 0.865979
Si Si7 0.783748 0.521379 0.954261
Si Si8 0.264172 0.827062 0.540749
O O1 0.276209 0.273382 0.333928
O O2 0.000000 0.500000 0.500000
O O3 0.084274 0.540755 0.670781
O O4 0.800638 0.338211 0.548034
O O5 0.629000 0.010874 0.727183
O O6 0.340834 0.897792 0.824152
O O7 0.208874 0.935271 0.724397
O O8 0.181267 0.175188 0.017132
O O9 0.990317 0.180080 0.765324
O O10 0.000000 0.000000 0.500000
O O11 0.098950 0.896531 0.557621
O O12 0.737364 0.244984 0.124864
O O13 0.500000 0.000000 0.000000
O O14 0.564234 0.814221 0.429501
O O15 0.004273 0.634720 0.221408
O O16 0.776490 0.593382 0.107012
O O17 0.872689 0.632559 0.946216
O O18 0.500000 0.500000 0.000000
#
# Coordination Sequence:
#
# PCOD9067664 Si02
#       8
#     2   2   2   2   2   2   2   2
#     4  12  27  48  74 108 151 189 248 310 376 443
#     4  12  26  48  76 108 149 193 252 313 371 438
#     4  12  26  44  74 109 147 195 250 305 371 438
#     4  12  27  50  77 108 147 195 254 310 375 444
#     4  11  26  42  71 105 148 191 246 298 369 444
#     4  12  27  45  77 104 148 193 247 303 379 440
#     4  11  26  46  69 106 152 193 240 303 374 445
#     4  12  26  46  76 110 147 196 252 308 367 449
#
# _framework density 22.294408000000001
#
# number of rings (size 3 to 8) (size 9 to 14) (size 15 to 20)
#    0.000    0.250    2.500    5.625   10.500    1.000 
#    0.000    0.000    0.000    0.000    0.000    0.000 
#    0.000    0.000    0.000    0.000    0.000    0.000 
#
# Total GULP energy -89599.191515 kJ/mol
# GULP energy per Si atom -5599.949470 kJ/mol
# Density = 2.224367 g / cm^3
# Si number density = 22.294408 Si / 1000 Ang^3
#
#
#
# Elastic Constant Matrix: (Units=GPa)
#
#
# Indices 1 2 3 4 5 6 
#
# 1 120.2080 48.3363 45.6482 2.1818 4.8727 8.3797
# 2 48.3363 131.2241 7.8545 2.4097 -1.5846 11.4229
# 3 45.6482 7.8545 108.3269 14.0744 2.5353 0.3900
# 4 2.1818 2.4097 14.0744 34.8563 4.0151 -3.0110
# 5 4.8727 -1.5846 2.5353 4.0151 37.2715 5.4113
# 6 8.3797 11.4229 0.3900 -3.0110 5.4113 56.7259
#
#
#
# Elastic Compliance Matrix: (Units=1/GPa)
#
#
# Indices 1 2 3 4 5 6 
#
# 1 0.011892 -0.004077 -0.004890 0.001623 -0.001472 -0.000676
# 2 -0.004077 0.009211 0.001172 -0.001114 0.001173 -0.001432
# 3 -0.004890 0.001172 0.011791 -0.004566 0.000360 0.000128
# 4 0.001623 -0.001114 -0.004566 0.031096 -0.003590 0.002009
# 5 -0.001472 0.001173 0.000360 -0.003590 0.027851 -0.002869
# 6 -0.000676 -0.001432 0.000128 0.002009 -0.002869 0.018396
#
#
# Mechanical properties :
#
#
# Convention : Reuss Voigt Hill
#
# Bulk Modulus (GPa) = 57.78064 62.60411 60.19238
# Shear Modulus (GPa) = 37.99547 42.96540 40.48043
#
# Velocity S-wave (km/s) = 4.13275 4.39473 4.26575
# Velocity P-wave (km/s) = 6.98184 7.34120 7.16377
#
# Compressibility (1/GPa) = 0.01730684
#
# Stress axis : x y z
#
# Youngs Moduli (GPa) = 84.08796 108.56312 84.80891
#
# Poissons Ratio (x) = 0.44257 0.41469
# Poissons Ratio (y) = 0.34279 -0.09943
# Poissons Ratio (z) = 0.41117 -0.12728
#
# Static dielectric constant tensor:
#      x y z
#    x 1.812470 -0.001650 0.012410 
#    y -0.001650 1.802350 0.020040 
#    z 0.012410 0.020040 1.880720 
# 
# From -- ./inp_files/484422.got.cif
#   From: 2010.05.17/outbox.cif.g08.bks.cpg/sg2_243_cif.got.tgz:484422.got - 2010.06.03 11:33:40.
