data_PCOD9067692
_publ_section_title
;
Structure prediction by ZEFSAII (Michael W. Deem and Ramdas Pophale) SiO2 
 PCOD9067692
Probable space group: P -1
;
_chemical_formula_sum "Si O2"
_cell_formula_units_Z 14
_cell_length_a 18.511829
_cell_length_b 9.281800
_cell_length_c 4.909299
_cell_angle_alpha 51.184116
_cell_angle_beta 72.709043
_cell_angle_gamma 57.358344
_cell_volume 552.368610
_symmetry_space_group_name_H-M "P -1"
_symmetry_group_IT_number 2
_symmetry_cell_setting 'triclinic'
loop_
_space_group_symop_operation_xyz
x,y,z
-x,-y,-z
loop_
_atom_site_type_symbol
_atom_site_label
_atom_site_fract_x
_atom_site_fract_y
_atom_site_fract_z
Si Si1 0.000000 0.500000 0.500000
Si Si2 0.376106 0.810742 0.803047
Si Si3 0.500000 0.000000 0.500000
Si Si4 0.079044 0.141701 0.411696
Si Si5 0.766500 0.507319 0.344928
Si Si6 0.737340 0.966824 0.834795
Si Si7 0.342311 0.451310 0.101878
Si Si8 0.927009 0.274884 0.046250
O O1 0.068497 0.306034 0.458136
O O2 0.074526 0.584841 0.370286
O O3 0.456774 0.844224 0.740816
O O4 0.322953 0.969365 0.435188
O O5 0.390166 0.588812 0.938328
O O6 0.315226 0.877146 0.053471
O O7 0.403477 0.209376 0.398320
O O8 0.175572 0.027026 0.333592
O O9 0.014724 0.269199 0.082776
O O10 0.056582 0.959728 0.744267
O O11 0.742733 0.440813 0.737254
O O12 0.852223 0.370220 0.238173
O O13 0.761128 0.729987 0.149069
O O14 0.689941 0.539753 0.180678
#
# Coordination Sequence:
#
# PCOD9067692 Si02
#       8
#     1   2   1   2   2   2   2   2
#     4  12  24  40  66  94 134 180 240 294 344 400
#     4  12  27  48  76 108 145 189 235 294 362 428
#     4  12  26  50  78 110 144 182 238 298 356 440
#     4  11  26  44  67 101 141 188 239 291 347 414
#     4  12  25  49  74 105 149 191 238 295 355 423
#     4  12  25  49  74 105 149 191 238 295 355 423
#     4  12  27  48  76 108 145 189 235 294 362 428
#     4  11  26  44  67 101 141 188 239 291 347 414
#
# _framework density 25.345396000000001
#
# number of rings (size 3 to 8) (size 9 to 14) (size 15 to 20)
#    0.000    0.286    4.286    3.857    4.000    2.286 
#    0.000    2.857    0.000    0.000    0.000    0.000 
#    0.000    0.000    0.000    0.000    0.000    0.000 
#
# Total GULP energy -78005.345717 kJ/mol
# GULP energy per Si atom -5571.810408 kJ/mol
# Density = 2.528771 g / cm^3
# Si number density = 25.345396 Si / 1000 Ang^3
#
#
#
# Elastic Constant Matrix: (Units=GPa)
#
#
# Indices 1 2 3 4 5 6 
#
# 1 80.4747 84.6914 26.5636 33.0671 -81.7896 -32.7924
# 2 84.6914 21.3108 7.6171 -38.0159 63.9168 29.4955
# 3 26.5636 7.6171 55.0951 -13.3783 1.0990 17.7361
# 4 33.0671 -38.0159 -13.3783 48.8047 25.7806 -13.0982
# 5 -81.7896 63.9168 1.0990 25.7806 8.8118 -15.1821
# 6 -32.7924 29.4955 17.7361 -13.0982 -15.1821 51.2573
#
#
#
# Elastic Compliance Matrix: (Units=1/GPa)
#
#
# Indices 1 2 3 4 5 6 
#
# 1 0.003442 0.003957 -0.001467 0.002496 -0.004147 -0.000158
# 2 0.003957 0.005652 -0.004054 -0.002354 0.006655 0.002051
# 3 -0.001467 -0.004054 0.021019 0.000569 0.003320 -0.004750
# 4 0.002496 -0.002354 0.000569 0.017313 0.003865 0.008324
# 5 -0.004147 0.006655 0.003320 0.003865 0.007254 -0.004495
# 6 -0.000158 0.002051 -0.004750 0.008324 -0.004495 0.020667
#
#
# Mechanical properties :
#
#
# Convention : Reuss Voigt Hill
#
# Bulk Modulus (GPa) = 37.05766 43.84721 40.45243
# Shear Modulus (GPa) = 57.16307 24.30864 40.73585
#
# Velocity S-wave (km/s) = 4.75422 3.10029 4.01338
# Velocity P-wave (km/s) = 6.69250 5.49119 6.12139
#
# Compressibility (1/GPa) = 0.02698498
#
# Stress axis : x y z
#
# Youngs Moduli (GPa) = 290.55981 176.93038 47.57602
#
# Poissons Ratio (x) = -0.70004 0.06978
# Poissons Ratio (y) = -1.14962 0.19286
# Poissons Ratio (z) = 0.42615 0.71722
#
# Static dielectric constant tensor:
#      x y z
#    x 2.024390 -0.054890 -0.133290 
#    y -0.054890 1.862400 -0.186750 
#    z -0.133290 -0.186750 0.881960 
# 
# From -- ./inp_files/106060.got.cif
#   From: 2010.05.17/outbox.cif.g08.bks.cpg/sg2_54_cif.got.tgz:106060.got - 2010.06.03 11:33:40.
