data_PCOD9067631
_publ_section_title
;
Structure prediction by ZEFSAII (Michael W. Deem and Ramdas Pophale) SiO2 
 PCOD9067631
Probable space group: P -1
;
_chemical_formula_sum "Si O2"
_cell_formula_units_Z 10
_cell_length_a 11.957690
_cell_length_b 7.713783
_cell_length_c 4.965320
_cell_angle_alpha 63.205535
_cell_angle_beta 75.269633
_cell_angle_gamma 72.104506
_cell_volume 385.412694
_symmetry_space_group_name_H-M "P -1"
_symmetry_group_IT_number 2
_symmetry_cell_setting 'triclinic'
loop_
_space_group_symop_operation_xyz
x,y,z
-x,-y,-z
loop_
_atom_site_type_symbol
_atom_site_label
_atom_site_fract_x
_atom_site_fract_y
_atom_site_fract_z
Si Si1 0.138069 0.113833 0.845987
Si Si2 0.007673 0.706494 0.709282
Si Si3 0.424152 0.887709 0.314046
Si Si4 0.758551 0.303290 0.755301
Si Si5 0.661645 0.738820 0.547355
O O1 0.074728 0.233200 0.545108
O O2 0.248715 0.216079 0.770323
O O3 0.047334 0.137014 0.134791
O O4 0.189202 0.878431 0.950745
O O5 0.139030 0.689090 0.528823
O O6 0.000000 0.500000 0.000000
O O7 0.349896 0.758299 0.289384
O O8 0.525693 0.756551 0.531851
O O9 0.342627 0.070375 0.395798
O O10 0.500000 0.000000 0.000000
O O11 0.715627 0.517199 0.769952
#
# Coordination Sequence:
#
# PCOD9067631 Si02
#       5
#     2   2   2   2   2
#     4  12  26  52  77 121 162 204 266 332 390 486
#     4  12  27  51  80 118 164 207 263 329 400 479
#     4  11  25  52  74 115 158 202 272 329 385 476
#     4  12  26  50  84 114 158 216 256 326 409 463
#     4  11  26  49  80 112 159 206 265 329 393 471
#
# _framework density 25.946211999999999
#
# number of rings (size 3 to 8) (size 9 to 14) (size 15 to 20)
#    0.000    0.400    4.000    3.600    0.000    2.400 
#    7.200    0.000    0.000    0.000    0.000    0.000 
#    0.000    0.000    0.000    0.000    0.000    0.000 
#
# Total GULP energy -56070.348544 kJ/mol
# GULP energy per Si atom -5607.034854 kJ/mol
# Density = 2.588716 g / cm^3
# Si number density = 25.946212 Si / 1000 Ang^3
#
#
#
# Elastic Constant Matrix: (Units=GPa)
#
#
# Indices 1 2 3 4 5 6 
#
# 1 131.1410 24.9044 42.5080 -1.2390 -15.0384 -3.8655
# 2 24.9044 177.2313 44.7964 -24.6455 -1.8258 -23.8084
# 3 42.5080 44.7964 131.4151 -10.4458 -3.4879 -12.7563
# 4 -1.2390 -24.6455 -10.4458 41.4861 1.9982 0.9193
# 5 -15.0384 -1.8258 -3.4879 1.9982 49.8477 -4.8601
# 6 -3.8655 -23.8084 -12.7563 0.9193 -4.8601 25.8823
#
#
#
# Elastic Compliance Matrix: (Units=1/GPa)
#
#
# Indices 1 2 3 4 5 6 
#
# 1 0.008894 -0.000699 -0.002659 -0.000936 0.002497 -0.000123
# 2 -0.000699 0.007447 -0.001411 0.003896 0.000391 0.005985
# 3 -0.002659 -0.001411 0.009338 0.001369 0.000024 0.002863
# 4 -0.000936 0.003896 0.001369 0.026709 -0.000821 0.003016
# 5 0.002497 0.000391 0.000024 -0.000821 0.021329 0.004778
# 6 -0.000123 0.005985 0.002863 0.003016 0.004778 0.046325
#
#
# Mechanical properties :
#
#
# Convention : Reuss Voigt Hill
#
# Bulk Modulus (GPa) = 61.95384 73.80055 67.87719
# Shear Modulus (GPa) = 37.04813 45.28180 41.16496
#
# Velocity S-wave (km/s) = 3.78283 4.18211 3.98747
# Velocity P-wave (km/s) = 6.55815 7.19899 6.88603
#
# Compressibility (1/GPa) = 0.01614105
#
# Stress axis : x y z
#
# Youngs Moduli (GPa) = 112.43863 134.27887 107.09028
#
# Poissons Ratio (x) = 0.09382 0.28472
# Poissons Ratio (y) = 0.07856 0.15116
# Poissons Ratio (z) = 0.29894 0.18953
#
# Static dielectric constant tensor:
#      x y z
#    x 2.070840 -0.033840 0.006200 
#    y -0.033840 2.075510 0.073880 
#    z 0.006200 0.073880 2.069070 
# 
# From -- ./inp_files/58833.got.cif
#   From: 2010.05.17/outbox.cif.g08.bks.cpg/sg2_30_cif.got.tgz:58833.got - 2010.06.03 11:33:40.
