data_PCOD9067022
_publ_section_title
;
Structure prediction by ZEFSAII (Michael W. Deem and Ramdas Pophale) SiO2 
 PCOD9067022
Probable space group: P -1
;
_chemical_formula_sum "Si O2"
_cell_formula_units_Z 14
_cell_length_a 18.643421
_cell_length_b 10.645270
_cell_length_c 5.921471
_cell_angle_alpha 67.398356
_cell_angle_beta 72.407330
_cell_angle_gamma 31.226459
_cell_volume 561.602755
_symmetry_space_group_name_H-M "P -1"
_symmetry_group_IT_number 2
_symmetry_cell_setting 'triclinic'
loop_
_space_group_symop_operation_xyz
x,y,z
-x,-y,-z
loop_
_atom_site_type_symbol
_atom_site_label
_atom_site_fract_x
_atom_site_fract_y
_atom_site_fract_z
Si Si1 0.346236 0.723096 0.580295
Si Si2 0.650457 0.597214 0.071598
Si Si3 0.964090 0.449568 0.872700
Si Si4 0.916951 0.937222 0.655815
Si Si5 0.603770 0.891264 0.277648
Si Si6 0.102740 0.775040 0.236627
Si Si7 0.223716 0.163337 0.572470
O O1 0.500000 0.500000 0.500000
O O2 0.223369 0.927321 0.371327
O O3 0.331535 0.876626 0.647678
O O4 0.326068 0.600082 0.777782
O O5 0.662464 0.674663 0.228396
O O6 0.759478 0.472756 0.858028
O O7 0.494509 0.866224 0.953566
O O8 0.087255 0.291219 0.691513
O O9 0.819558 0.697611 0.716531
O O10 0.991786 0.265275 0.092742
O O11 0.000000 0.500000 0.000000
O O12 0.013510 0.798785 0.438554
O O13 0.869248 0.155853 0.642975
O O14 0.722440 0.804891 0.330025
O O15 0.500000 0.000000 0.500000
O O16 0.000000 0.000000 0.000000
#
# Coordination Sequence:
#
# PCOD9067022 Si02
#       7
#     2   2   2   2   2   2   2
#     4  12  26  49  79 112 152 201 256 317 385 469
#     4  11  27  50  77 115 156 206 257 322 390 468
#     4  11  25  48  77 108 154 203 257 317 390 462
#     4  11  26  47  75 117 154 204 259 323 395 456
#     4  11  28  51  75 113 155 206 258 315 396 465
#     4  11  25  47  75 111 153 200 262 323 385 460
#     4  11  27  50  77 113 153 205 257 323 386 467
#
# _framework density 24.928652
#
# number of rings (size 3 to 8) (size 9 to 14) (size 15 to 20)
#    0.000    0.857    2.857    1.714    6.000    6.286 
#    0.000    0.000    0.000    0.000    0.000    0.000 
#    0.000    0.000    0.000    0.000    0.000    0.000 
#
# Total GULP energy -78435.977135 kJ/mol
# GULP energy per Si atom -5602.569795 kJ/mol
# Density = 2.487191 g / cm^3
# Si number density = 24.928652 Si / 1000 Ang^3
#
#
#
# Elastic Constant Matrix: (Units=GPa)
#
#
# Indices 1 2 3 4 5 6 
#
# 1 150.7621 47.0306 46.3287 -0.0678 12.7261 16.2959
# 2 47.0306 157.4711 53.7455 10.2790 -11.8073 9.6525
# 3 46.3287 53.7455 126.1778 -14.5828 -6.3963 3.1921
# 4 -0.0678 10.2790 -14.5828 55.3502 -2.3890 -3.5104
# 5 12.7261 -11.8073 -6.3963 -2.3890 34.7057 1.0747
# 6 16.2959 9.6525 3.1921 -3.5104 1.0747 45.6217
#
#
#
# Elastic Compliance Matrix: (Units=1/GPa)
#
#
# Indices 1 2 3 4 5 6 
#
# 1 0.008627 -0.001799 -0.002633 -0.000688 -0.004232 -0.002470
# 2 -0.001799 0.008338 -0.002983 -0.002288 0.002825 -0.001155
# 3 -0.002633 -0.002983 0.010650 0.003515 0.002123 0.001047
# 4 -0.000688 -0.002288 0.003515 0.019602 0.001410 0.001959
# 5 -0.004232 0.002825 0.002123 0.001410 0.031811 0.000125
# 6 -0.002470 -0.001155 0.001047 0.001959 0.000125 0.023121
#
#
# Mechanical properties :
#
#
# Convention : Reuss Voigt Hill
#
# Bulk Modulus (GPa) = 78.21538 80.95784 79.58661
# Shear Modulus (GPa) = 41.24064 46.28925 43.76495
#
# Velocity S-wave (km/s) = 4.07178 4.31382 4.19454
# Velocity P-wave (km/s) = 7.31776 7.57353 7.44674
#
# Compressibility (1/GPa) = 0.01278521
#
# Stress axis : x y z
#
# Youngs Moduli (GPa) = 115.91367 119.93735 93.89690
#
# Poissons Ratio (x) = 0.21576 0.24723
# Poissons Ratio (y) = 0.20852 0.28009
# Poissons Ratio (z) = 0.30519 0.35776
#
# Static dielectric constant tensor:
#      x y z
#    x 2.015340 0.082300 -0.043640 
#    y 0.082300 1.920280 -0.018970 
#    z -0.043640 -0.018970 2.018270 
# 
# From -- ./inp_files/118518.got.cif
#   From: 2010.05.17/outbox.cif.g08.bks.cpg/sg2_60_cif.got.tgz:118518.got - 2010.06.03 11:33:40.
