data_PCOD9067348
_publ_section_title
;
Structure prediction by ZEFSAII (Michael W. Deem and Ramdas Pophale) SiO2 
 PCOD9067348
Probable space group: P -1
;
_chemical_formula_sum "Si O2"
_cell_formula_units_Z 16
_cell_length_a 8.719384
_cell_length_b 8.466330
_cell_length_c 11.491386
_cell_angle_alpha 55.574639
_cell_angle_beta 91.371070
_cell_angle_gamma 83.816126
_cell_volume 691.934846
_symmetry_space_group_name_H-M "P -1"
_symmetry_group_IT_number 2
_symmetry_cell_setting 'triclinic'
loop_
_space_group_symop_operation_xyz
x,y,z
-x,-y,-z
loop_
_atom_site_type_symbol
_atom_site_label
_atom_site_fract_x
_atom_site_fract_y
_atom_site_fract_z
Si Si1 0.051406 0.624194 0.130912
Si Si2 0.542495 0.898281 0.860945
Si Si3 0.826768 0.009147 0.538673
Si Si4 0.133076 0.234662 0.146641
Si Si5 0.616435 0.262281 0.862150
Si Si6 0.868112 0.611809 0.369780
Si Si7 0.644923 0.852690 0.415928
Si Si8 0.397834 0.614060 0.604218
O O1 0.076650 0.411291 0.159924
O O2 0.211434 0.683643 0.155277
O O3 0.933507 0.630251 0.234394
O O4 0.980613 0.761337 0.966516
O O5 0.697716 0.748219 0.908228
O O6 0.590153 0.093814 0.839709
O O7 0.461548 0.956525 0.712658
O O8 0.426373 0.818470 0.980388
O O9 0.718068 0.206226 0.420583
O O10 0.841362 0.960642 0.695289
O O11 0.734389 0.856125 0.537387
O O12 0.000000 0.000000 0.500000
O O13 0.494367 0.453197 0.753459
O O14 0.783644 0.808463 0.343498
O O15 0.726860 0.489776 0.421466
O O16 0.000000 0.500000 0.500000
O O17 0.522473 0.704630 0.492133
#
# Coordination Sequence:
#
# PCOD9067348 Si02
#       8
#     2   2   2   2   2   2   2   2
#     4  11  27  47  75 105 147 194 241 294 368 430
#     4  11  26  46  71 105 146 184 245 299 359 431
#     4  12  27  45  72 109 149 189 241 300 364 427
#     4  11  25  49  69 104 148 190 238 300 357 433
#     4  11  26  47  72 107 142 195 242 297 361 430
#     4  12  25  45  74 107 146 188 243 300 360 429
#     4  12  26  45  74 108 144 190 241 300 360 428
#     4  12  24  46  74 104 146 193 245 292 355 438
#
# _framework density 23.123563999999998
#
# number of rings (size 3 to 8) (size 9 to 14) (size 15 to 20)
#    0.000    0.500    2.500    5.250    7.000    3.000 
#    0.000    0.000    0.000    0.000    0.000    0.000 
#    0.000    0.000    0.000    0.000    0.000    0.000 
#
# Total GULP energy -89498.689271 kJ/mol
# GULP energy per Si atom -5593.668079 kJ/mol
# Density = 2.307093 g / cm^3
# Si number density = 23.123564 Si / 1000 Ang^3
#
#
#
# Elastic Constant Matrix: (Units=GPa)
#
#
# Indices 1 2 3 4 5 6 
#
# 1 155.6435 33.4181 43.3488 4.8275 18.8059 -6.8794
# 2 33.4181 37.3554 26.0393 3.4807 6.6057 -18.6383
# 3 43.3488 26.0393 118.6159 9.2581 22.8477 4.3841
# 4 4.8275 3.4807 9.2581 23.7573 -0.1731 2.7378
# 5 18.8059 6.6057 22.8477 -0.1731 39.8506 8.5263
# 6 -6.8794 -18.6383 4.3841 2.7378 8.5263 35.5508
#
#
#
# Elastic Compliance Matrix: (Units=1/GPa)
#
#
# Indices 1 2 3 4 5 6 
#
# 1 0.008436 -0.007277 -0.001072 -0.000058 -0.001816 -0.001610
# 2 -0.007277 0.058038 -0.009194 -0.007258 -0.007925 0.032613
# 3 -0.001072 -0.009194 0.011942 -0.002490 -0.003666 -0.005429
# 4 -0.000058 -0.007258 -0.002490 0.045103 0.004583 -0.008082
# 5 -0.001816 -0.007925 -0.003666 0.004583 0.031970 -0.012074
# 6 -0.001610 0.032613 -0.005429 -0.008082 -0.012074 0.049103
#
#
# Mechanical properties :
#
#
# Convention : Reuss Voigt Hill
#
# Bulk Modulus (GPa) = 23.07817 57.46967 40.27392
# Shear Modulus (GPa) = 19.67585 33.75231 26.71408
#
# Velocity S-wave (km/s) = 2.92018 3.82468 3.40262
# Velocity P-wave (km/s) = 4.62299 6.66419 5.73513
#
# Compressibility (1/GPa) = 0.04333099
#
# Stress axis : x y z
#
# Youngs Moduli (GPa) = 118.54226 17.23009 83.74005
#
# Poissons Ratio (x) = 0.12538 0.08974
# Poissons Ratio (y) = 0.86258 0.76991
# Poissons Ratio (z) = 0.12704 0.15841
#
# Static dielectric constant tensor:
#      x y z
#    x 1.820620 -0.016060 0.016580 
#    y -0.016060 2.078710 -0.015260 
#    z 0.016580 -0.015260 1.838520 
# 
# From -- ./inp_files/381066.got.cif
#   From: 2010.05.17/outbox.cif.g08.bks.cpg/sg2_191_cif.got.tgz:381066.got - 2010.06.03 11:33:40.
