data_PCOD9067464
_publ_section_title
;
Structure prediction by ZEFSAII (Michael W. Deem and Ramdas Pophale) SiO2 
 PCOD9067464
Probable space group: P -1
;
_chemical_formula_sum "Si O2"
_cell_formula_units_Z 16
_cell_length_a 18.326306
_cell_length_b 7.916264
_cell_length_c 6.834058
_cell_angle_alpha 81.136871
_cell_angle_beta 134.762984
_cell_angle_gamma 98.247191
_cell_volume 694.690600
_symmetry_space_group_name_H-M "P -1"
_symmetry_group_IT_number 2
_symmetry_cell_setting 'triclinic'
loop_
_space_group_symop_operation_xyz
x,y,z
-x,-y,-z
loop_
_atom_site_type_symbol
_atom_site_label
_atom_site_fract_x
_atom_site_fract_y
_atom_site_fract_z
Si Si1 0.200566 0.453547 0.121890
Si Si2 0.760223 0.936713 0.109561
Si Si3 0.091056 0.251617 0.276448
Si Si4 0.256406 0.802401 0.664014
Si Si5 0.099455 0.528642 0.549012
Si Si6 0.554531 0.423952 0.926278
Si Si7 0.608584 0.685281 0.631662
Si Si8 0.859884 0.164246 0.933432
O O1 0.136883 0.304456 0.143648
O O2 0.320458 0.424300 0.360310
O O3 0.167802 0.641327 0.092066
O O4 0.181016 0.440162 0.855534
O O5 0.703292 0.069675 0.116024
O O6 0.827082 0.836764 0.413668
O O7 0.839758 0.040612 0.099619
O O8 0.678415 0.838219 0.831313
O O9 0.079017 0.433935 0.326584
O O10 0.977854 0.161918 0.085837
O O11 0.150095 0.712573 0.564046
O O12 0.219525 0.886768 0.380257
O O13 0.337400 0.658187 0.803858
O O14 0.000000 0.500000 0.500000
O O15 0.573290 0.572898 0.773383
O O16 0.485479 0.282577 0.697082
O O17 0.500000 0.500000 0.000000
#
# Coordination Sequence:
#
# PCOD9067464 Si02
#       8
#     2   2   2   2   2   2   2   2
#     4  12  22  42  72  98 136 183 246 288 329 412
#     4  12  27  45  66 100 156 181 221 289 361 418
#     4  12  25  41  69 104 141 195 239 282 341 412
#     4  12  25  44  67 103 144 183 229 286 354 414
#     4  12  21  40  69 101 138 185 237 286 333 407
#     4  11  25  49  79 103 130 178 242 297 347 413
#     4  11  26  45  73 104 134 180 234 289 357 416
#     4  12  25  42  68 105 142 189 237 283 345 412
#
# _framework density 23.031836999999999
#
# number of rings (size 3 to 8) (size 9 to 14) (size 15 to 20)
#    0.000    0.250    6.250    2.250    3.500    2.000 
#    0.000    1.250    0.000    0.000    0.000    0.000 
#    0.000    0.000    0.000    0.000    0.000    0.000 
#
# Total GULP energy -89410.744444 kJ/mol
# GULP energy per Si atom -5588.171528 kJ/mol
# Density = 2.297942 g / cm^3
# Si number density = 23.031837 Si / 1000 Ang^3
#
#
#
# Elastic Constant Matrix: (Units=GPa)
#
#
# Indices 1 2 3 4 5 6 
#
# 1 101.4772 29.3321 14.8349 5.5047 -11.8470 0.3915
# 2 29.3321 67.9858 21.1418 11.7657 -8.0712 0.8732
# 3 14.8349 21.1418 97.9421 9.6909 -10.4480 6.5231
# 4 5.5047 11.7657 9.6909 31.4997 6.8462 -12.8952
# 5 -11.8470 -8.0712 -10.4480 6.8462 37.8049 0.3233
# 6 0.3915 0.8732 6.5231 -12.8952 0.3233 27.7661
#
#
#
# Elastic Compliance Matrix: (Units=1/GPa)
#
#
# Indices 1 2 3 4 5 6 
#
# 1 0.011551 -0.004342 -0.000376 -0.001080 0.002788 -0.000472
# 2 -0.004342 0.019104 -0.002008 -0.008152 0.003673 -0.003897
# 3 -0.000376 -0.002008 0.012098 -0.006072 0.003945 -0.005640
# 4 -0.001080 -0.008152 -0.006072 0.049926 -0.013012 0.025036
# 5 0.002788 0.003673 0.003945 -0.013012 0.031620 -0.007493
# 6 -0.000472 -0.003897 -0.005640 0.025036 -0.007493 0.049184
#
#
# Mechanical properties :
#
#
# Convention : Reuss Voigt Hill
#
# Bulk Modulus (GPa) = 34.13178 44.22475 39.17826
# Shear Modulus (GPa) = 25.41919 32.88722 29.15321
#
# Velocity S-wave (km/s) = 3.32573 3.78286 3.56164
# Velocity P-wave (km/s) = 5.44049 6.19058 5.82761
#
# Compressibility (1/GPa) = 0.02929821
#
# Stress axis : x y z
#
# Youngs Moduli (GPa) = 86.57609 52.34547 82.65966
#
# Poissons Ratio (x) = 0.22731 0.03112
# Poissons Ratio (y) = 0.37595 0.16599
# Poissons Ratio (z) = 0.03259 0.10511
#
# Static dielectric constant tensor:
#      x y z
#    x 1.882550 -0.008440 0.061800 
#    y -0.008440 1.927880 0.036770 
#    z 0.061800 0.036770 1.943040 
# 
# From -- ./inp_files/106810.got.cif
#   From: 2010.05.17/outbox.cif.g08.bks.cpg/sg2_54_cif.got.tgz:106810.got - 2010.06.03 11:33:40.
