data_PCOD9067375
_publ_section_title
;
Structure prediction by ZEFSAII (Michael W. Deem and Ramdas Pophale) SiO2 
 PCOD9067375
Probable space group: P -1
;
_chemical_formula_sum "Si O2"
_cell_formula_units_Z 16
_cell_length_a 16.030783
_cell_length_b 8.139165
_cell_length_c 14.456774
_cell_angle_alpha 138.129163
_cell_angle_beta 33.070329
_cell_angle_gamma 134.702627
_cell_volume 670.470427
_symmetry_space_group_name_H-M "P -1"
_symmetry_group_IT_number 2
_symmetry_cell_setting 'triclinic'
loop_
_space_group_symop_operation_xyz
x,y,z
-x,-y,-z
loop_
_atom_site_type_symbol
_atom_site_label
_atom_site_fract_x
_atom_site_fract_y
_atom_site_fract_z
Si Si1 0.529605 0.404791 0.819140
Si Si2 0.664170 0.493269 0.248804
Si Si3 0.860628 0.263423 0.501170
Si Si4 0.866653 0.436652 0.208237
Si Si5 0.984906 0.039971 0.640557
Si Si6 0.427717 0.715345 0.473007
Si Si7 0.927437 0.913860 0.129304
Si Si8 0.656340 0.912322 0.997190
O O1 0.690575 0.327887 0.673057
O O2 0.546348 0.427958 0.703748
O O3 0.531576 0.686177 0.969957
O O4 0.380343 0.196314 0.908855
O O5 0.766161 0.531784 0.262745
O O6 0.511526 0.607728 0.434605
O O7 0.775315 0.691242 0.160550
O O8 0.631049 0.196031 0.133849
O O9 0.000000 0.500000 0.500000
O O10 0.896763 0.129766 0.316352
O O11 0.875582 0.064323 0.484017
O O12 0.750608 0.317177 0.347042
O O13 0.988172 0.666056 0.236576
O O14 0.947084 0.228705 0.000900
O O15 0.820865 0.915654 0.792706
O O16 0.000000 0.000000 0.500000
O O17 0.500000 0.000000 0.500000
O O18 0.000000 0.000000 0.000000
#
# Coordination Sequence:
#
# PCOD9067375 Si02
#       8
#     2   2   2   2   2   2   2   2
#     4  11  26  50  72 106 150 194 243 314 373 454
#     4  12  25  45  72 106 143 200 242 308 374 442
#     4  12  26  46  77 106 151 193 246 306 380 439
#     4  12  25  46  75 107 151 187 255 311 367 446
#     4  12  26  47  74 110 144 194 248 307 373 448
#     4  12  27  47  71 107 148 195 251 303 376 451
#     4  12  26  46  76 112 148 197 252 309 373 450
#     4  11  25  49  73 106 148 192 247 303 385 444
#
# _framework density 23.863838999999999
#
# number of rings (size 3 to 8) (size 9 to 14) (size 15 to 20)
#    0.000    0.250    3.750    5.250    3.500    1.500 
#    4.500    0.000    0.000    0.000    0.000    0.000 
#    0.000    0.000    0.000    0.000    0.000    0.000 
#
# Total GULP energy -89455.472173 kJ/mol
# GULP energy per Si atom -5590.967011 kJ/mol
# Density = 2.380952 g / cm^3
# Si number density = 23.863839 Si / 1000 Ang^3
#
#
#
# Elastic Constant Matrix: (Units=GPa)
#
#
# Indices 1 2 3 4 5 6 
#
# 1 99.0226 11.3298 35.9466 2.3548 3.3295 -6.3343
# 2 11.3298 169.0143 64.0872 -6.0941 7.5259 8.0134
# 3 35.9466 64.0872 124.1036 -10.9119 17.2681 6.9119
# 4 2.3548 -6.0941 -10.9119 58.5915 1.1576 6.5333
# 5 3.3295 7.5259 17.2681 1.1576 40.0422 -1.6088
# 6 -6.3343 8.0134 6.9119 6.5333 -1.6088 21.8625
#
#
#
# Elastic Compliance Matrix: (Units=1/GPa)
#
#
# Indices 1 2 3 4 5 6 
#
# 1 0.011955 0.000468 -0.004305 -0.001843 0.001040 0.005280
# 2 0.000468 0.007430 -0.003905 0.000178 0.000188 -0.001393
# 3 -0.004305 -0.003905 0.012469 0.002727 -0.004561 -0.004909
# 4 -0.001843 0.000178 0.002727 0.018500 -0.001877 -0.007128
# 5 0.001040 0.000188 -0.004561 -0.001877 0.027043 0.004226
# 6 0.005280 -0.001393 -0.004909 -0.007128 0.004226 0.051774
#
#
# Mechanical properties :
#
#
# Convention : Reuss Voigt Hill
#
# Bulk Modulus (GPa) = 61.09118 68.31864 64.70491
# Shear Modulus (GPa) = 33.30846 42.81769 38.06307
#
# Velocity S-wave (km/s) = 3.74006 4.24045 3.99809
# Velocity P-wave (km/s) = 6.65629 7.25713 6.96319
#
# Compressibility (1/GPa) = 0.01636897
#
# Stress axis : x y z
#
# Youngs Moduli (GPa) = 83.64958 134.58496 80.19683
#
# Poissons Ratio (x) = -0.06298 0.34526
# Poissons Ratio (y) = -0.03914 0.31320
# Poissons Ratio (z) = 0.36012 0.52561
#
# Static dielectric constant tensor:
#      x y z
#    x 1.976660 -0.022180 0.007100 
#    y -0.022180 1.962480 -0.037800 
#    z 0.007100 -0.037800 2.061370 
# 
# From -- ./inp_files/537673.got.cif
#   From: 2010.05.17/outbox.cif.g08.bks.cpg/sg2_269_cif.got.tgz:537673.got - 2010.06.03 11:33:40.
