data_PCOD9067441
_publ_section_title
;
Structure prediction by ZEFSAII (Michael W. Deem and Ramdas Pophale) SiO2 
 PCOD9067441
Probable space group: P -1
;
_chemical_formula_sum "Si O2"
_cell_formula_units_Z 11
_cell_length_a 9.384776
_cell_length_b 10.234430
_cell_length_c 7.716168
_cell_angle_alpha 122.987009
_cell_angle_beta 113.570256
_cell_angle_gamma 107.147173
_cell_volume 424.695304
_symmetry_space_group_name_H-M "P -1"
_symmetry_group_IT_number 2
_symmetry_cell_setting 'triclinic'
loop_
_space_group_symop_operation_xyz
x,y,z
-x,-y,-z
loop_
_atom_site_type_symbol
_atom_site_label
_atom_site_fract_x
_atom_site_fract_y
_atom_site_fract_z
Si Si1 0.762994 0.293212 0.223354
Si Si2 0.500000 0.000000 0.500000
Si Si3 0.170613 0.248228 0.233596
Si Si4 0.550444 0.837658 0.725228
Si Si5 0.296983 0.463954 0.826013
Si Si6 0.980554 0.301491 0.857813
O O1 0.665825 0.323619 0.035238
O O2 0.000000 0.500000 0.500000
O O3 0.636285 0.250043 0.300411
O O4 0.091264 0.310161 0.090969
O O5 0.507939 0.162300 0.497528
O O6 0.264683 0.896992 0.389229
O O7 0.224418 0.359549 0.524900
O O8 0.366202 0.276953 0.285712
O O9 0.725441 0.086640 0.027402
O O10 0.000000 0.000000 0.000000
O O11 0.109933 0.321861 0.770754
O O12 0.500000 0.500000 0.000000
O O13 0.000000 0.500000 0.000000
#
# Coordination Sequence:
#
# PCOD9067441 Si02
#       6
#     2   1   2   2   2   2
#     4  11  25  49  77 114 155 216 272 332 409 492
#     4  12  26  48  76 120 156 210 278 326 412 490
#     4  12  28  53  81 123 169 217 277 348 424 491
#     4  11  26  47  78 112 163 210 267 342 408 489
#     4  12  30  51  84 124 166 219 285 342 422 504
#     4  12  30  54  86 120 169 222 277 348 418 504
#
# _framework density 25.900922000000001
#
# number of rings (size 3 to 8) (size 9 to 14) (size 15 to 20)
#    0.000    0.364    1.818    4.364   10.182    3.636 
#    0.000    0.000    0.000    0.000    0.000    0.000 
#    0.000    0.000    0.000    0.000    0.000    0.000 
#
# Total GULP energy -61537.215267 kJ/mol
# GULP energy per Si atom -5594.292297 kJ/mol
# Density = 2.584197 g / cm^3
# Si number density = 25.900922 Si / 1000 Ang^3
#
#
#
# Elastic Constant Matrix: (Units=GPa)
#
#
# Indices 1 2 3 4 5 6 
#
# 1 213.4387 91.8925 70.2037 -3.8332 23.4690 9.3292
# 2 91.8925 215.0366 82.9801 -13.8600 16.6376 2.3054
# 3 70.2037 82.9801 137.8902 -2.9951 15.1851 1.8701
# 4 -3.8332 -13.8600 -2.9951 47.5834 1.0712 7.7246
# 5 23.4690 16.6376 15.1851 1.0712 38.8637 -13.2871
# 6 9.3292 2.3054 1.8701 7.7246 -13.2871 67.0090
#
#
#
# Elastic Compliance Matrix: (Units=1/GPa)
#
#
# Indices 1 2 3 4 5 6 
#
# 1 0.006448 -0.001786 -0.001869 0.000169 -0.002873 -0.001373
# 2 -0.001786 0.006754 -0.003031 0.001689 -0.000758 -0.000244
# 3 -0.001869 -0.003031 0.010202 -0.000322 -0.001621 -0.000205
# 4 0.000169 0.001689 -0.000322 0.022055 -0.002362 -0.003083
# 5 -0.002873 -0.000758 -0.001621 -0.002362 0.030833 0.006857
# 6 -0.001373 -0.000244 -0.000205 -0.003083 0.006857 0.016844
#
#
# Mechanical properties :
#
#
# Convention : Reuss Voigt Hill
#
# Bulk Modulus (GPa) = 99.69745 117.39090 108.54418
# Shear Modulus (GPa) = 45.51545 52.11051 48.81298
#
# Velocity S-wave (km/s) = 4.19655 4.49031 4.34591
# Velocity P-wave (km/s) = 7.87762 8.50325 8.19640
#
# Compressibility (1/GPa) = 0.01003035
#
# Stress axis : x y z
#
# Youngs Moduli (GPa) = 155.08674 148.06969 98.01713
#
# Poissons Ratio (x) = 0.26449 0.18322
# Poissons Ratio (y) = 0.27702 0.29712
# Poissons Ratio (z) = 0.28990 0.44884
#
# Static dielectric constant tensor:
#      x y z
#    x 2.022580 -0.016250 0.115930 
#    y -0.016250 1.977500 -0.024310 
#    z 0.115930 -0.024310 1.729240 
# 
# From -- ./inp_files/166408.got.cif
#   From: 2010.05.17/outbox.cif.g08.bks.cpg/sg2_84_cif.got.tgz:166408.got - 2010.06.03 11:33:40.
