data_PCOD9067510
_publ_section_title
;
Structure prediction by ZEFSAII (Michael W. Deem and Ramdas Pophale) SiO2 
 PCOD9067510
Probable space group: P -1
;
_chemical_formula_sum "Si O2"
_cell_formula_units_Z 15
_cell_length_a 12.006714
_cell_length_b 15.400815
_cell_length_c 18.509265
_cell_angle_alpha 23.951534
_cell_angle_beta 32.366164
_cell_angle_gamma 27.914719
_cell_volume 637.975263
_symmetry_space_group_name_H-M "P -1"
_symmetry_group_IT_number 2
_symmetry_cell_setting 'triclinic'
loop_
_space_group_symop_operation_xyz
x,y,z
-x,-y,-z
loop_
_atom_site_type_symbol
_atom_site_label
_atom_site_fract_x
_atom_site_fract_y
_atom_site_fract_z
Si Si1 0.743353 0.763448 0.279538
Si Si2 0.219078 0.540732 0.285857
Si Si3 0.130642 0.813667 0.504929
Si Si4 0.846844 0.056980 0.874767
Si Si5 0.418657 0.647616 0.342503
Si Si6 0.500000 0.000000 0.500000
Si Si7 0.677070 0.864218 0.662887
Si Si8 0.337981 0.573734 0.960409
O O1 0.694954 0.536978 0.461223
O O2 0.995933 0.665874 0.257798
O O3 0.532156 0.946958 0.311811
O O4 0.763854 0.914576 0.084807
O O5 0.155346 0.712198 0.260095
O O6 0.316123 0.250593 0.459535
O O7 0.463891 0.523512 0.135979
O O8 0.323629 0.805936 0.348187
O O9 0.294734 0.543199 0.658733
O O10 0.903110 0.899452 0.511755
O O11 0.000000 0.000000 0.500000
O O12 0.675550 0.172303 0.811504
O O13 0.129478 0.859747 0.849473
O O14 0.388452 0.149988 0.372409
O O15 0.784132 0.591112 0.846041
O O16 0.500000 0.500000 0.000000
#
# Coordination Sequence:
#
# PCOD9067510 Si02
#       8
#     2   2   2   2   2   1   2   2
#     4  12  24  47  71 105 152 192 230 308 364 428
#     4  12  26  40  66 107 149 188 236 289 368 434
#     4  11  25  50  75 103 143 191 243 307 357 421
#     4  12  26  45  73 106 147 190 247 293 364 443
#     4  11  27  48  76 102 138 191 248 301 362 421
#     4  12  26  40  70 110 140 190 242 288 358 450
#     4  12  25  45  75 104 148 191 240 298 372 425
#     4  12  23  43  66 102 149 190 228 301 360 429
#
# _framework density 23.511883999999998
#
# number of rings (size 3 to 8) (size 9 to 14) (size 15 to 20)
#    0.000    0.267    5.333    3.600    3.733    1.067 
#    0.000    6.667    0.000    0.000    0.000    0.000 
#    0.000    0.000    0.000    0.000    0.000    0.000 
#
# Total GULP energy -83558.205768 kJ/mol
# GULP energy per Si atom -5570.547051 kJ/mol
# Density = 2.345837 g / cm^3
# Si number density = 23.511884 Si / 1000 Ang^3
#
#
#
# Elastic Constant Matrix: (Units=GPa)
#
#
# Indices 1 2 3 4 5 6 
#
# 1 60.3103 18.7666 20.6591 1.1625 29.8773 -6.5138
# 2 18.7666 154.0145 1.5277 -23.4396 10.4079 2.8472
# 3 20.6591 1.5277 46.7958 -10.4368 15.5061 -4.8001
# 4 1.1625 -23.4396 -10.4368 30.5124 -5.3593 -1.8915
# 5 29.8773 10.4079 15.5061 -5.3593 35.6728 -7.2547
# 6 -6.5138 2.8472 -4.8001 -1.8915 -7.2547 41.2988
#
#
#
# Elastic Compliance Matrix: (Units=1/GPa)
#
#
# Indices 1 2 3 4 5 6 
#
# 1 0.033402 -0.004119 -0.009134 -0.011919 -0.024673 -0.000389
# 2 -0.004119 0.008048 0.002886 0.007460 0.000893 -0.000371
# 3 -0.009134 0.002886 0.029441 0.012064 -0.003839 0.001660
# 4 -0.011919 0.007460 0.012064 0.044997 0.009893 0.002807
# 5 -0.024673 0.000893 -0.003839 0.009893 0.052671 0.005306
# 6 -0.000389 -0.000371 0.001660 0.002807 0.005306 0.025432
#
#
# Mechanical properties :
#
#
# Convention : Reuss Voigt Hill
#
# Bulk Modulus (GPa) = 19.93781 38.11418 29.02600
# Shear Modulus (GPa) = 21.60360 36.17462 28.88911
#
# Velocity S-wave (km/s) = 3.03452 3.92671 3.50909
# Velocity P-wave (km/s) = 4.55808 6.06668 5.36566
#
# Compressibility (1/GPa) = 0.05015595
#
# Stress axis : x y z
#
# Youngs Moduli (GPa) = 29.93831 124.25350 33.96672
#
# Poissons Ratio (x) = 0.51178 0.31026
# Poissons Ratio (y) = 0.12331 -0.09802
# Poissons Ratio (z) = 0.27346 -0.35855
#
# Static dielectric constant tensor:
#      x y z
#    x 1.890830 0.019850 -0.070860 
#    y 0.019850 1.934090 0.055050 
#    z -0.070860 0.055050 1.991360 
# 
# From -- ./inp_files/569478.got.cif
#   From: 2010.05.17/outbox.cif.g08.bks.cpg/sg2_285_cif.got.tgz:569478.got - 2010.06.03 11:33:40.
