data_PCOD9067059
_publ_section_title
;
Structure prediction by ZEFSAII (Michael W. Deem and Ramdas Pophale) SiO2 
 PCOD9067059
Probable space group: P -1
;
_chemical_formula_sum "Si O2"
_cell_formula_units_Z 14
_cell_length_a 8.841558
_cell_length_b 7.500372
_cell_length_c 14.658245
_cell_angle_alpha 114.093114
_cell_angle_beta 114.362904
_cell_angle_gamma 112.814676
_cell_volume 600.985032
_symmetry_space_group_name_H-M "P -1"
_symmetry_group_IT_number 2
_symmetry_cell_setting 'triclinic'
loop_
_space_group_symop_operation_xyz
x,y,z
-x,-y,-z
loop_
_atom_site_type_symbol
_atom_site_label
_atom_site_fract_x
_atom_site_fract_y
_atom_site_fract_z
Si Si1 0.636151 0.925149 0.764367
Si Si2 0.605400 0.889026 0.456391
Si Si3 0.255354 0.297699 0.940039
Si Si4 0.848167 0.835568 0.660266
Si Si5 0.170157 0.620261 0.486632
Si Si6 0.809926 0.466975 0.853346
Si Si7 0.290754 0.941223 0.986343
O O1 0.742737 0.817528 0.726126
O O2 0.407394 0.780167 0.626366
O O3 0.781161 0.225111 0.832323
O O4 0.613089 0.906198 0.862044
O O5 0.692664 0.798477 0.531977
O O6 0.409022 0.664676 0.292274
O O7 0.500000 0.000000 0.500000
O O8 0.814812 0.161094 0.516085
O O9 0.500000 0.500000 0.000000
O O10 0.212000 0.414198 0.036803
O O11 0.076300 0.141485 0.780975
O O12 0.231332 0.070904 0.934015
O O13 0.874038 0.622899 0.622633
O O14 0.000000 0.500000 0.500000
O O15 0.047310 0.662728 0.899114
O O16 0.500000 0.000000 0.000000
#
# Coordination Sequence:
#
# PCOD9067059 Si02
#       7
#     2   2   2   2   2   2   2
#     4  11  25  47  77 108 146 204 245 321 374 451
#     4  11  26  47  80 110 147 205 248 315 383 449
#     4  12  30  47  75 112 151 201 256 315 380 457
#     4  12  27  49  79 108 156 195 259 309 381 454
#     4  11  28  46  74 115 154 194 258 313 383 456
#     4  11  25  50  75 110 153 193 262 305 385 456
#     4  12  28  45  77 109 151 203 252 314 386 453
#
# _framework density 23.295086999999999
#
# number of rings (size 3 to 8) (size 9 to 14) (size 15 to 20)
#    0.000    0.571    4.286    2.143   12.000    1.714 
#    0.000    0.000    0.000    0.000    0.000    0.000 
#    0.000    0.000    0.000    0.000    0.000    0.000 
#
# Total GULP energy -78222.248206 kJ/mol
# GULP energy per Si atom -5587.303443 kJ/mol
# Density = 2.324207 g / cm^3
# Si number density = 23.295087 Si / 1000 Ang^3
#
#
#
# Elastic Constant Matrix: (Units=GPa)
#
#
# Indices 1 2 3 4 5 6 
#
# 1 139.0609 53.9953 61.3009 16.6986 -21.3248 24.3890
# 2 53.9953 114.0761 37.4808 9.0555 -6.7922 20.6919
# 3 61.3009 37.4808 168.9860 2.7449 -0.5546 2.7444
# 4 16.6986 9.0555 2.7449 41.6756 4.8626 5.6216
# 5 -21.3248 -6.7922 -0.5546 4.8626 24.2779 4.5363
# 6 24.3890 20.6919 2.7444 5.6216 4.5363 47.7697
#
#
#
# Elastic Compliance Matrix: (Units=1/GPa)
#
#
# Indices 1 2 3 4 5 6 
#
# 1 0.014031 -0.002854 -0.004220 -0.005468 0.013710 -0.006343
# 2 -0.002854 0.011361 -0.001409 -0.000943 0.001466 -0.003411
# 3 -0.004220 -0.001409 0.007676 0.001698 -0.004747 0.002575
# 4 -0.005468 -0.000943 0.001698 0.027405 -0.010684 0.000892
# 5 0.013710 0.001466 -0.004747 -0.010684 0.057841 -0.011597
# 6 -0.006343 -0.003411 0.002575 0.000892 -0.011597 0.026498
#
#
# Mechanical properties :
#
#
# Convention : Reuss Voigt Hill
#
# Bulk Modulus (GPa) = 62.10386 80.85302 71.47844
# Shear Modulus (GPa) = 29.91418 40.70102 35.30760
#
# Velocity S-wave (km/s) = 3.58738 4.18448 3.89738
# Velocity P-wave (km/s) = 6.62394 7.62430 7.14166
#
# Compressibility (1/GPa) = 0.01610206
#
# Stress axis : x y z
#
# Youngs Moduli (GPa) = 71.27082 88.02285 130.27527
#
# Poissons Ratio (x) = 0.25119 0.54977
# Poissons Ratio (y) = 0.20339 0.18356
# Poissons Ratio (z) = 0.30077 0.12403
#
# Static dielectric constant tensor:
#      x y z
#    x 1.807890 0.007180 0.017170 
#    y 0.007180 1.963790 0.030220 
#    z 0.017170 0.030220 1.972630 
# 
# From -- ./inp_files/495621.got.cif
#   From: 2010.05.17/outbox.cif.g08.bks.cpg/sg2_248_cif.got.tgz:495621.got - 2010.06.03 11:33:40.
