data_PCOD9067271
_publ_section_title
;
Structure prediction by ZEFSAII (Michael W. Deem and Ramdas Pophale) SiO2 
 PCOD9067271
Probable space group: P -1
;
_chemical_formula_sum "Si O2"
_cell_formula_units_Z 15
_cell_length_a 11.672250
_cell_length_b 5.938313
_cell_length_c 8.331871
_cell_angle_alpha 86.576051
_cell_angle_beta 96.896267
_cell_angle_gamma 74.334056
_cell_volume 549.463852
_symmetry_space_group_name_H-M "P -1"
_symmetry_group_IT_number 2
_symmetry_cell_setting 'triclinic'
loop_
_space_group_symop_operation_xyz
x,y,z
-x,-y,-z
loop_
_atom_site_type_symbol
_atom_site_label
_atom_site_fract_x
_atom_site_fract_y
_atom_site_fract_z
Si Si1 0.601072 0.579341 0.918658
Si Si2 0.855258 0.649603 0.661147
Si Si3 0.122204 0.624348 0.617440
Si Si4 0.442669 0.844268 0.610225
Si Si5 0.000000 0.500000 0.000000
Si Si6 0.727062 0.843594 0.156260
Si Si7 0.778961 0.157244 0.579931
Si Si8 0.156192 0.839346 0.041752
O O1 0.549418 0.665257 0.733536
O O2 0.716201 0.356167 0.946397
O O3 0.500000 0.500000 0.000000
O O4 0.641080 0.781903 0.010232
O O5 0.826701 0.444962 0.556147
O O6 0.983434 0.657016 0.610720
O O7 0.760150 0.889294 0.603277
O O8 0.890524 0.578366 0.849828
O O9 0.194464 0.409072 0.746290
O O10 0.149207 0.869222 0.584196
O O11 0.359737 0.716734 0.500675
O O12 0.500000 0.000000 0.500000
O O13 0.358648 0.996517 0.732981
O O14 0.049638 0.737901 0.960900
O O15 0.822677 0.951961 0.075791
O O16 0.848041 0.124909 0.768353
#
# Coordination Sequence:
#
# PCOD9067271 Si02
#       8
#     2   2   2   2   1   2   2   2
#     4  12  27  51  79 115 157 208 266 318 394 466
#     4  11  26  46  74 109 151 195 257 315 384 460
#     4  11  25  48  76 110 151 201 247 319 387 458
#     4  12  28  46  79 112 155 203 255 325 391 463
#     4  12  28  50  76 112 150 208 264 320 390 462
#     4  12  27  51  79 116 159 205 258 324 395 465
#     4  12  27  50  76 113 153 202 259 319 391 466
#     4  12  30  50  78 114 160 210 263 327 389 473
#
# _framework density 27.299337999999999
#
# number of rings (size 3 to 8) (size 9 to 14) (size 15 to 20)
#    0.000    0.267    4.000    3.200   11.200    3.200 
#    0.000    0.000    0.000    0.000    0.000    0.000 
#    0.000    0.000    0.000    0.000    0.000    0.000 
#
# Total GULP energy -83674.359069 kJ/mol
# GULP energy per Si atom -5578.290605 kJ/mol
# Density = 2.723720 g / cm^3
# Si number density = 27.299338 Si / 1000 Ang^3
#
#
#
# Elastic Constant Matrix: (Units=GPa)
#
#
# Indices 1 2 3 4 5 6 
#
# 1 182.3910 33.0844 61.3145 -2.4920 -4.8787 38.2686
# 2 33.0844 65.4600 68.2052 -11.2559 -3.8392 10.1116
# 3 61.3145 68.2052 191.6883 -32.7741 10.2044 22.2991
# 4 -2.4920 -11.2559 -32.7741 57.9182 11.0540 -10.6709
# 5 -4.8787 -3.8392 10.2044 11.0540 56.9204 -8.8334
# 6 38.2686 10.1116 22.2991 -10.6709 -8.8334 57.4556
#
#
#
# Elastic Compliance Matrix: (Units=1/GPa)
#
#
# Indices 1 2 3 4 5 6 
#
# 1 0.007155 -0.001635 -0.001549 -0.001738 0.000478 -0.004126
# 2 -0.001635 0.025317 -0.008837 -0.000709 0.003359 0.000448
# 3 -0.001549 -0.008837 0.009893 0.004298 -0.003491 -0.000991
# 4 -0.001738 -0.000709 0.004298 0.020874 -0.004589 0.002786
# 5 0.000478 0.003359 -0.003491 -0.004589 0.019761 0.002631
# 6 -0.004126 0.000448 -0.000991 0.002786 0.002631 0.021380
#
#
# Mechanical properties :
#
#
# Convention : Reuss Voigt Hill
#
# Bulk Modulus (GPa) = 54.58418 84.97195 69.77806
# Shear Modulus (GPa) = 37.16643 52.92119 45.04381
#
# Velocity S-wave (km/s) = 3.69377 4.40768 4.06642
# Velocity P-wave (km/s) = 6.18305 7.55626 6.90388
#
# Compressibility (1/GPa) = 0.01832033
#
# Stress axis : x y z
#
# Youngs Moduli (GPa) = 139.76404 39.49985 101.08552
#
# Poissons Ratio (x) = 0.06460 0.15662
# Poissons Ratio (y) = 0.22856 0.89331
# Poissons Ratio (z) = 0.21655 0.34907
#
# Static dielectric constant tensor:
#      x y z
#    x 2.133970 0.022750 -0.029130 
#    y 0.022750 2.391150 0.216850 
#    z -0.029130 0.216850 2.273380 
# 
# From -- ./inp_files/229636.got.cif
#   From: 2010.05.17/outbox.cif.g08.bks.cpg/sg2_115_cif.got.tgz:229636.got - 2010.06.03 11:33:40.
