data_PCOD9067779
_publ_section_title
;
Structure prediction by ZEFSAII (Michael W. Deem and Ramdas Pophale) SiO2 
 PCOD9067779
Probable space group: P -1
;
_chemical_formula_sum "Si O2"
_cell_formula_units_Z 16
_cell_length_a 8.849701
_cell_length_b 9.156964
_cell_length_c 15.158037
_cell_angle_alpha 140.976902
_cell_angle_beta 106.641324
_cell_angle_gamma 66.814301
_cell_volume 710.543144
_symmetry_space_group_name_H-M "P -1"
_symmetry_group_IT_number 2
_symmetry_cell_setting 'triclinic'
loop_
_space_group_symop_operation_xyz
x,y,z
-x,-y,-z
loop_
_atom_site_type_symbol
_atom_site_label
_atom_site_fract_x
_atom_site_fract_y
_atom_site_fract_z
Si Si1 0.707521 0.484218 0.666199
Si Si2 0.646560 0.228892 0.218812
Si Si3 0.192075 0.644526 0.030163
Si Si4 0.169331 0.022533 0.499779
Si Si5 0.349307 0.398641 0.763007
Si Si6 0.812918 0.681246 0.954975
Si Si7 0.694511 0.009495 0.676456
Si Si8 0.823221 0.483412 0.491732
O O1 0.530823 0.677706 0.721491
O O2 0.694045 0.214703 0.553533
O O3 0.810276 0.468431 0.587143
O O4 0.791534 0.556643 0.800976
O O5 0.643292 0.402169 0.215182
O O6 0.776781 0.271964 0.331826
O O7 0.694136 0.952041 0.067744
O O8 0.239443 0.885399 0.177523
O O9 0.999776 0.692078 0.999897
O O10 0.296606 0.519473 0.905466
O O11 0.225863 0.472808 0.041859
O O12 0.176129 0.002383 0.386316
O O13 0.216784 0.260855 0.647129
O O14 0.000000 0.000000 0.500000
O O15 0.522893 0.194543 0.706054
O O16 0.691618 0.736431 0.561460
O O17 0.000000 0.500000 0.500000
#
# Coordination Sequence:
#
# PCOD9067779 Si02
#       8
#     2   2   2   2   2   2   2   2
#     4  12  26  46  72 101 141 188 229 286 348 408
#     4  12  26  47  70 106 140 181 231 288 347 412
#     4  11  26  45  72 103 137 185 231 285 342 416
#     4  12  24  44  73  98 137 182 230 283 342 409
#     4  12  26  44  75 104 139 181 231 287 347 410
#     4  11  26  46  71 103 140 180 236 282 346 411
#     4  12  24  48  69 103 142 180 234 285 341 413
#     4  12  28  45  70 104 141 181 234 290 348 407
#
# _framework density 22.517987999999999
#
# number of rings (size 3 to 8) (size 9 to 14) (size 15 to 20)
#    0.000    0.250    3.750    4.500    8.750    0.500 
#    0.000    0.000    0.000    0.000    0.000    0.000 
#    0.000    0.000    0.000    0.000    0.000    0.000 
#
# Total GULP energy -89667.501059 kJ/mol
# GULP energy per Si atom -5604.218816 kJ/mol
# Density = 2.246674 g / cm^3
# Si number density = 22.517988 Si / 1000 Ang^3
#
#
#
# Elastic Constant Matrix: (Units=GPa)
#
#
# Indices 1 2 3 4 5 6 
#
# 1 68.5332 9.6788 16.0124 -23.2931 -10.5283 2.0980
# 2 9.6788 71.8274 23.1994 -8.6291 -17.7763 5.2105
# 3 16.0124 23.1994 109.1848 -23.6730 -14.9865 16.1675
# 4 -23.2931 -8.6291 -23.6730 47.6349 4.4100 -4.6418
# 5 -10.5283 -17.7763 -14.9865 4.4100 38.9341 -8.9427
# 6 2.0980 5.2105 16.1675 -4.6418 -8.9427 30.6697
#
#
#
# Elastic Compliance Matrix: (Units=1/GPa)
#
#
# Indices 1 2 3 4 5 6 
#
# 1 0.018156 -0.000434 -0.000435 0.008363 0.003935 0.001474
# 2 -0.000434 0.016442 -0.002399 0.001028 0.006475 0.000544
# 3 -0.000435 -0.002399 0.011616 0.004528 0.001711 -0.004502
# 4 0.008363 0.001028 0.004528 0.027509 0.001708 0.001528
# 5 0.003935 0.006475 0.001711 0.001708 0.031840 0.007271
# 6 0.001474 0.000544 -0.004502 0.001528 0.007271 0.037137
#
#
# Mechanical properties :
#
#
# Convention : Reuss Voigt Hill
#
# Bulk Modulus (GPa) = 25.20399 38.59183 31.89791
# Shear Modulus (GPa) = 30.77630 36.82472 33.80051
#
# Velocity S-wave (km/s) = 3.70096 4.04833 3.87854
# Velocity P-wave (km/s) = 5.42954 6.24719 5.85266
#
# Compressibility (1/GPa) = 0.03967626
#
# Stress axis : x y z
#
# Youngs Moduli (GPa) = 55.07753 60.81982 86.09146
#
# Poissons Ratio (x) = 0.02641 0.03749
# Poissons Ratio (y) = 0.02392 0.20653
# Poissons Ratio (z) = 0.02398 0.14591
#
# Static dielectric constant tensor:
#      x y z
#    x 1.807730 -0.032900 -0.000800 
#    y -0.032900 1.860700 0.009780 
#    z -0.000800 0.009780 1.787560 
# 
# From -- ./inp_files/223878.got.cif
#   From: 2010.05.17/outbox.cif.g08.bks.cpg/sg2_112_cif.got.tgz:223878.got - 2010.06.03 11:33:40.
