data_PCOD9067372
_publ_section_title
;
Structure prediction by ZEFSAII (Michael W. Deem and Ramdas Pophale) SiO2 
 PCOD9067372
Probable space group: P -1
;
_chemical_formula_sum "Si O2"
_cell_formula_units_Z 14
_cell_length_a 8.987165
_cell_length_b 20.750269
_cell_length_c 6.816991
_cell_angle_alpha 110.592283
_cell_angle_beta 58.251469
_cell_angle_gamma 142.797928
_cell_volume 647.991145
_symmetry_space_group_name_H-M "P -1"
_symmetry_group_IT_number 2
_symmetry_cell_setting 'triclinic'
loop_
_space_group_symop_operation_xyz
x,y,z
-x,-y,-z
loop_
_atom_site_type_symbol
_atom_site_label
_atom_site_fract_x
_atom_site_fract_y
_atom_site_fract_z
Si Si1 0.001518 0.823513 0.652956
Si Si2 0.304186 0.792219 0.186844
Si Si3 0.526889 0.623234 0.039984
Si Si4 0.136177 0.115295 0.527696
Si Si5 0.893277 0.616148 0.956349
Si Si6 0.291259 0.974155 0.970695
Si Si7 0.681608 0.301563 0.555332
O O1 0.730390 0.718151 0.842484
O O2 0.932784 0.865320 0.601214
O O3 0.124561 0.799072 0.413836
O O4 0.228544 0.914395 0.751941
O O5 0.361149 0.755316 0.279111
O O6 0.578037 0.912253 0.047626
O O7 0.123914 0.703824 0.047447
O O8 0.714365 0.630046 0.051686
O O9 0.306413 0.505508 0.969245
O O10 0.371690 0.635385 0.283045
O O11 0.452444 0.210246 0.460030
O O12 0.000000 0.000000 0.500000
O O13 0.991354 0.108662 0.805008
O O14 0.033916 0.632562 0.674163
O O15 0.500000 0.000000 0.000000
#
# Coordination Sequence:
#
# PCOD9067372 Si02
#       7
#     2   2   2   2   2   2   2
#     4  12  25  47  69 106 141 184 234 284 353 419
#     4  12  26  43  74 104 138 185 235 288 349 416
#     4  11  25  49  73 102 142 185 234 291 349 414
#     4  12  27  42  69 102 145 187 228 289 347 416
#     4  11  26  50  72 101 142 186 234 290 350 413
#     4  12  25  43  70 102 139 184 232 283 348 418
#     4  12  26  47  70 107 140 182 239 288 348 414
#
# _framework density 21.605236000000001
#
# number of rings (size 3 to 8) (size 9 to 14) (size 15 to 20)
#    0.000    0.286    4.286    4.286    6.000    2.286 
#    2.571    0.000    0.000    0.000    0.000    0.000 
#    0.000    0.000    0.000    0.000    0.000    0.000 
#
# Total GULP energy -78402.509312 kJ/mol
# GULP energy per Si atom -5600.179237 kJ/mol
# Density = 2.155606 g / cm^3
# Si number density = 21.605236 Si / 1000 Ang^3
#
#
#
# Elastic Constant Matrix: (Units=GPa)
#
#
# Indices 1 2 3 4 5 6 
#
# 1 121.5122 48.0988 42.5315 9.5171 8.4422 -21.3514
# 2 48.0988 135.7038 46.9016 4.1467 18.3081 -11.5598
# 3 42.5315 46.9016 87.5666 8.1819 12.2513 -3.7503
# 4 9.5171 4.1467 8.1819 30.5738 0.6206 -2.5851
# 5 8.4422 18.3081 12.2513 0.6206 34.9190 0.8647
# 6 -21.3514 -11.5598 -3.7503 -2.5851 0.8647 34.0298
#
#
#
# Elastic Compliance Matrix: (Units=1/GPa)
#
#
# Indices 1 2 3 4 5 6 
#
# 1 0.011729 -0.002122 -0.004080 -0.001750 -0.000411 0.006066
# 2 -0.002122 0.010052 -0.003844 0.000547 -0.003463 0.001790
# 3 -0.004080 -0.003844 0.015958 -0.002618 -0.002495 -0.002242
# 4 -0.001750 0.000547 -0.002618 0.033986 0.000417 0.001370
# 5 -0.000411 -0.003463 -0.002495 0.000417 0.031482 -0.002478
# 6 0.006066 0.001790 -0.002242 0.001370 -0.002478 0.033720
#
#
# Mechanical properties :
#
#
# Convention : Reuss Voigt Hill
#
# Bulk Modulus (GPa) = 56.65916 68.87182 62.76549
# Shear Modulus (GPa) = 30.69360 33.72123 32.20741
#
# Velocity S-wave (km/s) = 3.77325 3.95497 3.86518
# Velocity P-wave (km/s) = 6.72792 7.26652 7.00240
#
# Compressibility (1/GPa) = 0.01764940
#
# Stress axis : x y z
#
# Youngs Moduli (GPa) = 85.25937 99.47968 62.66530
#
# Poissons Ratio (x) = 0.21105 0.25565
# Poissons Ratio (y) = 0.18088 0.24086
# Poissons Ratio (z) = 0.34783 0.38237
#
# Static dielectric constant tensor:
#      x y z
#    x 1.756200 0.002880 -0.042290 
#    y 0.002880 1.779260 -0.010720 
#    z -0.042290 -0.010720 1.808750 
# 
# From -- ./inp_files/37028.got.cif
#   From: 2010.05.17/outbox.cif.g08.bks.cpg/sg2_19_cif.got.tgz:37028.got - 2010.06.03 11:33:40.
