data_PCOD9067912
_publ_section_title
;
Structure prediction by ZEFSAII (Michael W. Deem and Ramdas Pophale) SiO2 
 PCOD9067912
Probable space group: P -1
;
_chemical_formula_sum "Si O2"
_cell_formula_units_Z 13
_cell_length_a 8.304020
_cell_length_b 9.603502
_cell_length_c 9.784828
_cell_angle_alpha 52.273566
_cell_angle_beta 72.977519
_cell_angle_gamma 106.197951
_cell_volume 469.574523
_symmetry_space_group_name_H-M "P -1"
_symmetry_group_IT_number 2
_symmetry_cell_setting 'triclinic'
loop_
_space_group_symop_operation_xyz
x,y,z
-x,-y,-z
loop_
_atom_site_type_symbol
_atom_site_label
_atom_site_fract_x
_atom_site_fract_y
_atom_site_fract_z
Si Si1 0.817538 0.864751 0.552513
Si Si2 0.816740 0.517261 0.243717
Si Si3 0.363439 0.061942 0.680117
Si Si4 0.449475 0.079622 0.098809
Si Si5 0.664389 0.627664 0.969761
Si Si6 0.000000 0.000000 0.000000
Si Si7 0.001820 0.640283 0.537902
O O1 0.721064 0.969051 0.433511
O O2 0.578951 0.641475 0.825992
O O3 0.843372 0.702024 0.553937
O O4 0.094127 0.121600 0.318662
O O5 0.589177 0.303813 0.480731
O O6 0.787306 0.563460 0.068931
O O7 0.980536 0.464090 0.267144
O O8 0.890800 0.734119 0.178873
O O9 0.399768 0.891397 0.835472
O O10 0.195352 0.049225 0.827015
O O11 0.220348 0.876405 0.323195
O O12 0.500000 0.000000 0.000000
O O13 0.417901 0.266043 0.974454
O O14 0.000000 0.500000 0.500000
#
# Coordination Sequence:
#
# PCOD9067912 Si02
#       7
#     2   2   2   2   2   1   2
#     4  12  25  47  74 106 145 196 247 307 365 443
#     4  11  26  47  71 109 149 198 242 311 368 445
#     4  11  26  46  73 105 151 192 245 307 372 440
#     4  11  27  47  72 106 144 195 249 302 371 445
#     4  12  26  46  74 104 149 195 246 299 376 440
#     4  12  24  42  76 106 144 192 248 298 378 428
#     4  11  27  46  72 108 147 188 249 312 369 434
#
# _framework density 27.684633999999999
#
# number of rings (size 3 to 8) (size 9 to 14) (size 15 to 20)
#    0.000    0.615    3.077    3.231    8.615    4.923 
#    0.000    0.000    0.000    0.000    0.000    0.000 
#    0.000    0.000    0.000    0.000    0.000    0.000 
#
# Total GULP energy -72420.283195 kJ/mol
# GULP energy per Si atom -5570.791015 kJ/mol
# Density = 2.762162 g / cm^3
# Si number density = 27.684634 Si / 1000 Ang^3
#
#
#
# Elastic Constant Matrix: (Units=GPa)
#
#
# Indices 1 2 3 4 5 6 
#
# 1 124.6179 12.9266 37.3023 4.9561 46.4289 10.5243
# 2 12.9266 92.4086 -3.9491 4.4419 19.2521 -6.8828
# 3 37.3023 -3.9491 170.1616 11.8389 -18.7623 7.9935
# 4 4.9561 4.4419 11.8389 55.0262 4.8351 -10.9478
# 5 46.4289 19.2521 -18.7623 4.8351 43.5793 0.8007
# 6 10.5243 -6.8828 7.9935 -10.9478 0.8007 22.1507
#
#
#
# Elastic Compliance Matrix: (Units=1/GPa)
#
#
# Indices 1 2 3 4 5 6 
#
# 1 0.019160 0.001623 -0.006616 0.000675 -0.023962 -0.005012
# 2 0.001623 0.012464 -0.001171 0.000610 -0.007883 0.004111
# 3 -0.006616 -0.001171 0.008882 -0.002684 0.011728 -0.002176
# 4 0.000675 0.000610 -0.002684 0.021357 -0.004726 0.011564
# 5 -0.023962 -0.007883 0.011728 -0.004726 0.057526 0.000288
# 6 -0.005012 0.004111 -0.002176 0.011564 0.000288 0.055294
#
#
# Mechanical properties :
#
#
# Convention : Reuss Voigt Hill
#
# Bulk Modulus (GPa) = 35.48915 53.30528 44.39721
# Shear Modulus (GPa) = 25.45774 46.87845 36.16809
#
# Velocity S-wave (km/s) = 3.03572 4.11944 3.61838
# Velocity P-wave (km/s) = 5.01342 6.47477 5.79038
#
# Compressibility (1/GPa) = 0.02817763
#
# Stress axis : x y z
#
# Youngs Moduli (GPa) = 52.19082 80.23404 112.58598
#
# Poissons Ratio (x) = -0.13025 0.74489
# Poissons Ratio (y) = -0.08472 0.13188
# Poissons Ratio (z) = 0.34531 0.09398
#
# Static dielectric constant tensor:
#      x y z
#    x 2.218350 0.060410 -0.313070 
#    y 0.060410 1.514170 -0.035890 
#    z -0.313070 -0.035890 2.885720 
# 
# From -- ./inp_files/334350.got.cif
#   From: 2010.05.17/outbox.cif.g08.bks.cpg/sg2_168_cif.got.tgz:334350.got - 2010.06.03 11:33:40.
