data_PCOD9067569
_publ_section_title
;
Structure prediction by ZEFSAII (Michael W. Deem and Ramdas Pophale) SiO2 
 PCOD9067569
Probable space group: P -1
;
_chemical_formula_sum "Si O2"
_cell_formula_units_Z 12
_cell_length_a 5.321280
_cell_length_b 14.938252
_cell_length_c 20.146786
_cell_angle_alpha 160.695155
_cell_angle_beta 65.826923
_cell_angle_gamma 106.270036
_cell_volume 452.017644
_symmetry_space_group_name_H-M "P -1"
_symmetry_group_IT_number 2
_symmetry_cell_setting 'triclinic'
loop_
_space_group_symop_operation_xyz
x,y,z
-x,-y,-z
loop_
_atom_site_type_symbol
_atom_site_label
_atom_site_fract_x
_atom_site_fract_y
_atom_site_fract_z
Si Si1 0.239845 0.151703 0.081360
Si Si2 0.880609 0.344134 0.460434
Si Si3 0.619692 0.817580 0.559177
Si Si4 0.383570 0.797073 0.045710
Si Si5 0.103189 0.689215 0.307621
Si Si6 0.234755 0.374377 0.943517
O O1 0.091743 0.482693 0.354962
O O2 0.389644 0.137627 0.983926
O O3 0.500000 0.000000 0.000000
O O4 0.000000 0.000000 0.000000
O O5 0.000000 0.500000 0.500000
O O6 0.539873 0.374169 0.520624
O O7 0.072676 0.004888 0.194700
O O8 0.889616 0.690356 0.391816
O O9 0.648211 0.044349 0.768799
O O10 0.369570 0.029257 0.684705
O O11 0.558970 0.457117 0.804926
O O12 0.080428 0.481642 0.105516
O O13 0.000000 0.000000 0.500000
O O14 0.500000 0.500000 0.000000
O O15 0.000000 0.500000 0.000000
#
# Coordination Sequence:
#
# PCOD9067569 Si02
#       6
#     2   2   2   2   2   2
#     4  12  28  49  82 117 159 211 272 335 409 481
#     4  12  27  48  77 112 159 210 266 334 400 480
#     4  11  27  47  77 114 155 215 267 331 404 480
#     4  11  27  46  77 110 163 203 273 324 408 471
#     4  11  25  50  79 115 160 212 271 334 403 478
#     4  11  26  49  79 116 160 208 272 336 403 478
#
# _framework density 26.547637000000002
#
# number of rings (size 3 to 8) (size 9 to 14) (size 15 to 20)
#    0.000    0.667    3.333    2.000    9.333    4.667 
#    3.000    0.000    0.000    0.000    0.000    0.000 
#    0.000    0.000    0.000    0.000    0.000    0.000 
#
# Total GULP energy -67141.518449 kJ/mol
# GULP energy per Si atom -5595.126537 kJ/mol
# Density = 2.648721 g / cm^3
# Si number density = 26.547637 Si / 1000 Ang^3
#
#
#
# Elastic Constant Matrix: (Units=GPa)
#
#
# Indices 1 2 3 4 5 6 
#
# 1 103.7474 52.2467 32.3079 -1.0136 -30.0005 14.6144
# 2 52.2467 193.4712 53.6403 -32.9617 -13.3067 15.2821
# 3 32.3079 53.6403 169.7125 -6.9563 -32.5806 11.4342
# 4 -1.0136 -32.9617 -6.9563 70.7747 -3.3303 -4.2737
# 5 -30.0005 -13.3067 -32.5806 -3.3303 45.7859 3.2727
# 6 14.6144 15.2821 11.4342 -4.2737 3.2727 54.1492
#
#
#
# Elastic Compliance Matrix: (Units=1/GPa)
#
#
# Indices 1 2 3 4 5 6 
#
# 1 0.014189 -0.003181 0.000165 -0.001070 0.008668 -0.003575
# 2 -0.003181 0.006953 -0.001626 0.002959 -0.000972 -0.000468
# 3 0.000165 -0.001626 0.007447 0.000127 0.005048 -0.001453
# 4 -0.001070 0.002959 0.000127 0.015603 0.001343 0.000577
# 5 0.008668 -0.000972 0.005048 0.001343 0.031279 -0.004916
# 6 -0.003575 -0.000468 -0.001453 0.000577 -0.004916 0.020214
#
#
# Mechanical properties :
#
#
# Convention : Reuss Voigt Hill
#
# Bulk Modulus (GPa) = 51.79912 82.59121 67.19516
# Shear Modulus (GPa) = 44.88225 56.05769 50.46997
#
# Velocity S-wave (km/s) = 4.11619 4.60019 4.36490
# Velocity P-wave (km/s) = 6.49190 7.70673 7.12526
#
# Compressibility (1/GPa) = 0.01930535
#
# Stress axis : x y z
#
# Youngs Moduli (GPa) = 70.47704 143.82738 134.28410
#
# Poissons Ratio (x) = 0.45757 -0.02221
# Poissons Ratio (y) = 0.22421 0.21831
# Poissons Ratio (z) = -0.01166 0.23382
#
# Static dielectric constant tensor:
#      x y z
#    x 2.346770 -0.035340 -0.089880 
#    y -0.035340 2.080390 0.099030 
#    z -0.089880 0.099030 2.113330 
# 
# From -- ./inp_files/583694.got.cif
#   From: 2010.05.17/outbox.cif.g08.bks.cpg/sg2_292_cif.got.tgz:583694.got - 2010.06.03 11:33:40.
