data_PCOD9067977
_publ_section_title
;
Structure prediction by ZEFSAII (Michael W. Deem and Ramdas Pophale) SiO2 
 PCOD9067977
Probable space group: P -1
;
_chemical_formula_sum "Si O2"
_cell_formula_units_Z 16
_cell_length_a 11.436087
_cell_length_b 9.089424
_cell_length_c 13.844128
_cell_angle_alpha 89.064765
_cell_angle_beta 31.984096
_cell_angle_gamma 76.675334
_cell_volume 695.476597
_symmetry_space_group_name_H-M "P -1"
_symmetry_group_IT_number 2
_symmetry_cell_setting 'triclinic'
loop_
_space_group_symop_operation_xyz
x,y,z
-x,-y,-z
loop_
_atom_site_type_symbol
_atom_site_label
_atom_site_fract_x
_atom_site_fract_y
_atom_site_fract_z
Si Si1 0.033752 0.157839 0.021403
Si Si2 0.746874 0.254680 0.504803
Si Si3 0.480283 0.374033 0.394760
Si Si4 0.223893 0.212514 0.098115
Si Si5 0.713884 0.063941 0.693186
Si Si6 0.254753 0.474686 0.189861
Si Si7 0.579764 0.828901 0.396442
Si Si8 0.250865 0.271995 0.384133
O O1 0.151699 0.160375 0.045104
O O2 0.765847 0.298378 0.213244
O O3 0.202341 0.198525 0.827927
O O4 0.000000 0.000000 0.000000
O O5 0.635204 0.436055 0.543283
O O6 0.646383 0.227906 0.677142
O O7 0.656977 0.157233 0.495458
O O8 0.035334 0.188470 0.303478
O O9 0.364913 0.312701 0.563409
O O10 0.427982 0.300177 0.334864
O O11 0.184666 0.397174 0.145311
O O12 0.509492 0.117213 0.917026
O O13 0.683881 0.915766 0.664275
O O14 0.000000 0.000000 0.500000
O O15 0.279508 0.349662 0.261666
O O16 0.023822 0.633317 0.384648
O O17 0.500000 0.500000 0.000000
O O18 0.500000 0.000000 0.500000
#
# Coordination Sequence:
#
# PCOD9067977 Si02
#       8
#     2   2   2   2   2   2   2   2
#     4  12  25  46  77 115 152 199 250 311 382 458
#     4  12  26  46  71 108 153 192 250 313 373 453
#     4  12  26  44  77 110 154 197 245 312 379 451
#     4  12  25  47  77 111 151 196 258 313 378 458
#     4  12  27  46  77 106 147 200 256 317 379 441
#     4  11  26  46  77 106 149 198 254 311 382 441
#     4  12  24  45  73 106 148 197 244 301 379 447
#     4  11  26  48  71 108 151 193 253 314 371 450
#
# _framework density 23.005806
#
# number of rings (size 3 to 8) (size 9 to 14) (size 15 to 20)
#    0.000    0.250    5.000    3.375    3.500    5.500 
#    0.000    0.000    0.000    0.000    0.000    0.000 
#    0.000    0.000    0.000    0.000    0.000    0.000 
#
# Total GULP energy -89414.143963 kJ/mol
# GULP energy per Si atom -5588.383998 kJ/mol
# Density = 2.295344 g / cm^3
# Si number density = 23.005806 Si / 1000 Ang^3
#
#
#
# Elastic Constant Matrix: (Units=GPa)
#
#
# Indices 1 2 3 4 5 6 
#
# 1 58.0774 2.6172 26.0908 -16.1510 -6.6846 13.3993
# 2 2.6172 97.6920 64.9081 -20.5728 3.6457 0.7317
# 3 26.0908 64.9081 174.6142 -16.2945 -9.8788 -3.7023
# 4 -16.1510 -20.5728 -16.2945 32.4222 -1.0940 1.3162
# 5 -6.6846 3.6457 -9.8788 -1.0940 43.5109 -5.3357
# 6 13.3993 0.7317 -3.7023 1.3162 -5.3357 48.7349
#
#
#
# Elastic Compliance Matrix: (Units=1/GPa)
#
#
# Indices 1 2 3 4 5 6 
#
# 1 0.024661 0.005107 -0.004359 0.013695 0.001813 -0.007360
# 2 0.005107 0.016311 -0.006074 0.009878 -0.002032 -0.002600
# 3 -0.004359 -0.006074 0.008639 -0.001705 0.002029 0.002214
# 4 0.013695 0.009878 -0.001705 0.043327 0.001357 -0.005065
# 5 0.001813 -0.002032 0.002029 0.001357 0.024208 0.002300
# 6 -0.007360 -0.002600 0.002214 -0.005065 0.002300 0.023138
#
#
# Mechanical properties :
#
#
# Convention : Reuss Voigt Hill
#
# Bulk Modulus (GPa) = 25.66854 57.51288 41.59071
# Shear Modulus (GPa) = 30.50196 40.71811 35.61003
#
# Velocity S-wave (km/s) = 3.64516 4.21159 3.93857
# Velocity P-wave (km/s) = 5.37567 6.97879 6.22902
#
# Compressibility (1/GPa) = 0.03895820
#
# Stress axis : x y z
#
# Youngs Moduli (GPa) = 40.54906 61.30906 115.75672
#
# Poissons Ratio (x) = -0.31309 0.50455
# Poissons Ratio (y) = -0.20707 0.70316
# Poissons Ratio (z) = 0.17674 0.37242
#
# Static dielectric constant tensor:
#      x y z
#    x 1.919370 -0.031680 0.001340 
#    y -0.031680 1.828150 0.007100 
#    z 0.001340 0.007100 1.854390 
# 
# From -- ./inp_files/515601.got.cif
#   From: 2010.05.17/outbox.cif.g08.bks.cpg/sg2_258_cif.got.tgz:515601.got - 2010.06.03 11:33:40.
