data_PCOD9067860
_publ_section_title
;
Structure prediction by ZEFSAII (Michael W. Deem and Ramdas Pophale) SiO2 
 PCOD9067860
Probable space group: P -1
;
_chemical_formula_sum "Si O2"
_cell_formula_units_Z 16
_cell_length_a 10.949360
_cell_length_b 11.520152
_cell_length_c 11.359971
_cell_angle_alpha 149.960572
_cell_angle_beta 107.613176
_cell_angle_gamma 78.693538
_cell_volume 677.139989
_symmetry_space_group_name_H-M "P -1"
_symmetry_group_IT_number 2
_symmetry_cell_setting 'triclinic'
loop_
_space_group_symop_operation_xyz
x,y,z
-x,-y,-z
loop_
_atom_site_type_symbol
_atom_site_label
_atom_site_fract_x
_atom_site_fract_y
_atom_site_fract_z
Si Si1 0.145515 0.687687 0.609844
Si Si2 0.565711 0.018751 0.845646
Si Si3 0.489988 0.221060 0.784150
Si Si4 0.590891 0.712131 0.777770
Si Si5 0.801559 0.940532 0.378443
Si Si6 0.039671 0.775944 0.881554
Si Si7 0.986447 0.026752 0.717928
Si Si8 0.687087 0.316120 0.553263
O O1 0.153009 0.711032 0.772810
O O2 0.272285 0.755028 0.628894
O O3 0.082536 0.422901 0.339208
O O4 0.044919 0.836053 0.647356
O O5 0.593555 0.179696 0.880714
O O6 0.650160 0.875593 0.830731
O O7 0.457197 0.811996 0.580298
O O8 0.493829 0.163504 0.046558
O O9 0.344902 0.179751 0.760622
O O10 0.500000 0.000000 0.500000
O O11 0.500000 0.500000 0.000000
O O12 0.500000 0.500000 0.500000
O O13 0.688566 0.590883 0.780592
O O14 0.897336 0.866377 0.241088
O O15 0.783238 0.210219 0.576306
O O16 0.872606 0.924713 0.508477
O O17 0.065749 0.810605 0.056646
O O18 0.000000 0.000000 0.000000
#
# Coordination Sequence:
#
# PCOD9067860 Si02
#       8
#     2   2   2   2   2   2   2   2
#     4   9  18  33  55  87 121 157 201 251 328 400
#     4   9  20  38  61  87 117 161 219 272 328 389
#     4  11  26  46  69  95 139 185 227 275 340 411
#     4   9  18  34  61  86 116 148 207 279 322 377
#     4   9  20  41  63  94 124 166 224 273 327 399
#     4   9  18  34  56  79 122 159 194 251 319 393
#     4   9  18  39  62  91 126 160 216 273 326 386
#     4   9  18  33  58  86 116 157 208 261 330 389
#
# _framework density 23.628793999999999
#
# number of rings (size 3 to 8) (size 9 to 14) (size 15 to 20)
#    0.000    2.750    0.000    0.000    5.250    4.000 
#    4.500   10.625    0.000    0.000    0.000    0.000 
#    0.000    0.000    0.000    0.000    0.000    0.000 
#
# Total GULP energy -89089.571535 kJ/mol
# GULP energy per Si atom -5568.098221 kJ/mol
# Density = 2.357501 g / cm^3
# Si number density = 23.628794 Si / 1000 Ang^3
#
#
#
# Elastic Constant Matrix: (Units=GPa)
#
#
# Indices 1 2 3 4 5 6 
#
# 1 49.6138 20.0486 4.0213 3.6074 3.8728 5.0493
# 2 20.0486 148.8537 52.5603 -3.3615 -9.9972 8.2412
# 3 4.0213 52.5603 75.6275 -9.7265 0.6421 10.3912
# 4 3.6074 -3.3615 -9.7265 40.5858 2.8522 -0.0886
# 5 3.8728 -9.9972 0.6421 2.8522 26.0142 2.7352
# 6 5.0493 8.2412 10.3912 -0.0886 2.7352 32.5929
#
#
#
# Elastic Compliance Matrix: (Units=1/GPa)
#
#
# Indices 1 2 3 4 5 6 
#
# 1 0.022266 -0.003751 0.001619 -0.001602 -0.004341 -0.002657
# 2 -0.003751 0.009937 -0.006830 -0.000807 0.004650 -0.000146
# 3 0.001619 -0.006830 0.019026 0.004075 -0.003330 -0.004299
# 4 -0.001602 -0.000807 0.004075 0.025898 -0.002956 -0.000528
# 5 -0.004341 0.004650 -0.003330 -0.002956 0.041589 -0.002940
# 6 -0.002657 -0.000146 -0.004299 -0.000528 -0.002940 0.032746
#
#
# Mechanical properties :
#
#
# Convention : Reuss Voigt Hill
#
# Bulk Modulus (GPa) = 30.02529 47.48394 38.75461
# Shear Modulus (GPa) = 27.70256 33.00289 30.35272
#
# Velocity S-wave (km/s) = 3.42776 3.74133 3.58797
# Velocity P-wave (km/s) = 5.32923 6.22919 5.79670
#
# Compressibility (1/GPa) = 0.03330526
#
# Stress axis : x y z
#
# Youngs Moduli (GPa) = 44.91121 100.63356 52.55867
#
# Poissons Ratio (x) = 0.37750 -0.08509
# Poissons Ratio (y) = 0.16847 0.35897
# Poissons Ratio (z) = -0.07271 0.68732
#
# Static dielectric constant tensor:
#      x y z
#    x 1.961980 -0.008700 -0.039920 
#    y -0.008700 1.949480 0.031820 
#    z -0.039920 0.031820 1.985410 
# 
# From -- ./inp_files/127260.got.cif
#   From: 2010.05.17/outbox.cif.g08.bks.cpg/sg2_64_cif.got.tgz:127260.got - 2010.06.03 11:33:40.
