data_PCOD9067499
_publ_section_title
;
Structure prediction by ZEFSAII (Michael W. Deem and Ramdas Pophale) SiO2 
 PCOD9067499
Probable space group: P -1
;
_chemical_formula_sum "Si O2"
_cell_formula_units_Z 13
_cell_length_a 14.015222
_cell_length_b 7.877906
_cell_length_c 11.722547
_cell_angle_alpha 57.427411
_cell_angle_beta 41.875033
_cell_angle_gamma 38.271134
_cell_volume 531.764258
_symmetry_space_group_name_H-M "P -1"
_symmetry_group_IT_number 2
_symmetry_cell_setting 'triclinic'
loop_
_space_group_symop_operation_xyz
x,y,z
-x,-y,-z
loop_
_atom_site_type_symbol
_atom_site_label
_atom_site_fract_x
_atom_site_fract_y
_atom_site_fract_z
Si Si1 0.219254 0.768649 0.834452
Si Si2 0.171348 0.482357 0.806874
Si Si3 0.500000 0.000000 0.500000
Si Si4 0.069236 0.104005 0.315593
Si Si5 0.218270 0.130587 0.532179
Si Si6 0.195688 0.338718 0.252892
Si Si7 0.517169 0.583255 0.076819
O O1 0.248928 0.527047 0.832931
O O2 0.373945 0.654393 0.839337
O O3 0.264935 0.893811 0.654160
O O4 0.000000 0.000000 0.000000
O O5 0.337605 0.224640 0.670347
O O6 0.058240 0.763834 0.732413
O O7 0.000000 0.500000 0.000000
O O8 0.671834 0.805775 0.513623
O O9 0.296358 0.842667 0.202467
O O10 0.076810 0.325990 0.271849
O O11 0.000000 0.000000 0.500000
O O12 0.281611 0.105013 0.355546
O O13 0.981992 0.357855 0.647272
O O14 0.357881 0.332915 0.068031
O O15 0.500000 0.500000 0.000000
#
# Coordination Sequence:
#
# PCOD9067499 Si02
#       7
#     2   2   1   2   2   2   2
#     4  12  25  49  77 115 155 206 267 334 397 480
#     4  12  28  51  80 115 159 208 267 332 404 485
#     4  12  28  48  80 118 154 210 264 332 404 472
#     4  12  28  50  75 114 156 205 268 331 404 487
#     4  11  26  44  78 109 155 201 267 320 400 472
#     4  11  25  50  73 111 157 208 255 327 401 477
#     4  12  29  47  78 111 157 211 267 328 407 475
#
# _framework density 24.446925
#
# number of rings (size 3 to 8) (size 9 to 14) (size 15 to 20)
#    0.000    0.308    3.077    4.154   12.923    0.615 
#    0.000    0.000    0.000    0.000    0.000    0.000 
#    0.000    0.000    0.000    0.000    0.000    0.000 
#
# Total GULP energy -72418.212204 kJ/mol
# GULP energy per Si atom -5570.631708 kJ/mol
# Density = 2.439128 g / cm^3
# Si number density = 24.446925 Si / 1000 Ang^3
#
#
#
# Elastic Constant Matrix: (Units=GPa)
#
#
# Indices 1 2 3 4 5 6 
#
# 1 118.2687 22.9158 25.6268 1.6051 20.0986 -21.1267
# 2 22.9158 113.3497 61.8451 17.0095 1.3828 -32.0350
# 3 25.6268 61.8451 138.1778 4.2994 -8.4269 -6.3933
# 4 1.6051 17.0095 4.2994 59.9835 -5.5303 0.8798
# 5 20.0986 1.3828 -8.4269 -5.5303 35.2985 -1.2594
# 6 -21.1267 -32.0350 -6.3933 0.8798 -1.2594 47.6270
#
#
#
# Elastic Compliance Matrix: (Units=1/GPa)
#
#
# Indices 1 2 3 4 5 6 
#
# 1 0.010894 0.000795 -0.002535 -0.001036 -0.006828 0.004865
# 2 0.000795 0.016019 -0.006892 -0.004502 -0.003067 0.010204
# 3 -0.002535 -0.006892 0.010812 0.001716 0.004413 -0.004224
# 4 -0.001036 -0.004502 0.001716 0.018265 0.003913 -0.003491
# 5 -0.006828 -0.003067 0.004413 0.003913 0.033873 -0.003676
# 6 0.004865 0.010204 -0.004224 -0.003491 -0.003676 0.029418
#
#
# Mechanical properties :
#
#
# Convention : Reuss Voigt Hill
#
# Bulk Modulus (GPa) = 48.87525 65.61907 57.24716
# Shear Modulus (GPa) = 34.87576 45.87570 40.37573
#
# Velocity S-wave (km/s) = 3.78112 4.33661 4.06836
# Velocity P-wave (km/s) = 6.25286 7.20934 6.74807
#
# Compressibility (1/GPa) = 0.02046025
#
# Stress axis : x y z
#
# Youngs Moduli (GPa) = 91.79181 62.42700 92.48881
#
# Poissons Ratio (x) = -0.04960 0.23447
# Poissons Ratio (y) = -0.07293 0.63741
# Poissons Ratio (z) = 0.23271 0.43023
#
# Static dielectric constant tensor:
#      x y z
#    x 1.872410 0.017860 0.100710 
#    y 0.017860 1.923970 0.133880 
#    z 0.100710 0.133880 2.639290 
# 
# From -- ./inp_files/446739.got.cif
#   From: 2010.05.17/outbox.cif.g08.bks.cpg/sg2_224_cif.got.tgz:446739.got - 2010.06.03 11:33:40.
