data_PCOD9067666
_publ_section_title
;
Structure prediction by ZEFSAII (Michael W. Deem and Ramdas Pophale) SiO2 
 PCOD9067666
Probable space group: P -1
;
_chemical_formula_sum "Si O2"
_cell_formula_units_Z 14
_cell_length_a 6.815619
_cell_length_b 14.672615
_cell_length_c 13.365369
_cell_angle_alpha 39.954279
_cell_angle_beta 121.245422
_cell_angle_gamma 134.704990
_cell_volume 609.421262
_symmetry_space_group_name_H-M "P -1"
_symmetry_group_IT_number 2
_symmetry_cell_setting 'triclinic'
loop_
_space_group_symop_operation_xyz
x,y,z
-x,-y,-z
loop_
_atom_site_type_symbol
_atom_site_label
_atom_site_fract_x
_atom_site_fract_y
_atom_site_fract_z
Si Si1 0.240392 0.472449 0.894666
Si Si2 0.499279 0.379189 0.515312
Si Si3 0.589159 0.085707 0.841923
Si Si4 0.051469 0.921432 0.482452
Si Si5 0.339456 0.743378 0.972471
Si Si6 0.534143 0.186547 0.277484
Si Si7 0.796367 0.684303 0.193966
O O1 0.340845 0.664705 0.731901
O O2 0.180718 0.359684 0.877068
O O3 0.500000 0.500000 0.000000
O O4 0.967230 0.389828 0.958628
O O5 0.500000 0.500000 0.500000
O O6 0.567654 0.247716 0.688800
O O7 0.715763 0.519448 0.376195
O O8 0.213081 0.252103 0.485653
O O9 0.902185 0.153447 0.838263
O O10 0.398786 0.930060 0.848191
O O11 0.500000 0.000000 0.000000
O O12 0.289082 0.894380 0.601055
O O13 0.209055 0.059595 0.318734
O O14 0.000000 0.000000 0.500000
O O15 0.395636 0.730300 0.883081
O O16 0.556169 0.719054 0.110138
#
# Coordination Sequence:
#
# PCOD9067666 Si02
#       7
#     2   2   2   2   2   2   2
#     4  12  26  44  75 111 151 188 247 305 378 443
#     4  12  29  48  77 108 154 198 253 311 378 448
#     4  12  27  49  76 106 148 197 255 307 372 444
#     4  11  26  48  73 106 151 196 249 308 380 443
#     4  12  26  46  77 111 146 193 251 310 373 450
#     4  11  26  42  75 108 144 193 247 307 371 451
#     4  12  27  49  76 107 152 200 245 310 380 444
#
# _framework density 22.972614
#
# number of rings (size 3 to 8) (size 9 to 14) (size 15 to 20)
#    0.000    0.286    2.857    4.714   12.000    1.143 
#    0.000    0.000    0.000    0.000    0.000    0.000 
#    0.000    0.000    0.000    0.000    0.000    0.000 
#
# Total GULP energy -78312.857650 kJ/mol
# GULP energy per Si atom -5593.775546 kJ/mol
# Density = 2.292033 g / cm^3
# Si number density = 22.972614 Si / 1000 Ang^3
#
#
#
# Elastic Constant Matrix: (Units=GPa)
#
#
# Indices 1 2 3 4 5 6 
#
# 1 118.3919 30.6557 47.9624 -7.6088 2.6152 8.8294
# 2 30.6557 94.9217 19.8270 -24.6011 -11.7621 -0.1474
# 3 47.9624 19.8270 116.9346 -11.8107 -5.8949 16.5775
# 4 -7.6088 -24.6011 -11.8107 42.2571 1.4132 -2.5161
# 5 2.6152 -11.7621 -5.8949 1.4132 50.6057 -11.9312
# 6 8.8294 -0.1474 16.5775 -2.5161 -11.9312 47.8141
#
#
#
# Elastic Compliance Matrix: (Units=1/GPa)
#
#
# Indices 1 2 3 4 5 6 
#
# 1 0.010967 -0.003229 -0.003984 -0.001023 -0.002040 -0.001217
# 2 -0.003229 0.014065 -0.000415 0.007493 0.003672 0.002094
# 3 -0.003984 -0.000415 0.010874 0.001893 0.000670 -0.002769
# 4 -0.001023 0.007493 0.001893 0.028405 0.001561 0.001440
# 5 -0.002040 0.003672 0.000670 0.001561 0.022111 0.005755
# 6 -0.001217 0.002094 -0.002769 0.001440 0.005755 0.023617
#
#
# Mechanical properties :
#
#
# Convention : Reuss Voigt Hill
#
# Bulk Modulus (GPa) = 48.43161 58.57094 53.50127
# Shear Modulus (GPa) = 37.82739 43.58890 40.70815
#
# Velocity S-wave (km/s) = 4.06227 4.36067 4.21411
# Velocity P-wave (km/s) = 6.56741 7.13480 6.85697
#
# Compressibility (1/GPa) = 0.02064767
#
# Stress axis : x y z
#
# Youngs Moduli (GPa) = 91.18360 71.09929 91.96310
#
# Poissons Ratio (x) = 0.22961 0.36642
# Poissons Ratio (y) = 0.29447 0.03818
# Poissons Ratio (z) = 0.36331 0.02952
#
# Static dielectric constant tensor:
#      x y z
#    x 1.921390 -0.007910 0.062110 
#    y -0.007910 1.835740 0.014040 
#    z 0.062110 0.014040 1.964450 
# 
# From -- ./inp_files/95254.got.cif
#   From: 2010.05.17/outbox.cif.g08.bks.cpg/sg2_48_cif.got.tgz:95254.got - 2010.06.03 11:33:40.
