data_PCOD9067697
_publ_section_title
;
Structure prediction by ZEFSAII (Michael W. Deem and Ramdas Pophale) SiO2 
 PCOD9067697
Probable space group: P -1
;
_chemical_formula_sum "Si O2"
_cell_formula_units_Z 10
_cell_length_a 10.970415
_cell_length_b 9.417431
_cell_length_c 7.242852
_cell_angle_alpha 133.046889
_cell_angle_beta 89.758207
_cell_angle_gamma 110.569301
_cell_volume 480.667356
_symmetry_space_group_name_H-M "P -1"
_symmetry_group_IT_number 2
_symmetry_cell_setting 'triclinic'
loop_
_space_group_symop_operation_xyz
x,y,z
-x,-y,-z
loop_
_atom_site_type_symbol
_atom_site_label
_atom_site_fract_x
_atom_site_fract_y
_atom_site_fract_z
Si Si1 0.941777 0.160765 0.708140
Si Si2 0.387042 0.666946 0.531129
Si Si3 0.628081 0.825806 0.407209
Si Si4 0.926106 0.471236 0.671383
Si Si5 0.507248 0.649253 0.876701
O O1 0.957505 0.319478 0.676910
O O2 0.778486 0.016005 0.621581
O O3 0.000000 0.000000 0.500000
O O4 0.019661 0.301506 0.012341
O O5 0.506702 0.825162 0.530753
O O6 0.237687 0.633732 0.456592
O O7 0.391788 0.433774 0.294248
O O8 0.437599 0.729639 0.795598
O O9 0.590958 0.816664 0.185117
O O10 0.609743 0.579683 0.232583
O O11 0.000000 0.500000 0.500000
#
# Coordination Sequence:
#
# PCOD9067697 Si02
#       5
#     2   2   2   2   2
#     4  11  26  44  68  94 130 175 215 262 326 384
#     4   9  18  36  61  87 127 162 205 263 312 370
#     4   9  18  36  63  92 118 167 212 255 313 379
#     4  11  27  44  62  98 136 167 214 271 319 382
#     4   8  17  32  65  94 121 158 211 263 316 366
#
# _framework density 20.804411000000002
#
# number of rings (size 3 to 8) (size 9 to 14) (size 15 to 20)
#    1.200    1.200    0.000    1.200    2.800    4.800 
#    0.000    2.000    0.000    0.000    0.000    0.000 
#    0.000    0.000    0.000    0.000    0.000    0.000 
#
# Total GULP energy -55814.264199 kJ/mol
# GULP energy per Si atom -5581.426420 kJ/mol
# Density = 2.075706 g / cm^3
# Si number density = 20.804411 Si / 1000 Ang^3
#
#
#
# Elastic Constant Matrix: (Units=GPa)
#
#
# Indices 1 2 3 4 5 6 
#
# 1 104.7523 46.2812 64.1110 -13.9246 0.1882 15.1752
# 2 46.2812 45.7720 46.5619 -7.6475 -3.8015 13.7398
# 3 64.1110 46.5619 103.5856 -28.9022 -1.1868 -2.6379
# 4 -13.9246 -7.6475 -28.9022 36.0128 -9.8271 -0.0520
# 5 0.1882 -3.8015 -1.1868 -9.8271 20.2200 2.9339
# 6 15.1752 13.7398 -2.6379 -0.0520 2.9339 37.7418
#
#
#
# Elastic Compliance Matrix: (Units=1/GPa)
#
#
# Indices 1 2 3 4 5 6 
#
# 1 0.019620 -0.011367 -0.007686 -0.001842 -0.003078 -0.004051
# 2 -0.011367 0.063928 -0.024226 -0.007532 0.010117 -0.021193
# 3 -0.007686 -0.024226 0.030572 0.017477 0.003807 0.013775
# 4 -0.001842 -0.007532 0.017477 0.045265 0.021173 0.003121
# 5 -0.003078 0.010117 0.003807 0.021173 0.062922 -0.007042
# 6 -0.004051 -0.021193 0.013775 0.003121 -0.007042 0.037354
#
#
# Mechanical properties :
#
#
# Convention : Reuss Voigt Hill
#
# Bulk Modulus (GPa) = 36.28217 63.11313 49.69765
# Shear Modulus (GPa) = 14.06837 25.27199 19.67018
#
# Velocity S-wave (km/s) = 2.60324 3.48910 3.07820
# Velocity P-wave (km/s) = 5.14911 6.82891 6.04762
#
# Compressibility (1/GPa) = 0.02756175
#
# Stress axis : x y z
#
# Youngs Moduli (GPa) = 50.96821 15.64249 32.71015
#
# Poissons Ratio (x) = 0.17781 0.25142
# Poissons Ratio (y) = 0.57935 0.79244
# Poissons Ratio (z) = 0.39175 0.37896
#
# Static dielectric constant tensor:
#      x y z
#    x 1.724770 -0.025030 -0.040550 
#    y -0.025030 1.787970 0.023060 
#    z -0.040550 0.023060 1.759350 
# 
# From -- ./inp_files/37674.got.cif
#   From: 2010.05.17/outbox.cif.g08.bks.cpg/sg2_19_cif.got.tgz:37674.got - 2010.06.03 11:33:40.
