data_PCOD9067206
_publ_section_title
;
Structure prediction by ZEFSAII (Michael W. Deem and Ramdas Pophale) SiO2 
 PCOD9067206
Probable space group: P -1
;
_chemical_formula_sum "Si O2"
_cell_formula_units_Z 14
_cell_length_a 9.685135
_cell_length_b 8.125853
_cell_length_c 7.801348
_cell_angle_alpha 104.610223
_cell_angle_beta 70.010269
_cell_angle_gamma 109.061290
_cell_volume 538.465552
_symmetry_space_group_name_H-M "P -1"
_symmetry_group_IT_number 2
_symmetry_cell_setting 'triclinic'
loop_
_space_group_symop_operation_xyz
x,y,z
-x,-y,-z
loop_
_atom_site_type_symbol
_atom_site_label
_atom_site_fract_x
_atom_site_fract_y
_atom_site_fract_z
Si Si1 0.220740 0.477387 0.803198
Si Si2 0.323925 0.868495 0.913157
Si Si3 0.880852 0.614105 0.557099
Si Si4 0.407764 0.891939 0.274234
Si Si5 0.159837 0.140055 0.940754
Si Si6 0.893394 0.055846 0.420763
Si Si7 0.463889 0.536235 0.222447
O O1 0.206899 0.679660 0.871774
O O2 0.140233 0.386832 0.641057
O O3 0.170552 0.346237 0.954712
O O4 0.403816 0.506529 0.731732
O O5 0.465255 0.921645 0.734488
O O6 0.266508 0.048264 0.985612
O O7 0.380251 0.844437 0.072819
O O8 0.709474 0.560397 0.684202
O O9 0.000000 0.500000 0.500000
O O10 0.973631 0.784424 0.668126
O O11 0.243364 0.885353 0.416948
O O12 0.470802 0.741320 0.291944
O O13 0.189089 0.084158 0.718309
O O14 0.000000 0.000000 0.000000
O O15 0.000000 0.000000 0.500000
O O16 0.500000 0.500000 0.000000
#
# Coordination Sequence:
#
# PCOD9067206 Si02
#       7
#     2   2   2   2   2   2   2
#     4  12  27  50  74 115 148 202 254 314 382 464
#     4  11  26  46  77 107 150 194 251 314 377 453
#     4  12  27  48  76 110 151 199 257 315 382 451
#     4  11  25  48  73 111 149 199 254 310 386 457
#     4  12  28  48  75 109 150 196 252 316 384 454
#     4  12  26  46  72 104 152 196 250 316 380 451
#     4  12  26  49  78 112 154 199 256 321 381 460
#
# _framework density 25.999808000000002
#
# number of rings (size 3 to 8) (size 9 to 14) (size 15 to 20)
#    0.000    0.286    5.714    2.143    4.000    2.286 
#    0.000    0.000    0.000    0.000    0.000    0.000 
#    0.000    0.000    0.000    0.000    0.000    0.000 
#
# Total GULP energy -78199.143862 kJ/mol
# GULP energy per Si atom -5585.653133 kJ/mol
# Density = 2.594063 g / cm^3
# Si number density = 25.999808 Si / 1000 Ang^3
#
#
#
# Elastic Constant Matrix: (Units=GPa)
#
#
# Indices 1 2 3 4 5 6 
#
# 1 142.7907 12.3591 8.9226 -10.4352 -9.1400 -10.8272
# 2 12.3591 136.1873 2.4641 -21.4852 -12.0114 9.1072
# 3 8.9226 2.4641 33.0832 -10.0300 -4.8044 -0.6002
# 4 -10.4352 -21.4852 -10.0300 36.6133 16.4390 -3.0289
# 5 -9.1400 -12.0114 -4.8044 16.4390 51.0708 -8.6909
# 6 -10.8272 9.1072 -0.6002 -3.0289 -8.6909 44.0082
#
#
#
# Elastic Compliance Matrix: (Units=1/GPa)
#
#
# Indices 1 2 3 4 5 6 
#
# 1 0.007458 -0.000527 -0.001435 0.001116 0.001094 0.002217
# 2 -0.000527 0.008235 0.000967 0.004757 0.000153 -0.001463
# 3 -0.001435 0.000967 0.033390 0.009249 0.000234 0.000585
# 4 0.001116 0.004757 0.009249 0.037375 -0.009834 0.000046
# 5 0.001094 0.000153 0.000234 -0.009834 0.023723 0.004249
# 6 0.002217 -0.001463 0.000585 0.000046 0.004249 0.024421
#
#
# Mechanical properties :
#
#
# Convention : Reuss Voigt Hill
#
# Bulk Modulus (GPa) = 21.23412 39.95033 30.59223
# Shear Modulus (GPa) = 32.83193 45.55949 39.19571
#
# Velocity S-wave (km/s) = 3.55741 4.19059 3.88692
# Velocity P-wave (km/s) = 5.00583 6.23007 5.65120
#
# Compressibility (1/GPa) = 0.04709401
#
# Stress axis : x y z
#
# Youngs Moduli (GPa) = 134.08075 121.43295 29.94868
#
# Poissons Ratio (x) = 0.06395 0.04297
# Poissons Ratio (y) = 0.07061 -0.02895
# Poissons Ratio (z) = 0.19239 -0.11739
#
# Static dielectric constant tensor:
#      x y z
#    x 2.060690 -0.008970 -0.086860 
#    y -0.008970 2.154310 -0.035520 
#    z -0.086860 -0.035520 2.137120 
# 
# From -- ./inp_files/159126.got.cif
#   From: 2010.05.17/outbox.cif.g08.bks.cpg/sg2_80_cif.got.tgz:159126.got - 2010.06.03 11:33:40.
