data_PCOD9067313
_publ_section_title
;
Structure prediction by ZEFSAII (Michael W. Deem and Ramdas Pophale) SiO2 
 PCOD9067313
Probable space group: P -1
;
_chemical_formula_sum "Si O2"
_cell_formula_units_Z 14
_cell_length_a 5.438961
_cell_length_b 9.514934
_cell_length_c 22.005623
_cell_angle_alpha 146.708271
_cell_angle_beta 65.936056
_cell_angle_gamma 105.485624
_cell_volume 564.545668
_symmetry_space_group_name_H-M "P -1"
_symmetry_group_IT_number 2
_symmetry_cell_setting 'triclinic'
loop_
_space_group_symop_operation_xyz
x,y,z
-x,-y,-z
loop_
_atom_site_type_symbol
_atom_site_label
_atom_site_fract_x
_atom_site_fract_y
_atom_site_fract_z
Si Si1 0.648509 0.777931 0.781530
Si Si2 0.900813 0.135057 0.620358
Si Si3 0.359235 0.075669 0.695308
Si Si4 0.849021 0.342965 0.505966
Si Si5 0.034106 0.683094 0.823740
Si Si6 0.439181 0.184951 0.855936
Si Si7 0.859709 0.539245 0.914794
O O1 0.753020 0.524581 0.638327
O O2 0.834366 0.790496 0.827040
O O3 0.332445 0.761931 0.821378
O O4 0.637488 0.022175 0.825669
O O5 0.581702 0.223468 0.692772
O O6 0.061368 0.372615 0.699252
O O7 0.000000 0.000000 0.500000
O O8 0.954088 0.909404 0.582612
O O9 0.398909 0.011198 0.739364
O O10 0.089948 0.289794 0.800854
O O11 0.367404 0.805850 0.560947
O O12 0.000000 0.500000 0.500000
O O13 0.900581 0.711783 0.914502
O O14 0.577743 0.419362 0.898870
O O15 0.169977 0.298021 0.961303
#
# Coordination Sequence:
#
# PCOD9067313 Si02
#       7
#     2   2   2   2   2   2   2
#     4  12  29  48  74 112 157 195 251 312 384 447
#     4  12  24  42  70 105 147 197 243 302 377 453
#     4  12  23  45  75 107 147 195 251 310 369 453
#     4  12  27  42  72 110 148 196 243 312 378 449
#     4  12  26  48  74 110 152 197 250 312 374 449
#     4  11  27  48  74 107 147 202 252 316 371 449
#     4  11  25  48  78 106 143 199 262 307 376 446
#
# _framework density 24.798703
#
# number of rings (size 3 to 8) (size 9 to 14) (size 15 to 20)
#    0.000    0.286    4.286    3.857    4.000    3.429 
#    0.000    0.000    0.000    0.000    0.000    0.000 
#    0.000    0.000    0.000    0.000    0.000    0.000 
#
# Total GULP energy -78356.165313 kJ/mol
# GULP energy per Si atom -5596.868951 kJ/mol
# Density = 2.474226 g / cm^3
# Si number density = 24.798703 Si / 1000 Ang^3
#
#
#
# Elastic Constant Matrix: (Units=GPa)
#
#
# Indices 1 2 3 4 5 6 
#
# 1 98.7876 53.0264 18.3365 -24.2901 -5.4783 -5.7911
# 2 53.0264 112.8802 17.1728 -18.3989 -6.8205 -9.3337
# 3 18.3365 17.1728 110.8068 -29.7530 -19.8202 8.5696
# 4 -24.2901 -18.3989 -29.7530 56.9407 -4.9971 0.1334
# 5 -5.4783 -6.8205 -19.8202 -4.9971 19.3868 3.3702
# 6 -5.7911 -9.3337 8.5696 0.1334 3.3702 44.7870
#
#
#
# Elastic Compliance Matrix: (Units=1/GPa)
#
#
# Indices 1 2 3 4 5 6 
#
# 1 0.014631 -0.005894 0.000457 0.004904 0.003743 0.000280
# 2 -0.005894 0.012197 -0.000154 0.001570 0.002593 0.001609
# 3 0.000457 -0.000154 0.015378 0.009867 0.019102 -0.004382
# 4 0.004904 0.001570 0.009867 0.027027 0.019422 -0.002469
# 5 0.003743 0.002593 0.019102 0.019422 0.079595 -0.008678
# 6 0.000280 0.001609 -0.004382 -0.002469 -0.008678 0.024198
#
#
# Mechanical properties :
#
#
# Convention : Reuss Voigt Hill
#
# Bulk Modulus (GPa) = 32.23321 55.50509 43.86915
# Shear Modulus (GPa) = 25.70017 39.81884 32.75950
#
# Velocity S-wave (km/s) = 3.22273 4.01144 3.63852
# Velocity P-wave (km/s) = 5.18403 6.62468 5.94813
#
# Compressibility (1/GPa) = 0.03102391
#
# Stress axis : x y z
#
# Youngs Moduli (GPa) = 68.34596 81.98823 65.02700
#
# Poissons Ratio (x) = 0.48325 -0.02971
# Poissons Ratio (y) = 0.40284 0.01001
# Poissons Ratio (z) = -0.03122 0.01262
#
# Static dielectric constant tensor:
#      x y z
#    x 2.154130 -0.039170 0.058190 
#    y -0.039170 1.965690 0.009720 
#    z 0.058190 0.009720 1.981260 
# 
# From -- ./inp_files/26869.got.cif
#   From: 2010.05.17/outbox.cif.g08.bks.cpg/sg2_14_cif.got.tgz:26869.got - 2010.06.03 11:33:40.
