data_PCOD9067565
_publ_section_title
;
Structure prediction by ZEFSAII (Michael W. Deem and Ramdas Pophale) SiO2 
 PCOD9067565
Probable space group: P -1
;
_chemical_formula_sum "Si O2"
_cell_formula_units_Z 14
_cell_length_a 18.277828
_cell_length_b 10.774460
_cell_length_c 13.528142
_cell_angle_alpha 147.345455
_cell_angle_beta 153.310361
_cell_angle_gamma 30.560756
_cell_volume 576.866189
_symmetry_space_group_name_H-M "P -1"
_symmetry_group_IT_number 2
_symmetry_cell_setting 'triclinic'
loop_
_space_group_symop_operation_xyz
x,y,z
-x,-y,-z
loop_
_atom_site_type_symbol
_atom_site_label
_atom_site_fract_x
_atom_site_fract_y
_atom_site_fract_z
Si Si1 0.621242 0.025889 0.388264
Si Si2 0.991450 0.293863 0.458572
Si Si3 0.026698 0.745893 0.927043
Si Si4 0.390774 0.466095 0.938752
Si Si5 0.021374 0.129600 0.713169
Si Si6 0.649069 0.070397 0.684573
Si Si7 0.243638 0.464695 0.186362
O O1 0.660036 0.026003 0.551617
O O2 0.459283 0.293406 0.338994
O O3 0.813679 0.903638 0.482369
O O4 0.535777 0.826147 0.138640
O O5 0.022705 0.509708 0.702628
O O6 0.823378 0.444015 0.282796
O O7 0.915608 0.118417 0.306576
O O8 0.831718 0.880828 0.835736
O O9 0.180757 0.625971 0.115779
O O10 0.000000 0.000000 0.000000
O O11 0.397465 0.640493 0.152315
O O12 0.500000 0.500000 0.000000
O O13 0.840372 0.346101 0.694042
O O14 0.146352 0.274366 0.944199
O O15 0.000000 0.000000 0.500000
O O16 0.500000 0.000000 0.500000
#
# Coordination Sequence:
#
# PCOD9067565 Si02
#       7
#     2   2   2   2   2   2   2
#     4  12  28  47  72 118 159 199 263 330 395 459
#     4  12  26  49  79 112 159 207 262 324 393 463
#     4  12  27  52  80 112 156 208 262 322 395 471
#     4  12  24  47  78 109 156 206 264 319 380 472
#     4  11  25  50  79 109 155 208 264 319 391 468
#     4  12  27  46  76 110 153 205 267 318 390 468
#     4  11  28  49  79 114 158 205 262 327 394 464
#
# _framework density 24.26906
#
# number of rings (size 3 to 8) (size 9 to 14) (size 15 to 20)
#    0.000    0.286    4.286    3.000    8.000    3.429 
#    0.000    0.000    0.000    0.000    0.000    0.000 
#    0.000    0.000    0.000    0.000    0.000    0.000 
#
# Total GULP energy -78340.744683 kJ/mol
# GULP energy per Si atom -5595.767477 kJ/mol
# Density = 2.421382 g / cm^3
# Si number density = 24.269060 Si / 1000 Ang^3
#
#
#
# Elastic Constant Matrix: (Units=GPa)
#
#
# Indices 1 2 3 4 5 6 
#
# 1 92.3602 52.3500 45.0146 11.0365 6.1357 0.3208
# 2 52.3500 171.3378 68.6074 -0.4555 1.6610 7.4484
# 3 45.0146 68.6074 135.0070 38.5257 -11.3501 -9.4102
# 4 11.0365 -0.4555 38.5257 68.3292 -9.1058 0.1340
# 5 6.1357 1.6610 -11.3501 -9.1058 48.6599 10.6176
# 6 0.3208 7.4484 -9.4102 0.1340 10.6176 39.6674
#
#
#
# Elastic Compliance Matrix: (Units=1/GPa)
#
#
# Indices 1 2 3 4 5 6 
#
# 1 0.014435 -0.003150 -0.003139 -0.000946 -0.002723 0.000462
# 2 -0.003150 0.008694 -0.004422 0.003098 0.000245 -0.002732
# 3 -0.003139 -0.004422 0.012972 -0.006636 0.001559 0.003538
# 4 -0.000946 0.003098 -0.006636 0.018907 0.002641 -0.002919
# 5 -0.002723 0.000245 0.001559 0.002641 0.023014 -0.005823
# 6 0.000462 -0.002732 0.003538 -0.002919 -0.005823 0.028127
#
#
# Mechanical properties :
#
#
# Convention : Reuss Voigt Hill
#
# Bulk Modulus (GPa) = 68.12054 81.18320 74.65187
# Shear Modulus (GPa) = 37.74655 46.84682 42.29668
#
# Velocity S-wave (km/s) = 3.94805 4.39830 4.17924
# Velocity P-wave (km/s) = 6.99376 7.70177 7.35629
#
# Compressibility (1/GPa) = 0.01467986
#
# Stress axis : x y z
#
# Youngs Moduli (GPa) = 69.27799 115.02295 77.09045
#
# Poissons Ratio (x) = 0.36228 0.24198
# Poissons Ratio (y) = 0.21820 0.34087
# Poissons Ratio (z) = 0.21746 0.50860
#
# Static dielectric constant tensor:
#      x y z
#    x 1.962250 0.011870 0.105500 
#    y 0.011870 1.953860 0.038710 
#    z 0.105500 0.038710 1.955190 
# 
# From -- ./inp_files/538367.got.cif
#   From: 2010.05.17/outbox.cif.g08.bks.cpg/sg2_270_cif.got.tgz:538367.got - 2010.06.03 11:33:40.
