data_PCOD9067123
_publ_section_title
;
Structure prediction by ZEFSAII (Michael W. Deem and Ramdas Pophale) SiO2 
 PCOD9067123
Probable space group: P -1
;
_chemical_formula_sum "Si O2"
_cell_formula_units_Z 14
_cell_length_a 16.600944
_cell_length_b 11.434022
_cell_length_c 16.906256
_cell_angle_alpha 145.257223
_cell_angle_beta 17.872862
_cell_angle_gamma 147.781186
_cell_volume 522.408034
_symmetry_space_group_name_H-M "P -1"
_symmetry_group_IT_number 2
_symmetry_cell_setting 'triclinic'
loop_
_space_group_symop_operation_xyz
x,y,z
-x,-y,-z
loop_
_atom_site_type_symbol
_atom_site_label
_atom_site_fract_x
_atom_site_fract_y
_atom_site_fract_z
Si Si1 0.719681 0.902781 0.158006
Si Si2 0.984078 0.976266 0.206643
Si Si3 0.291138 0.211304 0.355389
Si Si4 0.462140 0.394290 0.142119
Si Si5 0.716524 0.283815 0.145542
Si Si6 0.554976 0.306987 0.489652
Si Si7 0.867105 0.320617 0.592467
O O1 0.604762 0.102759 0.371993
O O2 0.807181 0.872596 0.969473
O O3 0.551642 0.659941 0.213274
O O4 0.000000 0.000000 0.000000
O O5 0.783871 0.757920 0.225885
O O6 0.788056 0.095857 0.492400
O O7 0.160284 0.910035 0.070895
O O8 0.483093 0.226590 0.262819
O O9 0.253328 0.449917 0.526554
O O10 0.511377 0.743416 0.882424
O O11 0.000000 0.000000 0.500000
O O12 0.639320 0.357220 0.882176
O O13 0.130378 0.317434 0.394991
O O14 0.597377 0.309183 0.356744
O O15 0.000000 0.500000 0.000000
O O16 0.000000 0.500000 0.500000
#
# Coordination Sequence:
#
# PCOD9067123 Si02
#       7
#     2   2   2   2   2   2   2
#     4  11  26  47  82 123 164 215 280 365 438 514
#     4  11  25  47  84 118 161 223 286 350 423 526
#     4  12  30  55  84 126 177 227 286 366 432 510
#     4  12  30  51  83 125 175 219 280 361 444 509
#     4  11  26  51  84 117 162 228 300 345 418 520
#     4  11  26  50  86 119 161 226 288 349 435 519
#     4  12  27  51  82 125 170 220 279 347 447 527
#
# _framework density 26.798977000000001
#
# number of rings (size 3 to 8) (size 9 to 14) (size 15 to 20)
#    0.000    0.571    2.857    2.571   10.000    1.143 
#    0.000    2.857    0.000    0.000    0.000    0.000 
#    0.000    0.000    0.000    0.000    0.000    0.000 
#
# Total GULP energy -78388.941512 kJ/mol
# GULP energy per Si atom -5599.210108 kJ/mol
# Density = 2.673798 g / cm^3
# Si number density = 26.798977 Si / 1000 Ang^3
#
#
#
# Elastic Constant Matrix: (Units=GPa)
#
#
# Indices 1 2 3 4 5 6 
#
# 1 172.5347 78.4231 53.8979 -2.2618 -10.2735 -7.2216
# 2 78.4231 229.1923 51.5976 -11.5469 3.8101 9.6076
# 3 53.8979 51.5976 102.7069 8.7330 7.9156 2.6390
# 4 -2.2618 -11.5469 8.7330 42.6164 0.2923 3.6056
# 5 -10.2735 3.8101 7.9156 0.2923 53.5535 -7.6497
# 6 -7.2216 9.6076 2.6390 3.6056 -7.6497 50.4943
#
#
#
# Elastic Compliance Matrix: (Units=1/GPa)
#
#
# Indices 1 2 3 4 5 6 
#
# 1 0.008070 -0.002092 -0.003463 0.000377 0.002505 0.002086
# 2 -0.002092 0.005661 -0.001812 0.001929 -0.000766 -0.001535
# 3 -0.003463 -0.001812 0.012962 -0.003230 -0.002575 -0.000987
# 4 0.000377 0.001929 -0.003230 0.024832 0.000003 -0.001917
# 5 0.002505 -0.000766 -0.002575 0.000003 0.020115 0.003686
# 6 0.002086 -0.001535 -0.000987 -0.001917 0.003686 0.021141
#
#
# Mechanical properties :
#
#
# Convention : Reuss Voigt Hill
#
# Bulk Modulus (GPa) = 83.60834 96.91902 90.26368
# Shear Modulus (GPa) = 44.84271 50.70051 47.77161
#
# Velocity S-wave (km/s) = 4.09504 4.35430 4.22665
# Velocity P-wave (km/s) = 7.32292 7.84370 7.58778
#
# Compressibility (1/GPa) = 0.01196053
#
# Stress axis : x y z
#
# Youngs Moduli (GPa) = 123.91907 176.64461 77.14725
#
# Poissons Ratio (x) = 0.36950 0.26714
# Poissons Ratio (y) = 0.25921 0.13978
# Poissons Ratio (z) = 0.42909 0.32005
#
# Static dielectric constant tensor:
#      x y z
#    x 2.198650 0.017920 0.024340 
#    y 0.017920 2.195000 0.021020 
#    z 0.024340 0.021020 2.206350 
# 
# From -- ./inp_files/575992.got.cif
#   From: 2010.05.17/outbox.cif.g08.bks.cpg/sg2_288_cif.got.tgz:575992.got - 2010.06.03 11:33:40.
