data_PCOD9067377
_publ_section_title
;
Structure prediction by ZEFSAII (Michael W. Deem and Ramdas Pophale) SiO2 
 PCOD9067377
Probable space group: P -1
;
_chemical_formula_sum "Si O2"
_cell_formula_units_Z 11
_cell_length_a 15.339532
_cell_length_b 13.511310
_cell_length_c 6.480969
_cell_angle_alpha 63.348923
_cell_angle_beta 54.528068
_cell_angle_gamma 26.604253
_cell_volume 480.698473
_symmetry_space_group_name_H-M "P -1"
_symmetry_group_IT_number 2
_symmetry_cell_setting 'triclinic'
loop_
_space_group_symop_operation_xyz
x,y,z
-x,-y,-z
loop_
_atom_site_type_symbol
_atom_site_label
_atom_site_fract_x
_atom_site_fract_y
_atom_site_fract_z
Si Si1 0.276919 0.229397 0.977583
Si Si2 0.144913 0.012066 0.372565
Si Si3 0.823767 0.853228 0.156791
Si Si4 0.000000 0.500000 0.500000
Si Si5 0.315933 0.634446 0.291599
Si Si6 0.502627 0.754520 0.436527
O O1 0.262064 0.166730 0.856872
O O2 0.303580 0.333860 0.784762
O O3 0.091023 0.380081 0.259675
O O4 0.500000 0.000000 0.000000
O O5 0.919424 0.193468 0.633117
O O6 0.251830 0.799148 0.359628
O O7 0.325726 0.913342 0.347687
O O8 0.088602 0.130916 0.130790
O O9 0.970559 0.655472 0.304336
O O10 0.623814 0.088304 0.334878
O O11 0.412521 0.445218 0.462725
O O12 0.500000 0.500000 0.000000
#
# Coordination Sequence:
#
# PCOD9067377 Si02
#       6
#     2   2   2   1   2   2
#     4  12  25  46  70 105 147 190 236 290 360 433
#     4  11  25  49  73 108 145 185 250 296 359 437
#     4  12  24  47  71 108 147 188 239 294 360 433
#     4  12  26  42  72 100 144 196 234 294 348 432
#     4  11  25  49  76 102 142 192 242 305 362 423
#     4  12  25  47  76 108 146 194 237 304 360 430
#
# _framework density 22.883367
#
# number of rings (size 3 to 8) (size 9 to 14) (size 15 to 20)
#    0.000    0.364    5.455    2.727    0.000    2.182 
#    9.818    0.000    0.000    0.000    0.000    0.000 
#    0.000    0.000    0.000    0.000    0.000    0.000 
#
# Total GULP energy -61264.210130 kJ/mol
# GULP energy per Si atom -5569.473648 kJ/mol
# Density = 2.283128 g / cm^3
# Si number density = 22.883367 Si / 1000 Ang^3
#
#
#
# Elastic Constant Matrix: (Units=GPa)
#
#
# Indices 1 2 3 4 5 6 
#
# 1 84.0880 21.0517 39.8964 4.1841 -4.9577 13.6540
# 2 21.0517 145.9797 53.5628 -16.1110 -6.9698 23.6574
# 3 39.8964 53.5628 145.6896 1.4973 -17.1060 8.9843
# 4 4.1841 -16.1110 1.4973 44.8729 11.1896 -12.8438
# 5 -4.9577 -6.9698 -17.1060 11.1896 25.1785 -4.9563
# 6 13.6540 23.6574 8.9843 -12.8438 -4.9563 31.1467
#
#
#
# Elastic Compliance Matrix: (Units=1/GPa)
#
#
# Indices 1 2 3 4 5 6 
#
# 1 0.014886 -0.000116 -0.003500 -0.003415 0.000716 -0.006723
# 2 -0.000116 0.009063 -0.003207 0.002310 -0.001749 -0.005234
# 3 -0.003500 -0.003207 0.009692 -0.002377 0.006299 0.001197
# 4 -0.003415 0.002310 -0.002377 0.029749 -0.012769 0.010664
# 5 0.000716 -0.001749 0.006299 -0.012769 0.049689 0.001839
# 6 -0.006723 -0.005234 0.001197 0.010664 0.001839 0.043373
#
#
# Mechanical properties :
#
#
# Convention : Reuss Voigt Hill
#
# Bulk Modulus (GPa) = 50.01193 67.19769 58.60481
# Shear Modulus (GPa) = 28.28656 37.65605 32.97130
#
# Velocity S-wave (km/s) = 3.51966 4.06096 3.79996
# Velocity P-wave (km/s) = 6.19838 7.17060 6.70214
#
# Compressibility (1/GPa) = 0.01999523
#
# Stress axis : x y z
#
# Youngs Moduli (GPa) = 67.17862 110.33601 103.18183
#
# Poissons Ratio (x) = 0.01277 0.36115
# Poissons Ratio (y) = 0.00777 0.33088
# Poissons Ratio (z) = 0.23514 0.35382
#
# Static dielectric constant tensor:
#      x y z
#    x 1.856750 -0.028790 -0.029380 
#    y -0.028790 1.880080 -0.010910 
#    z -0.029380 -0.010910 1.835120 
# 
# From -- ./inp_files/58796.got.cif
#   From: 2010.05.17/outbox.cif.g08.bks.cpg/sg2_30_cif.got.tgz:58796.got - 2010.06.03 11:33:40.
