data_PCOD9067094
_publ_section_title
;
Structure prediction by ZEFSAII (Michael W. Deem and Ramdas Pophale) SiO2 
 PCOD9067094
Probable space group: P -1
;
_chemical_formula_sum "Si O2"
_cell_formula_units_Z 15
_cell_length_a 18.347794
_cell_length_b 12.550173
_cell_length_c 12.074738
_cell_angle_alpha 34.551160
_cell_angle_beta 151.870832
_cell_angle_gamma 152.104921
_cell_volume 600.850699
_symmetry_space_group_name_H-M "P -1"
_symmetry_group_IT_number 2
_symmetry_cell_setting 'triclinic'
loop_
_space_group_symop_operation_xyz
x,y,z
-x,-y,-z
loop_
_atom_site_type_symbol
_atom_site_label
_atom_site_fract_x
_atom_site_fract_y
_atom_site_fract_z
Si Si1 0.127796 0.497556 0.399534
Si Si2 0.185824 0.034578 0.551998
Si Si3 0.214420 0.599232 0.668353
Si Si4 0.898770 0.129589 0.056476
Si Si5 0.589896 0.009435 0.919198
Si Si6 0.187481 0.141300 0.054874
Si Si7 0.568878 0.380433 0.478546
Si Si8 0.500000 0.500000 0.500000
O O1 0.234900 0.653314 0.518325
O O2 0.272468 0.497917 0.508957
O O3 0.043440 0.617012 0.118078
O O4 0.971188 0.237763 0.454983
O O5 0.318135 0.224370 0.473697
O O6 0.055463 0.120675 0.340572
O O7 0.318648 0.010645 0.832563
O O8 0.368989 0.808125 0.775006
O O9 0.000000 0.500000 0.500000
O O10 0.241890 0.396772 0.891860
O O11 0.707720 0.006969 0.976805
O O12 0.859174 0.991003 0.009420
O O13 0.628079 0.258302 0.747658
O O14 0.372307 0.184632 0.323157
O O15 0.000000 0.000000 0.000000
O O16 0.540960 0.535196 0.390088
#
# Coordination Sequence:
#
# PCOD9067094 Si02
#       8
#     2   2   2   2   2   2   2   1
#     4  11  27  49  81 110 155 199 256 315 378 452
#     4  12  28  49  76 112 154 203 250 311 380 457
#     4  12  26  47  77 113 152 202 249 317 383 450
#     4  11  25  47  78 113 152 195 255 312 375 454
#     4  11  27  47  78 111 153 200 252 314 382 456
#     4  12  24  45  74 110 155 198 254 315 379 449
#     4  11  27  49  74 113 152 202 259 315 381 449
#     4  12  30  46  72 108 156 196 254 312 376 450
#
# _framework density 24.964604000000001
#
# number of rings (size 3 to 8) (size 9 to 14) (size 15 to 20)
#    0.000    0.533    1.333    5.200    9.333    5.867 
#    0.000    0.000    0.000    0.000    0.000    0.000 
#    0.000    0.000    0.000    0.000    0.000    0.000 
#
# Total GULP energy -83782.001315 kJ/mol
# GULP energy per Si atom -5585.466754 kJ/mol
# Density = 2.490778 g / cm^3
# Si number density = 24.964604 Si / 1000 Ang^3
#
#
#
# Elastic Constant Matrix: (Units=GPa)
#
#
# Indices 1 2 3 4 5 6 
#
# 1 57.7845 -17.6215 -14.2393 21.9578 12.0598 -1.6359
# 2 -17.6215 91.1236 16.6318 7.5676 -1.2570 13.7927
# 3 -14.2393 16.6318 118.9893 6.5078 -8.9781 10.8982
# 4 21.9578 7.5676 6.5078 50.5223 -1.7569 -7.3815
# 5 12.0598 -1.2570 -8.9781 -1.7569 25.0514 4.1154
# 6 -1.6359 13.7927 10.8982 -7.3815 4.1154 22.4457
#
#
#
# Elastic Compliance Matrix: (Units=1/GPa)
#
#
# Indices 1 2 3 4 5 6 
#
# 1 0.028224 0.006970 0.002883 -0.015032 -0.012219 -0.006329
# 2 0.006970 0.014422 0.000028 -0.006751 -0.001398 -0.010332
# 3 0.002883 0.000028 0.009704 -0.003303 0.002867 -0.006131
# 4 -0.015032 -0.006751 -0.003303 0.029926 0.005599 0.013472
# 5 -0.012219 -0.001398 0.002867 0.005599 0.048543 -0.008483
# 6 -0.006329 -0.010332 -0.006131 0.013472 -0.008483 0.059402
#
#
# Mechanical properties :
#
#
# Convention : Reuss Voigt Hill
#
# Bulk Modulus (GPa) = 13.86729 26.38214 20.12472
# Shear Modulus (GPa) = 25.70738 38.47898 32.09318
#
# Velocity S-wave (km/s) = 3.21246 3.93025 3.58934
# Velocity P-wave (km/s) = 4.39621 5.58450 5.02560
#
# Compressibility (1/GPa) = 0.07211213
#
# Stress axis : x y z
#
# Youngs Moduli (GPa) = 35.43025 69.33872 103.05399
#
# Poissons Ratio (x) = -0.48326 -0.29713
# Poissons Ratio (y) = -0.24693 -0.00291
# Poissons Ratio (z) = -0.10215 -0.00196
#
# Static dielectric constant tensor:
#      x y z
#    x 2.016790 -0.018790 0.053970 
#    y -0.018790 2.060210 0.014700 
#    z 0.053970 0.014700 2.042610 
# 
# From -- ./inp_files/465045.got.cif
#   From: 2010.05.17/outbox.cif.g08.bks.cpg/sg2_233_cif.got.tgz:465045.got - 2010.06.03 11:33:40.
