data_PCOD9067360
_publ_section_title
;
Structure prediction by ZEFSAII (Michael W. Deem and Ramdas Pophale) SiO2 
 PCOD9067360
Probable space group: P -1
;
_chemical_formula_sum "Si O2"
_cell_formula_units_Z 13
_cell_length_a 14.022207
_cell_length_b 13.652908
_cell_length_c 8.002591
_cell_angle_alpha 42.498399
_cell_angle_beta 127.145549
_cell_angle_gamma 148.640895
_cell_volume 537.169758
_symmetry_space_group_name_H-M "P -1"
_symmetry_group_IT_number 2
_symmetry_cell_setting 'triclinic'
loop_
_space_group_symop_operation_xyz
x,y,z
-x,-y,-z
loop_
_atom_site_type_symbol
_atom_site_label
_atom_site_fract_x
_atom_site_fract_y
_atom_site_fract_z
Si Si1 0.457026 0.093597 0.707881
Si Si2 0.453366 0.486630 0.703402
Si Si3 0.500000 0.000000 0.500000
Si Si4 0.788431 0.727677 0.967430
Si Si5 0.888337 0.844427 0.415574
Si Si6 0.037085 0.696649 0.842680
Si Si7 0.881268 0.506175 0.268460
O O1 0.535246 0.327904 0.527441
O O2 0.512760 0.091893 0.583982
O O3 0.239177 0.920495 0.713708
O O4 0.500000 0.000000 0.000000
O O5 0.653949 0.611146 0.808090
O O6 0.323133 0.304307 0.647380
O O7 0.332024 0.327968 0.936850
O O8 0.306839 0.741207 0.678596
O O9 0.837761 0.607097 0.202735
O O10 0.975765 0.982002 0.806603
O O11 0.895216 0.677777 0.637656
O O12 0.000000 0.000000 0.500000
O O13 0.000000 0.500000 0.000000
O O14 0.006166 0.676869 0.032650
O O15 0.000000 0.500000 0.500000
#
# Coordination Sequence:
#
# PCOD9067360 Si02
#       7
#     2   2   1   2   2   2   2
#     4  12  25  47  76 114 151 203 255 317 390 453
#     4  11  26  47  76 105 155 199 255 324 375 464
#     4  12  26  48  76 110 156 200 256 308 392 462
#     4  11  25  49  71 110 147 201 259 309 391 459
#     4  12  26  48  73 109 147 200 253 314 390 454
#     4  12  25  46  73 109 154 191 254 318 381 461
#     4  12  27  47  75 112 149 198 259 316 381 466
#
# _framework density 24.200914999999998
#
# number of rings (size 3 to 8) (size 9 to 14) (size 15 to 20)
#    0.000    0.308    6.154    2.308    2.154    1.846 
#    2.769    0.000    0.000    0.000    0.000    0.000 
#    0.000    0.000    0.000    0.000    0.000    0.000 
#
# Total GULP energy -72470.337466 kJ/mol
# GULP energy per Si atom -5574.641344 kJ/mol
# Density = 2.414583 g / cm^3
# Si number density = 24.200915 Si / 1000 Ang^3
#
#
#
# Elastic Constant Matrix: (Units=GPa)
#
#
# Indices 1 2 3 4 5 6 
#
# 1 68.7612 12.9639 12.6760 6.9015 -14.3388 4.2765
# 2 12.9639 120.4593 27.8401 0.4693 -4.8702 11.1978
# 3 12.6760 27.8401 100.1314 -6.9906 6.3318 6.2078
# 4 6.9015 0.4693 -6.9906 33.2805 8.2478 2.2995
# 5 -14.3388 -4.8702 6.3318 8.2478 52.3868 -2.6361
# 6 4.2765 11.1978 6.2078 2.2995 -2.6361 38.8642
#
#
#
# Elastic Compliance Matrix: (Units=1/GPa)
#
#
# Indices 1 2 3 4 5 6 
#
# 1 0.016961 -0.000929 -0.002599 -0.005430 0.005701 -0.000476
# 2 -0.000929 0.009185 -0.002398 -0.000512 0.000866 -0.002072
# 3 -0.002599 -0.002398 0.011519 0.003824 -0.002994 -0.001292
# 4 -0.005430 -0.000512 0.003824 0.034000 -0.007469 -0.002384
# 5 0.005701 0.000866 -0.002994 -0.007469 0.022346 0.001559
# 6 -0.000476 -0.002072 -0.001292 -0.002384 0.001559 0.026833
#
#
# Mechanical properties :
#
#
# Convention : Reuss Voigt Hill
#
# Bulk Modulus (GPa) = 38.74017 44.03466 41.38742
# Shear Modulus (GPa) = 35.38553 40.63112 38.00832
#
# Velocity S-wave (km/s) = 3.82796 4.10189 3.96729
# Velocity P-wave (km/s) = 5.96492 6.37722 6.17451
#
# Compressibility (1/GPa) = 0.02581300
#
# Stress axis : x y z
#
# Youngs Moduli (GPa) = 58.95963 108.86780 86.81260
#
# Poissons Ratio (x) = 0.10112 0.22563
# Poissons Ratio (y) = 0.05476 0.20821
# Poissons Ratio (z) = 0.15324 0.26110
#
# Static dielectric constant tensor:
#      x y z
#    x 2.008560 -0.087170 -0.045220 
#    y -0.087170 1.988540 0.046560 
#    z -0.045220 0.046560 1.932770 
# 
# From -- ./inp_files/310861.got.cif
#   From: 2010.05.17/outbox.cif.g08.bks.cpg/sg2_156_cif.got.tgz:310861.got - 2010.06.03 11:33:40.
