data_PCOD9067974
_publ_section_title
;
Structure prediction by ZEFSAII (Michael W. Deem and Ramdas Pophale) SiO2 
 PCOD9067974
Probable space group: P -1
;
_chemical_formula_sum "Si O2"
_cell_formula_units_Z 12
_cell_length_a 5.035168
_cell_length_b 20.406770
_cell_length_c 6.382334
_cell_angle_alpha 77.275806
_cell_angle_beta 132.328475
_cell_angle_gamma 104.950545
_cell_volume 467.419448
_symmetry_space_group_name_H-M "P -1"
_symmetry_group_IT_number 2
_symmetry_cell_setting 'triclinic'
loop_
_space_group_symop_operation_xyz
x,y,z
-x,-y,-z
loop_
_atom_site_type_symbol
_atom_site_label
_atom_site_fract_x
_atom_site_fract_y
_atom_site_fract_z
Si Si1 0.599895 0.202254 0.145544
Si Si2 0.787231 0.876561 0.345593
Si Si3 0.756753 0.381586 0.480848
Si Si4 0.372096 0.014359 0.666935
Si Si5 0.909981 0.710144 0.965844
Si Si6 0.086740 0.512314 0.801907
O O1 0.367850 0.137390 0.956978
O O2 0.348947 0.235071 0.148570
O O3 0.738659 0.255298 0.996927
O O4 0.972871 0.181095 0.442099
O O5 0.026338 0.947397 0.506987
O O6 0.467324 0.900036 0.300690
O O7 0.924641 0.410898 0.330255
O O8 0.970119 0.327609 0.740236
O O9 0.818334 0.452925 0.585795
O O10 0.348394 0.346703 0.259894
O O11 0.500000 0.000000 0.500000
O O12 0.500000 0.000000 0.000000
O O13 0.500000 0.500000 0.000000
O O14 0.000000 0.500000 0.000000
#
# Coordination Sequence:
#
# PCOD9067974 Si02
#       6
#     2   2   2   2   2   2
#     4  12  26  43  68  95 136 184 226 272 336 402
#     4   9  24  42  66  96 134 169 232 276 338 403
#     4  11  26  50  70 106 140 175 236 280 346 407
#     4   8  20  36  68  94 128 170 216 288 341 383
#     4  12  28  43  70  97 138 186 224 278 334 408
#     4  11  26  46  77 105 135 180 220 296 343 403
#
# _framework density 25.672872999999999
#
# number of rings (size 3 to 8) (size 9 to 14) (size 15 to 20)
#    1.000    0.333    1.667    2.000    7.000    8.000 
#    0.000    1.667    0.000    0.000    0.000    0.000 
#    0.000    0.000    0.000    0.000    0.000    0.000 
#
# Total GULP energy -66827.328656 kJ/mol
# GULP energy per Si atom -5568.944055 kJ/mol
# Density = 2.561444 g / cm^3
# Si number density = 25.672873 Si / 1000 Ang^3
#
#
#
# Elastic Constant Matrix: (Units=GPa)
#
#
# Indices 1 2 3 4 5 6 
#
# 1 126.8694 22.6914 36.0799 19.3231 -18.5224 3.0200
# 2 22.6914 52.2950 7.4593 20.4104 -1.8723 10.3694
# 3 36.0799 7.4593 141.9177 2.5320 12.3306 -3.3299
# 4 19.3231 20.4104 2.5320 59.1353 3.1747 -0.1695
# 5 -18.5224 -1.8723 12.3306 3.1747 22.8830 11.6291
# 6 3.0200 10.3694 -3.3299 -0.1695 11.6291 25.2155
#
#
#
# Elastic Compliance Matrix: (Units=1/GPa)
#
#
# Indices 1 2 3 4 5 6 
#
# 1 0.013538 0.000120 -0.005435 -0.005380 0.020736 -0.011988
# 2 0.000120 0.027842 -0.003060 -0.010380 0.015061 -0.018883
# 3 -0.005435 -0.003060 0.010170 0.003286 -0.016000 0.010654
# 4 -0.005380 -0.010380 0.003286 0.023058 -0.016941 0.013315
# 5 0.020736 0.015061 -0.016000 -0.016941 0.102179 -0.058027
# 6 -0.011988 -0.018883 0.010654 0.013315 -0.058027 0.077117
#
#
# Mechanical properties :
#
#
# Convention : Reuss Voigt Hill
#
# Bulk Modulus (GPa) = 28.73590 50.39369 39.56480
# Shear Modulus (GPa) = 17.71447 38.43686 28.07567
#
# Velocity S-wave (km/s) = 2.62965 3.87354 3.31054
# Velocity P-wave (km/s) = 4.52078 6.29901 5.48247
#
# Compressibility (1/GPa) = 0.03479967
#
# Stress axis : x y z
#
# Youngs Moduli (GPa) = 73.86385 35.91742 98.32359
#
# Poissons Ratio (x) = -0.00431 0.53440
# Poissons Ratio (y) = -0.00886 0.30090
# Poissons Ratio (z) = 0.40146 0.10992
#
# Static dielectric constant tensor:
#      x y z
#    x 2.043360 0.015320 -0.036800 
#    y 0.015320 2.077030 -0.034590 
#    z -0.036800 -0.034590 2.099400 
# 
# From -- ./inp_files/9573.got.cif
#   From: 2010.05.17/outbox.cif.g08.bks.cpg/sg2_5_cif.got.tgz:9573.got - 2010.06.03 11:33:40.
