data_PCOD9067946
_publ_section_title
;
Structure prediction by ZEFSAII (Michael W. Deem and Ramdas Pophale) SiO2 
 PCOD9067946
Probable space group: P -1
;
_chemical_formula_sum "Si O2"
_cell_formula_units_Z 14
_cell_length_a 25.111113
_cell_length_b 13.465994
_cell_length_c 4.923562
_cell_angle_alpha 74.342685
_cell_angle_beta 66.329548
_cell_angle_gamma 21.079965
_cell_volume 519.978159
_symmetry_space_group_name_H-M "P -1"
_symmetry_group_IT_number 2
_symmetry_cell_setting 'triclinic'
loop_
_space_group_symop_operation_xyz
x,y,z
-x,-y,-z
loop_
_atom_site_type_symbol
_atom_site_label
_atom_site_fract_x
_atom_site_fract_y
_atom_site_fract_z
Si Si1 0.261893 0.876370 0.998443
Si Si2 0.154816 0.703095 0.603750
Si Si3 0.510567 0.644096 0.702721
Si Si4 0.250470 0.221293 0.018793
Si Si5 0.316841 0.329069 0.037635
Si Si6 0.825608 0.149204 0.185589
Si Si7 0.941341 0.503814 0.306383
O O1 0.376905 0.610654 0.137134
O O2 0.370172 0.798277 0.770464
O O3 0.183934 0.950893 0.838953
O O4 0.103527 0.169807 0.280260
O O5 0.221173 0.552510 0.295281
O O6 0.143988 0.843280 0.591971
O O7 0.288012 0.439313 0.739665
O O8 0.977520 0.948242 0.859895
O O9 0.626078 0.494889 0.336248
O O10 0.424574 0.879541 0.862909
O O11 0.242957 0.340964 0.102840
O O12 0.151651 0.313203 0.363635
O O13 0.176920 0.357581 0.769247
O O14 0.500000 0.000000 0.000000
O O15 0.000000 0.500000 0.000000
#
# Coordination Sequence:
#
# PCOD9067946 Si02
#       7
#     2   2   2   2   2   2   2
#     4  11  26  46  75 109 151 199 248 305 378 444
#     4  11  28  47  77 110 142 198 254 299 368 442
#     4  11  27  45  74 113 150 198 248 308 372 450
#     4  12  27  48  78 110 150 199 246 308 376 438
#     4  12  26  49  74 109 147 190 249 306 368 431
#     4  11  26  46  75 103 153 194 245 307 369 441
#     4  12  27  49  76 108 152 196 248 304 370 450
#
# _framework density 26.924209999999999
#
# number of rings (size 3 to 8) (size 9 to 14) (size 15 to 20)
#    0.000    0.571    1.429    4.714   12.000    2.286 
#    0.000    0.000    0.000    0.000    0.000    0.000 
#    0.000    0.000    0.000    0.000    0.000    0.000 
#
# Total GULP energy -78304.326489 kJ/mol
# GULP energy per Si atom -5593.166178 kJ/mol
# Density = 2.686293 g / cm^3
# Si number density = 26.924210 Si / 1000 Ang^3
#
#
#
# Elastic Constant Matrix: (Units=GPa)
#
#
# Indices 1 2 3 4 5 6 
#
# 1 138.3570 11.9380 22.1784 -9.3291 10.5373 -9.4602
# 2 11.9380 161.7928 36.9610 4.1492 14.9262 -6.0268
# 3 22.1784 36.9610 65.3385 23.1895 8.3216 -6.3057
# 4 -9.3291 4.1492 23.1895 53.9002 -2.5202 6.5859
# 5 10.5373 14.9262 8.3216 -2.5202 51.5422 11.1823
# 6 -9.4602 -6.0268 -6.3057 6.5859 11.1823 39.4480
#
#
#
# Elastic Compliance Matrix: (Units=1/GPa)
#
#
# Indices 1 2 3 4 5 6 
#
# 1 0.008157 0.000329 -0.003617 0.002714 -0.001340 0.001355
# 2 0.000329 0.007304 -0.004410 0.001229 -0.001569 0.000729
# 3 -0.003617 -0.004410 0.024042 -0.011434 -0.003557 0.005219
# 4 0.002714 0.001229 -0.011434 0.024755 0.003470 -0.006106
# 5 -0.001340 -0.001569 -0.003557 0.003470 0.022637 -0.008126
# 6 0.001355 0.000729 0.005219 -0.006106 -0.008126 0.029943
#
#
# Mechanical properties :
#
#
# Convention : Reuss Voigt Hill
#
# Bulk Modulus (GPa) = 41.48016 56.40480 48.94248
# Shear Modulus (GPa) = 35.64583 48.60546 42.12565
#
# Velocity S-wave (km/s) = 3.64254 4.25346 3.95979
# Velocity P-wave (km/s) = 5.75591 6.71695 6.25492
#
# Compressibility (1/GPa) = 0.02410791
#
# Stress axis : x y z
#
# Youngs Moduli (GPa) = 122.59753 136.90751 41.59432
#
# Poissons Ratio (x) = -0.04502 0.15043
# Poissons Ratio (y) = -0.04032 0.18342
# Poissons Ratio (z) = 0.44339 0.60371
#
# Static dielectric constant tensor:
#      x y z
#    x 2.201540 0.026100 -0.106010 
#    y 0.026100 2.144540 -0.049600 
#    z -0.106010 -0.049600 2.099890 
# 
# From -- ./inp_files/127114.got.cif
#   From: 2010.05.17/outbox.cif.g08.bks.cpg/sg2_64_cif.got.tgz:127114.got - 2010.06.03 11:33:40.
