data_PCOD9067524
_publ_section_title
;
Structure prediction by ZEFSAII (Michael W. Deem and Ramdas Pophale) SiO2 
 PCOD9067524
Probable space group: P -1
;
_chemical_formula_sum "Si O2"
_cell_formula_units_Z 12
_cell_length_a 7.936974
_cell_length_b 9.152047
_cell_length_c 7.442951
_cell_angle_alpha 113.311706
_cell_angle_beta 86.417476
_cell_angle_gamma 79.399939
_cell_volume 482.532077
_symmetry_space_group_name_H-M "P -1"
_symmetry_group_IT_number 2
_symmetry_cell_setting 'triclinic'
loop_
_space_group_symop_operation_xyz
x,y,z
-x,-y,-z
loop_
_atom_site_type_symbol
_atom_site_label
_atom_site_fract_x
_atom_site_fract_y
_atom_site_fract_z
Si Si1 0.698844 0.826615 0.876404
Si Si2 0.345600 0.831964 0.047716
Si Si3 0.141716 0.831865 0.427124
Si Si4 0.018392 0.500941 0.219013
Si Si5 0.640589 0.495718 0.328571
Si Si6 0.512947 0.162563 0.474970
O O1 0.606336 0.817823 0.685039
O O2 0.838784 0.662250 0.822897
O O3 0.757878 0.997258 0.950839
O O4 0.544525 0.847858 0.041066
O O5 0.357300 0.663105 0.864303
O O6 0.254803 0.821527 0.235167
O O7 0.284812 0.839835 0.573681
O O8 0.068586 0.669363 0.356053
O O9 0.000000 0.000000 0.500000
O O10 0.843208 0.492031 0.332148
O O11 0.000000 0.500000 0.000000
O O12 0.500000 0.500000 0.500000
O O13 0.565428 0.671569 0.329100
O O14 0.500000 0.000000 0.500000
#
# Coordination Sequence:
#
# PCOD9067524 Si02
#       6
#     2   2   2   2   2   2
#     4  11  27  50  79 116 161 210 265 332 401 474
#     4  11  25  50  75 117 156 214 259 330 405 471
#     4  12  28  49  80 117 161 213 269 330 397 480
#     4  12  29  50  80 121 160 209 276 333 396 485
#     4  12  27  51  79 116 160 214 265 333 406 477
#     4  12  26  51  78 115 161 212 266 323 404 477
#
# _framework density 24.868811999999998
#
# number of rings (size 3 to 8) (size 9 to 14) (size 15 to 20)
#    0.000    0.333    5.000    2.000    2.333    6.667 
#    0.000    0.000    0.000    0.000    0.000    0.000 
#    0.000    0.000    0.000    0.000    0.000    0.000 
#
# Total GULP energy -67193.469724 kJ/mol
# GULP energy per Si atom -5599.455810 kJ/mol
# Density = 2.481221 g / cm^3
# Si number density = 24.868812 Si / 1000 Ang^3
#
#
#
# Elastic Constant Matrix: (Units=GPa)
#
#
# Indices 1 2 3 4 5 6 
#
# 1 149.7457 84.1298 59.0345 14.1960 -18.7376 -11.4453
# 2 84.1298 211.6435 92.2762 39.4313 -2.0846 -21.4181
# 3 59.0345 92.2762 149.9682 15.7762 -7.7614 -9.1695
# 4 14.1960 39.4313 15.7762 67.7936 5.3864 -8.9348
# 5 -18.7376 -2.0846 -7.7614 5.3864 49.7994 5.6309
# 6 -11.4453 -21.4181 -9.1695 -8.9348 5.6309 67.1375
#
#
#
# Elastic Compliance Matrix: (Units=1/GPa)
#
#
# Indices 1 2 3 4 5 6 
#
# 1 0.009416 -0.002926 -0.001723 -0.000097 0.003144 0.000160
# 2 -0.002926 0.008092 -0.003488 -0.003022 -0.001126 0.001299
# 3 -0.001723 -0.003488 0.009509 0.000102 0.000694 -0.000153
# 4 -0.000097 -0.003022 0.000102 0.016867 -0.002136 0.001457
# 5 0.003144 -0.001126 0.000694 -0.002136 0.021764 -0.001838
# 6 0.000160 0.001299 -0.000153 0.001457 -0.001838 0.015664
#
#
# Mechanical properties :
#
#
# Convention : Reuss Voigt Hill
#
# Bulk Modulus (GPa) = 93.09833 109.13760 101.11797
# Shear Modulus (GPa) = 49.42278 55.34056 52.38167
#
# Velocity S-wave (km/s) = 4.46280 4.72243 4.59444
# Velocity P-wave (km/s) = 8.00453 8.58578 8.30024
#
# Compressibility (1/GPa) = 0.01074133
#
# Stress axis : x y z
#
# Youngs Moduli (GPa) = 106.19764 123.57279 105.16672
#
# Poissons Ratio (x) = 0.36163 0.18124
# Poissons Ratio (y) = 0.31078 0.36685
# Poissons Ratio (z) = 0.18301 0.43106
#
# Static dielectric constant tensor:
#      x y z
#    x 2.025880 -0.011440 0.102860 
#    y -0.011440 1.992110 -0.021220 
#    z 0.102860 -0.021220 2.043160 
# 
# From -- ./inp_files/149814.got.cif
#   From: 2010.05.17/outbox.cif.g08.bks.cpg/sg2_75_cif.got.tgz:149814.got - 2010.06.03 11:33:40.
