data_PCOD9067856
_publ_section_title
;
Structure prediction by ZEFSAII (Michael W. Deem and Ramdas Pophale) SiO2 
 PCOD9067856
Probable space group: P -1
;
_chemical_formula_sum "Si O2"
_cell_formula_units_Z 16
_cell_length_a 11.430373
_cell_length_b 6.581473
_cell_length_c 10.927606
_cell_angle_alpha 76.607135
_cell_angle_beta 70.117633
_cell_angle_gamma 73.038556
_cell_volume 731.384845
_symmetry_space_group_name_H-M "P -1"
_symmetry_group_IT_number 2
_symmetry_cell_setting 'triclinic'
loop_
_space_group_symop_operation_xyz
x,y,z
-x,-y,-z
loop_
_atom_site_type_symbol
_atom_site_label
_atom_site_fract_x
_atom_site_fract_y
_atom_site_fract_z
Si Si1 0.518315 0.381084 0.709767
Si Si2 0.695104 0.850980 0.086661
Si Si3 0.125722 0.934641 0.621002
Si Si4 0.619804 0.311016 0.941463
Si Si5 0.424007 0.812469 0.553244
Si Si6 0.048328 0.313748 0.410283
Si Si7 0.059097 0.142056 0.866106
Si Si8 0.158209 0.466453 0.121537
O O1 0.397474 0.292470 0.810577
O O2 0.617637 0.313882 0.794326
O O3 0.482354 0.634740 0.659385
O O4 0.560604 0.281600 0.576785
O O5 0.792956 0.882416 0.152090
O O6 0.784644 0.722359 0.965891
O O7 0.617695 0.079485 0.029752
O O8 0.272218 0.873372 0.617743
O O9 0.067517 0.739669 0.621062
O O10 0.111669 0.100430 0.491291
O O11 0.045175 0.057697 0.746139
O O12 0.746940 0.373952 0.934239
O O13 0.500000 0.500000 0.000000
O O14 0.500000 0.000000 0.500000
O O15 0.148082 0.373931 0.272614
O O16 0.000000 0.500000 0.500000
O O17 0.981620 0.386960 0.876407
O O18 0.000000 0.000000 0.000000
#
# Coordination Sequence:
#
# PCOD9067856 Si02
#       8
#     2   2   2   2   2   2   2   2
#     4  11  28  46  71 105 141 186 246 290 366 425
#     4  12  27  47  76 105 147 188 243 305 358 435
#     4  11  27  45  73 102 143 186 239 299 357 431
#     4  12  28  47  73 107 144 189 243 300 362 431
#     4  11  28  47  73 102 143 193 236 300 358 429
#     4  11  26  46  69 104 140 184 238 292 358 426
#     4  12  25  46  72 108 146 187 241 297 366 425
#     4  12  27  45  75 104 143 192 238 299 365 428
#
# _framework density 21.876307000000001
#
# number of rings (size 3 to 8) (size 9 to 14) (size 15 to 20)
#    0.000    0.500    3.750    2.250   12.250    1.000 
#    0.000    0.000    0.000    0.000    0.000    0.000 
#    0.000    0.000    0.000    0.000    0.000    0.000 
#
# Total GULP energy -89551.590630 kJ/mol
# GULP energy per Si atom -5596.974414 kJ/mol
# Density = 2.182652 g / cm^3
# Si number density = 21.876307 Si / 1000 Ang^3
#
#
#
# Elastic Constant Matrix: (Units=GPa)
#
#
# Indices 1 2 3 4 5 6 
#
# 1 71.5765 28.0898 -7.3795 -4.9762 6.5959 5.3837
# 2 28.0898 120.9060 47.0191 -7.1053 -2.8854 -0.1872
# 3 -7.3795 47.0191 113.5763 -3.4857 -0.7155 -2.8264
# 4 -4.9762 -7.1053 -3.4857 52.4133 2.3980 0.2761
# 5 6.5959 -2.8854 -0.7155 2.3980 33.3868 -2.4040
# 6 5.3837 -0.1872 -2.8264 0.2761 -2.4040 36.6513
#
#
#
# Elastic Compliance Matrix: (Units=1/GPa)
#
#
# Indices 1 2 3 4 5 6 
#
# 1 0.017008 -0.005226 0.003220 0.001318 -0.004021 -0.002550
# 2 -0.005226 0.011542 -0.005072 0.000641 0.001915 0.000556
# 3 0.003220 -0.005072 0.011128 0.000395 -0.000843 0.000301
# 4 0.001318 0.000641 0.000395 0.019394 -0.001619 -0.000412
# 5 -0.004021 0.001915 -0.000843 -0.001619 0.031197 0.002594
# 6 -0.002550 0.000556 0.000301 -0.000412 0.002594 0.027858
#
#
# Mechanical properties :
#
#
# Convention : Reuss Voigt Hill
#
# Bulk Modulus (GPa) = 39.18231 49.05752 44.11992
# Shear Modulus (GPa) = 35.51389 40.37889 37.94639
#
# Velocity S-wave (km/s) = 4.03351 4.30092 4.16936
# Velocity P-wave (km/s) = 6.29619 6.86567 6.58709
#
# Compressibility (1/GPa) = 0.02552172
#
# Stress axis : x y z
#
# Youngs Moduli (GPa) = 58.79554 86.64140 89.86334
#
# Poissons Ratio (x) = 0.45281 -0.28939
# Poissons Ratio (y) = 0.30728 0.45580
# Poissons Ratio (z) = -0.18934 0.43946
#
# Static dielectric constant tensor:
#      x y z
#    x 1.809190 -0.021510 0.028860 
#    y -0.021510 1.855570 -0.005680 
#    z 0.028860 -0.005680 1.775770 
# 
# From -- ./inp_files/410010.got.cif
#   From: 2010.05.17/outbox.cif.g08.bks.cpg/sg2_206_cif.got.tgz:410010.got - 2010.06.03 11:33:40.
