data_PCOD9067480
_publ_section_title
;
Structure prediction by ZEFSAII (Michael W. Deem and Ramdas Pophale) SiO2 
 PCOD9067480
Probable space group: P -1
;
_chemical_formula_sum "Si O2"
_cell_formula_units_Z 12
_cell_length_a 9.588411
_cell_length_b 11.815054
_cell_length_c 13.858517
_cell_angle_alpha 31.588757
_cell_angle_beta 127.057339
_cell_angle_gamma 142.451175
_cell_volume 488.011404
_symmetry_space_group_name_H-M "P -1"
_symmetry_group_IT_number 2
_symmetry_cell_setting 'triclinic'
loop_
_space_group_symop_operation_xyz
x,y,z
-x,-y,-z
loop_
_atom_site_type_symbol
_atom_site_label
_atom_site_fract_x
_atom_site_fract_y
_atom_site_fract_z
Si Si1 0.202371 0.603205 0.742555
Si Si2 0.685985 0.456891 0.879339
Si Si3 0.135808 0.799863 0.954085
Si Si4 0.238154 0.161470 0.041662
Si Si5 0.565392 0.536528 0.388979
Si Si6 0.326108 0.790482 0.441985
O O1 0.206238 0.628700 0.610607
O O2 0.399724 0.928894 0.626161
O O3 0.275960 0.415749 0.929485
O O4 0.965021 0.420092 0.837643
O O5 0.657165 0.593144 0.678040
O O6 0.922152 0.673190 0.883301
O O7 0.687045 0.211667 0.019506
O O8 0.459822 0.313525 0.954105
O O9 0.252607 0.117613 0.804553
O O10 0.220296 0.929792 0.263530
O O11 0.000000 0.000000 0.000000
O O12 0.500000 0.500000 0.500000
O O13 0.672904 0.399395 0.497679
#
# Coordination Sequence:
#
# PCOD9067480 Si02
#       6
#     2   2   2   2   2   2
#     4  11  25  49  81 113 152 209 260 327 395 467
#     4  11  25  52  76 114 161 207 269 314 403 471
#     4  11  26  49  86 109 161 217 249 340 394 468
#     4  12  25  49  79 111 160 208 256 330 393 467
#     4  12  27  49  77 119 160 206 269 330 390 476
#     4  11  26  49  78 116 157 200 269 323 388 479
#
# _framework density 24.589587999999999
#
# number of rings (size 3 to 8) (size 9 to 14) (size 15 to 20)
#    0.000    0.667    3.333    3.000    2.333    2.667 
#    9.000    0.000    0.000    0.000    0.000    0.000 
#    0.000    0.000    0.000    0.000    0.000    0.000 
#
# Total GULP energy -67281.242993 kJ/mol
# GULP energy per Si atom -5606.770249 kJ/mol
# Density = 2.453362 g / cm^3
# Si number density = 24.589588 Si / 1000 Ang^3
#
#
#
# Elastic Constant Matrix: (Units=GPa)
#
#
# Indices 1 2 3 4 5 6 
#
# 1 125.7816 32.7323 21.4422 3.7665 7.6838 -14.5834
# 2 32.7323 70.0468 29.1919 -2.0211 -3.8006 -12.9988
# 3 21.4422 29.1919 105.1365 17.4123 1.9220 -20.0523
# 4 3.7665 -2.0211 17.4123 53.3327 -6.0405 4.4694
# 5 7.6838 -3.8006 1.9220 -6.0405 51.7665 -0.9032
# 6 -14.5834 -12.9988 -20.0523 4.4694 -0.9032 41.4255
#
#
#
# Elastic Compliance Matrix: (Units=1/GPa)
#
#
# Indices 1 2 3 4 5 6 
#
# 1 0.009422 -0.004080 -0.000181 -0.001134 -0.001788 0.002033
# 2 -0.004080 0.018608 -0.004410 0.002541 0.002468 0.002048
# 3 -0.000181 -0.004410 0.012574 -0.004830 -0.001238 0.005134
# 4 -0.001134 0.002541 -0.004830 0.021185 0.002934 -0.004162
# 5 -0.001788 0.002468 -0.001238 0.002934 0.020147 -0.000332
# 6 0.002033 0.002048 0.005134 -0.004162 -0.000332 0.028424
#
#
# Mechanical properties :
#
#
# Convention : Reuss Voigt Hill
#
# Bulk Modulus (GPa) = 42.98682 51.96641 47.47661
# Shear Modulus (GPa) = 36.91277 43.81150 40.36214
#
# Velocity S-wave (km/s) = 3.87868 4.22561 4.05585
# Velocity P-wave (km/s) = 6.13013 6.70724 6.42517
#
# Compressibility (1/GPa) = 0.02326294
#
# Stress axis : x y z
#
# Youngs Moduli (GPa) = 106.13849 53.74114 79.52674
#
# Poissons Ratio (x) = 0.21926 0.01436
# Poissons Ratio (y) = 0.43304 0.35070
# Poissons Ratio (z) = 0.01916 0.23699
#
# Static dielectric constant tensor:
#      x y z
#    x 1.931960 0.001820 -0.030410 
#    y 0.001820 2.008040 0.017030 
#    z -0.030410 0.017030 1.952740 
# 
# From -- ./inp_files/499820.got.cif
#   From: 2010.05.17/outbox.cif.g08.bks.cpg/sg2_250_cif.got.tgz:499820.got - 2010.06.03 11:33:40.
