data_PCOD9067415
_publ_section_title
;
Structure prediction by ZEFSAII (Michael W. Deem and Ramdas Pophale) SiO2 
 PCOD9067415
Probable space group: P -1
;
_chemical_formula_sum "Si O2"
_cell_formula_units_Z 13
_cell_length_a 12.239668
_cell_length_b 11.523010
_cell_length_c 6.652228
_cell_angle_alpha 115.370907
_cell_angle_beta 53.096487
_cell_angle_gamma 133.568544
_cell_volume 543.415151
_symmetry_space_group_name_H-M "P -1"
_symmetry_group_IT_number 2
_symmetry_cell_setting 'triclinic'
loop_
_space_group_symop_operation_xyz
x,y,z
-x,-y,-z
loop_
_atom_site_type_symbol
_atom_site_label
_atom_site_fract_x
_atom_site_fract_y
_atom_site_fract_z
Si Si1 0.803727 0.292809 0.976133
Si Si2 0.267525 0.001490 0.340932
Si Si3 0.059790 0.162155 0.165988
Si Si4 0.401020 0.272432 0.069822
Si Si5 0.500000 0.500000 0.500000
Si Si6 0.131003 0.392335 0.912681
Si Si7 0.465728 0.835103 0.486956
O O1 0.815359 0.433576 0.955272
O O2 0.708062 0.266758 0.272319
O O3 0.699712 0.128110 0.847109
O O4 0.986386 0.337727 0.864911
O O5 0.074534 0.900127 0.552979
O O6 0.307735 0.111031 0.187285
O O7 0.388685 0.115986 0.472684
O O8 0.252218 0.257925 0.099374
O O9 0.049642 0.270224 0.096439
O O10 0.000000 0.000000 0.000000
O O11 0.491988 0.418767 0.231438
O O12 0.519569 0.261394 0.775071
O O13 0.290828 0.405260 0.656408
O O14 0.500000 0.000000 0.500000
#
# Coordination Sequence:
#
# PCOD9067415 Si02
#       7
#     2   2   2   2   1   2   2
#     4  11  25  49  75 113 156 196 254 318 379 453
#     4  12  24  47  78 110 150 198 254 321 375 448
#     4  12  24  47  78 112 149 200 256 311 384 454
#     4  12  27  48  77 113 153 200 256 315 376 455
#     4  12  28  52  72 106 158 202 244 308 382 448
#     4  11  27  49  73 109 154 203 251 311 384 447
#     4  12  25  46  78 115 147 199 260 312 378 450
#
# _framework density 23.922775999999999
#
# number of rings (size 3 to 8) (size 9 to 14) (size 15 to 20)
#    0.000    0.308    3.077    5.538    4.308    1.231 
#    5.538    0.000    0.000    0.000    0.000    0.000 
#    0.000    0.000    0.000    0.000    0.000    0.000 
#
# Total GULP energy -72647.009813 kJ/mol
# GULP energy per Si atom -5588.231524 kJ/mol
# Density = 2.386833 g / cm^3
# Si number density = 23.922776 Si / 1000 Ang^3
#
#
#
# Elastic Constant Matrix: (Units=GPa)
#
#
# Indices 1 2 3 4 5 6 
#
# 1 74.3541 24.5345 18.1408 6.6194 -8.6437 11.7522
# 2 24.5345 95.0009 50.3538 4.7329 8.2600 -10.1813
# 3 18.1408 50.3538 168.8850 23.6065 -17.1773 16.1878
# 4 6.6194 4.7329 23.6065 46.3064 15.6667 9.9834
# 5 -8.6437 8.2600 -17.1773 15.6667 33.5163 -16.4407
# 6 11.7522 -10.1813 16.1878 9.9834 -16.4407 45.6896
#
#
#
# Elastic Compliance Matrix: (Units=1/GPa)
#
#
# Indices 1 2 3 4 5 6 
#
# 1 0.016652 -0.005827 0.001590 -0.004608 0.007503 -0.002438
# 2 -0.005827 0.016157 -0.006124 0.004966 -0.009607 0.002727
# 3 0.001590 -0.006124 0.009869 -0.008623 0.011351 0.000698
# 4 -0.004608 0.004966 -0.008623 0.040918 -0.033663 -0.015707
# 5 0.007503 -0.009607 0.011351 -0.033663 0.067189 0.023440
# 6 -0.002438 0.002727 0.000698 -0.015707 0.023440 0.034741
#
#
# Mechanical properties :
#
#
# Convention : Reuss Voigt Hill
#
# Bulk Modulus (GPa) = 45.54694 58.25536 51.90115
# Shear Modulus (GPa) = 23.41180 41.44986 32.43083
#
# Velocity S-wave (km/s) = 3.13172 4.16703 3.68590
# Velocity P-wave (km/s) = 5.67075 6.89612 6.31323
#
# Compressibility (1/GPa) = 0.02195537
#
# Stress axis : x y z
#
# Youngs Moduli (GPa) = 60.05313 61.89191 101.32512
#
# Poissons Ratio (x) = 0.36065 -0.16107
# Poissons Ratio (y) = 0.34994 0.62052
# Poissons Ratio (z) = -0.09546 0.37903
#
# Static dielectric constant tensor:
#      x y z
#    x 1.932460 -0.081740 0.008200 
#    y -0.081740 2.009060 -0.024500 
#    z 0.008200 -0.024500 1.897260 
# 
# From -- ./inp_files/67519.got.cif
#   From: 2010.05.17/outbox.cif.g08.bks.cpg/sg2_34_cif.got.tgz:67519.got - 2010.06.03 11:33:40.
