data_PCOD9067635
_publ_section_title
;
Structure prediction by ZEFSAII (Michael W. Deem and Ramdas Pophale) SiO2 
 PCOD9067635
Probable space group: P -1
;
_chemical_formula_sum "Si O2"
_cell_formula_units_Z 8
_cell_length_a 9.320285
_cell_length_b 12.770914
_cell_length_c 7.453032
_cell_angle_alpha 33.715845
_cell_angle_beta 133.460682
_cell_angle_gamma 145.468800
_cell_volume 279.120969
_symmetry_space_group_name_H-M "P -1"
_symmetry_group_IT_number 2
_symmetry_cell_setting 'triclinic'
loop_
_space_group_symop_operation_xyz
x,y,z
-x,-y,-z
loop_
_atom_site_type_symbol
_atom_site_label
_atom_site_fract_x
_atom_site_fract_y
_atom_site_fract_z
Si Si1 0.747194 0.415522 0.740369
Si Si2 0.237981 0.939048 0.302225
Si Si3 0.469463 0.551803 0.120202
Si Si4 0.949532 0.164233 0.115349
O O1 0.547729 0.386733 0.471492
O O2 0.647930 0.425025 0.833148
O O3 0.007379 0.683646 0.547134
O O4 0.800359 0.229346 0.014550
O O5 0.500000 0.000000 0.500000
O O6 0.194045 0.928164 0.066107
O O7 0.281508 0.173244 0.086945
O O8 0.235730 0.419411 0.972732
O O9 0.000000 0.000000 0.500000
#
# Coordination Sequence:
#
# PCOD9067635 Si02
#       4
#     2   2   2   2
#     4  11  25  52  78 111 158 198 256 313 379 459
#     4  12  27  50  79 114 152 202 255 315 381 451
#     4  11  26  49  78 111 153 202 251 319 378 441
#     4  12  27  49  79 115 152 203 255 311 385 449
#
# _framework density 28.661407000000001
#
# number of rings (size 3 to 8) (size 9 to 14) (size 15 to 20)
#    0.000    0.500    2.500    5.250    0.000    5.000 
#    4.500    0.000    0.000    0.000    0.000    0.000 
#    0.000    0.000    0.000    0.000    0.000    0.000 
#
# Total GULP energy -44948.978309 kJ/mol
# GULP energy per Si atom -5618.622289 kJ/mol
# Density = 2.859617 g / cm^3
# Si number density = 28.661407 Si / 1000 Ang^3
#
#
#
# Elastic Constant Matrix: (Units=GPa)
#
#
# Indices 1 2 3 4 5 6 
#
# 1 145.5081 63.7890 96.6518 9.0891 18.3586 -24.3985
# 2 63.7890 225.2142 54.0343 30.1281 1.4894 -1.4937
# 3 96.6518 54.0343 184.3734 7.6627 35.2113 -11.9097
# 4 9.0891 30.1281 7.6627 67.2925 6.3241 -3.3226
# 5 18.3586 1.4894 35.2113 6.3241 74.3165 0.9003
# 6 -24.3985 -1.4937 -11.9097 -3.3226 0.9003 60.0794
#
#
#
# Elastic Compliance Matrix: (Units=1/GPa)
#
#
# Indices 1 2 3 4 5 6 
#
# 1 0.012053 -0.002118 -0.005374 0.000162 -0.000449 0.003792
# 2 -0.002118 0.005480 -0.000642 -0.002229 0.000919 -0.000988
# 3 -0.005374 -0.000642 0.008952 0.000250 -0.002918 -0.000366
# 4 0.000162 -0.002229 0.000250 0.015996 -0.001487 0.000967
# 5 -0.000449 0.000919 -0.002918 -0.001487 0.015070 -0.001046
# 6 0.003792 -0.000988 -0.000366 0.000967 -0.001046 0.018157
#
#
# Mechanical properties :
#
#
# Convention : Reuss Voigt Hill
#
# Bulk Modulus (GPa) = 97.87904 109.33844 103.60874
# Shear Modulus (GPa) = 52.42117 63.04571 57.73344
#
# Velocity S-wave (km/s) = 4.28130 4.69515 4.49299
# Velocity P-wave (km/s) = 7.65922 8.22337 7.94630
#
# Compressibility (1/GPa) = 0.01021669
#
# Stress axis : x y z
#
# Youngs Moduli (GPa) = 82.96868 182.48610 111.70385
#
# Poissons Ratio (x) = 0.38651 0.60025
# Poissons Ratio (y) = 0.17573 0.07177
# Poissons Ratio (z) = 0.44584 0.11724
#
# Static dielectric constant tensor:
#      x y z
#    x 2.263190 0.047900 -0.017650 
#    y 0.047900 2.212310 -0.050090 
#    z -0.017650 -0.050090 2.294050 
# 
# From -- ./inp_files/271430.got.cif
#   From: 2010.05.17/outbox.cif.g08.bks.cpg/sg2_136_cif.got.tgz:271430.got - 2010.06.03 11:33:40.
