data_PCOD9067128
_publ_section_title
;
Structure prediction by ZEFSAII (Michael W. Deem and Ramdas Pophale) SiO2 
 PCOD9067128
Probable space group: P -1
;
_chemical_formula_sum "Si O2"
_cell_formula_units_Z 16
_cell_length_a 12.237812
_cell_length_b 9.196515
_cell_length_c 19.175017
_cell_angle_alpha 133.450185
_cell_angle_beta 142.540754
_cell_angle_gamma 73.265354
_cell_volume 773.313820
_symmetry_space_group_name_H-M "P -1"
_symmetry_group_IT_number 2
_symmetry_cell_setting 'triclinic'
loop_
_space_group_symop_operation_xyz
x,y,z
-x,-y,-z
loop_
_atom_site_type_symbol
_atom_site_label
_atom_site_fract_x
_atom_site_fract_y
_atom_site_fract_z
Si Si1 0.165662 0.951676 0.997236
Si Si2 0.360129 0.150342 0.022477
Si Si3 0.810973 0.210038 0.300858
Si Si4 0.442778 0.956122 0.538750
Si Si5 0.069826 0.453071 0.820874
Si Si6 0.197430 0.132235 0.698312
Si Si7 0.331511 0.209799 0.304806
Si Si8 0.446110 0.631193 0.163328
O O1 0.140513 0.695385 0.893075
O O2 0.914385 0.861886 0.847504
O O3 0.250504 0.128373 0.032496
O O4 0.336591 0.104867 0.197406
O O5 0.181571 0.916447 0.807688
O O6 0.571751 0.156393 0.153102
O O7 0.441288 0.395970 0.103337
O O8 0.000000 0.500000 0.500000
O O9 0.812793 0.059112 0.316652
O O10 0.612857 0.915824 0.649485
O O11 0.191416 0.722437 0.352467
O O12 0.500000 0.000000 0.500000
O O13 0.464878 0.181464 0.665241
O O14 0.157131 0.310776 0.779434
O O15 0.201107 0.544093 0.990345
O O16 0.411354 0.256064 0.798067
O O17 0.000000 0.000000 0.500000
O O18 0.500000 0.500000 0.500000
#
# Coordination Sequence:
#
# PCOD9067128 Si02
#       8
#     2   2   2   2   2   2   2   2
#     4  11  26  45  74  99 139 185 233 289 349 417
#     4  11  27  43  69 103 140 184 227 287 349 408
#     4  11  26  44  66 104 144 180 229 281 343 414
#     4  12  29  46  73 105 142 181 239 296 349 413
#     4  12  25  46  73 105 139 189 234 282 357 418
#     4  12  25  45  76 102 147 189 231 285 349 428
#     4  11  25  48  69 102 135 183 238 288 351 412
#     4  12  26  47  70 105 145 187 236 284 351 420
#
# _framework density 20.690178
#
# number of rings (size 3 to 8) (size 9 to 14) (size 15 to 20)
#    0.000    0.500    5.000    1.875    8.750    1.500 
#    0.000    0.000    0.000    0.000    0.000    0.000 
#    0.000    0.000    0.000    0.000    0.000    0.000 
#
# Total GULP energy -89360.931861 kJ/mol
# GULP energy per Si atom -5585.058241 kJ/mol
# Density = 2.064309 g / cm^3
# Si number density = 20.690178 Si / 1000 Ang^3
#
#
#
# Elastic Constant Matrix: (Units=GPa)
#
#
# Indices 1 2 3 4 5 6 
#
# 1 71.2509 38.0640 39.0765 13.3870 -19.3118 14.6895
# 2 38.0640 142.3202 46.2258 -5.8078 -13.5173 10.3095
# 3 39.0765 46.2258 145.5999 -5.4334 -17.5409 11.5669
# 4 13.3870 -5.8078 -5.4334 36.0024 -2.6618 -4.1430
# 5 -19.3118 -13.5173 -17.5409 -2.6618 22.7607 -8.4532
# 6 14.6895 10.3095 11.5669 -4.1430 -8.4532 32.6561
#
#
#
# Elastic Compliance Matrix: (Units=1/GPa)
#
#
# Indices 1 2 3 4 5 6 
#
# 1 0.024989 -0.004255 -0.003756 -0.010434 0.012046 -0.006773
# 2 -0.004255 0.008827 -0.001460 0.002884 0.000938 0.000253
# 3 -0.003756 -0.001460 0.008803 0.002742 0.003121 0.000188
# 4 -0.010434 0.002884 0.002742 0.033522 0.001679 0.007499
# 5 0.012046 0.000938 0.003121 0.001679 0.060696 0.009104
# 6 -0.006773 0.000253 0.000188 0.007499 0.009104 0.036830
#
#
# Mechanical properties :
#
#
# Convention : Reuss Voigt Hill
#
# Bulk Modulus (GPa) = 42.23310 67.32260 54.77785
# Shear Modulus (GPa) = 24.93746 34.00413 29.47080
#
# Velocity S-wave (km/s) = 3.47548 4.05840 3.77820
# Velocity P-wave (km/s) = 6.04663 7.38714 6.75025
#
# Compressibility (1/GPa) = 0.02367811
#
# Stress axis : x y z
#
# Youngs Moduli (GPa) = 40.01708 113.28850 113.59649
#
# Poissons Ratio (x) = 0.48200 0.42668
# Poissons Ratio (y) = 0.17026 0.16585
# Poissons Ratio (z) = 0.15031 0.16540
#
# Static dielectric constant tensor:
#      x y z
#    x 1.843570 -0.013240 0.050330 
#    y -0.013240 1.717650 0.032080 
#    z 0.050330 0.032080 1.830890 
# 
# From -- ./inp_files/279062.got.cif
#   From: 2010.05.17/outbox.cif.g08.bks.cpg/sg2_140_cif.got.tgz:279062.got - 2010.06.03 11:33:40.
