data_PCOD9067542
_publ_section_title
;
Structure prediction by ZEFSAII (Michael W. Deem and Ramdas Pophale) SiO2 
 PCOD9067542
Probable space group: P -1
;
_chemical_formula_sum "Si O2"
_cell_formula_units_Z 12
_cell_length_a 6.813133
_cell_length_b 9.311526
_cell_length_c 13.053401
_cell_angle_alpha 120.419007
_cell_angle_beta 82.303241
_cell_angle_gamma 131.773898
_cell_volume 505.246817
_symmetry_space_group_name_H-M "P -1"
_symmetry_group_IT_number 2
_symmetry_cell_setting 'triclinic'
loop_
_space_group_symop_operation_xyz
x,y,z
-x,-y,-z
loop_
_atom_site_type_symbol
_atom_site_label
_atom_site_fract_x
_atom_site_fract_y
_atom_site_fract_z
Si Si1 0.695245 0.611564 0.928294
Si Si2 0.885266 0.009161 0.618962
Si Si3 0.720673 0.404977 0.536847
Si Si4 0.341384 0.776452 0.305279
Si Si5 0.881783 0.078535 0.263546
Si Si6 0.696076 0.960687 0.997369
O O1 0.707270 0.432070 0.818315
O O2 0.500000 0.500000 0.000000
O O3 0.598933 0.711771 0.900025
O O4 0.017263 0.843355 0.011891
O O5 0.567508 0.757679 0.562217
O O6 0.059662 0.049648 0.718351
O O7 0.877383 0.204599 0.687400
O O8 0.000000 0.000000 0.500000
O O9 0.643489 0.253332 0.587283
O O10 0.000000 0.500000 0.500000
O O11 0.836156 0.650760 0.655104
O O12 0.627351 0.008484 0.319820
O O13 0.773003 0.011232 0.131150
O O14 0.500000 0.000000 0.000000
#
# Coordination Sequence:
#
# PCOD9067542 Si02
#       6
#     2   2   2   2   2   2
#     4  11  25  50  77 111 149 192 253 309 377 447
#     4  12  26  46  79 109 153 200 248 308 371 442
#     4  12  24  48  74 107 153 197 246 308 372 442
#     4  12  25  47  75 112 153 192 251 309 372 444
#     4  12  25  48  73 112 147 199 251 301 379 447
#     4  11  27  51  77 109 150 195 253 312 373 445
#
# _framework density 23.750768999999998
#
# number of rings (size 3 to 8) (size 9 to 14) (size 15 to 20)
#    0.000    0.333    6.667    2.000    0.000    4.667 
#    0.000    0.000    0.000    0.000    0.000    0.000 
#    0.000    0.000    0.000    0.000    0.000    0.000 
#
# Total GULP energy -67069.819892 kJ/mol
# GULP energy per Si atom -5589.151658 kJ/mol
# Density = 2.369671 g / cm^3
# Si number density = 23.750769 Si / 1000 Ang^3
#
#
#
# Elastic Constant Matrix: (Units=GPa)
#
#
# Indices 1 2 3 4 5 6 
#
# 1 210.4610 52.8558 65.2332 -11.3192 -16.2477 -22.0812
# 2 52.8558 138.1314 39.9020 -4.9655 -13.7547 10.4125
# 3 65.2332 39.9020 111.2632 -14.4889 -18.5751 -12.5026
# 4 -11.3192 -4.9655 -14.4889 50.7383 -7.3099 -12.0199
# 5 -16.2477 -13.7547 -18.5751 -7.3099 45.3103 1.6635
# 6 -22.0812 10.4125 -12.5026 -12.0199 1.6635 54.3639
#
#
#
# Elastic Compliance Matrix: (Units=1/GPa)
#
#
# Indices 1 2 3 4 5 6 
#
# 1 0.006383 -0.001788 -0.002503 0.001273 0.000829 0.002616
# 2 -0.001788 0.008951 -0.002457 -0.000837 0.001052 -0.003223
# 3 -0.002503 -0.002457 0.012969 0.004287 0.004246 0.003255
# 4 0.001273 -0.000837 0.004287 0.023515 0.005508 0.006694
# 5 0.000829 0.001052 0.004246 0.005508 0.025259 0.001557
# 6 0.002616 -0.003223 0.003255 0.006694 0.001557 0.022255
#
#
# Mechanical properties :
#
#
# Convention : Reuss Voigt Hill
#
# Bulk Modulus (GPa) = 67.53604 86.20418 76.87011
# Shear Modulus (GPa) = 42.45731 50.20681 46.33206
#
# Velocity S-wave (km/s) = 4.23261 4.60271 4.42153
# Velocity P-wave (km/s) = 7.23766 8.03870 7.64867
#
# Compressibility (1/GPa) = 0.01480691
#
# Stress axis : x y z
#
# Youngs Moduli (GPa) = 156.65658 111.71627 77.10599
#
# Poissons Ratio (x) = 0.19979 0.19299
# Poissons Ratio (y) = 0.28016 0.18946
# Poissons Ratio (z) = 0.39210 0.27450
#
# Static dielectric constant tensor:
#      x y z
#    x 1.946320 -0.025310 -0.096170 
#    y -0.025310 1.900350 0.081060 
#    z -0.096170 0.081060 2.051480 
# 
# From -- ./inp_files/87029.got.cif
#   From: 2010.05.17/outbox.cif.g08.bks.cpg/sg2_44_cif.got.tgz:87029.got - 2010.06.03 11:33:40.
