data_PCOD9067080
_publ_section_title
;
Structure prediction by ZEFSAII (Michael W. Deem and Ramdas Pophale) SiO2 
 PCOD9067080
Probable space group: P -1
;
_chemical_formula_sum "Si O2"
_cell_formula_units_Z 12
_cell_length_a 9.302679
_cell_length_b 11.716142
_cell_length_c 14.257373
_cell_angle_alpha 48.494673
_cell_angle_beta 29.323685
_cell_angle_gamma 38.868834
_cell_volume 476.916493
_symmetry_space_group_name_H-M "P -1"
_symmetry_group_IT_number 2
_symmetry_cell_setting 'triclinic'
loop_
_space_group_symop_operation_xyz
x,y,z
-x,-y,-z
loop_
_atom_site_type_symbol
_atom_site_label
_atom_site_fract_x
_atom_site_fract_y
_atom_site_fract_z
Si Si1 0.051482 0.955451 0.772627
Si Si2 0.292998 0.675162 0.132506
Si Si3 0.491482 0.174960 0.232045
Si Si4 0.666639 0.100002 0.569031
Si Si5 0.212260 0.456210 0.553391
Si Si6 0.837510 0.400655 0.097369
O O1 0.355707 0.874871 0.723154
O O2 0.198689 0.939902 0.593694
O O3 0.918604 0.818207 0.927013
O O4 0.796228 0.164916 0.831028
O O5 0.667299 0.499075 0.042818
O O6 0.004097 0.624749 0.323669
O O7 0.320984 0.750261 0.976619
O O8 0.081669 0.334633 0.374687
O O9 0.540827 0.998739 0.250226
O O10 0.425370 0.318818 0.593010
O O11 0.000000 0.000000 0.500000
O O12 0.500616 0.441419 0.327389
O O13 0.000000 0.500000 0.000000
#
# Coordination Sequence:
#
# PCOD9067080 Si02
#       6
#     2   2   2   2   2   2
#     4  11  25  47  78 103 146 196 246 303 361 438
#     4  12  25  45  76 112 144 193 253 299 359 443
#     4  12  25  45  76 112 144 193 253 299 359 443
#     4  11  27  46  71 110 148 190 249 303 376 429
#     4  11  25  47  78 103 146 196 246 303 361 438
#     4  11  27  46  71 110 148 190 249 303 376 429
#
# _framework density 25.161636000000001
#
# number of rings (size 3 to 8) (size 9 to 14) (size 15 to 20)
#    0.000    0.667    3.333    3.000    9.333    1.333 
#    6.000    0.000    0.000    0.000    0.000    0.000 
#    0.000    0.000    0.000    0.000    0.000    0.000 
#
# Total GULP energy -67274.951887 kJ/mol
# GULP energy per Si atom -5606.245991 kJ/mol
# Density = 2.510437 g / cm^3
# Si number density = 25.161636 Si / 1000 Ang^3
#
#
#
# Elastic Constant Matrix: (Units=GPa)
#
#
# Indices 1 2 3 4 5 6 
#
# 1 100.2703 20.7928 56.1645 -19.7443 -23.8223 -21.5407
# 2 20.7928 128.0857 20.6402 -13.0602 -0.7404 -6.6705
# 3 56.1645 20.6402 81.2149 -20.0257 6.5163 1.1555
# 4 -19.7443 -13.0602 -20.0257 45.8228 10.4705 2.1660
# 5 -23.8223 -0.7404 6.5163 10.4705 30.2610 -1.9533
# 6 -21.5407 -6.6705 1.1555 2.1660 -1.9533 42.1003
#
#
#
# Elastic Compliance Matrix: (Units=1/GPa)
#
#
# Indices 1 2 3 4 5 6 
#
# 1 0.053244 -0.000647 -0.044503 -0.011310 0.057436 0.031608
# 2 -0.000647 0.008322 -0.001233 0.001636 -0.000547 0.000912
# 3 -0.044503 -0.001233 0.052321 0.016991 -0.054003 -0.027781
# 4 -0.011310 0.001636 0.016991 0.030665 -0.023692 -0.008671
# 5 0.057436 -0.000547 -0.054003 -0.023692 0.100440 0.036661
# 6 0.031608 0.000912 -0.027781 -0.008671 0.036661 0.042979
#
#
# Mechanical properties :
#
#
# Convention : Reuss Voigt Hill
#
# Bulk Modulus (GPa) = 47.34919 56.08509 51.71714
# Shear Modulus (GPa) = 12.89400 37.76839 25.33119
#
# Velocity S-wave (km/s) = 2.26618 3.87852 3.17636
# Velocity P-wave (km/s) = 5.07014 6.51118 5.83532
#
# Compressibility (1/GPa) = 0.02111969
#
# Stress axis : x y z
#
# Youngs Moduli (GPa) = 18.78159 120.16076 19.11293
#
# Poissons Ratio (x) = 0.07774 0.85059
# Poissons Ratio (y) = 0.01215 0.02357
# Poissons Ratio (z) = 0.83584 0.14818
#
# Static dielectric constant tensor:
#      x y z
#    x 1.944110 0.001970 0.029890 
#    y 0.001970 2.025080 0.004010 
#    z 0.029890 0.004010 1.983530 
# 
# From -- ./inp_files/172268.got.cif
#   From: 2010.05.17/outbox.cif.g08.bks.cpg/sg2_87_cif.got.tgz:172268.got - 2010.06.03 11:33:40.
