data_PCOD9067808
_publ_section_title
;
Structure prediction by ZEFSAII (Michael W. Deem and Ramdas Pophale) SiO2 
 PCOD9067808
Probable space group: P -1
;
_chemical_formula_sum "Si O2"
_cell_formula_units_Z 14
_cell_length_a 8.599213
_cell_length_b 20.058674
_cell_length_c 5.428112
_cell_angle_alpha 95.969618
_cell_angle_beta 84.962817
_cell_angle_gamma 39.029850
_cell_volume 564.762320
_symmetry_space_group_name_H-M "P -1"
_symmetry_group_IT_number 2
_symmetry_cell_setting 'triclinic'
loop_
_space_group_symop_operation_xyz
x,y,z
-x,-y,-z
loop_
_atom_site_type_symbol
_atom_site_label
_atom_site_fract_x
_atom_site_fract_y
_atom_site_fract_z
Si Si1 0.830316 0.069626 0.288819
Si Si2 0.486775 0.064120 0.239219
Si Si3 0.171334 0.640040 0.870136
Si Si4 0.588762 0.278929 0.581282
Si Si5 0.918705 0.598745 0.151461
Si Si6 0.923378 0.828688 0.294339
Si Si7 0.675035 0.510033 0.595643
O O1 0.743033 0.176765 0.343017
O O2 0.581107 0.109294 0.258789
O O3 0.000000 0.000000 0.500000
O O4 0.000000 0.000000 0.000000
O O5 0.721298 0.955863 0.328693
O O6 0.210691 0.159712 0.446660
O O7 0.500000 0.000000 0.000000
O O8 0.458871 0.570391 0.859639
O O9 0.243147 0.589718 0.568394
O O10 0.052337 0.614025 0.996700
O O11 0.967494 0.764657 0.032431
O O12 0.385428 0.299851 0.751742
O O13 0.447123 0.389774 0.516003
O O14 0.801626 0.236121 0.711468
O O15 0.052363 0.556343 0.379974
O O16 0.000000 0.500000 0.000000
#
# Coordination Sequence:
#
# PCOD9067808 Si02
#       7
#     2   2   2   2   2   2   2
#     4  12  28  52  80 118 160 205 267 335 408 473
#     4  11  26  51  76 113 150 200 265 324 389 485
#     4  11  26  45  74 102 151 196 250 311 384 470
#     4  12  26  48  76 109 153 202 253 325 395 467
#     4  12  25  47  70 107 148 197 254 318 383 465
#     4  11  26  46  76 106 148 198 255 309 399 464
#     4  11  27  46  70 111 147 200 255 310 386 468
#
# _framework density 24.789186000000001
#
# number of rings (size 3 to 8) (size 9 to 14) (size 15 to 20)
#    0.000    0.571    2.857    3.429   10.000    2.286 
#    0.000    0.000    0.000    0.000    0.000    0.000 
#    0.000    0.000    0.000    0.000    0.000    0.000 
#
# Total GULP energy -78009.546879 kJ/mol
# GULP energy per Si atom -5572.110491 kJ/mol
# Density = 2.473277 g / cm^3
# Si number density = 24.789186 Si / 1000 Ang^3
#
#
#
# Elastic Constant Matrix: (Units=GPa)
#
#
# Indices 1 2 3 4 5 6 
#
# 1 122.8479 21.2906 17.9368 -0.3566 -5.0092 -11.1052
# 2 21.2906 70.7935 26.5744 23.7077 -2.1063 0.0644
# 3 17.9368 26.5744 115.7756 35.0976 4.0708 -1.2440
# 4 -0.3566 23.7077 35.0976 43.6639 8.5356 7.0030
# 5 -5.0092 -2.1063 4.0708 8.5356 57.9817 12.7935
# 6 -11.1052 0.0644 -1.2440 7.0030 12.7935 46.7857
#
#
#
# Elastic Compliance Matrix: (Units=1/GPa)
#
#
# Indices 1 2 3 4 5 6 
#
# 1 0.009049 -0.003052 -0.001486 0.002650 0.000007 0.001714
# 2 -0.003052 0.018746 -0.000899 -0.009881 0.001894 0.000187
# 3 -0.001486 -0.000899 0.011915 -0.009332 0.000080 0.001340
# 4 0.002650 -0.009881 -0.009332 0.037236 -0.004059 -0.004069
# 5 0.000007 0.001894 0.000080 -0.004059 0.018915 -0.004564
# 6 0.001714 0.000187 0.001340 -0.004069 -0.004564 0.023673
#
#
# Mechanical properties :
#
#
# Convention : Reuss Voigt Hill
#
# Bulk Modulus (GPa) = 34.68116 49.00228 41.84172
# Shear Modulus (GPa) = 35.70903 45.92726 40.81815
#
# Velocity S-wave (km/s) = 3.79952 4.30899 4.06225
# Velocity P-wave (km/s) = 5.76795 6.67585 6.23844
#
# Compressibility (1/GPa) = 0.02883410
#
# Stress axis : x y z
#
# Youngs Moduli (GPa) = 110.50862 53.34439 83.93088
#
# Poissons Ratio (x) = 0.16281 0.12476
# Poissons Ratio (y) = 0.33729 0.07547
# Poissons Ratio (z) = 0.16427 0.04797
#
# Static dielectric constant tensor:
#      x y z
#    x 2.241910 -0.009140 -0.137500 
#    y -0.009140 1.963500 -0.108280 
#    z -0.137500 -0.108280 2.142770 
# 
# From -- ./inp_files/53253.got.cif
#   From: 2010.05.17/outbox.cif.g08.bks.cpg/sg2_27_cif.got.tgz:53253.got - 2010.06.03 11:33:40.
