data_PCOD9067695
_publ_section_title
;
Structure prediction by ZEFSAII (Michael W. Deem and Ramdas Pophale) SiO2 
 PCOD9067695
Probable space group: P -1
;
_chemical_formula_sum "Si O2"
_cell_formula_units_Z 16
_cell_length_a 14.473226
_cell_length_b 9.313245
_cell_length_c 4.919277
_cell_angle_alpha 103.184717
_cell_angle_beta 104.359449
_cell_angle_gamma 95.750082
_cell_volume 616.736495
_symmetry_space_group_name_H-M "P -1"
_symmetry_group_IT_number 2
_symmetry_cell_setting 'triclinic'
loop_
_space_group_symop_operation_xyz
x,y,z
-x,-y,-z
loop_
_atom_site_type_symbol
_atom_site_label
_atom_site_fract_x
_atom_site_fract_y
_atom_site_fract_z
Si Si1 0.415660 0.909785 0.086017
Si Si2 0.095615 0.578882 0.454019
Si Si3 0.292146 0.914401 0.482615
Si Si4 0.782248 0.417763 0.939189
Si Si5 0.841033 0.895866 0.767675
Si Si6 0.330832 0.322283 0.169588
Si Si7 0.538473 0.665693 0.208386
Si Si8 0.970763 0.125951 0.340762
O O1 0.328803 0.885499 0.795677
O O2 0.454243 0.763192 0.156516
O O3 0.378374 0.982015 0.361850
O O4 0.500000 0.000000 0.000000
O O5 0.124217 0.526450 0.158607
O O6 0.077273 0.749230 0.495399
O O7 0.000000 0.500000 0.500000
O O8 0.184547 0.570480 0.720276
O O9 0.252476 0.753178 0.249966
O O10 0.215474 0.026465 0.468652
O O11 0.704064 0.521851 0.858437
O O12 0.761896 0.789199 0.837413
O O13 0.925485 0.808487 0.690464
O O14 0.897531 0.037267 0.034103
O O15 0.376249 0.266401 0.907179
O O16 0.414719 0.340533 0.465167
O O17 0.500000 0.500000 0.000000
O O18 0.000000 0.000000 0.500000
#
# Coordination Sequence:
#
# PCOD9067695 Si02
#       8
#     2   2   2   2   2   2   2   2
#     4  12  25  43  69 100 135 176 223 280 339 406
#     4  12  26  45  69  98 139 182 233 282 335 401
#     4  12  24  44  69  97 137 177 227 274 340 409
#     4  12  25  45  67 102 131 182 230 276 343 395
#     4  11  26  44  67 105 137 186 231 284 343 407
#     4  12  26  44  74 102 142 180 232 284 343 416
#     4  12  25  47  70 104 139 180 228 284 352 411
#     4  11  26  44  71  98 144 185 232 285 343 404
#
# _framework density 25.943010999999998
#
# number of rings (size 3 to 8) (size 9 to 14) (size 15 to 20)
#    0.000    0.250    1.250    7.875    7.000    0.000 
#    0.000    0.000    0.000    0.000    0.000    0.000 
#    0.000    0.000    0.000    0.000    0.000    0.000 
#
# Total GULP energy -89843.868981 kJ/mol
# GULP energy per Si atom -5615.241811 kJ/mol
# Density = 2.588396 g / cm^3
# Si number density = 25.943011 Si / 1000 Ang^3
#
#
#
# Elastic Constant Matrix: (Units=GPa)
#
#
# Indices 1 2 3 4 5 6 
#
# 1 114.3592 34.7677 26.7415 -13.3989 -5.6428 -5.1063
# 2 34.7677 111.0736 28.1511 -21.2060 23.2615 -17.5466
# 3 26.7415 28.1511 136.2439 -31.1728 14.4993 -21.0678
# 4 -13.3989 -21.2060 -31.1728 35.3050 -3.5699 4.4442
# 5 -5.6428 23.2615 14.4993 -3.5699 49.0379 -6.7108
# 6 -5.1063 -17.5466 -21.0678 4.4442 -6.7108 61.4687
#
#
#
# Elastic Compliance Matrix: (Units=1/GPa)
#
#
# Indices 1 2 3 4 5 6 
#
# 1 0.010401 -0.003441 -0.001527 0.000910 0.003299 -0.000347
# 2 -0.003441 0.012673 0.000355 0.005733 -0.005765 0.002409
# 3 -0.001527 0.000355 0.010032 0.007926 -0.002380 0.002580
# 4 0.000910 0.005733 0.007926 0.038737 -0.001945 0.001416
# 5 0.003299 -0.005765 -0.002380 -0.001945 0.024150 0.000590
# 6 -0.000347 0.002409 0.002580 0.001416 0.000590 0.017774
#
#
# Mechanical properties :
#
#
# Convention : Reuss Voigt Hill
#
# Bulk Modulus (GPa) = 41.87766 60.11082 50.99424
# Shear Modulus (GPa) = 38.18173 47.29675 42.73924
#
# Velocity S-wave (km/s) = 3.84051 4.27441 4.06326
# Velocity P-wave (km/s) = 5.98692 6.89793 6.45851
#
# Compressibility (1/GPa) = 0.02387908
#
# Stress axis : x y z
#
# Youngs Moduli (GPa) = 96.14003 78.90986 99.68188
#
# Poissons Ratio (x) = 0.27152 0.15224
# Poissons Ratio (y) = 0.33081 -0.03536
# Poissons Ratio (z) = 0.14684 -0.02799
#
# Static dielectric constant tensor:
#      x y z
#    x 2.125780 0.099210 0.023510 
#    y 0.099210 2.078020 -0.023140 
#    z 0.023510 -0.023140 1.979140 
# 
# From -- ./inp_files/90813.got.cif
#   From: 2010.05.17/outbox.cif.g08.bks.cpg/sg2_46_cif.got.tgz:90813.got - 2010.06.03 11:33:40.
