data_PCOD9067622
_publ_section_title
;
Structure prediction by ZEFSAII (Michael W. Deem and Ramdas Pophale) SiO2 
 PCOD9067622
Probable space group: P -1
;
_chemical_formula_sum "Si O2"
_cell_formula_units_Z 13
_cell_length_a 15.653667
_cell_length_b 5.973615
_cell_length_c 8.904316
_cell_angle_alpha 110.587904
_cell_angle_beta 139.124790
_cell_angle_gamma 69.276276
_cell_volume 504.800405
_symmetry_space_group_name_H-M "P -1"
_symmetry_group_IT_number 2
_symmetry_cell_setting 'triclinic'
loop_
_space_group_symop_operation_xyz
x,y,z
-x,-y,-z
loop_
_atom_site_type_symbol
_atom_site_label
_atom_site_fract_x
_atom_site_fract_y
_atom_site_fract_z
Si Si1 0.000000 0.000000 0.500000
Si Si2 0.279187 0.961334 0.406412
Si Si3 0.877698 0.688036 0.506406
Si Si4 0.777158 0.892241 0.974294
Si Si5 0.478569 0.749395 0.835658
Si Si6 0.093375 0.594735 0.021969
Si Si7 0.691269 0.348881 0.141913
O O1 0.100223 0.157125 0.573130
O O2 0.075164 0.064623 0.772115
O O3 0.415521 0.808329 0.603670
O O4 0.159728 0.807633 0.231011
O O5 0.245035 0.182085 0.528806
O O6 0.267379 0.040273 0.238242
O O7 0.840336 0.416481 0.362415
O O8 0.001892 0.663879 0.774404
O O9 0.787620 0.605095 0.923197
O O10 0.689381 0.086300 0.007146
O O11 0.369234 0.650583 0.773067
O O12 0.606436 0.551123 0.975588
O O13 0.500000 0.000000 0.000000
O O14 0.000000 0.500000 0.000000
#
# Coordination Sequence:
#
# PCOD9067622 Si02
#       7
#     1   2   2   2   2   2   2
#     4  12  26  44  72 112 158 198 242 298 374 452
#     4  12  25  46  74 110 144 198 252 308 372 445
#     4  12  24  48  77 110 155 199 248 301 378 456
#     4  12  27  44  71 112 152 192 248 307 370 446
#     4  11  25  51  80 105 144 198 256 311 384 441
#     4  12  24  43  72 107 153 196 239 305 374 452
#     4  11  27  48  78 109 145 200 252 315 371 445
#
# _framework density 25.752752000000001
#
# number of rings (size 3 to 8) (size 9 to 14) (size 15 to 20)
#    0.000    0.308    4.615    4.154    2.154    1.846 
#    0.000    1.538    0.000    0.000    0.000    0.000 
#    0.000    0.000    0.000    0.000    0.000    0.000 
#
# Total GULP energy -72651.800481 kJ/mol
# GULP energy per Si atom -5588.600037 kJ/mol
# Density = 2.569414 g / cm^3
# Si number density = 25.752752 Si / 1000 Ang^3
#
#
#
# Elastic Constant Matrix: (Units=GPa)
#
#
# Indices 1 2 3 4 5 6 
#
# 1 74.0737 16.1011 27.9913 3.2333 -18.2918 13.8410
# 2 16.1011 85.0082 31.4949 -5.9760 -8.4155 -5.3195
# 3 27.9913 31.4949 151.5407 -40.3010 -13.8478 9.3827
# 4 3.2333 -5.9760 -40.3010 62.0968 7.4942 1.7889
# 5 -18.2918 -8.4155 -13.8478 7.4942 33.8643 -0.0186
# 6 13.8410 -5.3195 9.3827 1.7889 -0.0186 54.6061
#
#
#
# Elastic Compliance Matrix: (Units=1/GPa)
#
#
# Indices 1 2 3 4 5 6 
#
# 1 0.018234 -0.002017 -0.002933 -0.004017 0.009035 -0.004180
# 2 -0.002017 0.013325 -0.002549 -0.000488 0.001289 0.002264
# 3 -0.002933 -0.002549 0.009372 0.005993 0.000288 -0.001311
# 4 -0.004017 -0.000488 0.005993 0.020711 -0.004424 -0.000739
# 5 0.009035 0.001289 0.000288 -0.004424 0.035826 -0.002057
# 6 -0.004180 0.002264 -0.001311 -0.000739 -0.002057 0.019842
#
#
# Mechanical properties :
#
#
# Convention : Reuss Voigt Hill
#
# Bulk Modulus (GPa) = 38.55935 51.31081 44.93508
# Shear Modulus (GPa) = 35.47358 45.78245 40.62802
#
# Velocity S-wave (km/s) = 3.71545 4.22093 3.97623
# Velocity P-wave (km/s) = 5.78027 6.61231 6.21024
#
# Compressibility (1/GPa) = 0.02593405
#
# Stress axis : x y z
#
# Youngs Moduli (GPa) = 54.84207 75.04784 106.70621
#
# Poissons Ratio (x) = 0.15134 0.31295
# Poissons Ratio (y) = 0.11059 0.27198
# Poissons Ratio (z) = 0.16084 0.19129
#
# Static dielectric constant tensor:
#      x y z
#    x 2.049990 -0.117120 0.082390 
#    y -0.117120 2.463300 -0.380980 
#    z 0.082390 -0.380980 2.291600 
# 
# From -- ./inp_files/89183.got.cif
#   From: 2010.05.17/outbox.cif.g08.bks.cpg/sg2_45_cif.got.tgz:89183.got - 2010.06.03 11:33:40.
