data_PCOD9067025
_publ_section_title
;
Structure prediction by ZEFSAII (Michael W. Deem and Ramdas Pophale) SiO2 
 PCOD9067025
Probable space group: P -1
;
_chemical_formula_sum "Si O2"
_cell_formula_units_Z 13
_cell_length_a 5.522758
_cell_length_b 5.081650
_cell_length_c 17.784912
_cell_angle_alpha 61.711930
_cell_angle_beta 78.503525
_cell_angle_gamma 82.185645
_cell_volume 430.203953
_symmetry_space_group_name_H-M "P -1"
_symmetry_group_IT_number 2
_symmetry_cell_setting 'triclinic'
loop_
_space_group_symop_operation_xyz
x,y,z
-x,-y,-z
loop_
_atom_site_type_symbol
_atom_site_label
_atom_site_fract_x
_atom_site_fract_y
_atom_site_fract_z
Si Si1 0.344356 0.757697 0.207655
Si Si2 0.825434 0.746471 0.636614
Si Si3 0.962432 0.234377 0.137478
Si Si4 0.386457 0.091154 0.693785
Si Si5 0.204749 0.230991 0.528242
Si Si6 0.441235 0.297127 0.956240
Si Si7 0.000000 0.000000 0.000000
O O1 0.129956 0.575350 0.285006
O O2 0.557218 0.722983 0.260895
O O3 0.442538 0.620860 0.142565
O O4 0.239651 0.098271 0.156347
O O5 0.682419 0.755846 0.563786
O O6 0.648428 0.924354 0.680894
O O7 0.070380 0.919694 0.584987
O O8 0.808884 0.140134 0.232263
O O9 0.915756 0.049496 0.089776
O O10 0.878918 0.573872 0.069029
O O11 0.332038 0.260687 0.596370
O O12 0.000000 0.500000 0.500000
O O13 0.500000 0.500000 0.000000
O O14 0.695218 0.037055 0.989401
#
# Coordination Sequence:
#
# PCOD9067025 Si02
#       7
#     2   2   2   2   2   2   1
#     4  12  27  48  77 113 159 205 261 324 389 465
#     4  11  25  47  75 112 154 209 255 320 392 459
#     4  12  27  48  75 115 156 203 264 325 387 464
#     4  12  25  47  75 112 154 206 253 323 389 460
#     4  11  26  49  77 113 156 206 258 320 384 471
#     4  12  27  51  76 111 154 207 260 325 395 462
#     4  12  26  46  76 108 148 204 262 320 384 464
#
# _framework density 30.218223999999999
#
# number of rings (size 3 to 8) (size 9 to 14) (size 15 to 20)
#    0.000    0.308    4.615    3.692    0.000   10.462 
#    2.769    0.000    0.000    0.000    0.000    0.000 
#    0.000    0.000    0.000    0.000    0.000    0.000 
#
# Total GULP energy -72686.635172 kJ/mol
# GULP energy per Si atom -5591.279629 kJ/mol
# Density = 3.014945 g / cm^3
# Si number density = 30.218224 Si / 1000 Ang^3
#
#
#
# Elastic Constant Matrix: (Units=GPa)
#
#
# Indices 1 2 3 4 5 6 
#
# 1 154.5502 39.7003 65.0716 -0.4846 20.6560 7.4879
# 2 39.7003 191.3052 89.7343 10.0456 20.1972 0.8975
# 3 65.0716 89.7343 267.7292 25.0572 18.8281 15.2341
# 4 -0.4846 10.0456 25.0572 75.4165 0.7136 15.3264
# 5 20.6560 20.1972 18.8281 0.7136 78.1361 9.0776
# 6 7.4879 0.8975 15.2341 15.3264 9.0776 53.9083
#
#
#
# Elastic Compliance Matrix: (Units=1/GPa)
#
#
# Indices 1 2 3 4 5 6 
#
# 1 0.007515 -0.000740 -0.001522 0.000786 -0.001367 -0.000595
# 2 -0.000740 0.006404 -0.001901 -0.000384 -0.001094 0.000827
# 3 -0.001522 -0.001901 0.004914 -0.001232 -0.000190 -0.000763
# 4 0.000786 -0.000384 -0.001232 0.014528 0.000517 -0.003972
# 5 -0.001367 -0.001094 -0.000190 0.000517 0.013739 -0.002199
# 6 -0.000595 0.000827 -0.000763 -0.003972 -0.002199 0.020334
#
#
# Mechanical properties :
#
#
# Convention : Reuss Voigt Hill
#
# Bulk Modulus (GPa) = 95.16445 111.39966 103.28206
# Shear Modulus (GPa) = 63.08111 69.43074 66.25592
#
# Velocity S-wave (km/s) = 4.57389 4.79858 4.68758
# Velocity P-wave (km/s) = 7.71069 8.22477 7.97188
#
# Compressibility (1/GPa) = 0.01050813
#
# Stress axis : x y z
#
# Youngs Moduli (GPa) = 133.06155 156.14762 203.48425
#
# Poissons Ratio (x) = 0.11551 0.30976
# Poissons Ratio (y) = 0.09843 0.38679
# Poissons Ratio (z) = 0.20256 0.29681
#
# Static dielectric constant tensor:
#      x y z
#    x 2.128800 -0.363410 0.180180 
#    y -0.363410 2.225940 -0.006850 
#    z 0.180180 -0.006850 2.194240 
# 
# From -- ./inp_files/545856.got.cif
#   From: 2010.05.17/outbox.cif.g08.bks.cpg/sg2_273_cif.got.tgz:545856.got - 2010.06.03 11:33:40.
