data_PCOD9067252
_publ_section_title
;
Structure prediction by ZEFSAII (Michael W. Deem and Ramdas Pophale) SiO2 
 PCOD9067252
Probable space group: P -1
;
_chemical_formula_sum "Si O2"
_cell_formula_units_Z 13
_cell_length_a 13.132169
_cell_length_b 13.119539
_cell_length_c 10.945702
_cell_angle_alpha 47.671918
_cell_angle_beta 134.182311
_cell_angle_gamma 159.070939
_cell_volume 481.228197
_symmetry_space_group_name_H-M "P -1"
_symmetry_group_IT_number 2
_symmetry_cell_setting 'triclinic'
loop_
_space_group_symop_operation_xyz
x,y,z
-x,-y,-z
loop_
_atom_site_type_symbol
_atom_site_label
_atom_site_fract_x
_atom_site_fract_y
_atom_site_fract_z
Si Si1 0.484851 0.985610 0.290170
Si Si2 0.613211 0.406281 0.136583
Si Si3 0.500000 0.000000 0.000000
Si Si4 0.126654 0.439107 0.512379
Si Si5 0.359672 0.266722 0.428496
Si Si6 0.045861 0.964125 0.902392
Si Si7 0.436090 0.251663 0.759323
O O1 0.530073 0.178543 0.217841
O O2 0.781769 0.152178 0.431413
O O3 0.229294 0.686477 0.387805
O O4 0.434648 0.940254 0.140481
O O5 0.765838 0.529295 0.295316
O O6 0.838363 0.667685 0.019476
O O7 0.296594 0.213621 0.010433
O O8 0.611092 0.258415 0.896972
O O9 0.321297 0.523833 0.506370
O O10 0.153256 0.085028 0.283188
O O11 0.260478 0.112482 0.596097
O O12 0.391114 0.457581 0.323846
O O13 0.229382 0.073923 0.847861
#
# Coordination Sequence:
#
# PCOD9067252 Si02
#       7
#     2   2   1   2   2   2   2
#     4  12  26  48  74 114 151 196 252 311 376 444
#     4  12  26  48  77 107 154 199 254 310 363 442
#     4  12  24  48  80 114 144 198 246 324 366 446
#     4  12  28  48  75 110 152 205 248 302 378 450
#     4  11  26  48  75 112 152 203 239 314 381 448
#     4  12  24  48  74 108 146 198 249 310 367 445
#     4  11  25  48  75 109 154 190 251 309 380 441
#
# _framework density 27.014211
#
# number of rings (size 3 to 8) (size 9 to 14) (size 15 to 20)
#    0.000    0.308    4.615    3.231    2.154    4.308 
#    0.000    0.000    0.000    0.000    0.000    0.000 
#    0.000    0.000    0.000    0.000    0.000    0.000 
#
# Total GULP energy -72712.485560 kJ/mol
# GULP energy per Si atom -5593.268120 kJ/mol
# Density = 2.695273 g / cm^3
# Si number density = 27.014211 Si / 1000 Ang^3
#
#
#
# Elastic Constant Matrix: (Units=GPa)
#
#
# Indices 1 2 3 4 5 6 
#
# 1 75.0657 -1.6678 11.8878 -9.2840 6.6839 -18.4154
# 2 -1.6678 96.7486 16.0460 -3.2815 -0.2445 -3.8797
# 3 11.8878 16.0460 153.9987 -17.9483 -22.3437 -1.5829
# 4 -9.2840 -3.2815 -17.9483 44.4968 -3.7230 12.0621
# 5 6.6839 -0.2445 -22.3437 -3.7230 63.3364 -4.1647
# 6 -18.4154 -3.8797 -1.5829 12.0621 -4.1647 32.9860
#
#
#
# Elastic Compliance Matrix: (Units=1/GPa)
#
#
# Indices 1 2 3 4 5 6 
#
# 1 0.015847 0.000859 -0.001414 0.000348 -0.001585 0.008553
# 2 0.000859 0.010616 -0.001209 0.000004 -0.000369 0.001622
# 3 -0.001414 -0.001209 0.007515 0.003269 0.002896 -0.001401
# 4 0.000348 0.000004 0.003269 0.026499 0.002077 -0.009076
# 5 -0.001585 -0.000369 0.002896 0.002077 0.017139 0.000615
# 6 0.008553 0.001622 -0.001401 -0.009076 0.000615 0.038611
#
#
# Mechanical properties :
#
#
# Convention : Reuss Voigt Hill
#
# Bulk Modulus (GPa) = 32.84170 42.03832 37.44001
# Shear Modulus (GPa) = 38.48939 48.13363 43.31151
#
# Velocity S-wave (km/s) = 3.77872 4.22570 4.00845
# Velocity P-wave (km/s) = 5.58766 6.27727 5.94248
#
# Compressibility (1/GPa) = 0.03044910
#
# Stress axis : x y z
#
# Youngs Moduli (GPa) = 63.10294 94.20115 133.05850
#
# Poissons Ratio (x) = -0.08087 0.18818
# Poissons Ratio (y) = -0.05418 0.16084
# Poissons Ratio (z) = 0.08924 0.11387
#
# Static dielectric constant tensor:
#      x y z
#    x 1.935950 0.121180 0.027260 
#    y 0.121180 1.985210 0.060750 
#    z 0.027260 0.060750 2.100900 
# 
# From -- ./inp_files/454555.got.cif
#   From: 2010.05.17/outbox.cif.g08.bks.cpg/sg2_228_cif.got.tgz:454555.got - 2010.06.03 11:33:40.
