data_PCOD9067840
_publ_section_title
;
Structure prediction by ZEFSAII (Michael W. Deem and Ramdas Pophale) SiO2 
 PCOD9067840
Probable space group: P -1
;
_chemical_formula_sum "Si O2"
_cell_formula_units_Z 12
_cell_length_a 10.001209
_cell_length_b 13.330996
_cell_length_c 9.336027
_cell_angle_alpha 57.890910
_cell_angle_beta 150.466038
_cell_angle_gamma 125.804038
_cell_volume 496.835649
_symmetry_space_group_name_H-M "P -1"
_symmetry_group_IT_number 2
_symmetry_cell_setting 'triclinic'
loop_
_space_group_symop_operation_xyz
x,y,z
-x,-y,-z
loop_
_atom_site_type_symbol
_atom_site_label
_atom_site_fract_x
_atom_site_fract_y
_atom_site_fract_z
Si Si1 0.198879 0.910662 0.744595
Si Si2 0.216277 0.430080 0.700100
Si Si3 0.180371 0.783064 0.109654
Si Si4 0.297273 0.111329 0.297543
Si Si5 0.185915 0.837897 0.464095
Si Si6 0.761624 0.482089 0.667867
O O1 0.206840 0.852216 0.642585
O O2 0.123219 0.804496 0.874704
O O3 0.000000 0.000000 0.500000
O O4 0.500000 0.000000 0.000000
O O5 0.231303 0.442548 0.531141
O O6 0.000000 0.500000 0.500000
O O7 0.066230 0.286214 0.704717
O O8 0.500000 0.500000 0.000000
O O9 0.471788 0.877684 0.366543
O O10 0.239399 0.653088 0.287776
O O11 0.915478 0.810535 0.920745
O O12 0.514867 0.159647 0.332272
O O13 0.863732 0.035730 0.737423
O O14 0.500000 0.500000 0.500000
O O15 0.000000 0.500000 0.000000
#
# Coordination Sequence:
#
# PCOD9067840 Si02
#       6
#     2   2   2   2   2   2
#     4  12  24  44  71 114 156 203 256 326 405 481
#     4  12  29  52  80 114 158 215 274 333 395 477
#     4  12  24  48  73 110 158 199 264 325 400 479
#     4  11  26  45  76 114 152 204 254 332 407 472
#     4  11  26  48  76 113 158 204 265 325 404 479
#     4  12  27  50  79 113 154 214 270 329 399 473
#
# _framework density 24.152857999999998
#
# number of rings (size 3 to 8) (size 9 to 14) (size 15 to 20)
#    0.000    0.333    3.333    4.000    0.000   12.000 
#    0.000    0.000    0.000    0.000    0.000    0.000 
#    0.000    0.000    0.000    0.000    0.000    0.000 
#
# Total GULP energy -67164.120446 kJ/mol
# GULP energy per Si atom -5597.010037 kJ/mol
# Density = 2.409788 g / cm^3
# Si number density = 24.152858 Si / 1000 Ang^3
#
#
#
# Elastic Constant Matrix: (Units=GPa)
#
#
# Indices 1 2 3 4 5 6 
#
# 1 227.5711 74.9463 87.0840 -10.2583 -11.2033 11.2330
# 2 74.9463 166.8085 72.8051 9.3359 4.8029 11.4639
# 3 87.0840 72.8051 192.3002 1.4250 18.6042 4.8518
# 4 -10.2583 9.3359 1.4250 45.6151 -7.8933 -7.6149
# 5 -11.2033 4.8029 18.6042 -7.8933 62.6121 -8.7798
# 6 11.2330 11.4639 4.8518 -7.6149 -8.7798 38.4083
#
#
#
# Elastic Compliance Matrix: (Units=1/GPa)
#
#
# Indices 1 2 3 4 5 6 
#
# 1 0.006107 -0.001948 -0.002258 0.002227 0.002197 0.000024
# 2 -0.001948 0.008078 -0.001998 -0.002598 -0.001030 -0.002339
# 3 -0.002258 -0.001998 0.007244 -0.000838 -0.002566 -0.000411
# 4 0.002227 -0.002598 -0.000838 0.024869 0.004861 0.006272
# 5 0.002197 -0.001030 -0.002566 0.004861 0.018547 0.005193
# 6 0.000024 -0.002339 -0.000411 0.006272 0.005193 0.029210
#
#
# Mechanical properties :
#
#
# Convention : Reuss Voigt Hill
#
# Bulk Modulus (GPa) = 110.85129 117.37231 114.11180
# Shear Modulus (GPa) = 45.67431 52.78338 49.22884
#
# Velocity S-wave (km/s) = 4.35334 4.67989 4.51956
# Velocity P-wave (km/s) = 8.44181 8.82626 8.63617
#
# Compressibility (1/GPa) = 0.00902110
#
# Stress axis : x y z
#
# Youngs Moduli (GPa) = 163.74338 123.79083 138.04369
#
# Poissons Ratio (x) = 0.24115 0.31167
# Poissons Ratio (y) = 0.31898 0.27585
# Poissons Ratio (z) = 0.36970 0.24737
#
# Static dielectric constant tensor:
#      x y z
#    x 1.968660 0.047190 -0.151720 
#    y 0.047190 2.016930 0.005310 
#    z -0.151720 0.005310 2.036900 
# 
# From -- ./inp_files/206115.got.cif
#   From: 2010.05.17/outbox.cif.g08.bks.cpg/sg2_104_cif.got.tgz:206115.got - 2010.06.03 11:33:40.
