data_PCOD9067676
_publ_section_title
;
Structure prediction by ZEFSAII (Michael W. Deem and Ramdas Pophale) SiO2 
 PCOD9067676
Probable space group: P -1
;
_chemical_formula_sum "Si O2"
_cell_formula_units_Z 12
_cell_length_a 17.887285
_cell_length_b 5.343741
_cell_length_c 5.064651
_cell_angle_alpha 99.389817
_cell_angle_beta 101.345943
_cell_angle_gamma 78.928332
_cell_volume 461.838921
_symmetry_space_group_name_H-M "P -1"
_symmetry_group_IT_number 2
_symmetry_cell_setting 'triclinic'
loop_
_space_group_symop_operation_xyz
x,y,z
-x,-y,-z
loop_
_atom_site_type_symbol
_atom_site_label
_atom_site_fract_x
_atom_site_fract_y
_atom_site_fract_z
Si Si1 0.091971 0.540587 0.763489
Si Si2 0.218456 0.928175 0.373742
Si Si3 0.368569 0.591196 0.443670
Si Si4 0.245997 0.478808 0.699781
Si Si5 0.510571 0.723238 0.836049
Si Si6 0.061349 0.223761 0.174100
O O1 0.183715 0.501305 0.897431
O O2 0.084525 0.426492 0.445961
O O3 0.026332 0.793731 0.798649
O O4 0.061184 0.344416 0.907448
O O5 0.242880 0.193922 0.536801
O O6 0.136008 0.003216 0.196541
O O7 0.297141 0.766873 0.275627
O O8 0.204308 0.737771 0.566356
O O9 0.332725 0.514485 0.683869
O O10 0.441159 0.728742 0.577711
O O11 0.406429 0.348134 0.259294
O O12 0.500000 0.500000 0.000000
O O13 0.500000 0.000000 0.000000
#
# Coordination Sequence:
#
# PCOD9067676 Si02
#       6
#     2   2   2   2   2   2
#     4   9  18  37  63  95 136 183 233 283 341 407
#     4   9  20  39  65  95 131 186 218 288 348 405
#     4   9  24  46  67  94 150 168 233 292 346 423
#     4   9  20  39  65  95 131 186 218 288 348 405
#     4  11  26  43  72 102 128 185 225 282 359 430
#     4   9  18  37  63  95 136 183 233 283 341 407
#
# _framework density 25.983082
#
# number of rings (size 3 to 8) (size 9 to 14) (size 15 to 20)
#    1.000    1.667    0.000    0.000    4.667    2.000 
#   12.000    6.667    0.000   18.000    0.000    0.000 
#    0.000    1.333    0.000    0.000    0.000    0.000 
#
# Total GULP energy -66840.075082 kJ/mol
# GULP energy per Si atom -5570.006257 kJ/mol
# Density = 2.592394 g / cm^3
# Si number density = 25.983082 Si / 1000 Ang^3
#
#
#
# Elastic Constant Matrix: (Units=GPa)
#
#
# Indices 1 2 3 4 5 6 
#
# 1 182.8721 53.3612 15.5070 20.9702 -14.5402 -64.5759
# 2 53.3612 124.0682 20.1294 20.0884 -1.5625 -26.4169
# 3 15.5070 20.1294 55.6781 2.3426 -1.8659 -14.6086
# 4 20.9702 20.0884 2.3426 35.3678 -9.1009 -15.1072
# 5 -14.5402 -1.5625 -1.8659 -9.1009 46.6101 3.5917
# 6 -64.5759 -26.4169 -14.6086 -15.1072 3.5917 66.4600
#
#
#
# Elastic Compliance Matrix: (Units=1/GPa)
#
#
# Indices 1 2 3 4 5 6 
#
# 1 0.009040 -0.002225 0.000420 -0.000239 0.002113 0.007823
# 2 -0.002225 0.010269 -0.002861 -0.004535 -0.001376 0.000334
# 3 0.000420 -0.002861 0.019886 0.002025 0.000914 0.004053
# 4 -0.000239 -0.004535 0.002025 0.035041 0.006231 0.006039
# 5 0.002113 -0.001376 0.000914 0.006231 0.023177 0.001871
# 6 0.007823 0.000334 0.004053 0.006039 0.001871 0.024943
#
#
# Mechanical properties :
#
#
# Convention : Reuss Voigt Hill
#
# Bulk Modulus (GPa) = 33.48441 60.06817 46.77629
# Shear Modulus (GPa) = 35.30017 47.92895 41.61456
#
# Velocity S-wave (km/s) = 3.68989 4.29956 4.00634
# Velocity P-wave (km/s) = 5.57393 6.91496 6.28034
#
# Compressibility (1/GPa) = 0.02986465
#
# Stress axis : x y z
#
# Youngs Moduli (GPa) = 110.62209 97.37616 50.28541
#
# Poissons Ratio (x) = 0.21668 -0.02113
# Poissons Ratio (y) = 0.24616 0.14384
# Poissons Ratio (z) = -0.04648 0.27855
#
# Static dielectric constant tensor:
#      x y z
#    x 2.123590 -0.054900 0.020080 
#    y -0.054900 2.116770 0.130690 
#    z 0.020080 0.130690 2.275440 
# 
# From -- ./inp_files/113836.got.cif
#   From: 2010.05.17/outbox.cif.g08.bks.cpg/sg2_57_cif.got.tgz:113836.got - 2010.06.03 11:33:40.
