data_PCOD9067379
_publ_section_title
;
Structure prediction by ZEFSAII (Michael W. Deem and Ramdas Pophale) SiO2 
 PCOD9067379
Probable space group: P -1
;
_chemical_formula_sum "Si O2"
_cell_formula_units_Z 12
_cell_length_a 16.044661
_cell_length_b 11.737783
_cell_length_c 23.271163
_cell_angle_alpha 24.514212
_cell_angle_beta 16.113498
_cell_angle_gamma 24.507052
_cell_volume 479.687353
_symmetry_space_group_name_H-M "P -1"
_symmetry_group_IT_number 2
_symmetry_cell_setting 'triclinic'
loop_
_space_group_symop_operation_xyz
x,y,z
-x,-y,-z
loop_
_atom_site_type_symbol
_atom_site_label
_atom_site_fract_x
_atom_site_fract_y
_atom_site_fract_z
Si Si1 0.905579 0.077783 0.667291
Si Si2 0.260770 0.440747 0.731145
Si Si3 0.643869 0.500392 0.232412
Si Si4 0.186270 0.152178 0.569115
Si Si5 0.122235 0.964448 0.870241
Si Si6 0.173144 0.495927 0.246122
O O1 0.577318 0.274933 0.767991
O O2 0.982232 0.142765 0.651971
O O3 0.150346 0.177728 0.418099
O O4 0.968748 0.738009 0.781739
O O5 0.500000 0.500000 0.500000
O O6 0.443298 0.420681 0.679794
O O7 0.108538 0.185502 0.939960
O O8 0.684675 0.169369 0.342277
O O9 0.000000 0.500000 0.000000
O O10 0.508934 0.205909 0.307920
O O11 0.956947 0.349889 0.677570
O O12 0.069713 0.291569 0.733914
O O13 0.000000 0.000000 0.000000
O O14 0.500000 0.500000 0.000000
#
# Coordination Sequence:
#
# PCOD9067379 Si02
#       6
#     2   2   2   2   2   2
#     4  11  26  49  77 110 148 199 260 308 385 464
#     4  11  26  48  73 112 157 197 248 317 383 454
#     4  11  25  49  73 110 150 201 254 310 384 456
#     4  11  25  49  78 111 154 198 258 320 380 450
#     4  12  25  49  78 111 159 198 249 322 380 452
#     4  12  25  47  77 114 148 199 257 314 381 452
#
# _framework density 25.016293000000001
#
# number of rings (size 3 to 8) (size 9 to 14) (size 15 to 20)
#    0.000    0.667    1.667    6.000    2.333    3.333 
#   12.000    0.000    0.000    0.000    0.000    0.000 
#    0.000    0.000    0.000    0.000    0.000    0.000 
#
# Total GULP energy -67108.683375 kJ/mol
# GULP energy per Si atom -5592.390281 kJ/mol
# Density = 2.495935 g / cm^3
# Si number density = 25.016293 Si / 1000 Ang^3
#
#
#
# Elastic Constant Matrix: (Units=GPa)
#
#
# Indices 1 2 3 4 5 6 
#
# 1 129.2441 40.0350 33.2154 13.4539 8.7289 -16.7637
# 2 40.0350 105.1453 22.1614 5.3736 -8.0181 -23.9493
# 3 33.2154 22.1614 152.0291 34.2963 1.6458 14.0906
# 4 13.4539 5.3736 34.2963 52.9249 0.1415 -1.4071
# 5 8.7289 -8.0181 1.6458 0.1415 50.7850 0.7480
# 6 -16.7637 -23.9493 14.0906 -1.4071 0.7480 51.6577
#
#
#
# Elastic Compliance Matrix: (Units=1/GPa)
#
#
# Indices 1 2 3 4 5 6 
#
# 1 0.009590 -0.002914 -0.001620 -0.001028 -0.002086 0.002205
# 2 -0.002914 0.012360 -0.001868 0.000830 0.002433 0.005282
# 3 -0.001620 -0.001868 0.008733 -0.005161 -0.000227 -0.003911
# 4 -0.001028 0.000830 -0.005161 0.022470 0.000382 0.002066
# 5 -0.002086 0.002433 -0.000227 0.000382 0.020436 0.000228
# 6 0.002205 0.005282 -0.003911 0.002066 0.000228 0.023642
#
#
# Mechanical properties :
#
#
# Convention : Reuss Voigt Hill
#
# Bulk Modulus (GPa) = 55.93487 64.13800 60.03643
# Shear Modulus (GPa) = 43.10419 50.47396 46.78907
#
# Velocity S-wave (km/s) = 4.15546 4.49669 4.32944
# Velocity P-wave (km/s) = 6.74031 7.25634 7.00308
#
# Compressibility (1/GPa) = 0.01787794
#
# Stress axis : x y z
#
# Youngs Moduli (GPa) = 104.27113 80.90525 114.50346
#
# Poissons Ratio (x) = 0.23578 0.18555
# Poissons Ratio (y) = 0.30388 0.21392
# Poissons Ratio (z) = 0.16897 0.15115
#
# Static dielectric constant tensor:
#      x y z
#    x 1.838110 -0.009800 0.029800 
#    y -0.009800 2.049170 0.057100 
#    z 0.029800 0.057100 2.065070 
# 
# From -- ./inp_files/477450.got.cif
#   From: 2010.05.17/outbox.cif.g08.bks.cpg/sg2_239_cif.got.tgz:477450.got - 2010.06.03 11:33:40.
