data_PCOD9067070
_publ_section_title
;
Structure prediction by ZEFSAII (Michael W. Deem and Ramdas Pophale) SiO2 
 PCOD9067070
Probable space group: P -1
;
_chemical_formula_sum "Si O2"
_cell_formula_units_Z 12
_cell_length_a 9.905608
_cell_length_b 11.183963
_cell_length_c 5.610953
_cell_angle_alpha 111.049865
_cell_angle_beta 99.831925
_cell_angle_gamma 62.405009
_cell_volume 514.123207
_symmetry_space_group_name_H-M "P -1"
_symmetry_group_IT_number 2
_symmetry_cell_setting 'triclinic'
loop_
_space_group_symop_operation_xyz
x,y,z
-x,-y,-z
loop_
_atom_site_type_symbol
_atom_site_label
_atom_site_fract_x
_atom_site_fract_y
_atom_site_fract_z
Si Si1 0.869719 0.453213 0.500730
Si Si2 0.365823 0.607401 0.872346
Si Si3 0.597056 0.832360 0.373411
Si Si4 0.099448 0.892815 0.155289
Si Si5 0.916248 0.833830 0.412861
Si Si6 0.414458 0.311037 0.229111
O O1 0.748361 0.461291 0.270569
O O2 0.755950 0.559214 0.739618
O O3 0.000000 0.500000 0.500000
O O4 0.950577 0.288148 0.483437
O O5 0.452226 0.637640 0.697793
O O6 0.500000 0.500000 0.000000
O O7 0.258635 0.762201 0.054532
O O8 0.771959 0.803390 0.372787
O O9 0.578759 0.765777 0.571987
O O10 0.500000 0.000000 0.500000
O O11 0.558701 0.779181 0.072215
O O12 0.991228 0.824518 0.173016
O O13 0.128157 0.002830 0.413847
O O14 0.000000 0.000000 0.000000
#
# Coordination Sequence:
#
# PCOD9067070 Si02
#       6
#     2   2   2   2   2   2
#     4  12  26  49  78 117 158 209 268 328 406 477
#     4  12  27  50  81 115 162 209 271 331 405 483
#     4  12  28  48  79 113 160 211 266 333 404 481
#     4  11  25  47  77 112 152 209 263 332 403 470
#     4  11  26  45  77 112 154 204 270 331 395 482
#     4  12  28  49  79 114 160 208 269 329 408 478
#
# _framework density 23.340707999999999
#
# number of rings (size 3 to 8) (size 9 to 14) (size 15 to 20)
#    0.000    0.333    3.333    4.000    7.000    2.000 
#    0.000    0.000    0.000    0.000    0.000    0.000 
#    0.000    0.000    0.000    0.000    0.000    0.000 
#
# Total GULP energy -67088.695570 kJ/mol
# GULP energy per Si atom -5590.724631 kJ/mol
# Density = 2.328758 g / cm^3
# Si number density = 23.340708 Si / 1000 Ang^3
#
#
#
# Elastic Constant Matrix: (Units=GPa)
#
#
# Indices 1 2 3 4 5 6 
#
# 1 170.1239 60.8745 56.1706 -11.1277 -24.6592 3.0696
# 2 60.8745 174.3049 62.3411 7.1353 -18.7238 -16.7612
# 3 56.1706 62.3411 125.5318 13.6358 -8.2953 -0.0412
# 4 -11.1277 7.1353 13.6358 54.9026 -0.5526 -11.2566
# 5 -24.6592 -18.7238 -8.2953 -0.5526 42.0237 -4.4575
# 6 3.0696 -16.7612 -0.0412 -11.2566 -4.4575 44.4355
#
#
#
# Elastic Compliance Matrix: (Units=1/GPa)
#
#
# Indices 1 2 3 4 5 6 
#
# 1 0.008054 -0.001519 -0.002896 0.002557 0.003497 -0.000133
# 2 -0.001519 0.007965 -0.003133 0.000154 0.002400 0.003386
# 3 -0.002896 -0.003133 0.011105 -0.003346 -0.001153 -0.001935
# 4 0.002557 0.000154 -0.003346 0.020644 0.001740 0.005282
# 5 0.003497 0.002400 -0.001153 0.001740 0.027119 0.003824
# 6 -0.000133 0.003386 -0.001935 0.005282 0.003824 0.025511
#
#
# Mechanical properties :
#
#
# Convention : Reuss Voigt Hill
#
# Bulk Modulus (GPa) = 83.14051 92.08144 87.61097
# Shear Modulus (GPa) = 41.83953 47.64397 44.74175
#
# Velocity S-wave (km/s) = 4.23845 4.52291 4.38299
# Velocity P-wave (km/s) = 7.72336 8.17388 7.95181
#
# Compressibility (1/GPa) = 0.01202783
#
# Stress axis : x y z
#
# Youngs Moduli (GPa) = 124.15422 125.54553 90.05168
#
# Poissons Ratio (x) = 0.19068 0.26083
# Poissons Ratio (y) = 0.18857 0.28213
# Poissons Ratio (z) = 0.35961 0.39333
#
# Static dielectric constant tensor:
#      x y z
#    x 1.829750 0.117910 0.034870 
#    y 0.117910 1.659640 -0.011800 
#    z 0.034870 -0.011800 1.974510 
# 
# From -- ./inp_files/28745.got.cif
#   From: 2010.05.17/outbox.cif.g08.bks.cpg/sg2_15_cif.got.tgz:28745.got - 2010.06.03 11:33:40.
