data_PCOD9067137
_publ_section_title
;
Structure prediction by ZEFSAII (Michael W. Deem and Ramdas Pophale) SiO2 
 PCOD9067137
Probable space group: P -1
;
_chemical_formula_sum "Si O2"
_cell_formula_units_Z 14
_cell_length_a 15.556090
_cell_length_b 10.828255
_cell_length_c 9.956988
_cell_angle_alpha 36.703597
_cell_angle_beta 130.328761
_cell_angle_gamma 146.657883
_cell_volume 549.664822
_symmetry_space_group_name_H-M "P -1"
_symmetry_group_IT_number 2
_symmetry_cell_setting 'triclinic'
loop_
_space_group_symop_operation_xyz
x,y,z
-x,-y,-z
loop_
_atom_site_type_symbol
_atom_site_label
_atom_site_fract_x
_atom_site_fract_y
_atom_site_fract_z
Si Si1 0.311232 0.971555 0.863262
Si Si2 0.556441 0.494793 0.287372
Si Si3 0.764687 0.446562 0.041801
Si Si4 0.066849 0.701397 0.266223
Si Si5 0.914760 0.998759 0.539127
Si Si6 0.229034 0.609409 0.350676
Si Si7 0.289452 0.300955 0.028972
O O1 0.416395 0.271354 0.791843
O O2 0.198641 0.978627 0.660137
O O3 0.354043 0.854399 0.895283
O O4 0.224954 0.721239 0.106442
O O5 0.634181 0.386162 0.518688
O O6 0.377451 0.269119 0.255878
O O7 0.640093 0.620612 0.116970
O O8 0.816765 0.708650 0.776492
O O9 0.702008 0.460566 0.105872
O O10 0.930043 0.545366 0.154025
O O11 0.224701 0.790264 0.294617
O O12 0.000000 0.500000 0.500000
O O13 0.118174 0.993004 0.108110
O O14 0.000000 0.000000 0.500000
O O15 0.066943 0.291015 0.507870
#
# Coordination Sequence:
#
# PCOD9067137 Si02
#       7
#     2   2   2   2   2   2   2
#     4  12  23  42  69 104 129 178 229 274 342 389
#     4  11  25  48  69  96 140 185 226 272 329 417
#     4  12  25  43  70 104 135 174 225 288 343 387
#     4  12  24  43  72 104 136 175 225 285 346 397
#     4  12  21  38  70 102 139 172 222 290 336 395
#     4  12  22  40  70 103 132 176 228 278 338 399
#     4  11  26  47  67  98 142 183 225 273 337 409
#
# _framework density 25.470068000000001
#
# number of rings (size 3 to 8) (size 9 to 14) (size 15 to 20)
#    0.000    0.286    5.714    4.286    0.000    1.143 
#    2.571    2.857    0.000    0.000    0.000    0.000 
#    0.000    0.000    0.000    0.000    0.000    0.000 
#
# Total GULP energy -78277.158738 kJ/mol
# GULP energy per Si atom -5591.225624 kJ/mol
# Density = 2.541210 g / cm^3
# Si number density = 25.470068 Si / 1000 Ang^3
#
#
#
# Elastic Constant Matrix: (Units=GPa)
#
#
# Indices 1 2 3 4 5 6 
#
# 1 99.5233 28.5454 24.5405 -17.8737 10.9487 -40.0730
# 2 28.5454 120.3282 25.8634 -1.7672 15.5477 -33.6260
# 3 24.5405 25.8634 128.0816 19.7664 3.7370 -5.7083
# 4 -17.8737 -1.7672 19.7664 22.6096 -4.7073 8.0932
# 5 10.9487 15.5477 3.7370 -4.7073 40.5803 -9.1785
# 6 -40.0730 -33.6260 -5.7083 8.0932 -9.1785 40.0418
#
#
#
# Elastic Compliance Matrix: (Units=1/GPa)
#
#
# Indices 1 2 3 4 5 6 
#
# 1 0.021450 0.001697 -0.006028 0.015630 0.000210 0.018922
# 2 0.001697 0.011644 -0.002097 -0.000227 -0.002335 0.010689
# 3 -0.006028 -0.002097 0.011385 -0.013803 -0.001038 -0.003618
# 4 0.015630 -0.000227 -0.013803 0.069513 0.005354 0.000661
# 5 0.000210 -0.002335 -0.001038 0.005354 0.026919 0.003190
# 6 0.018922 0.010689 -0.003618 0.000661 0.003190 0.052968
#
#
# Mechanical properties :
#
#
# Convention : Reuss Voigt Hill
#
# Bulk Modulus (GPa) = 31.62091 56.20354 43.91222
# Shear Modulus (GPa) = 23.01232 38.57860 30.79546
#
# Velocity S-wave (km/s) = 3.00910 3.89609 3.48096
# Velocity P-wave (km/s) = 4.95124 6.50798 5.78224
#
# Compressibility (1/GPa) = 0.03162465
#
# Stress axis : x y z
#
# Youngs Moduli (GPa) = 46.61963 85.88118 87.83441
#
# Poissons Ratio (x) = -0.14575 0.52942
# Poissons Ratio (y) = -0.07912 0.18418
# Poissons Ratio (z) = 0.28100 0.18008
#
# Static dielectric constant tensor:
#      x y z
#    x 2.080370 -0.063580 0.095830 
#    y -0.063580 2.155760 -0.083760 
#    z 0.095830 -0.083760 2.019980 
# 
# From -- ./inp_files/465002.got.cif
#   From: 2010.05.17/outbox.cif.g08.bks.cpg/sg2_233_cif.got.tgz:465002.got - 2010.06.03 11:33:40.
