data_PCOD9067317
_publ_section_title
;
Structure prediction by ZEFSAII (Michael W. Deem and Ramdas Pophale) SiO2 
 PCOD9067317
Probable space group: P -1
;
_chemical_formula_sum "Si O2"
_cell_formula_units_Z 13
_cell_length_a 5.875068
_cell_length_b 6.138248
_cell_length_c 14.974472
_cell_angle_alpha 98.151998
_cell_angle_beta 86.726149
_cell_angle_gamma 102.276696
_cell_volume 522.134890
_symmetry_space_group_name_H-M "P -1"
_symmetry_group_IT_number 2
_symmetry_cell_setting 'triclinic'
loop_
_space_group_symop_operation_xyz
x,y,z
-x,-y,-z
loop_
_atom_site_type_symbol
_atom_site_label
_atom_site_fract_x
_atom_site_fract_y
_atom_site_fract_z
Si Si1 0.172381 0.832250 0.954871
Si Si2 0.545400 0.192589 0.878069
Si Si3 0.117704 0.161364 0.325447
Si Si4 0.727630 0.722605 0.270127
Si Si5 0.373867 0.863863 0.411593
Si Si6 0.000000 0.500000 0.500000
Si Si7 0.916000 0.514947 0.798112
O O1 0.006744 0.635233 0.894600
O O2 0.372365 0.957954 0.889670
O O3 0.323629 0.755449 0.026939
O O4 0.000000 0.000000 0.000000
O O5 0.370596 0.311307 0.831234
O O6 0.764902 0.270206 0.811890
O O7 0.051202 0.309125 0.416119
O O8 0.200475 0.315861 0.246454
O O9 0.314482 0.041724 0.353138
O O10 0.895592 0.968186 0.291038
O O11 0.536566 0.719393 0.350196
O O12 0.871413 0.530176 0.268088
O O13 0.145740 0.700498 0.443832
O O14 0.500000 0.000000 0.500000
#
# Coordination Sequence:
#
# PCOD9067317 Si02
#       7
#     2   2   2   2   2   1   2
#     4  11  26  48  79 117 158 202 260 322 377 463
#     4  11  25  48  78 111 156 204 256 311 388 456
#     4  12  27  50  78 113 158 199 258 328 379 466
#     4  12  26  50  77 112 157 204 261 319 383 464
#     4  12  29  52  78 113 154 201 262 321 390 462
#     4  12  26  52  80 110 152 200 258 320 386 456
#     4  12  28  50  78 114 158 206 258 318 391 456
#
# _framework density 24.897779
#
# number of rings (size 3 to 8) (size 9 to 14) (size 15 to 20)
#    0.000    0.308    3.077    4.615    4.308    6.769 
#    5.538    0.000    0.000    0.000    0.000    0.000 
#    0.000    0.000    0.000    0.000    0.000    0.000 
#
# Total GULP energy -72391.794404 kJ/mol
# GULP energy per Si atom -5568.599570 kJ/mol
# Density = 2.484111 g / cm^3
# Si number density = 24.897779 Si / 1000 Ang^3
#
#
#
# Elastic Constant Matrix: (Units=GPa)
#
#
# Indices 1 2 3 4 5 6 
#
# 1 70.2835 26.0899 40.3159 4.5448 22.6716 -5.5264
# 2 26.0899 79.0569 39.6181 1.2327 5.6015 4.9092
# 3 40.3159 39.6181 84.1423 9.3588 20.8924 -6.2296
# 4 4.5448 1.2327 9.3588 62.0138 4.9432 -5.0990
# 5 22.6716 5.6015 20.8924 4.9432 44.7255 -2.0814
# 6 -5.5264 4.9092 -6.2296 -5.0990 -2.0814 26.6641
#
#
#
# Elastic Compliance Matrix: (Units=1/GPa)
#
#
# Indices 1 2 3 4 5 6 
#
# 1 0.022112 -0.003508 -0.006904 0.000339 -0.007437 0.003100
# 2 -0.003508 0.017920 -0.007945 0.000407 0.002941 -0.005575
# 3 -0.006904 -0.007945 0.020612 -0.001727 -0.004750 0.004146
# 4 0.000339 0.000407 -0.001727 0.016665 -0.001133 0.002690
# 5 -0.007437 0.002941 -0.004750 -0.001133 0.028047 -0.001220
# 6 0.003100 -0.005575 0.004146 0.002690 -0.001220 0.040560
#
#
# Mechanical properties :
#
#
# Convention : Reuss Voigt Hill
#
# Bulk Modulus (GPa) = 41.79036 49.50338 45.64687
# Shear Modulus (GPa) = 26.23205 35.17794 30.70500
#
# Velocity S-wave (km/s) = 3.24943 3.76293 3.51556
# Velocity P-wave (km/s) = 5.55874 6.22939 5.90360
#
# Compressibility (1/GPa) = 0.02392897
#
# Stress axis : x y z
#
# Youngs Moduli (GPa) = 45.22505 55.80453 48.51537
#
# Poissons Ratio (x) = 0.19576 0.33497
# Poissons Ratio (y) = 0.15865 0.38545
# Poissons Ratio (z) = 0.31225 0.44336
#
# Static dielectric constant tensor:
#      x y z
#    x 2.040840 0.010400 0.028780 
#    y 0.010400 1.894040 0.012060 
#    z 0.028780 0.012060 1.929690 
# 
# From -- ./inp_files/7008.got.cif
#   From: 2010.05.17/outbox.cif.g08.bks.cpg/sg2_4_cif.got.tgz:7008.got - 2010.06.03 11:33:40.
