data_PCOD9067683
_publ_section_title
;
Structure prediction by ZEFSAII (Michael W. Deem and Ramdas Pophale) SiO2 
 PCOD9067683
Probable space group: P -1
;
_chemical_formula_sum "Si O2"
_cell_formula_units_Z 11
_cell_length_a 11.987453
_cell_length_b 6.792187
_cell_length_c 8.514616
_cell_angle_alpha 66.197710
_cell_angle_beta 132.420423
_cell_angle_gamma 123.313364
_cell_volume 427.069067
_symmetry_space_group_name_H-M "P -1"
_symmetry_group_IT_number 2
_symmetry_cell_setting 'triclinic'
loop_
_space_group_symop_operation_xyz
x,y,z
-x,-y,-z
loop_
_atom_site_type_symbol
_atom_site_label
_atom_site_fract_x
_atom_site_fract_y
_atom_site_fract_z
Si Si1 0.349768 0.452969 0.993069
Si Si2 0.271140 0.764801 0.041389
Si Si3 0.031479 0.010610 0.711580
Si Si4 0.894448 0.321081 0.597697
Si Si5 0.000000 0.500000 0.000000
Si Si6 0.520609 0.185694 0.326942
O O1 0.315446 0.669061 0.956293
O O2 0.424270 0.344020 0.234862
O O3 0.500000 0.500000 0.000000
O O4 0.187796 0.243997 0.838581
O O5 0.414319 0.009987 0.143085
O O6 0.204957 0.556686 0.170528
O O7 0.091959 0.801846 0.879735
O O8 0.883528 0.059274 0.631433
O O9 0.000000 0.000000 0.500000
O O10 0.974510 0.381552 0.826292
O O11 0.712896 0.319852 0.425862
O O12 0.000000 0.500000 0.500000
O O13 0.500000 0.000000 0.500000
#
# Coordination Sequence:
#
# PCOD9067683 Si02
#       6
#     2   2   2   2   1   2
#     4  11  26  46  73 107 156 200 257 323 385 469
#     4  11  26  48  70 110 148 207 251 319 392 459
#     4  11  26  43  74 108 150 199 258 319 381 462
#     4  12  26  50  77 115 154 204 263 318 394 464
#     4  12  24  48  80 106 160 196 258 324 388 458
#     4  11  26  48  74 109 151 200 258 318 388 463
#
# _framework density 25.756957
#
# number of rings (size 3 to 8) (size 9 to 14) (size 15 to 20)
#    0.000    0.727    3.636    2.182    5.091    4.364 
#    0.000    0.000    0.000    0.000    0.000    0.000 
#    0.000    0.000    0.000    0.000    0.000    0.000 
#
# Total GULP energy -61237.370777 kJ/mol
# GULP energy per Si atom -5567.033707 kJ/mol
# Density = 2.569833 g / cm^3
# Si number density = 25.756957 Si / 1000 Ang^3
#
#
#
# Elastic Constant Matrix: (Units=GPa)
#
#
# Indices 1 2 3 4 5 6 
#
# 1 141.6657 41.6816 45.9895 6.3513 -5.7504 -4.7023
# 2 41.6816 116.3580 39.0482 4.8611 -1.6122 -31.1338
# 3 45.9895 39.0482 117.9276 -7.2109 -0.7035 -23.5065
# 4 6.3513 4.8611 -7.2109 42.9576 -3.2438 0.9022
# 5 -5.7504 -1.6122 -0.7035 -3.2438 54.9830 5.7115
# 6 -4.7023 -31.1338 -23.5065 0.9022 5.7115 59.3384
#
#
#
# Elastic Compliance Matrix: (Units=1/GPa)
#
#
# Indices 1 2 3 4 5 6 
#
# 1 0.008852 -0.002590 -0.003062 -0.001419 0.000928 -0.001938
# 2 -0.002590 0.011598 -0.001880 -0.001398 -0.000579 0.005212
# 3 -0.003062 -0.001880 0.011072 0.002426 -0.000419 0.003160
# 4 -0.001419 -0.001398 0.002426 0.024161 0.001306 -0.000378
# 5 0.000928 -0.000579 -0.000419 0.001306 0.018568 -0.002203
# 6 -0.001938 0.005212 0.003160 -0.000378 -0.002203 0.020903
#
#
# Mechanical properties :
#
#
# Convention : Reuss Voigt Hill
#
# Bulk Modulus (GPa) = 60.76187 69.93220 65.34703
# Shear Modulus (GPa) = 43.21351 48.07127 45.64239
#
# Velocity S-wave (km/s) = 4.10047 4.32480 4.21413
# Velocity P-wave (km/s) = 6.78676 7.22138 7.00744
#
# Compressibility (1/GPa) = 0.01645769
#
# Stress axis : x y z
#
# Youngs Moduli (GPa) = 112.97063 86.22268 90.31482
#
# Poissons Ratio (x) = 0.22330 0.27655
# Poissons Ratio (y) = 0.29257 0.16983
# Poissons Ratio (z) = 0.34593 0.16213
#
# Static dielectric constant tensor:
#      x y z
#    x 2.221320 0.160320 -0.092670 
#    y 0.160320 2.350880 -0.220100 
#    z -0.092670 -0.220100 2.348650 
# 
# From -- ./inp_files/229067.got.cif
#   From: 2010.05.17/outbox.cif.g08.bks.cpg/sg2_115_cif.got.tgz:229067.got - 2010.06.03 11:33:40.
