data_PCOD9067345
_publ_section_title
;
Structure prediction by ZEFSAII (Michael W. Deem and Ramdas Pophale) SiO2 
 PCOD9067345
Probable space group: P -1
;
_chemical_formula_sum "Si O2"
_cell_formula_units_Z 12
_cell_length_a 5.078667
_cell_length_b 9.658261
_cell_length_c 9.547247
_cell_angle_alpha 103.020531
_cell_angle_beta 71.475333
_cell_angle_gamma 87.376725
_cell_volume 429.117570
_symmetry_space_group_name_H-M "P -1"
_symmetry_group_IT_number 2
_symmetry_cell_setting 'triclinic'
loop_
_space_group_symop_operation_xyz
x,y,z
-x,-y,-z
loop_
_atom_site_type_symbol
_atom_site_label
_atom_site_fract_x
_atom_site_fract_y
_atom_site_fract_z
Si Si1 0.272056 0.889685 0.984095
Si Si2 0.241742 0.427542 0.595509
Si Si3 0.382518 0.914982 0.373425
Si Si4 0.970850 0.812329 0.592962
Si Si5 0.842063 0.712294 0.127836
Si Si6 0.215104 0.336711 0.191463
O O1 0.486751 0.756487 0.846647
O O2 0.128736 0.784933 0.094211
O O3 0.500000 0.000000 0.000000
O O4 0.000000 0.000000 0.000000
O O5 0.500000 0.500000 0.500000
O O6 0.226618 0.283765 0.477292
O O7 0.235147 0.386093 0.752846
O O8 0.931170 0.523922 0.669086
O O9 0.242577 0.793287 0.448149
O O10 0.615267 0.850534 0.215514
O O11 0.500000 0.000000 0.500000
O O12 0.154238 0.023426 0.358052
O O13 0.000226 0.769238 0.738179
O O14 0.807679 0.642603 0.966116
#
# Coordination Sequence:
#
# PCOD9067345 Si02
#       6
#     2   2   2   2   2   2
#     4  12  28  51  82 125 174 217 280 356 441 502
#     4  12  29  55  81 117 176 231 286 342 430 521
#     4  11  25  48  82 113 162 211 281 351 428 496
#     4  11  27  49  79 116 160 220 283 350 429 503
#     4  12  28  51  82 122 168 218 287 353 429 505
#     4  12  29  49  82 120 167 219 287 352 423 509
#
# _framework density 27.964366999999999
#
# number of rings (size 3 to 8) (size 9 to 14) (size 15 to 20)
#    0.000    0.333    3.333    3.000    7.000    0.667 
#    0.000    0.000    0.000    0.000    0.000    0.000 
#    0.000    0.000    0.000    0.000    0.000    0.000 
#
# Total GULP energy -66981.934886 kJ/mol
# GULP energy per Si atom -5581.827907 kJ/mol
# Density = 2.790072 g / cm^3
# Si number density = 27.964367 Si / 1000 Ang^3
#
#
#
# Elastic Constant Matrix: (Units=GPa)
#
#
# Indices 1 2 3 4 5 6 
#
# 1 147.8753 41.2134 54.3599 -1.5711 -34.6221 5.7699
# 2 41.2134 113.5214 69.2048 -5.5874 -19.8345 -15.9216
# 3 54.3599 69.2048 229.7019 -1.2958 -33.7083 0.6453
# 4 -1.5711 -5.5874 -1.2958 85.3754 -2.6599 -10.8968
# 5 -34.6221 -19.8345 -33.7083 -2.6599 55.5696 -4.3330
# 6 5.7699 -15.9216 0.6453 -10.8968 -4.3330 57.2429
#
#
#
# Elastic Compliance Matrix: (Units=1/GPa)
#
#
# Indices 1 2 3 4 5 6 
#
# 1 0.008638 -0.002090 -0.000817 -0.000009 0.004051 -0.001138
# 2 -0.002090 0.012299 -0.002971 0.001288 0.001662 0.004036
# 3 -0.000817 -0.002971 0.005712 -0.000155 0.001834 -0.000699
# 4 -0.000009 0.001288 -0.000155 0.012184 0.001159 0.002768
# 5 0.004051 0.001662 0.001834 0.001159 0.022433 0.001952
# 6 -0.001138 0.004036 -0.000699 0.002768 0.001952 0.019389
#
#
# Mechanical properties :
#
#
# Convention : Reuss Voigt Hill
#
# Bulk Modulus (GPa) = 67.14688 91.18388 79.16538
# Shear Modulus (GPa) = 51.34780 61.39227 56.37003
#
# Velocity S-wave (km/s) = 4.28972 4.69057 4.49462
# Velocity P-wave (km/s) = 6.97132 7.87484 7.43682
#
# Compressibility (1/GPa) = 0.01489273
#
# Stress axis : x y z
#
# Youngs Moduli (GPa) = 115.76620 81.30942 175.06918
#
# Poissons Ratio (x) = 0.16996 0.14300
# Poissons Ratio (y) = 0.24199 0.52011
# Poissons Ratio (z) = 0.09456 0.24156
#
# Static dielectric constant tensor:
#      x y z
#    x 2.371670 0.014430 0.165330 
#    y 0.014430 2.387350 0.045940 
#    z 0.165330 0.045940 2.335140 
# 
# From -- ./inp_files/362061.got.cif
#   From: 2010.05.17/outbox.cif.g08.bks.cpg/sg2_182_cif.got.tgz:362061.got - 2010.06.03 11:33:40.
