data_PCOD9067668
_publ_section_title
;
Structure prediction by ZEFSAII (Michael W. Deem and Ramdas Pophale) SiO2 
 PCOD9067668
Probable space group: P -1
;
_chemical_formula_sum "Si O2"
_cell_formula_units_Z 14
_cell_length_a 9.375243
_cell_length_b 23.982622
_cell_length_c 5.096603
_cell_angle_alpha 89.276565
_cell_angle_beta 105.608800
_cell_angle_gamma 36.208885
_cell_volume 596.463037
_symmetry_space_group_name_H-M "P -1"
_symmetry_group_IT_number 2
_symmetry_cell_setting 'triclinic'
loop_
_space_group_symop_operation_xyz
x,y,z
-x,-y,-z
loop_
_atom_site_type_symbol
_atom_site_label
_atom_site_fract_x
_atom_site_fract_y
_atom_site_fract_z
Si Si1 0.263740 0.158191 0.962235
Si Si2 0.095061 0.032907 0.601957
Si Si3 0.484649 0.452036 0.308662
Si Si4 0.960298 0.144804 0.011695
Si Si5 0.993429 0.579495 0.727108
Si Si6 0.564942 0.630530 0.373991
Si Si7 0.030733 0.289909 0.336613
O O1 0.131626 0.242328 0.102638
O O2 0.165600 0.128184 0.011342
O O3 0.588694 0.063297 0.148440
O O4 0.163837 0.206293 0.619343
O O5 0.061815 0.080462 0.321295
O O6 0.000000 0.000000 0.500000
O O7 0.926812 0.112926 0.754473
O O8 0.500000 0.500000 0.500000
O O9 0.584702 0.365555 0.513704
O O10 0.700408 0.391294 0.184931
O O11 0.172664 0.539057 0.069876
O O12 0.666251 0.266199 0.915594
O O13 0.215005 0.475181 0.672209
O O14 0.736437 0.620859 0.627120
O O15 0.901798 0.667603 0.558807
#
# Coordination Sequence:
#
# PCOD9067668 Si02
#       7
#     2   2   2   2   2   2   2
#     4  12  26  48  76 108 141 189 241 299 361 428
#     4  12  29  50  78 105 144 180 242 306 370 429
#     4  12  23  45  68 105 147 199 241 294 345 425
#     4  12  26  50  75 108 140 192 237 299 360 435
#     4  11  26  43  68 105 155 193 236 296 350 431
#     4  11  26  44  70 105 149 193 242 289 364 422
#     4  12  25  43  76 107 146 191 241 288 354 427
#
# _framework density 23.471698
#
# number of rings (size 3 to 8) (size 9 to 14) (size 15 to 20)
#    0.000    0.286    2.857    5.571    6.000    0.000 
#    0.000    0.000    0.000    0.000    0.000    0.000 
#    0.000    0.000    0.000    0.000    0.000    0.000 
#
# Total GULP energy -78457.891601 kJ/mol
# GULP energy per Si atom -5604.135114 kJ/mol
# Density = 2.341828 g / cm^3
# Si number density = 23.471698 Si / 1000 Ang^3
#
#
#
# Elastic Constant Matrix: (Units=GPa)
#
#
# Indices 1 2 3 4 5 6 
#
# 1 86.8158 16.8634 25.4341 -11.5928 18.9317 28.2011
# 2 16.8634 72.6844 -5.4512 8.1325 1.0806 10.0341
# 3 25.4341 -5.4512 99.5606 -8.8590 0.1067 17.2701
# 4 -11.5928 8.1325 -8.8590 39.0486 4.4736 -3.6483
# 5 18.9317 1.0806 0.1067 4.4736 41.1049 3.6663
# 6 28.2011 10.0341 17.2701 -3.6483 3.6663 35.0083
#
#
#
# Elastic Compliance Matrix: (Units=1/GPa)
#
#
# Indices 1 2 3 4 5 6 
#
# 1 0.019437 -0.003586 -0.002578 0.005788 -0.008422 -0.011872
# 2 -0.003586 0.015644 0.001936 -0.004414 0.002003 -0.003220
# 3 -0.002578 0.001936 0.011628 0.000912 0.001387 -0.004265
# 4 0.005788 -0.004414 0.000912 0.029086 -0.005698 -0.000219
# 5 -0.008422 0.002003 0.001387 -0.005698 0.028598 0.001937
# 6 -0.011872 -0.003220 -0.004265 -0.000219 0.001937 0.040929
#
#
# Mechanical properties :
#
#
# Convention : Reuss Voigt Hill
#
# Bulk Modulus (GPa) = 26.14208 36.97260 31.55734
# Shear Modulus (GPa) = 30.02477 37.84665 33.93571
#
# Velocity S-wave (km/s) = 3.58046 4.01987 3.80651
# Velocity P-wave (km/s) = 5.31552 6.10999 5.72655
#
# Compressibility (1/GPa) = 0.03825250
#
# Stress axis : x y z
#
# Youngs Moduli (GPa) = 51.44936 63.92254 85.99762
#
# Poissons Ratio (x) = 0.22924 0.22172
# Poissons Ratio (y) = 0.18451 -0.16652
# Poissons Ratio (z) = 0.13265 -0.12378
#
# Static dielectric constant tensor:
#      x y z
#    x 1.883720 0.028250 -0.021600 
#    y 0.028250 1.894790 -0.014780 
#    z -0.021600 -0.014780 1.890240 
# 
# From -- ./inp_files/27867.got.cif
#   From: 2010.05.17/outbox.cif.g08.bks.cpg/sg2_14_cif.got.tgz:27867.got - 2010.06.03 11:33:40.
