data_PCOD9067302
_publ_section_title
;
Structure prediction by ZEFSAII (Michael W. Deem and Ramdas Pophale) SiO2 
 PCOD9067302
Probable space group: P -1
;
_chemical_formula_sum "Si O2"
_cell_formula_units_Z 14
_cell_length_a 10.391653
_cell_length_b 9.110126
_cell_length_c 19.875143
_cell_angle_alpha 31.088030
_cell_angle_beta 35.344985
_cell_angle_gamma 42.254377
_cell_volume 556.556074
_symmetry_space_group_name_H-M "P -1"
_symmetry_group_IT_number 2
_symmetry_cell_setting 'triclinic'
loop_
_space_group_symop_operation_xyz
x,y,z
-x,-y,-z
loop_
_atom_site_type_symbol
_atom_site_label
_atom_site_fract_x
_atom_site_fract_y
_atom_site_fract_z
Si Si1 0.468559 0.093235 0.898405
Si Si2 0.873992 0.801896 0.750583
Si Si3 0.358165 0.279689 0.612624
Si Si4 0.146677 0.656363 0.168204
Si Si5 0.258670 0.168654 0.410913
Si Si6 0.137795 0.630403 0.832218
Si Si7 0.191129 0.270490 0.544573
O O1 0.688833 0.000255 0.795895
O O2 0.022894 0.610800 0.816849
O O3 0.375581 0.429189 0.806925
O O4 0.500000 0.000000 0.000000
O O5 0.779836 0.585915 0.824189
O O6 0.718267 0.078009 0.988403
O O7 0.119094 0.970732 0.719672
O O8 0.500000 0.500000 0.500000
O O9 0.120882 0.263252 0.755068
O O10 0.308180 0.377248 0.518138
O O11 0.522916 0.982537 0.660513
O O12 0.190047 0.482856 0.287889
O O13 0.953712 0.009740 0.433222
O O14 0.324888 0.159443 0.464237
O O15 0.000000 0.500000 0.000000
O O16 0.000000 0.500000 0.500000
#
# Coordination Sequence:
#
# PCOD9067302 Si02
#       7
#     2   2   2   2   2   2   2
#     4  12  28  50  81 110 158 222 267 328 395 491
#     4  11  26  49  77 117 160 207 271 329 408 479
#     4  12  26  46  77 118 163 205 259 336 416 464
#     4  12  27  49  78 118 163 208 268 337 405 478
#     4  11  26  47  80 117 159 203 271 335 399 482
#     4  11  25  48  77 111 155 207 272 322 395 486
#     4  11  25  49  79 116 157 211 269 334 395 477
#
# _framework density 25.154699000000001
#
# number of rings (size 3 to 8) (size 9 to 14) (size 15 to 20)
#    0.000    0.571    4.286    2.143    4.000    5.143 
#    0.000    0.000    0.000    0.000    0.000    0.000 
#    0.000    0.000    0.000    0.000    0.000    0.000 
#
# Total GULP energy -78450.936189 kJ/mol
# GULP energy per Si atom -5603.638299 kJ/mol
# Density = 2.509745 g / cm^3
# Si number density = 25.154699 Si / 1000 Ang^3
#
#
#
# Elastic Constant Matrix: (Units=GPa)
#
#
# Indices 1 2 3 4 5 6 
#
# 1 148.9542 29.7136 37.2608 -12.0360 -13.7104 15.5436
# 2 29.7136 167.8690 31.5767 -6.3265 -2.6316 -25.5018
# 3 37.2608 31.5767 122.2119 -20.6360 -9.0825 -8.6954
# 4 -12.0360 -6.3265 -20.6360 39.1488 -2.2845 2.3600
# 5 -13.7104 -2.6316 -9.0825 -2.2845 44.6108 1.1269
# 6 15.5436 -25.5018 -8.6954 2.3600 1.1269 51.6482
#
#
#
# Elastic Compliance Matrix: (Units=1/GPa)
#
#
# Indices 1 2 3 4 5 6 
#
# 1 0.008227 -0.001558 -0.001931 0.001612 0.002219 -0.003693
# 2 -0.001558 0.007002 -0.001129 -0.000192 -0.000400 0.003754
# 3 -0.001931 -0.001129 0.010049 0.004524 0.001580 0.001474
# 4 0.001612 -0.000192 0.004524 0.028634 0.002901 -0.001190
# 5 0.002219 -0.000400 0.001580 0.002901 0.023576 -0.001247
# 6 -0.003693 0.003754 0.001474 -0.001190 -0.001247 0.022656
#
#
# Mechanical properties :
#
#
# Convention : Reuss Voigt Hill
#
# Bulk Modulus (GPa) = 62.34160 70.68192 66.51176
# Shear Modulus (GPa) = 43.58051 49.78049 46.68050
#
# Velocity S-wave (km/s) = 4.16685 4.45339 4.31250
# Velocity P-wave (km/s) = 6.92728 7.38942 7.16208
#
# Compressibility (1/GPa) = 0.01604065
#
# Stress axis : x y z
#
# Youngs Moduli (GPa) = 121.54614 142.81633 99.50824
#
# Poissons Ratio (x) = 0.22257 0.19219
# Poissons Ratio (y) = 0.18942 0.11236
# Poissons Ratio (z) = 0.23476 0.16127
#
# Static dielectric constant tensor:
#      x y z
#    x 1.988110 0.006750 -0.039400 
#    y 0.006750 2.115720 0.022580 
#    z -0.039400 0.022580 2.007520 
# 
# From -- ./inp_files/358349.got.cif
#   From: 2010.05.17/outbox.cif.g08.bks.cpg/sg2_180_cif.got.tgz:358349.got - 2010.06.03 11:33:40.
