data_PCOD9067871
_publ_section_title
;
Structure prediction by ZEFSAII (Michael W. Deem and Ramdas Pophale) SiO2 
 PCOD9067871
Probable space group: P -1
;
_chemical_formula_sum "Si O2"
_cell_formula_units_Z 15
_cell_length_a 6.364369
_cell_length_b 21.665351
_cell_length_c 9.203733
_cell_angle_alpha 142.639912
_cell_angle_beta 59.456306
_cell_angle_gamma 122.207259
_cell_volume 642.703198
_symmetry_space_group_name_H-M "P -1"
_symmetry_group_IT_number 2
_symmetry_cell_setting 'triclinic'
loop_
_space_group_symop_operation_xyz
x,y,z
-x,-y,-z
loop_
_atom_site_type_symbol
_atom_site_label
_atom_site_fract_x
_atom_site_fract_y
_atom_site_fract_z
Si Si1 0.371315 0.906240 0.756718
Si Si2 0.848555 0.826771 0.352497
Si Si3 0.230797 0.320424 0.636090
Si Si4 0.000000 0.500000 0.000000
Si Si5 0.162220 0.218597 0.191204
Si Si6 0.763163 0.465817 0.700436
Si Si7 0.254164 0.003283 0.678895
Si Si8 0.123818 0.347518 0.200840
O O1 0.569799 0.845165 0.506230
O O2 0.259409 0.956223 0.751016
O O3 0.140320 0.824031 0.761906
O O4 0.500000 0.000000 0.000000
O O5 0.888986 0.747074 0.313584
O O6 0.028228 0.937564 0.537867
O O7 0.913573 0.765967 0.075331
O O8 0.280068 0.240269 0.348763
O O9 0.494262 0.400318 0.727677
O O10 0.051070 0.384403 0.745465
O O11 0.068027 0.494236 0.143073
O O12 0.248750 0.323803 0.262466
O O13 0.247036 0.122511 0.914642
O O14 0.728510 0.562771 0.793076
O O15 0.887657 0.391589 0.416458
O O16 0.500000 0.000000 0.500000
#
# Coordination Sequence:
#
# PCOD9067871 Si02
#       8
#     2   2   2   1   2   2   2   2
#     4  12  25  46  74 100 146 196 248 302 347 427
#     4  12  26  46  74 107 146 193 242 299 370 430
#     4  12  26  46  77 105 142 192 242 301 361 436
#     4  12  24  50  74 104 140 184 248 296 352 438
#     4  12  25  48  72 109 146 197 247 294 367 434
#     4  11  26  50  73 107 148 186 243 305 361 439
#     4  12  28  47  70 111 149 188 245 304 360 438
#     4  11  26  46  70 109 148 189 236 299 371 432
#
# _framework density 23.338920999999999
#
# number of rings (size 3 to 8) (size 9 to 14) (size 15 to 20)
#    0.000    0.267    5.333    3.200    3.733    1.600 
#    2.400    0.000    0.000    0.000    0.000    0.000 
#    0.000    0.000    0.000    0.000    0.000    0.000 
#
# Total GULP energy -83629.056724 kJ/mol
# GULP energy per Si atom -5575.270448 kJ/mol
# Density = 2.328580 g / cm^3
# Si number density = 23.338921 Si / 1000 Ang^3
#
#
#
# Elastic Constant Matrix: (Units=GPa)
#
#
# Indices 1 2 3 4 5 6 
#
# 1 35.3007 12.4873 17.3650 -2.9427 -2.2215 -9.8018
# 2 12.4873 66.2086 4.8923 -3.1068 -0.8291 -23.6281
# 3 17.3650 4.8923 156.5902 1.8543 1.9061 6.7860
# 4 -2.9427 -3.1068 1.8543 34.2191 -9.2934 -1.9445
# 5 -2.2215 -0.8291 1.9061 -9.2934 48.7010 2.3031
# 6 -9.8018 -23.6281 6.7860 -1.9445 2.3031 39.7241
#
#
#
# Elastic Compliance Matrix: (Units=1/GPa)
#
#
# Indices 1 2 3 4 5 6 
#
# 1 0.033924 -0.003350 -0.004036 0.003790 0.002034 0.007135
# 2 -0.003350 0.019914 -0.000766 0.002231 0.000110 0.011252
# 3 -0.004036 -0.000766 0.006993 -0.001098 -0.000554 -0.002668
# 4 0.003790 0.002231 -0.001098 0.031683 0.006127 0.003645
# 5 0.002034 0.000110 -0.000554 0.006127 0.021833 -0.000304
# 6 0.007135 0.011252 -0.002668 0.003645 -0.000304 0.034279
#
#
# Mechanical properties :
#
#
# Convention : Reuss Voigt Hill
#
# Bulk Modulus (GPa) = 22.45907 36.39874 29.42891
# Shear Modulus (GPa) = 27.81303 39.41915 33.61609
#
# Velocity S-wave (km/s) = 3.45585 4.11419 3.79930
# Velocity P-wave (km/s) = 5.05646 6.18048 5.64651
#
# Compressibility (1/GPa) = 0.04452543
#
# Stress axis : x y z
#
# Youngs Moduli (GPa) = 29.47793 50.21637 143.00101
#
# Poissons Ratio (x) = 0.16825 0.57717
# Poissons Ratio (y) = 0.09876 0.10954
# Poissons Ratio (z) = 0.11898 0.03846
#
# Static dielectric constant tensor:
#      x y z
#    x 1.911580 -0.007270 0.005720 
#    y -0.007270 1.965790 0.015750 
#    z 0.005720 0.015750 1.942580 
# 
# From -- ./inp_files/52340.got.cif
#   From: 2010.05.17/outbox.cif.g08.bks.cpg/sg2_27_cif.got.tgz:52340.got - 2010.06.03 11:33:40.
