data_PCOD9067723
_publ_section_title
;
Structure prediction by ZEFSAII (Michael W. Deem and Ramdas Pophale) SiO2 
 PCOD9067723
Probable space group: P -1
;
_chemical_formula_sum "Si O2"
_cell_formula_units_Z 12
_cell_length_a 4.970948
_cell_length_b 10.605408
_cell_length_c 11.624333
_cell_angle_alpha 81.691315
_cell_angle_beta 129.128675
_cell_angle_gamma 101.214055
_cell_volume 466.117785
_symmetry_space_group_name_H-M "P -1"
_symmetry_group_IT_number 2
_symmetry_cell_setting 'triclinic'
loop_
_space_group_symop_operation_xyz
x,y,z
-x,-y,-z
loop_
_atom_site_type_symbol
_atom_site_label
_atom_site_fract_x
_atom_site_fract_y
_atom_site_fract_z
Si Si1 0.528045 0.873692 0.450743
Si Si2 0.275202 0.787060 0.952299
Si Si3 0.993656 0.967082 0.135879
Si Si4 0.280511 0.606717 0.178307
Si Si5 0.998429 0.712884 0.489052
Si Si6 0.741176 0.434704 0.210274
O O1 0.897761 0.835115 0.517948
O O2 0.309885 0.757447 0.478844
O O3 0.500000 0.000000 0.500000
O O4 0.316146 0.902552 0.275679
O O5 0.309165 0.685157 0.874682
O O6 0.644489 0.869010 0.074222
O O7 0.604913 0.505123 0.857891
O O8 0.155718 0.712480 0.046693
O O9 0.964939 0.106379 0.166258
O O10 0.000000 0.000000 0.000000
O O11 0.643287 0.660756 0.332940
O O12 0.002767 0.545829 0.204161
O O13 0.102653 0.612341 0.623035
#
# Coordination Sequence:
#
# PCOD9067723 Si02
#       6
#     2   2   2   2   2   2
#     4  12  26  45  73 103 140 182 228 285 342 410
#     4  11  26  45  68 105 137 181 230 286 344 409
#     4  11  26  44  73  99 141 182 227 286 350 407
#     4  12  25  47  70 103 140 183 229 283 344 403
#     4  12  25  47  70 102 142 178 234 281 343 409
#     4  12  27  44  74 102 139 182 234 281 339 412
#
# _framework density 25.744567
#
# number of rings (size 3 to 8) (size 9 to 14) (size 15 to 20)
#    0.000    0.333    1.667    6.500    9.333    0.000 
#    0.000    0.000    0.000    0.000    0.000    0.000 
#    0.000    0.000    0.000    0.000    0.000    0.000 
#
# Total GULP energy -67394.264607 kJ/mol
# GULP energy per Si atom -5616.188717 kJ/mol
# Density = 2.568597 g / cm^3
# Si number density = 25.744567 Si / 1000 Ang^3
#
#
#
# Elastic Constant Matrix: (Units=GPa)
#
#
# Indices 1 2 3 4 5 6 
#
# 1 108.2422 30.8378 7.3453 -17.2481 -14.0001 9.1293
# 2 30.8378 120.1107 38.4637 -12.6650 -13.5073 10.2104
# 3 7.3453 38.4637 86.6310 -19.5200 -23.3615 20.2905
# 4 -17.2481 -12.6650 -19.5200 53.2813 -5.1522 -14.5443
# 5 -14.0001 -13.5073 -23.3615 -5.1522 37.6071 -2.7521
# 6 9.1293 10.2104 20.2905 -14.5443 -2.7521 55.2950
#
#
#
# Elastic Compliance Matrix: (Units=1/GPa)
#
#
# Indices 1 2 3 4 5 6 
#
# 1 0.011310 -0.002674 0.002972 0.004376 0.005620 -0.001033
# 2 -0.002674 0.010421 -0.004424 0.000033 0.000015 0.000150
# 3 0.002972 -0.004424 0.019029 0.006879 0.011969 -0.004251
# 4 0.004376 0.000033 0.006879 0.024649 0.009562 0.003707
# 5 0.005620 0.000015 0.011969 0.009562 0.037364 -0.000948
# 6 -0.001033 0.000150 -0.004251 0.003707 -0.000948 0.020716
#
#
# Mechanical properties :
#
#
# Convention : Reuss Voigt Hill
#
# Bulk Modulus (GPa) = 30.76205 52.03083 41.39644
# Shear Modulus (GPa) = 35.06856 45.12582 40.09719
#
# Velocity S-wave (km/s) = 3.69477 4.19122 3.95080
# Velocity P-wave (km/s) = 5.49333 6.60879 6.07671
#
# Compressibility (1/GPa) = 0.03250759
#
# Stress axis : x y z
#
# Youngs Moduli (GPa) = 88.41695 95.95661 52.55168
#
# Poissons Ratio (x) = 0.25661 -0.15618
# Poissons Ratio (y) = 0.23645 0.23249
# Poissons Ratio (z) = -0.26276 0.42451
#
# Static dielectric constant tensor:
#      x y z
#    x 1.991080 -0.053520 -0.047230 
#    y -0.053520 2.089580 0.074570 
#    z -0.047230 0.074570 2.031330 
# 
# From -- ./inp_files/364412.got.cif
#   From: 2010.05.17/outbox.cif.g08.bks.cpg/sg2_183_cif.got.tgz:364412.got - 2010.06.03 11:33:40.
