data_PCOD9067104
_publ_section_title
;
Structure prediction by ZEFSAII (Michael W. Deem and Ramdas Pophale) SiO2 
 PCOD9067104
Probable space group: P -1
;
_chemical_formula_sum "Si O2"
_cell_formula_units_Z 16
_cell_length_a 22.574822
_cell_length_b 7.430276
_cell_length_c 12.561615
_cell_angle_alpha 121.746852
_cell_angle_beta 22.034781
_cell_angle_gamma 124.579821
_cell_volume 650.847713
_symmetry_space_group_name_H-M "P -1"
_symmetry_group_IT_number 2
_symmetry_cell_setting 'triclinic'
loop_
_space_group_symop_operation_xyz
x,y,z
-x,-y,-z
loop_
_atom_site_type_symbol
_atom_site_label
_atom_site_fract_x
_atom_site_fract_y
_atom_site_fract_z
Si Si1 0.828004 0.590956 0.649066
Si Si2 0.459709 0.733385 0.662505
Si Si3 0.072139 0.166993 0.231045
Si Si4 0.843856 0.281412 0.980225
Si Si5 0.652763 0.698660 0.782689
Si Si6 0.130790 0.312660 0.785080
Si Si7 0.802503 0.950160 0.215638
Si Si8 0.301521 0.828986 0.169540
O O1 0.837165 0.671025 0.779671
O O2 0.747149 0.731869 0.748766
O O3 0.725018 0.340845 0.742445
O O4 0.011485 0.619720 0.312935
O O5 0.500000 0.500000 0.500000
O O6 0.624828 0.928469 0.455748
O O7 0.330427 0.769159 0.802532
O O8 0.381456 0.735216 0.909063
O O9 0.883171 0.161852 0.548724
O O10 0.112637 0.937345 0.118956
O O11 0.126982 0.206714 0.030202
O O12 0.850250 0.458977 0.116650
O O13 0.777504 0.655834 0.470975
O O14 0.500000 0.500000 0.000000
O O15 0.607875 0.918993 0.889220
O O16 0.210801 0.158608 0.679645
O O17 0.940831 0.176770 0.056751
#
# Coordination Sequence:
#
# PCOD9067104 Si02
#       8
#     2   2   2   2   2   2   2   2
#     4  12  26  46  83 115 154 212 264 329 398 473
#     4  12  26  45  75 121 155 201 265 338 396 462
#     4  12  24  50  80 119 149 210 270 326 392 478
#     4  12  25  45  82 115 164 209 265 332 401 474
#     4  12  30  53  76 118 161 210 274 327 394 479
#     4  11  26  50  76 110 161 217 260 316 404 487
#     4  11  25  47  79 111 163 206 269 319 397 484
#     4  12  26  50  80 114 157 204 268 329 400 467
#
# _framework density 24.583324000000001
#
# number of rings (size 3 to 8) (size 9 to 14) (size 15 to 20)
#    0.000    0.250    5.000    3.000    3.500    6.000 
#    0.000    0.000    0.000    0.000    0.000    0.000 
#    0.000    0.000    0.000    0.000    0.000    0.000 
#
# Total GULP energy -89639.461714 kJ/mol
# GULP energy per Si atom -5602.466357 kJ/mol
# Density = 2.452737 g / cm^3
# Si number density = 24.583324 Si / 1000 Ang^3
#
#
#
# Elastic Constant Matrix: (Units=GPa)
#
#
# Indices 1 2 3 4 5 6 
#
# 1 77.9092 20.4157 33.9233 -22.4173 -17.6049 8.7892
# 2 20.4157 117.8427 28.6128 -14.4090 -4.3922 -5.8658
# 3 33.9233 28.6128 109.8150 -14.3905 -1.1485 8.7905
# 4 -22.4173 -14.4090 -14.3905 38.9332 -0.1377 -2.9932
# 5 -17.6049 -4.3922 -1.1485 -0.1377 44.4616 -2.0425
# 6 8.7892 -5.8658 8.7905 -2.9932 -2.0425 38.0754
#
#
#
# Elastic Compliance Matrix: (Units=1/GPa)
#
#
# Indices 1 2 3 4 5 6 
#
# 1 0.019584 -0.001088 -0.004287 0.009117 0.007446 -0.002583
# 2 -0.001088 0.009601 -0.002044 0.002359 0.000583 0.002419
# 3 -0.004287 -0.002044 0.011200 0.000760 -0.001697 -0.001942
# 4 0.009117 0.002359 0.000760 0.032166 0.004000 0.000827
# 5 0.007446 0.000583 -0.001697 0.004000 0.025486 0.000444
# 6 -0.002583 0.002419 -0.001942 0.000827 0.000444 0.027770
#
#
# Mechanical properties :
#
#
# Convention : Reuss Voigt Hill
#
# Bulk Modulus (GPa) = 39.14219 52.38560 45.76389
# Shear Modulus (GPa) = 33.52049 39.13506 36.32777
#
# Velocity S-wave (km/s) = 3.69663 3.99423 3.84831
# Velocity P-wave (km/s) = 5.84610 6.52898 6.19695
#
# Compressibility (1/GPa) = 0.02554788
#
# Stress axis : x y z
#
# Youngs Moduli (GPa) = 51.06086 104.15239 89.28284
#
# Poissons Ratio (x) = 0.11335 0.38276
# Poissons Ratio (y) = 0.05557 0.18248
# Poissons Ratio (z) = 0.21890 0.21287
#
# Static dielectric constant tensor:
#      x y z
#    x 1.943310 0.003720 -0.011010 
#    y 0.003720 1.994890 -0.043700 
#    z -0.011010 -0.043700 1.938030 
# 
# From -- ./inp_files/470011.got.cif
#   From: 2010.05.17/outbox.cif.g08.bks.cpg/sg2_236_cif.got.tgz:470011.got - 2010.06.03 11:33:40.
