data_PCOD9067281
_publ_section_title
;
Structure prediction by ZEFSAII (Michael W. Deem and Ramdas Pophale) SiO2 
 PCOD9067281
Probable space group: P -1
;
_chemical_formula_sum "Si O2"
_cell_formula_units_Z 12
_cell_length_a 8.844575
_cell_length_b 5.392565
_cell_length_c 15.940369
_cell_angle_alpha 49.819242
_cell_angle_beta 61.251672
_cell_angle_gamma 60.974209
_cell_volume 491.600151
_symmetry_space_group_name_H-M "P -1"
_symmetry_group_IT_number 2
_symmetry_cell_setting 'triclinic'
loop_
_space_group_symop_operation_xyz
x,y,z
-x,-y,-z
loop_
_atom_site_type_symbol
_atom_site_label
_atom_site_fract_x
_atom_site_fract_y
_atom_site_fract_z
Si Si1 0.504724 0.220556 0.147611
Si Si2 0.126781 0.608578 0.752916
Si Si3 0.126708 0.676740 0.375852
Si Si4 0.286838 0.289209 0.939185
Si Si5 0.854620 0.302106 0.827373
Si Si6 0.501618 0.610266 0.380194
O O1 0.609222 0.498640 0.080048
O O2 0.300686 0.422773 0.143522
O O3 0.514269 0.989737 0.277977
O O4 0.584428 0.960829 0.108312
O O5 0.153078 0.551361 0.857208
O O6 0.317796 0.608533 0.663326
O O7 0.048535 0.302156 0.809897
O O8 0.983182 0.934726 0.687230
O O9 0.154669 0.580853 0.291891
O O10 0.318188 0.602270 0.385400
O O11 0.000000 0.500000 0.500000
O O12 0.196928 0.046193 0.068663
O O13 0.500000 0.500000 0.500000
#
# Coordination Sequence:
#
# PCOD9067281 Si02
#       6
#     2   2   2   2   2   2
#     4  11  25  48  76 117 151 204 260 316 381 453
#     4  11  27  47  74 113 151 198 259 312 383 458
#     4  12  29  48  78 113 149 205 258 319 384 458
#     4  11  27  46  79 114 157 204 256 313 385 454
#     4  12  25  47  75 109 159 199 255 318 382 458
#     4  11  26  50  76 108 155 203 255 321 383 454
#
# _framework density 24.410081000000002
#
# number of rings (size 3 to 8) (size 9 to 14) (size 15 to 20)
#    0.000    0.667    1.667    4.500   11.667    2.667 
#    0.000    0.000    0.000    0.000    0.000    0.000 
#    0.000    0.000    0.000    0.000    0.000    0.000 
#
# Total GULP energy -67237.407925 kJ/mol
# GULP energy per Si atom -5603.117327 kJ/mol
# Density = 2.435452 g / cm^3
# Si number density = 24.410081 Si / 1000 Ang^3
#
#
#
# Elastic Constant Matrix: (Units=GPa)
#
#
# Indices 1 2 3 4 5 6 
#
# 1 172.3181 43.7599 49.4408 10.6706 -14.3923 -17.3825
# 2 43.7599 104.6206 38.6192 17.6323 -25.6203 -0.5995
# 3 49.4408 38.6192 169.8882 0.9342 0.9544 2.9969
# 4 10.6706 17.6323 0.9342 38.0116 0.3326 -6.8234
# 5 -14.3923 -25.6203 0.9544 0.3326 40.9941 -1.5616
# 6 -17.3825 -0.5995 2.9969 -6.8234 -1.5616 35.8686
#
#
#
# Elastic Compliance Matrix: (Units=1/GPa)
#
#
# Indices 1 2 3 4 5 6 
#
# 1 0.007326 -0.001934 -0.001763 -0.000476 0.001547 0.003642
# 2 -0.001934 0.014524 -0.002728 -0.006439 0.008464 -0.001323
# 3 -0.001763 -0.002728 0.007050 0.001369 -0.002550 -0.001340
# 4 -0.000476 -0.006439 0.001369 0.030354 -0.004274 0.005135
# 5 0.001547 0.008464 -0.002550 -0.004274 0.030382 0.001614
# 6 0.003642 -0.001323 -0.001340 0.005135 0.001614 0.030782
#
#
# Mechanical properties :
#
#
# Convention : Reuss Voigt Hill
#
# Bulk Modulus (GPa) = 62.29805 78.94073 70.61939
# Shear Modulus (GPa) = 36.07063 43.97534 40.02299
#
# Velocity S-wave (km/s) = 3.84825 4.24904 4.05360
# Velocity P-wave (km/s) = 6.73218 7.51546 7.13457
#
# Compressibility (1/GPa) = 0.01605187
#
# Stress axis : x y z
#
# Youngs Moduli (GPa) = 136.49743 68.84982 141.84883
#
# Poissons Ratio (x) = 0.13313 0.25006
# Poissons Ratio (y) = 0.26393 0.38694
# Poissons Ratio (z) = 0.24062 0.18781
#
# Static dielectric constant tensor:
#      x y z
#    x 1.922440 -0.017950 -0.007510 
#    y -0.017950 2.025500 0.007470 
#    z -0.007510 0.007470 1.908710 
# 
# From -- ./inp_files/487484.got.cif
#   From: 2010.05.17/outbox.cif.g08.bks.cpg/sg2_244_cif.got.tgz:487484.got - 2010.06.03 11:33:40.
