data_PCOD9067438
_publ_section_title
;
Structure prediction by ZEFSAII (Michael W. Deem and Ramdas Pophale) SiO2 
 PCOD9067438
Probable space group: P -1
;
_chemical_formula_sum "Si O2"
_cell_formula_units_Z 11
_cell_length_a 14.455903
_cell_length_b 6.175894
_cell_length_c 5.919311
_cell_angle_alpha 92.326502
_cell_angle_beta 115.889919
_cell_angle_gamma 77.437239
_cell_volume 463.152207
_symmetry_space_group_name_H-M "P -1"
_symmetry_group_IT_number 2
_symmetry_cell_setting 'triclinic'
loop_
_space_group_symop_operation_xyz
x,y,z
-x,-y,-z
loop_
_atom_site_type_symbol
_atom_site_label
_atom_site_fract_x
_atom_site_fract_y
_atom_site_fract_z
Si Si1 0.080551 0.559436 0.774452
Si Si2 0.551963 0.621288 0.866432
Si Si3 0.356496 0.777285 0.392381
Si Si4 0.000000 0.000000 0.000000
Si Si5 0.259236 0.161001 0.957978
Si Si6 0.823030 0.170682 0.459669
O O1 0.159241 0.670137 0.714152
O O2 0.000000 0.500000 0.500000
O O3 0.031935 0.741326 0.915549
O O4 0.156616 0.337569 0.944600
O O5 0.456970 0.794974 0.651285
O O6 0.602515 0.427683 0.738020
O O7 0.646174 0.737570 0.032363
O O8 0.500000 0.500000 0.000000
O O9 0.266810 0.722235 0.455432
O O10 0.305860 0.993034 0.202126
O O11 0.930277 0.082236 0.703849
O O12 0.216623 0.029355 0.708793
#
# Coordination Sequence:
#
# PCOD9067438 Si02
#       6
#     2   2   2   1   2   2
#     4  12  28  51  77 112 154 209 258 325 383 455
#     4  11  25  49  77 110 156 200 256 319 387 467
#     4  11  26  46  75 113 148 206 257 313 391 467
#     4  12  26  50  76 108 152 202 268 310 384 456
#     4  12  25  47  75 111 155 200 258 320 387 455
#     4  12  27  47  74 111 154 198 267 321 376 469
#
# _framework density 23.750292999999999
#
# number of rings (size 3 to 8) (size 9 to 14) (size 15 to 20)
#    0.000    0.364    1.818    6.545    2.545    9.455 
#    3.273    0.000    0.000    0.000    0.000    0.000 
#    0.000    0.000    0.000    0.000    0.000    0.000 
#
# Total GULP energy -61413.712934 kJ/mol
# GULP energy per Si atom -5583.064812 kJ/mol
# Density = 2.369624 g / cm^3
# Si number density = 23.750293 Si / 1000 Ang^3
#
#
#
# Elastic Constant Matrix: (Units=GPa)
#
#
# Indices 1 2 3 4 5 6 
#
# 1 76.5404 25.9331 19.0154 11.4662 -12.6596 17.5357
# 2 25.9331 120.1318 70.8931 -7.5598 6.3188 -23.2146
# 3 19.0154 70.8931 149.9351 -8.7631 21.0881 3.7747
# 4 11.4662 -7.5598 -8.7631 53.1965 -12.4634 14.7500
# 5 -12.6596 6.3188 21.0881 -12.4634 35.5136 5.7795
# 6 17.5357 -23.2146 3.7747 14.7500 5.7795 38.4522
#
#
#
# Elastic Compliance Matrix: (Units=1/GPa)
#
#
# Indices 1 2 3 4 5 6 
#
# 1 0.022093 -0.008965 0.000181 0.002132 0.013088 -0.018290
# 2 -0.008965 0.018053 -0.007164 -0.003044 -0.006115 0.017777
# 3 0.000181 -0.007164 0.010770 0.001357 -0.003696 -0.005430
# 4 0.002132 -0.003044 0.001357 0.024748 0.011486 -0.014162
# 5 0.013088 -0.006115 -0.003696 0.011486 0.043430 -0.020231
# 6 -0.018290 0.017777 -0.005430 -0.014162 -0.020231 0.054087
#
#
# Mechanical properties :
#
#
# Convention : Reuss Voigt Hill
#
# Bulk Modulus (GPa) = 52.57680 64.25452 58.41566
# Shear Modulus (GPa) = 23.65009 40.81685 32.23347
#
# Velocity S-wave (km/s) = 3.15902 4.15008 3.68799
# Velocity P-wave (km/s) = 5.95746 7.07652 6.54096
#
# Compressibility (1/GPa) = 0.01901980
#
# Stress axis : x y z
#
# Youngs Moduli (GPa) = 45.26273 55.39334 92.85203
#
# Poissons Ratio (x) = 0.49660 -0.01682
# Poissons Ratio (y) = 0.40578 0.66521
# Poissons Ratio (z) = -0.00820 0.39685
#
# Static dielectric constant tensor:
#      x y z
#    x 1.933780 0.023590 0.024280 
#    y 0.023590 1.932950 -0.003400 
#    z 0.024280 -0.003400 1.871810 
# 
# From -- ./inp_files/2163.got.cif
#   From: 2010.05.17/outbox.cif.g08.bks.cpg/sg2_2_cif.got.tgz:2163.got - 2010.06.03 11:33:40.
