data_PCOD9067604
_publ_section_title
;
Structure prediction by ZEFSAII (Michael W. Deem and Ramdas Pophale) SiO2 
 PCOD9067604
Probable space group: P -1
;
_chemical_formula_sum "Si O2"
_cell_formula_units_Z 13
_cell_length_a 16.296870
_cell_length_b 8.439748
_cell_length_c 16.087908
_cell_angle_alpha 129.196816
_cell_angle_beta 17.308434
_cell_angle_gamma 128.748388
_cell_volume 507.748925
_symmetry_space_group_name_H-M "P -1"
_symmetry_group_IT_number 2
_symmetry_cell_setting 'triclinic'
loop_
_space_group_symop_operation_xyz
x,y,z
-x,-y,-z
loop_
_atom_site_type_symbol
_atom_site_label
_atom_site_fract_x
_atom_site_fract_y
_atom_site_fract_z
Si Si1 0.550010 0.262647 0.244271
Si Si2 0.633066 0.190838 0.551954
Si Si3 0.000000 0.500000 0.000000
Si Si4 0.197335 0.841576 0.793810
Si Si5 0.926989 0.795363 0.556920
Si Si6 0.980303 0.013492 0.296009
Si Si7 0.628418 0.414107 0.028599
O O1 0.704678 0.427539 0.210103
O O2 0.597359 0.333415 0.126702
O O3 0.230175 0.196177 0.555687
O O4 0.714534 0.059558 0.028197
O O5 0.729449 0.284574 0.400329
O O6 0.872724 0.128100 0.359102
O O7 0.449959 0.354798 0.823396
O O8 0.455987 0.978995 0.628060
O O9 0.944454 0.303048 0.048631
O O10 0.000000 0.000000 0.000000
O O11 0.032518 0.846174 0.563899
O O12 0.601462 0.729221 0.847915
O O13 0.078198 0.620516 0.306076
O O14 0.000000 0.000000 0.500000
#
# Coordination Sequence:
#
# PCOD9067604 Si02
#       7
#     2   2   1   2   2   2   2
#     4  12  25  45  74 112 149 195 263 312 387 465
#     4  11  28  47  73 111 162 199 256 322 404 453
#     4  12  26  44  84 112 146 206 264 310 392 470
#     4  11  25  51  74 112 159 207 258 324 388 484
#     4  12  24  46  76 110 149 197 270 321 383 462
#     4  12  26  47  75 107 154 204 249 325 389 455
#     4  12  26  45  77 110 151 202 255 328 387 460
#
# _framework density 25.603206
#
# number of rings (size 3 to 8) (size 9 to 14) (size 15 to 20)
#    0.000    0.308    4.615    3.231    6.462    3.077 
#    0.000    0.000    0.000    0.000    0.000    0.000 
#    0.000    0.000    0.000    0.000    0.000    0.000 
#
# Total GULP energy -72778.458026 kJ/mol
# GULP energy per Si atom -5598.342925 kJ/mol
# Density = 2.554493 g / cm^3
# Si number density = 25.603206 Si / 1000 Ang^3
#
#
#
# Elastic Constant Matrix: (Units=GPa)
#
#
# Indices 1 2 3 4 5 6 
#
# 1 166.2627 49.3812 6.1780 -13.8877 -18.1417 -0.0869
# 2 49.3812 88.3293 6.0100 -4.5761 -1.9765 -7.6114
# 3 6.1780 6.0100 72.5864 2.8295 -8.3026 -6.0152
# 4 -13.8877 -4.5761 2.8295 40.9107 -0.8103 -5.5938
# 5 -18.1417 -1.9765 -8.3026 -0.8103 30.4785 0.4884
# 6 -0.0869 -7.6114 -6.0152 -5.5938 0.4884 51.4760
#
#
#
# Elastic Compliance Matrix: (Units=1/GPa)
#
#
# Indices 1 2 3 4 5 6 
#
# 1 0.007966 -0.004275 0.000075 0.002255 0.004551 -0.000408
# 2 -0.004275 0.013921 -0.000855 0.000403 -0.001896 0.002013
# 3 0.000075 -0.000855 0.014435 -0.000795 0.003877 0.001437
# 4 0.002255 0.000403 -0.000795 0.025720 0.001792 0.002748
# 5 0.004551 -0.001896 0.003877 0.001792 0.036499 0.000029
# 6 -0.000408 0.002013 0.001437 0.002748 0.000029 0.020190
#
#
# Mechanical properties :
#
#
# Convention : Reuss Voigt Hill
#
# Bulk Modulus (GPa) = 38.14977 50.03522 44.09250
# Shear Modulus (GPa) = 36.34260 42.28033 39.31146
#
# Velocity S-wave (km/s) = 3.77165 4.06811 3.92268
# Velocity P-wave (km/s) = 5.82236 6.45376 6.14617
#
# Compressibility (1/GPa) = 0.02621247
#
# Stress axis : x y z
#
# Youngs Moduli (GPa) = 125.52777 71.83178 69.27780
#
# Poissons Ratio (x) = 0.30710 -0.00518
# Poissons Ratio (y) = 0.53666 0.05920
# Poissons Ratio (z) = -0.00939 0.06138
#
# Static dielectric constant tensor:
#      x y z
#    x 1.973350 0.051890 0.062860 
#    y 0.051890 1.987350 0.050140 
#    z 0.062860 0.050140 2.039130 
# 
# From -- ./inp_files/503466.got.cif
#   From: 2010.05.17/outbox.cif.g08.bks.cpg/sg2_252_cif.got.tgz:503466.got - 2010.06.03 11:33:40.
