data_PCOD9067114
_publ_section_title
;
Structure prediction by ZEFSAII (Michael W. Deem and Ramdas Pophale) SiO2 
 PCOD9067114
Probable space group: P -1
;
_chemical_formula_sum "Si O2"
_cell_formula_units_Z 16
_cell_length_a 11.776206
_cell_length_b 8.513408
_cell_length_c 8.655593
_cell_angle_alpha 110.917759
_cell_angle_beta 127.216903
_cell_angle_gamma 66.225132
_cell_volume 624.731892
_symmetry_space_group_name_H-M "P -1"
_symmetry_group_IT_number 2
_symmetry_cell_setting 'triclinic'
loop_
_space_group_symop_operation_xyz
x,y,z
-x,-y,-z
loop_
_atom_site_type_symbol
_atom_site_label
_atom_site_fract_x
_atom_site_fract_y
_atom_site_fract_z
Si Si1 0.839328 0.757733 0.873669
Si Si2 0.200113 0.005614 0.374649
Si Si3 0.763586 0.471230 0.103622
Si Si4 0.589660 0.752156 0.292452
Si Si5 0.415732 0.639781 0.358886
Si Si6 0.034998 0.614965 0.259077
Si Si7 0.635301 0.004119 0.003361
Si Si8 0.894133 0.161764 0.326719
O O1 0.838832 0.905059 0.796503
O O2 0.850724 0.569778 0.743428
O O3 0.700611 0.832787 0.896862
O O4 0.981982 0.714331 0.089668
O O5 0.307306 0.116235 0.571778
O O6 0.052478 0.045320 0.367133
O O7 0.291656 0.806061 0.375142
O O8 0.667481 0.586860 0.198385
O O9 0.843044 0.289814 0.184310
O O10 0.889577 0.563739 0.186971
O O11 0.662388 0.447521 0.869266
O O12 0.542934 0.712538 0.409281
O O13 0.435894 0.843002 0.118424
O O14 0.500000 0.500000 0.500000
O O15 0.091975 0.721328 0.474325
O O16 0.773727 0.052544 0.213830
O O17 0.500000 0.000000 0.000000
#
# Coordination Sequence:
#
# PCOD9067114 Si02
#       8
#     2   2   2   2   2   2   2   2
#     4  11  25  49  80 118 175 208 273 340 419 489
#     4  12  26  52  88 121 168 224 280 348 424 495
#     4  12  24  50  81 121 172 217 279 343 422 494
#     4  12  26  53  79 119 169 229 275 337 426 504
#     4  12  30  51  81 128 171 224 285 348 421 505
#     4  11  25  47  80 131 165 213 271 351 414 502
#     4  12  29  52  82 118 167 224 279 344 420 506
#     4  12  26  53  85 122 165 221 281 344 424 503
#
# _framework density 25.610983999999998
#
# number of rings (size 3 to 8) (size 9 to 14) (size 15 to 20)
#    0.000    0.250    5.000    2.625    3.500    2.500 
#    0.000    0.625    2.750    0.000    0.000    0.000 
#    0.000    0.000    0.000    0.000    0.000    0.000 
#
# Total GULP energy -89891.802765 kJ/mol
# GULP energy per Si atom -5618.237673 kJ/mol
# Density = 2.555269 g / cm^3
# Si number density = 25.610984 Si / 1000 Ang^3
#
#
#
# Elastic Constant Matrix: (Units=GPa)
#
#
# Indices 1 2 3 4 5 6 
#
# 1 209.4969 87.3949 74.8811 19.2436 12.8813 -37.1676
# 2 87.3949 146.4667 73.0596 -14.5307 -2.3471 -26.0122
# 3 74.8811 73.0596 163.5118 -4.4811 6.2498 0.8850
# 4 19.2436 -14.5307 -4.4811 63.0770 1.8001 1.5877
# 5 12.8813 -2.3471 6.2498 1.8001 38.5793 4.1897
# 6 -37.1676 -26.0122 0.8850 1.5877 4.1897 58.3905
#
#
#
# Elastic Compliance Matrix: (Units=1/GPa)
#
#
# Indices 1 2 3 4 5 6 
#
# 1 0.008230 -0.003481 -0.002222 -0.003490 -0.002874 0.004023
# 2 -0.003481 0.011528 -0.003556 0.003339 0.001986 0.002741
# 3 -0.002222 -0.003556 0.008777 0.000577 -0.000586 -0.003105
# 4 -0.003490 0.003339 0.000577 0.017744 0.000585 -0.001267
# 5 -0.002874 0.001986 -0.000586 0.000585 0.027386 -0.002917
# 6 0.004023 0.002741 -0.003105 -0.001267 -0.002917 0.021199
#
#
# Mechanical properties :
#
#
# Convention : Reuss Voigt Hill
#
# Bulk Modulus (GPa) = 99.81129 110.01629 104.91379
# Shear Modulus (GPa) = 42.83762 50.95202 46.89482
#
# Velocity S-wave (km/s) = 4.09421 4.46517 4.28371
# Velocity P-wave (km/s) = 7.83625 8.34468 8.09446
#
# Compressibility (1/GPa) = 0.01001891
#
# Stress axis : x y z
#
# Youngs Moduli (GPa) = 121.50019 86.74498 113.93288
#
# Poissons Ratio (x) = 0.30193 0.25311
# Poissons Ratio (y) = 0.42290 0.40516
# Poissons Ratio (z) = 0.26992 0.30848
#
# Static dielectric constant tensor:
#      x y z
#    x 1.990020 0.058180 -0.034340 
#    y 0.058180 2.050120 -0.040460 
#    z -0.034340 -0.040460 2.036040 
# 
# From -- ./inp_files/244223.got.cif
#   From: 2010.05.17/outbox.cif.g08.bks.cpg/sg2_123_cif.got.tgz:244223.got - 2010.06.03 11:33:40.
