data_PCOD9067305
_publ_section_title
;
Structure prediction by ZEFSAII (Michael W. Deem and Ramdas Pophale) SiO2 
 PCOD9067305
Probable space group: P -1
;
_chemical_formula_sum "Si O2"
_cell_formula_units_Z 13
_cell_length_a 12.124880
_cell_length_b 9.358639
_cell_length_c 16.138950
_cell_angle_alpha 141.563620
_cell_angle_beta 29.505441
_cell_angle_gamma 131.285345
_cell_volume 559.249490
_symmetry_space_group_name_H-M "P -1"
_symmetry_group_IT_number 2
_symmetry_cell_setting 'triclinic'
loop_
_space_group_symop_operation_xyz
x,y,z
-x,-y,-z
loop_
_atom_site_type_symbol
_atom_site_label
_atom_site_fract_x
_atom_site_fract_y
_atom_site_fract_z
Si Si1 0.306252 0.439671 0.341867
Si Si2 0.229056 0.136364 0.413341
Si Si3 0.107676 0.192797 0.213597
Si Si4 0.388230 0.203870 0.723420
Si Si5 0.557521 0.754092 0.102933
Si Si6 0.500000 0.500000 0.500000
Si Si7 0.906498 0.303361 0.028480
O O1 0.250720 0.262462 0.368491
O O2 0.275369 0.320229 0.220466
O O3 0.539721 0.553476 0.249645
O O4 0.128453 0.662772 0.559510
O O5 0.293416 0.336505 0.527088
O O6 0.411368 0.931684 0.223012
O O7 0.000000 0.000000 0.500000
O O8 0.188677 0.214401 0.076269
O O9 0.118446 0.928938 0.113217
O O10 0.478173 0.186971 0.750757
O O11 0.500000 0.000000 0.500000
O O12 0.120066 0.215998 0.906356
O O13 0.500000 0.500000 0.000000
O O14 0.680470 0.373940 0.258611
O O15 0.000000 0.500000 0.000000
#
# Coordination Sequence:
#
# PCOD9067305 Si02
#       7
#     2   2   2   2   2   1   2
#     4  11  26  49  80 116 157 207 274 337 414 497
#     4  12  30  48  82 113 163 216 268 343 412 486
#     4  11  25  48  77 112 157 206 265 340 409 495
#     4  12  28  49  84 118 163 211 269 343 422 490
#     4  12  27  50  75 118 158 212 274 340 411 497
#     4  12  30  52  74 124 162 208 282 342 396 506
#     4  12  29  50  82 116 163 216 271 340 419 490
#
# _framework density 23.245439000000001
#
# number of rings (size 3 to 8) (size 9 to 14) (size 15 to 20)
#    0.000    0.308    4.615    1.846   12.923    1.231 
#    0.000    0.000    0.000    0.000    0.000    0.000 
#    0.000    0.000    0.000    0.000    0.000    0.000 
#
# Total GULP energy -72398.388235 kJ/mol
# GULP energy per Si atom -5569.106787 kJ/mol
# Density = 2.319253 g / cm^3
# Si number density = 23.245439 Si / 1000 Ang^3
#
#
#
# Elastic Constant Matrix: (Units=GPa)
#
#
# Indices 1 2 3 4 5 6 
#
# 1 77.8849 46.2435 58.4286 5.4149 13.5100 16.9867
# 2 46.2435 167.8022 58.0392 -3.0047 13.8651 12.8942
# 3 58.4286 58.0392 137.1984 3.5982 14.2838 -0.7390
# 4 5.4149 -3.0047 3.5982 35.3935 7.6959 -10.0968
# 5 13.5100 13.8651 14.2838 7.6959 25.8112 -6.9506
# 6 16.9867 12.8942 -0.7390 -10.0968 -6.9506 43.3943
#
#
#
# Elastic Compliance Matrix: (Units=1/GPa)
#
#
# Indices 1 2 3 4 5 6 
#
# 1 0.025283 -0.002366 -0.008781 -0.004617 -0.008917 -0.011846
# 2 -0.002366 0.007655 -0.002007 0.001352 -0.002564 -0.001479
# 3 -0.008781 -0.002007 0.011874 0.001268 -0.000058 0.004522
# 4 -0.004617 0.001352 0.001268 0.032654 -0.006602 0.007968
# 5 -0.008917 -0.002564 -0.000058 -0.006602 0.049661 0.010670
# 6 -0.011846 -0.001479 0.004522 0.007968 0.010670 0.031761
#
#
# Mechanical properties :
#
#
# Convention : Reuss Voigt Hill
#
# Bulk Modulus (GPa) = 54.04092 78.70091 66.37091
# Shear Modulus (GPa) = 26.12807 35.59808 30.86307
#
# Velocity S-wave (km/s) = 3.35626 3.91756 3.64772
# Velocity P-wave (km/s) = 6.19013 7.37516 6.80848
#
# Compressibility (1/GPa) = 0.01850450
#
# Stress axis : x y z
#
# Youngs Moduli (GPa) = 39.55271 130.62559 84.21529
#
# Poissons Ratio (x) = 0.30908 0.73946
# Poissons Ratio (y) = 0.09359 0.16904
# Poissons Ratio (z) = 0.34730 0.26220
#
# Static dielectric constant tensor:
#      x y z
#    x 1.960550 -0.022410 -0.059270 
#    y -0.022410 1.980500 -0.023260 
#    z -0.059270 -0.023260 1.890210 
# 
# From -- ./inp_files/175636.got.cif
#   From: 2010.05.17/outbox.cif.g08.bks.cpg/sg2_88_cif.got.tgz:175636.got - 2010.06.03 11:33:40.
