data_PCOD9067655
_publ_section_title
;
Structure prediction by ZEFSAII (Michael W. Deem and Ramdas Pophale) SiO2 
 PCOD9067655
Probable space group: P -1
;
_chemical_formula_sum "Si O2"
_cell_formula_units_Z 12
_cell_length_a 7.103316
_cell_length_b 8.912044
_cell_length_c 14.063951
_cell_angle_alpha 44.941009
_cell_angle_beta 82.087599
_cell_angle_gamma 52.757761
_cell_volume 428.565079
_symmetry_space_group_name_H-M "P -1"
_symmetry_group_IT_number 2
_symmetry_cell_setting 'triclinic'
loop_
_space_group_symop_operation_xyz
x,y,z
-x,-y,-z
loop_
_atom_site_type_symbol
_atom_site_label
_atom_site_fract_x
_atom_site_fract_y
_atom_site_fract_z
Si Si1 0.866625 0.900674 0.253388
Si Si2 0.086541 0.432556 0.133920
Si Si3 0.284604 0.460950 0.743130
Si Si4 0.300456 0.695989 0.073643
Si Si5 0.217904 0.211645 0.483232
Si Si6 0.325723 0.835198 0.319218
O O1 0.505336 0.783052 0.243946
O O2 0.070397 0.562981 0.342627
O O3 0.048683 0.957248 0.243394
O O4 0.650318 0.169478 0.072636
O O5 0.255869 0.500210 0.122074
O O6 0.827738 0.621369 0.138158
O O7 0.251513 0.076525 0.290301
O O8 0.000000 0.500000 0.000000
O O9 0.458828 0.485174 0.783591
O O10 0.010327 0.745752 0.575440
O O11 0.000000 0.000000 0.000000
O O12 0.228946 0.123710 0.630312
O O13 0.500000 0.000000 0.500000
O O14 0.500000 0.500000 0.500000
#
# Coordination Sequence:
#
# PCOD9067655 Si02
#       6
#     2   2   2   2   2   2
#     4  11  25  53  84 119 172 220 281 355 417 506
#     4  12  29  53  83 126 171 228 281 344 431 516
#     4  12  29  52  86 124 171 217 286 358 416 506
#     4  12  26  55  87 125 170 222 284 351 427 503
#     4  11  28  51  84 125 168 227 284 345 428 511
#     4  12  27  55  82 124 170 222 284 352 428 500
#
# _framework density 28.000416999999999
#
# number of rings (size 3 to 8) (size 9 to 14) (size 15 to 20)
#    0.000    0.333    5.000    1.000    2.333   10.000 
#    3.000    0.833    0.000    0.000    0.000    0.000 
#    0.000    0.000    0.000    0.000    0.000    0.000 
#
# Total GULP energy -67436.841343 kJ/mol
# GULP energy per Si atom -5619.736779 kJ/mol
# Density = 2.793669 g / cm^3
# Si number density = 28.000417 Si / 1000 Ang^3
#
#
#
# Elastic Constant Matrix: (Units=GPa)
#
#
# Indices 1 2 3 4 5 6 
#
# 1 172.6959 75.8753 38.6168 -12.0565 11.6303 18.1164
# 2 75.8753 202.1945 68.2372 -0.1873 -10.5616 -6.9522
# 3 38.6168 68.2372 131.9394 -7.5590 -7.0935 13.6878
# 4 -12.0565 -0.1873 -7.5590 54.8450 5.2591 -9.8691
# 5 11.6303 -10.5616 -7.0935 5.2591 52.1417 7.1965
# 6 18.1164 -6.9522 13.6878 -9.8691 7.1965 71.2319
#
#
#
# Elastic Compliance Matrix: (Units=1/GPa)
#
#
# Indices 1 2 3 4 5 6 
#
# 1 0.007598 -0.002811 -0.000636 0.001495 -0.002274 -0.001648
# 2 -0.002811 0.007159 -0.003026 -0.000845 0.001513 0.001725
# 3 -0.000636 -0.003026 0.009634 0.000720 0.001042 -0.001990
# 4 0.001495 -0.000845 0.000720 0.019338 -0.002681 0.002349
# 5 -0.002274 0.001513 0.001042 -0.002681 0.020671 -0.001934
# 6 -0.001648 0.001725 -0.001990 0.002349 -0.001934 0.015529
#
#
# Mechanical properties :
#
#
# Convention : Reuss Voigt Hill
#
# Bulk Modulus (GPa) = 87.36613 96.92093 92.14353
# Shear Modulus (GPa) = 51.71145 57.25042 54.48094
#
# Velocity S-wave (km/s) = 4.30212 4.52666 4.41582
# Velocity P-wave (km/s) = 7.47978 7.87465 7.67975
#
# Compressibility (1/GPa) = 0.01144608
#
# Stress axis : x y z
#
# Youngs Moduli (GPa) = 131.61507 139.67950 103.79764
#
# Poissons Ratio (x) = 0.39259 0.06600
# Poissons Ratio (y) = 0.36992 0.31410
# Poissons Ratio (z) = 0.08369 0.42268
#
# Static dielectric constant tensor:
#      x y z
#    x 2.147260 -0.007160 0.023370 
#    y -0.007160 2.131540 0.010720 
#    z 0.023370 0.010720 2.282990 
# 
# From -- ./inp_files/546387.got.cif
#   From: 2010.05.17/outbox.cif.g08.bks.cpg/sg2_274_cif.got.tgz:546387.got - 2010.06.03 11:33:40.
