data_PCOD9067570
_publ_section_title
;
Structure prediction by ZEFSAII (Michael W. Deem and Ramdas Pophale) SiO2 
 PCOD9067570
Probable space group: P -1
;
_chemical_formula_sum "Si O2"
_cell_formula_units_Z 15
_cell_length_a 15.402774
_cell_length_b 12.140337
_cell_length_c 5.201296
_cell_angle_alpha 89.913116
_cell_angle_beta 90.435400
_cell_angle_gamma 39.384629
_cell_volume 617.087508
_symmetry_space_group_name_H-M "P -1"
_symmetry_group_IT_number 2
_symmetry_cell_setting 'triclinic'
loop_
_space_group_symop_operation_xyz
x,y,z
-x,-y,-z
loop_
_atom_site_type_symbol
_atom_site_label
_atom_site_fract_x
_atom_site_fract_y
_atom_site_fract_z
Si Si1 0.550961 0.385775 0.751493
Si Si2 0.500000 0.000000 0.500000
Si Si3 0.873601 0.248058 0.296886
Si Si4 0.712178 0.962858 0.278264
Si Si5 0.819602 0.072056 0.534768
Si Si6 0.768145 0.473791 0.787512
Si Si7 0.480092 0.214315 0.884533
Si Si8 0.997537 0.428753 0.751244
O O1 0.500000 0.500000 0.500000
O O2 0.715595 0.218788 0.747175
O O3 0.490172 0.322484 0.750012
O O4 0.500000 0.500000 0.000000
O O5 0.626885 0.961886 0.451663
O O6 0.437341 0.151807 0.713978
O O7 0.853864 0.137099 0.338433
O O8 0.786308 0.390484 0.523002
O O9 0.825358 0.343531 0.024477
O O10 0.035429 0.111843 0.350700
O O11 0.729956 0.066145 0.397212
O O12 0.865828 0.775745 0.241134
O O13 0.627252 0.048718 0.014120
O O14 0.865647 0.482236 0.755624
O O15 0.622356 0.664599 0.875709
O O16 0.000000 0.500000 0.500000
O O17 0.000000 0.500000 0.000000
#
# Coordination Sequence:
#
# PCOD9067570 Si02
#       8
#     2   1   2   2   2   2   2   2
#     4  12  26  46  77 116 160 206 261 323 397 472
#     4  12  28  50  76 116 158 208 272 330 410 468
#     4  11  27  48  82 117 162 208 261 334 396 482
#     4  12  28  51  81 114 159 210 270 328 407 474
#     4  11  25  50  79 117 160 207 268 323 404 476
#     4  12  27  51  78 117 161 207 271 325 403 470
#     4  12  29  48  82 114 166 208 271 335 403 479
#     4  12  29  50  79 113 156 209 272 329 396 476
#
# _framework density 24.307735999999998
#
# number of rings (size 3 to 8) (size 9 to 14) (size 15 to 20)
#    0.000    0.267    2.667    4.400    7.467    4.267 
#    0.000    0.000    0.000    0.000    0.000    0.000 
#    0.000    0.000    0.000    0.000    0.000    0.000 
#
# Total GULP energy -83909.777500 kJ/mol
# GULP energy per Si atom -5593.985167 kJ/mol
# Density = 2.425241 g / cm^3
# Si number density = 24.307736 Si / 1000 Ang^3
#
#
#
# Elastic Constant Matrix: (Units=GPa)
#
#
# Indices 1 2 3 4 5 6 
#
# 1 165.8834 8.0047 32.7464 -0.5560 3.3788 15.5859
# 2 8.0047 82.8562 48.5412 10.8105 7.9960 -0.2559
# 3 32.7464 48.5412 142.6142 3.6534 -0.1893 8.1654
# 4 -0.5560 10.8105 3.6534 34.8147 -2.7911 3.1022
# 5 3.3788 7.9960 -0.1893 -2.7911 33.0252 10.8041
# 6 15.5859 -0.2559 8.1654 3.1022 10.8041 34.3863
#
#
#
# Elastic Compliance Matrix: (Units=1/GPa)
#
#
# Indices 1 2 3 4 5 6 
#
# 1 0.006554 0.000083 -0.001387 0.000490 0.000246 -0.002762
# 2 0.000083 0.016730 -0.005799 -0.005384 -0.005779 0.003765
# 3 -0.001387 -0.005799 0.009423 0.001222 0.002541 -0.002560
# 4 0.000490 -0.005384 0.001222 0.031177 0.005569 -0.005115
# 5 0.000246 -0.005779 0.002541 0.005569 0.036281 -0.012660
# 6 -0.002762 0.003765 -0.002560 -0.005115 -0.012660 0.035409
#
#
# Mechanical properties :
#
#
# Convention : Reuss Voigt Hill
#
# Bulk Modulus (GPa) = 54.04969 63.32650 58.68809
# Shear Modulus (GPa) = 32.06220 40.58266 36.32243
#
# Velocity S-wave (km/s) = 3.63576 4.09043 3.86978
# Velocity P-wave (km/s) = 6.31735 6.95826 6.64553
#
# Compressibility (1/GPa) = 0.01850150
#
# Stress axis : x y z
#
# Youngs Moduli (GPa) = 152.57007 59.77248 106.12434
#
# Poissons Ratio (x) = -0.00498 0.14724
# Poissons Ratio (y) = -0.01271 0.61540
# Poissons Ratio (z) = 0.21168 0.34661
#
# Static dielectric constant tensor:
#      x y z
#    x 1.884190 0.027010 -0.039970 
#    y 0.027010 1.952690 -0.064610 
#    z -0.039970 -0.064610 1.983810 
# 
# From -- ./inp_files/93639.got.cif
#   From: 2010.05.17/outbox.cif.g08.bks.cpg/sg2_47_cif.got.tgz:93639.got - 2010.06.03 11:33:40.
