data_PCOD9067200
_publ_section_title
;
Structure prediction by ZEFSAII (Michael W. Deem and Ramdas Pophale) SiO2 
 PCOD9067200
Probable space group: P -1
;
_chemical_formula_sum "Si O2"
_cell_formula_units_Z 14
_cell_length_a 9.016358
_cell_length_b 9.118795
_cell_length_c 8.422086
_cell_angle_alpha 63.900980
_cell_angle_beta 99.126218
_cell_angle_gamma 84.052265
_cell_volume 602.117615
_symmetry_space_group_name_H-M "P -1"
_symmetry_group_IT_number 2
_symmetry_cell_setting 'triclinic'
loop_
_space_group_symop_operation_xyz
x,y,z
-x,-y,-z
loop_
_atom_site_type_symbol
_atom_site_label
_atom_site_fract_x
_atom_site_fract_y
_atom_site_fract_z
Si Si1 0.860817 0.891424 0.500308
Si Si2 0.607776 0.295072 0.000981
Si Si3 0.581008 0.967233 0.206754
Si Si4 0.117939 0.826784 0.122333
Si Si5 0.665826 0.144503 0.570379
Si Si6 0.001246 0.490284 0.198233
Si Si7 0.329697 0.525214 0.777036
O O1 0.762813 0.900853 0.312278
O O2 0.919468 0.698612 0.649026
O O3 0.728956 0.981936 0.554183
O O4 0.000000 0.000000 0.500000
O O5 0.751796 0.196291 0.979441
O O6 0.468794 0.378489 0.827243
O O7 0.656405 0.434566 0.052183
O O8 0.550957 0.160061 0.165003
O O9 0.481341 0.869932 0.344619
O O10 0.500000 0.000000 0.000000
O O11 0.197913 0.843962 0.292365
O O12 0.065161 0.650533 0.189437
O O13 0.000000 0.000000 0.000000
O O14 0.649715 0.312578 0.388949
O O15 0.835823 0.515292 0.241960
O O16 0.000000 0.500000 0.000000
#
# Coordination Sequence:
#
# PCOD9067200 Si02
#       7
#     2   2   2   2   2   2   2
#     4  12  27  51  82 114 161 202 269 330 394 469
#     4  11  25  48  73 108 156 202 258 323 388 479
#     4  12  27  47  77 110 153 213 259 319 396 467
#     4  12  29  47  75 111 157 201 261 325 391 464
#     4  12  27  46  75 113 155 203 252 331 389 471
#     4  12  26  48  80 112 152 212 260 325 397 469
#     4  11  26  46  76 111 149 201 265 319 390 470
#
# _framework density 23.251269000000001
#
# number of rings (size 3 to 8) (size 9 to 14) (size 15 to 20)
#    0.000    0.286    5.714    1.286    8.000    2.286 
#    0.000    0.000    0.000    0.000    0.000    0.000 
#    0.000    0.000    0.000    0.000    0.000    0.000 
#
# Total GULP energy -78131.307171 kJ/mol
# GULP energy per Si atom -5580.807655 kJ/mol
# Density = 2.319835 g / cm^3
# Si number density = 23.251269 Si / 1000 Ang^3
#
#
#
# Elastic Constant Matrix: (Units=GPa)
#
#
# Indices 1 2 3 4 5 6 
#
# 1 144.2010 61.7317 86.6884 -24.7490 8.4453 4.2669
# 2 61.7317 123.0588 56.4809 -24.0868 14.5057 6.8864
# 3 86.6884 56.4809 138.7473 -26.4008 21.3993 8.3489
# 4 -24.7490 -24.0868 -26.4008 49.1907 -3.7355 1.6301
# 5 8.4453 14.5057 21.3993 -3.7355 43.2057 -1.8321
# 6 4.2669 6.8864 8.3489 1.6301 -1.8321 47.7824
#
#
#
# Elastic Compliance Matrix: (Units=1/GPa)
#
#
# Indices 1 2 3 4 5 6 
#
# 1 0.012282 -0.003211 -0.006467 0.001271 0.002013 0.000530
# 2 -0.003211 0.011405 -0.001664 0.002952 -0.002175 -0.001250
# 3 -0.006467 -0.001664 0.013264 0.002761 -0.004583 -0.001770
# 4 0.001271 0.002952 0.002761 0.023911 -0.000619 -0.001861
# 5 0.002013 -0.002175 -0.004583 -0.000619 0.025781 0.001944
# 6 0.000530 -0.001250 -0.001770 -0.001861 0.001944 0.021508
#
#
# Mechanical properties :
#
#
# Convention : Reuss Voigt Hill
#
# Bulk Modulus (GPa) = 70.09244 90.64545 80.36894
# Shear Modulus (GPa) = 36.87605 41.44284 39.15944
#
# Velocity S-wave (km/s) = 3.98676 4.22642 4.10833
# Velocity P-wave (km/s) = 7.16962 7.93011 7.55943
#
# Compressibility (1/GPa) = 0.01426687
#
# Stress axis : x y z
#
# Youngs Moduli (GPa) = 81.42284 87.68158 75.39299
#
# Poissons Ratio (x) = 0.28154 0.48754
# Poissons Ratio (y) = 0.26144 0.12546
# Poissons Ratio (z) = 0.52654 0.14591
#
# Static dielectric constant tensor:
#      x y z
#    x 1.903830 0.023150 0.000000 
#    y 0.023150 1.922200 0.044380 
#    z 0.000000 0.044380 1.885560 
# 
# From -- ./inp_files/156929.got.cif
#   From: 2010.05.17/outbox.cif.g08.bks.cpg/sg2_79_cif.got.tgz:156929.got - 2010.06.03 11:33:40.
