data_PCOD9067537
_publ_section_title
;
Structure prediction by ZEFSAII (Michael W. Deem and Ramdas Pophale) SiO2 
 PCOD9067537
Probable space group: P -1
;
_chemical_formula_sum "Si O2"
_cell_formula_units_Z 11
_cell_length_a 4.943465
_cell_length_b 12.563472
_cell_length_c 14.402822
_cell_angle_alpha 30.917888
_cell_angle_beta 65.739295
_cell_angle_gamma 75.607762
_cell_volume 408.574299
_symmetry_space_group_name_H-M "P -1"
_symmetry_group_IT_number 2
_symmetry_cell_setting 'triclinic'
loop_
_space_group_symop_operation_xyz
x,y,z
-x,-y,-z
loop_
_atom_site_type_symbol
_atom_site_label
_atom_site_fract_x
_atom_site_fract_y
_atom_site_fract_z
Si Si1 0.747780 0.106251 0.038493
Si Si2 0.520171 0.519852 0.211963
Si Si3 0.158593 0.047277 0.660140
Si Si4 0.633098 0.700881 0.267409
Si Si5 0.000000 0.500000 0.000000
Si Si6 0.730956 0.875927 0.697193
O O1 0.862879 0.999718 0.192854
O O2 0.529537 0.908954 0.164134
O O3 0.644022 0.311645 0.938433
O O4 0.002563 0.214369 0.846679
O O5 0.318851 0.285876 0.432970
O O6 0.582043 0.626714 0.224467
O O7 0.806818 0.502610 0.123519
O O8 0.391204 0.899279 0.700930
O O9 0.840574 0.990711 0.693936
O O10 0.500000 0.500000 0.500000
O O11 0.786907 0.644241 0.872384
O O12 0.000000 0.000000 0.500000
#
# Coordination Sequence:
#
# PCOD9067537 Si02
#       6
#     2   2   2   2   1   2
#     4  11  26  48  78 114 155 207 269 333 401 473
#     4  12  26  47  77 112 160 210 261 330 399 477
#     4  12  27  48  78 114 159 206 267 325 400 475
#     4  11  25  50  76 114 155 209 268 333 401 475
#     4  12  26  46  78 110 160 208 262 324 398 474
#     4  12  27  48  73 113 157 212 262 324 390 480
#
# _framework density 26.922886999999999
#
# number of rings (size 3 to 8) (size 9 to 14) (size 15 to 20)
#    0.000    0.364    5.455    2.182    2.545    2.909 
#    0.000    0.000    0.000    0.000    0.000    0.000 
#    0.000    0.000    0.000    0.000    0.000    0.000 
#
# Total GULP energy -61408.779634 kJ/mol
# GULP energy per Si atom -5582.616330 kJ/mol
# Density = 2.686161 g / cm^3
# Si number density = 26.922887 Si / 1000 Ang^3
#
#
#
# Elastic Constant Matrix: (Units=GPa)
#
#
# Indices 1 2 3 4 5 6 
#
# 1 85.4622 36.2330 40.7411 -1.7010 0.2548 -2.1073
# 2 36.2330 161.0086 53.2368 7.9070 4.2923 -17.4631
# 3 40.7411 53.2368 213.0102 1.2053 6.3443 -10.1099
# 4 -1.7010 7.9070 1.2053 61.5422 -7.6504 13.9366
# 5 0.2548 4.2923 6.3443 -7.6504 25.9558 6.4908
# 6 -2.1073 -17.4631 -10.1099 13.9366 6.4908 51.0186
#
#
#
# Elastic Compliance Matrix: (Units=1/GPa)
#
#
# Indices 1 2 3 4 5 6 
#
# 1 0.013813 -0.002657 -0.002090 0.001241 0.001502 -0.001284
# 2 -0.002657 0.007706 -0.001187 -0.002046 -0.002349 0.003150
# 3 -0.002090 -0.001187 0.005479 -0.000395 -0.001461 0.000887
# 4 0.001241 -0.002046 -0.000395 0.019091 0.007783 -0.006933
# 5 0.001502 -0.002349 -0.001461 0.007783 0.043733 -0.008722
# 6 -0.001284 0.003150 0.000887 -0.006933 -0.008722 0.023805
#
#
# Mechanical properties :
#
#
# Convention : Reuss Voigt Hill
#
# Bulk Modulus (GPa) = 66.09908 79.98921 73.04414
# Shear Modulus (GPa) = 38.30273 49.65467 43.97870
#
# Velocity S-wave (km/s) = 3.77594 4.29922 4.04605
# Velocity P-wave (km/s) = 6.60415 7.37695 7.00122
#
# Compressibility (1/GPa) = 0.01512880
#
# Stress axis : x y z
#
# Youngs Moduli (GPa) = 72.39632 129.76895 182.52089
#
# Poissons Ratio (x) = 0.34485 0.38154
# Poissons Ratio (y) = 0.19239 0.21658
# Poissons Ratio (z) = 0.15134 0.15398
#
# Static dielectric constant tensor:
#      x y z
#    x 2.146140 -0.115900 0.060010 
#    y -0.115900 3.167360 -1.039870 
#    z 0.060010 -1.039870 3.246490 
# 
# From -- ./inp_files/481894.got.cif
#   From: 2010.05.17/outbox.cif.g08.bks.cpg/sg2_241_cif.got.tgz:481894.got - 2010.06.03 11:33:40.
