data_PCOD9067307
_publ_section_title
;
Structure prediction by ZEFSAII (Michael W. Deem and Ramdas Pophale) SiO2 
 PCOD9067307
Probable space group: P -1
;
_chemical_formula_sum "Si O2"
_cell_formula_units_Z 13
_cell_length_a 12.034971
_cell_length_b 4.881457
_cell_length_c 9.059109
_cell_angle_alpha 90.664001
_cell_angle_beta 113.004169
_cell_angle_gamma 98.542805
_cell_volume 483.028284
_symmetry_space_group_name_H-M "P -1"
_symmetry_group_IT_number 2
_symmetry_cell_setting 'triclinic'
loop_
_space_group_symop_operation_xyz
x,y,z
-x,-y,-z
loop_
_atom_site_type_symbol
_atom_site_label
_atom_site_fract_x
_atom_site_fract_y
_atom_site_fract_z
Si Si1 0.614314 0.246199 0.045451
Si Si2 0.492000 0.538813 0.731638
Si Si3 0.092656 0.240478 0.131245
Si Si4 0.869516 0.404855 0.128038
Si Si5 0.500000 0.000000 0.500000
Si Si6 0.092214 0.278038 0.569597
Si Si7 0.295622 0.138674 0.450102
O O1 0.606635 0.399815 0.198644
O O2 0.749781 0.179722 0.095893
O O3 0.587729 0.426824 0.890458
O O4 0.500000 0.000000 0.000000
O O5 0.541631 0.813718 0.666427
O O6 0.436411 0.289193 0.584880
O O7 0.211254 0.164570 0.267108
O O8 0.003179 0.325490 0.209932
O O9 0.131925 0.484577 0.037717
O O10 0.000000 0.000000 0.000000
O O11 0.862851 0.650846 0.240214
O O12 0.650182 0.145330 0.546211
O O13 0.209081 0.227442 0.532671
O O14 0.000000 0.500000 0.500000
O O15 0.000000 0.000000 0.500000
#
# Coordination Sequence:
#
# PCOD9067307 Si02
#       7
#     2   2   2   2   1   2   2
#     4  11  25  48  78 115 160 215 280 351 427 505
#     4  11  26  47  73 112 155 214 280 339 415 503
#     4  11  26  46  76 117 159 213 273 356 433 511
#     4  11  25  48  77 113 164 212 283 351 439 509
#     4  12  28  46  76 114 166 222 270 348 408 522
#     4  12  27  49  83 120 161 217 281 358 427 521
#     4  12  26  48  77 112 161 212 285 338 430 496
#
# _framework density 26.913536000000001
#
# number of rings (size 3 to 8) (size 9 to 14) (size 15 to 20)
#    0.000    0.615    3.077    3.231    2.154    9.846 
#    0.000    0.000    0.000    0.000    0.000    0.000 
#    0.000    0.000    0.000    0.000    0.000    0.000 
#
# Total GULP energy -72460.704562 kJ/mol
# GULP energy per Si atom -5573.900351 kJ/mol
# Density = 2.685228 g / cm^3
# Si number density = 26.913536 Si / 1000 Ang^3
#
#
#
# Elastic Constant Matrix: (Units=GPa)
#
#
# Indices 1 2 3 4 5 6 
#
# 1 258.0381 41.2021 75.9802 -13.6956 35.1522 -21.0986
# 2 41.2021 108.9901 42.3735 -5.4759 7.1565 5.5630
# 3 75.9802 42.3735 154.1800 -5.8197 -7.4988 -4.9948
# 4 -13.6956 -5.4759 -5.8197 42.1589 -7.4462 8.1528
# 5 35.1522 7.1565 -7.4988 -7.4462 44.1527 -0.4480
# 6 -21.0986 5.5630 -4.9948 8.1528 -0.4480 39.1703
#
#
#
# Elastic Compliance Matrix: (Units=1/GPa)
#
#
# Indices 1 2 3 4 5 6 
#
# 1 0.005705 -0.000936 -0.002699 -0.000038 -0.004827 0.002814
# 2 -0.000936 0.010818 -0.002622 0.001011 -0.001309 -0.002600
# 3 -0.002699 -0.002622 0.008766 0.000746 0.004188 -0.000071
# 4 -0.000038 0.001011 0.000746 0.025737 0.004279 -0.005377
# 5 -0.004827 -0.001309 0.004188 0.004279 0.028112 -0.002449
# 6 0.002814 -0.002600 -0.000071 -0.005377 -0.002449 0.028497
#
#
# Mechanical properties :
#
#
# Convention : Reuss Voigt Hill
#
# Bulk Modulus (GPa) = 78.27516 93.36886 85.82201
# Shear Modulus (GPa) = 40.19047 49.20652 44.69849
#
# Velocity S-wave (km/s) = 3.86854 4.28052 4.07974
# Velocity P-wave (km/s) = 7.00723 7.69402 7.35864
#
# Compressibility (1/GPa) = 0.01277545
#
# Stress axis : x y z
#
# Youngs Moduli (GPa) = 175.27310 92.44140 114.07414
#
# Poissons Ratio (x) = 0.08652 0.30793
# Poissons Ratio (y) = 0.16405 0.29905
# Poissons Ratio (z) = 0.47313 0.24234
#
# Static dielectric constant tensor:
#      x y z
#    x 2.279040 -0.773910 -0.016790 
#    y -0.773910 1.056030 0.631930 
#    z -0.016790 0.631930 1.965810 
# 
# From -- ./inp_files/229173.got.cif
#   From: 2010.05.17/outbox.cif.g08.bks.cpg/sg2_115_cif.got.tgz:229173.got - 2010.06.03 11:33:40.
