data_PCOD9067985
_publ_section_title
;
Structure prediction by ZEFSAII (Michael W. Deem and Ramdas Pophale) SiO2 
 PCOD9067985
Probable space group: P -1
;
_chemical_formula_sum "Si O2"
_cell_formula_units_Z 14
_cell_length_a 13.449293
_cell_length_b 11.626354
_cell_length_c 9.866603
_cell_angle_alpha 129.279801
_cell_angle_beta 145.857725
_cell_angle_gamma 45.702691
_cell_volume 613.888723
_symmetry_space_group_name_H-M "P -1"
_symmetry_group_IT_number 2
_symmetry_cell_setting 'triclinic'
loop_
_space_group_symop_operation_xyz
x,y,z
-x,-y,-z
loop_
_atom_site_type_symbol
_atom_site_label
_atom_site_fract_x
_atom_site_fract_y
_atom_site_fract_z
Si Si1 0.326322 0.173235 0.799922
Si Si2 0.168586 0.360727 0.502758
Si Si3 0.606507 0.814122 0.819606
Si Si4 0.069705 0.200384 0.028287
Si Si5 0.383653 0.550634 0.767540
Si Si6 0.949332 0.095026 0.368159
Si Si7 0.624963 0.379494 0.663703
O O1 0.313596 0.267646 0.717132
O O2 0.132848 0.136870 0.567987
O O3 0.515709 0.007581 0.879116
O O4 0.339533 0.254714 0.018601
O O5 0.117404 0.232663 0.260326
O O6 0.245148 0.453471 0.549803
O O7 0.000000 0.500000 0.500000
O O8 0.789098 0.764309 0.890883
O O9 0.440552 0.769734 0.533327
O O10 0.849264 0.321475 0.848291
O O11 0.080063 0.023690 0.865828
O O12 0.242693 0.737416 0.719509
O O13 0.547638 0.471530 0.783347
O O14 0.500000 0.500000 0.000000
O O15 0.000000 0.000000 0.500000
O O16 0.500000 0.500000 0.500000
#
# Coordination Sequence:
#
# PCOD9067985 Si02
#       7
#     2   2   2   2   2   2   2
#     4  11  26  46  77 109 155 195 258 315 389 454
#     4  12  27  49  73 112 155 202 245 319 388 455
#     4  11  26  48  75 113 147 204 257 317 377 463
#     4  12  27  50  78 109 156 201 258 313 382 463
#     4  12  29  48  74 114 161 197 254 323 393 450
#     4  12  25  49  79 113 151 206 258 317 379 463
#     4  12  28  46  76 113 149 203 261 319 380 454
#
# _framework density 22.805437999999999
#
# number of rings (size 3 to 8) (size 9 to 14) (size 15 to 20)
#    0.000    0.286    5.714    1.714    6.000    2.857 
#    0.000    0.000    0.000    0.000    0.000    0.000 
#    0.000    0.000    0.000    0.000    0.000    0.000 
#
# Total GULP energy -78349.819664 kJ/mol
# GULP energy per Si atom -5596.415690 kJ/mol
# Density = 2.275353 g / cm^3
# Si number density = 22.805438 Si / 1000 Ang^3
#
#
#
# Elastic Constant Matrix: (Units=GPa)
#
#
# Indices 1 2 3 4 5 6 
#
# 1 120.6573 44.3218 38.2377 -9.8969 -8.7820 -24.0632
# 2 44.3218 112.9024 43.5297 -8.8508 -18.0433 -10.6595
# 3 38.2377 43.5297 112.4324 2.7719 -25.1381 -18.0693
# 4 -9.8969 -8.8508 2.7719 43.1965 -6.7937 -1.6581
# 5 -8.7820 -18.0433 -25.1381 -6.7937 49.3300 -1.6577
# 6 -24.0632 -10.6595 -18.0693 -1.6581 -1.6577 44.2946
#
#
#
# Elastic Compliance Matrix: (Units=1/GPa)
#
#
# Indices 1 2 3 4 5 6 
#
# 1 0.011112 -0.002961 -0.001842 0.002305 0.000431 0.004675
# 2 -0.002961 0.011794 -0.003010 0.002344 0.002582 0.000186
# 3 -0.001842 -0.003010 0.012350 -0.000935 0.004852 0.003460
# 4 0.002305 0.002344 -0.000935 0.024995 0.004319 0.002532
# 5 0.000431 0.002582 0.004852 0.004319 0.024492 0.003913
# 6 0.004675 0.000186 0.003460 0.002532 0.003913 0.026813
#
#
# Mechanical properties :
#
#
# Convention : Reuss Voigt Hill
#
# Bulk Modulus (GPa) = 50.94080 66.46341 58.70210
# Shear Modulus (GPa) = 37.39020 42.02440 39.70730
#
# Velocity S-wave (km/s) = 4.05350 4.29737 4.17722
# Velocity P-wave (km/s) = 6.65533 7.33690 7.00441
#
# Compressibility (1/GPa) = 0.01963063
#
# Stress axis : x y z
#
# Youngs Moduli (GPa) = 89.99111 84.78805 80.97321
#
# Poissons Ratio (x) = 0.25108 0.14914
# Poissons Ratio (y) = 0.26648 0.24371
# Poissons Ratio (z) = 0.16575 0.25519
#
# Static dielectric constant tensor:
#      x y z
#    x 1.847420 0.042290 -0.012610 
#    y 0.042290 1.860200 0.069080 
#    z -0.012610 0.069080 1.973260 
# 
# From -- ./inp_files/178535.got.cif
#   From: 2010.05.17/outbox.cif.g08.bks.cpg/sg2_90_cif.got.tgz:178535.got - 2010.06.03 11:33:40.
