data_PCOD9067208
_publ_section_title
;
Structure prediction by ZEFSAII (Michael W. Deem and Ramdas Pophale) SiO2 
 PCOD9067208
Probable space group: P -1
;
_chemical_formula_sum "Si O2"
_cell_formula_units_Z 11
_cell_length_a 14.292864
_cell_length_b 11.668851
_cell_length_c 6.593180
_cell_angle_alpha 52.282923
_cell_angle_beta 117.834334
_cell_angle_gamma 149.208154
_cell_volume 440.602853
_symmetry_space_group_name_H-M "P -1"
_symmetry_group_IT_number 2
_symmetry_cell_setting 'triclinic'
loop_
_space_group_symop_operation_xyz
x,y,z
-x,-y,-z
loop_
_atom_site_type_symbol
_atom_site_label
_atom_site_fract_x
_atom_site_fract_y
_atom_site_fract_z
Si Si1 0.050551 0.204691 0.444393
Si Si2 0.412695 0.480414 0.629476
Si Si3 0.877130 0.453535 0.128171
Si Si4 0.250187 0.072624 0.223915
Si Si5 0.500000 0.000000 0.000000
Si Si6 0.772441 0.269115 0.629673
O O1 0.269845 0.443328 0.455637
O O2 0.028112 0.307023 0.149491
O O3 0.000000 0.000000 0.500000
O O4 0.926369 0.081986 0.651478
O O5 0.500000 0.500000 0.500000
O O6 0.578308 0.727898 0.662632
O O7 0.297145 0.239798 0.912665
O O8 0.799142 0.409398 0.318913
O O9 0.040023 0.524783 0.271093
O O10 0.706343 0.205310 0.094413
O O11 0.240211 0.904624 0.294617
O O12 0.404504 0.904509 0.228654
#
# Coordination Sequence:
#
# PCOD9067208 Si02
#       6
#     2   2   2   2   1   2
#     4  12  26  47  76 108 148 196 242 304 372 436
#     4  11  25  48  73 113 147 198 246 302 371 441
#     4  11  29  48  77 110 150 197 250 311 369 450
#     4  11  27  46  77 107 151 195 246 308 365 451
#     4  12  28  50  76 108 148 198 252 308 370 442
#     4  11  28  51  74 111 149 198 248 309 379 434
#
# _framework density 24.965793000000001
#
# number of rings (size 3 to 8) (size 9 to 14) (size 15 to 20)
#    0.000    0.727    1.818    2.727   12.727    1.455 
#    0.000    0.000    0.000    0.000    0.000    0.000 
#    0.000    0.000    0.000    0.000    0.000    0.000 
#
# Total GULP energy -61455.841350 kJ/mol
# GULP energy per Si atom -5586.894668 kJ/mol
# Density = 2.490897 g / cm^3
# Si number density = 24.965793 Si / 1000 Ang^3
#
#
#
# Elastic Constant Matrix: (Units=GPa)
#
#
# Indices 1 2 3 4 5 6 
#
# 1 135.0808 41.0822 74.2012 -29.2954 -63.4956 3.2731
# 2 41.0822 116.0416 12.7149 27.4465 -3.8577 6.6150
# 3 74.2012 12.7149 156.3870 -4.8174 -37.2553 0.1082
# 4 -29.2954 27.4465 -4.8174 38.0237 10.5620 1.6138
# 5 -63.4956 -3.8577 -37.2553 10.5620 59.5610 -15.0158
# 6 3.2731 6.6150 0.1082 1.6138 -15.0158 52.5474
#
#
#
# Elastic Compliance Matrix: (Units=1/GPa)
#
#
# Indices 1 2 3 4 5 6 
#
# 1 0.046113 -0.024331 -0.009970 0.041328 0.036372 0.009335
# 2 -0.024331 0.023577 0.004493 -0.030046 -0.017682 -0.005592
# 3 -0.009970 0.004493 0.009836 -0.008902 -0.002725 -0.000470
# 4 0.041328 -0.030046 -0.008902 0.071354 0.025483 0.006317
# 5 0.036372 -0.017682 -0.002725 0.025483 0.051715 0.013961
# 6 0.009335 -0.005592 -0.000470 0.006317 0.013961 0.022949
#
#
# Mechanical properties :
#
#
# Convention : Reuss Voigt Hill
#
# Bulk Modulus (GPa) = 50.22239 73.72288 61.97264
# Shear Modulus (GPa) = 17.13531 48.66050 32.89790
#
# Velocity S-wave (km/s) = 2.62267 4.41964 3.63398
# Velocity P-wave (km/s) = 5.41584 7.45908 6.51802
#
# Compressibility (1/GPa) = 0.01991144
#
# Stress axis : x y z
#
# Youngs Moduli (GPa) = 21.68605 42.41511 101.66272
#
# Poissons Ratio (x) = 1.03199 1.01354
# Poissons Ratio (y) = 0.52764 -0.45681
# Poissons Ratio (z) = 0.21620 -0.19059
#
# Static dielectric constant tensor:
#      x y z
#    x 1.928620 -0.028210 0.022050 
#    y -0.028210 1.998930 -0.017320 
#    z 0.022050 -0.017320 2.043250 
# 
# From -- ./inp_files/58182.got.cif
#   From: 2010.05.17/outbox.cif.g08.bks.cpg/sg2_30_cif.got.tgz:58182.got - 2010.06.03 11:33:40.
