data_PCOD9067881
_publ_section_title
;
Structure prediction by ZEFSAII (Michael W. Deem and Ramdas Pophale) SiO2 
 PCOD9067881
Probable space group: P -1
;
_chemical_formula_sum "Si O2"
_cell_formula_units_Z 15
_cell_length_a 6.702389
_cell_length_b 8.570127
_cell_length_c 11.492233
_cell_angle_alpha 102.557703
_cell_angle_beta 98.212594
_cell_angle_gamma 80.133262
_cell_volume 630.957444
_symmetry_space_group_name_H-M "P -1"
_symmetry_group_IT_number 2
_symmetry_cell_setting 'triclinic'
loop_
_space_group_symop_operation_xyz
x,y,z
-x,-y,-z
loop_
_atom_site_type_symbol
_atom_site_label
_atom_site_fract_x
_atom_site_fract_y
_atom_site_fract_z
Si Si1 0.374066 0.688914 0.094661
Si Si2 0.500000 0.500000 0.500000
Si Si3 0.290848 0.338727 0.047245
Si Si4 0.058408 0.866255 0.654427
Si Si5 0.131849 0.421041 0.299455
Si Si6 0.020420 0.088325 0.894962
Si Si7 0.281681 0.351235 0.685547
Si Si8 0.722987 0.995430 0.471315
O O1 0.269659 0.528118 0.044135
O O2 0.206695 0.832478 0.145469
O O3 0.550744 0.652189 0.199379
O O4 0.479179 0.724673 0.987036
O O5 0.306658 0.489824 0.395539
O O6 0.370078 0.426420 0.589156
O O7 0.233103 0.336684 0.177498
O O8 0.152212 0.230771 0.949237
O O9 0.964286 0.709624 0.653169
O O10 0.884232 0.978913 0.585970
O O11 0.111601 0.957782 0.787912
O O12 0.250873 0.849436 0.580707
O O13 0.935031 0.551535 0.277801
O O14 0.000000 0.000000 0.000000
O O15 0.241060 0.169184 0.626280
O O16 0.500000 0.000000 0.500000
#
# Coordination Sequence:
#
# PCOD9067881 Si02
#       8
#     2   1   2   2   2   2   2   2
#     4  11  27  46  74 109 144 196 251 300 365 436
#     4  12  26  46  74 108 148 188 244 300 372 432
#     4  11  26  46  74 105 148 196 246 302 363 436
#     4  11  26  46  71 106 143 196 245 305 365 435
#     4  12  27  48  75 110 147 189 249 309 369 437
#     4  12  26  48  74 105 151 194 243 307 366 437
#     4  12  27  46  78 108 145 197 245 308 362 448
#     4  11  26  47  72 104 148 194 242 301 371 439
#
# _framework density 23.773392999999999
#
# number of rings (size 3 to 8) (size 9 to 14) (size 15 to 20)
#    0.000    0.533    4.000    2.400    9.333    1.600 
#    2.400    0.000    0.000    0.000    0.000    0.000 
#    0.000    0.000    0.000    0.000    0.000    0.000 
#
# Total GULP energy -83774.005743 kJ/mol
# GULP energy per Si atom -5584.933716 kJ/mol
# Density = 2.371928 g / cm^3
# Si number density = 23.773393 Si / 1000 Ang^3
#
#
#
# Elastic Constant Matrix: (Units=GPa)
#
#
# Indices 1 2 3 4 5 6 
#
# 1 116.2718 35.9850 31.9740 -5.6431 6.5376 35.8530
# 2 35.9850 60.4130 25.3492 0.2521 5.5753 29.5573
# 3 31.9740 25.3492 85.5945 1.6458 10.9132 19.3035
# 4 -5.6431 0.2521 1.6458 34.1058 13.3946 -3.1304
# 5 6.5376 5.5753 10.9132 13.3946 48.6409 -9.9824
# 6 35.8530 29.5573 19.3035 -3.1304 -9.9824 36.3246
#
#
#
# Elastic Compliance Matrix: (Units=1/GPa)
#
#
# Indices 1 2 3 4 5 6 
#
# 1 0.013759 -0.000531 -0.001323 0.003115 -0.005138 -0.013589
# 2 -0.000531 0.031351 -0.002096 0.000771 -0.008637 -0.026179
# 3 -0.001323 -0.002096 0.014649 0.000169 -0.004125 -0.005893
# 4 0.003115 0.000771 0.000169 0.033631 -0.010586 -0.003802
# 5 -0.005138 -0.008637 -0.004125 -0.010586 0.030549 0.021774
# 6 -0.013589 -0.026179 -0.005893 -0.003802 0.021774 0.071032
#
#
# Mechanical properties :
#
#
# Convention : Reuss Voigt Hill
#
# Bulk Modulus (GPa) = 19.28254 49.87728 34.57991
# Shear Modulus (GPa) = 22.71118 35.07900 28.89509
#
# Velocity S-wave (km/s) = 3.09418 3.84547 3.49010
# Velocity P-wave (km/s) = 4.57098 6.38300 5.55142
#
# Compressibility (1/GPa) = 0.05186038
#
# Stress axis : x y z
#
# Youngs Moduli (GPa) = 72.68032 31.89733 68.26209
#
# Poissons Ratio (x) = 0.01693 0.09028
# Poissons Ratio (y) = 0.03858 0.14307
# Poissons Ratio (z) = 0.09612 0.06685
#
# Static dielectric constant tensor:
#      x y z
#    x 1.927870 -0.005150 -0.074080 
#    y -0.005150 1.908260 -0.022390 
#    z -0.074080 -0.022390 1.917800 
# 
# From -- ./inp_files/360852.got.cif
#   From: 2010.05.17/outbox.cif.g08.bks.cpg/sg2_181_cif.got.tgz:360852.got - 2010.06.03 11:33:40.
