data_PCOD9067353
_publ_section_title
;
Structure prediction by ZEFSAII (Michael W. Deem and Ramdas Pophale) SiO2 
 PCOD9067353
Probable space group: P -1
;
_chemical_formula_sum "Si O2"
_cell_formula_units_Z 16
_cell_length_a 8.344383
_cell_length_b 9.024441
_cell_length_c 12.292116
_cell_angle_alpha 93.053232
_cell_angle_beta 128.731383
_cell_angle_gamma 77.509357
_cell_volume 700.884762
_symmetry_space_group_name_H-M "P -1"
_symmetry_group_IT_number 2
_symmetry_cell_setting 'triclinic'
loop_
_space_group_symop_operation_xyz
x,y,z
-x,-y,-z
loop_
_atom_site_type_symbol
_atom_site_label
_atom_site_fract_x
_atom_site_fract_y
_atom_site_fract_z
Si Si1 0.328755 0.453610 0.847810
Si Si2 0.956118 0.837637 0.953546
Si Si3 0.055654 0.858079 0.390085
Si Si4 0.720802 0.420054 0.637481
Si Si5 0.595999 0.267631 0.783197
Si Si6 0.282850 0.133651 0.923689
Si Si7 0.899870 0.692275 0.708848
Si Si8 0.280953 0.100644 0.558832
O O1 0.416373 0.402893 0.762714
O O2 0.298145 0.292804 0.879322
O O3 0.132023 0.599702 0.766741
O O4 0.500000 0.500000 0.000000
O O5 0.879271 0.815182 0.800006
O O6 0.801678 0.821446 0.987645
O O7 0.198935 0.739349 0.055409
O O8 0.000000 0.000000 0.000000
O O9 0.141162 0.679420 0.399635
O O10 0.900268 0.920863 0.224878
O O11 0.906905 0.872781 0.432073
O O12 0.249480 0.941498 0.488053
O O13 0.500000 0.500000 0.500000
O O14 0.686809 0.304197 0.709191
O O15 0.819792 0.554526 0.725622
O O16 0.489114 0.124319 0.711623
O O17 0.500000 0.000000 0.000000
O O18 0.771052 0.772187 0.553114
#
# Coordination Sequence:
#
# PCOD9067353 Si02
#       8
#     2   2   2   2   2   2   2   2
#     4  12  26  44  73 107 141 186 240 290 357 423
#     4  12  27  46  73 106 143 183 241 295 355 421
#     4  11  25  49  70 104 143 189 238 292 354 427
#     4  12  26  45  69 105 142 185 233 294 361 418
#     4  12  24  46  72 103 143 183 235 300 351 419
#     4  12  26  49  74 101 146 190 238 293 353 423
#     4  12  26  47  72 107 143 191 233 294 361 424
#     4  11  26  46  75 101 144 188 237 289 359 427
#
# _framework density 22.828288000000001
#
# number of rings (size 3 to 8) (size 9 to 14) (size 15 to 20)
#    0.000    0.250    6.250    1.500    5.250    3.500 
#    2.250    0.000    0.000    0.000    0.000    0.000 
#    0.000    0.000    0.000    0.000    0.000    0.000 
#
# Total GULP energy -89328.841309 kJ/mol
# GULP energy per Si atom -5583.052582 kJ/mol
# Density = 2.277633 g / cm^3
# Si number density = 22.828288 Si / 1000 Ang^3
#
#
#
# Elastic Constant Matrix: (Units=GPa)
#
#
# Indices 1 2 3 4 5 6 
#
# 1 82.2896 16.9047 11.0429 5.6863 -6.0404 -10.6980
# 2 16.9047 76.6431 -4.6808 17.3218 -4.4485 -7.8769
# 3 11.0429 -4.6808 58.8339 12.0320 0.9662 -16.6170
# 4 5.6863 17.3218 12.0320 35.9007 -1.7956 5.3959
# 5 -6.0404 -4.4485 0.9662 -1.7956 34.9124 3.7246
# 6 -10.6980 -7.8769 -16.6170 5.3959 3.7246 46.7156
#
#
#
# Elastic Compliance Matrix: (Units=1/GPa)
#
#
# Indices 1 2 3 4 5 6 
#
# 1 0.013389 -0.002769 -0.002252 -0.000189 0.001838 0.001673
# 2 -0.002769 0.016898 0.005472 -0.010327 0.000424 0.005320
# 3 -0.002252 0.005472 0.023139 -0.011664 -0.002015 0.010145
# 4 -0.000189 -0.010327 -0.011664 0.038465 0.002077 -0.010542
# 5 0.001838 0.000424 -0.002015 0.002077 0.029478 -0.002815
# 6 0.001673 0.005320 0.010145 -0.010542 -0.002815 0.027737
#
#
# Mechanical properties :
#
#
# Convention : Reuss Voigt Hill
#
# Bulk Modulus (GPa) = 18.40730 29.36670 23.88700
# Shear Modulus (GPa) = 30.06370 36.47239 33.26804
#
# Velocity S-wave (km/s) = 3.63292 4.00144 3.82162
# Velocity P-wave (km/s) = 5.06738 5.85156 5.47353
#
# Compressibility (1/GPa) = 0.05432626
#
# Stress axis : x y z
#
# Youngs Moduli (GPa) = 74.68904 59.17954 43.21706
#
# Poissons Ratio (x) = 0.16388 0.09733
# Poissons Ratio (y) = 0.20683 -0.23647
# Poissons Ratio (z) = 0.16821 -0.32382
#
# Static dielectric constant tensor:
#      x y z
#    x 1.770950 0.173310 -0.172480 
#    y 0.173310 1.558170 0.335900 
#    z -0.172480 0.335900 1.482470 
# 
# From -- ./inp_files/382436.got.cif
#   From: 2010.05.17/outbox.cif.g08.bks.cpg/sg2_192_cif.got.tgz:382436.got - 2010.06.03 11:33:40.
