data_PCOD9067503
_publ_section_title
;
Structure prediction by ZEFSAII (Michael W. Deem and Ramdas Pophale) SiO2 
 PCOD9067503
Probable space group: P -1
;
_chemical_formula_sum "Si O2"
_cell_formula_units_Z 13
_cell_length_a 9.637260
_cell_length_b 10.114366
_cell_length_c 8.175260
_cell_angle_alpha 58.296331
_cell_angle_beta 134.444561
_cell_angle_gamma 109.195220
_cell_volume 483.012383
_symmetry_space_group_name_H-M "P -1"
_symmetry_group_IT_number 2
_symmetry_cell_setting 'triclinic'
loop_
_space_group_symop_operation_xyz
x,y,z
-x,-y,-z
loop_
_atom_site_type_symbol
_atom_site_label
_atom_site_fract_x
_atom_site_fract_y
_atom_site_fract_z
Si Si1 0.765611 0.763749 0.672090
Si Si2 0.950553 0.298604 0.501685
Si Si3 0.500000 0.500000 0.500000
Si Si4 0.790248 0.193912 0.907763
Si Si5 0.739528 0.491985 0.471190
Si Si6 0.679709 0.080160 0.237161
Si Si7 0.707675 0.883123 0.897754
O O1 0.682239 0.604752 0.654609
O O2 0.666157 0.829786 0.715095
O O3 0.992745 0.764055 0.901936
O O4 0.723090 0.895655 0.415413
O O5 0.787688 0.398515 0.406768
O O6 0.853737 0.163804 0.415017
O O7 0.068871 0.413813 0.412158
O O8 0.116480 0.227006 0.808924
O O9 0.537837 0.582155 0.284024
O O10 0.695432 0.123879 0.033342
O O11 0.689875 0.359019 0.656581
O O12 0.776095 0.060012 0.847463
O O13 0.482542 0.123819 0.143968
#
# Coordination Sequence:
#
# PCOD9067503 Si02
#       7
#     2   2   1   2   2   2   2
#     4  12  25  48  74 108 148 195 241 306 365 433
#     4  11  25  50  74 107 149 195 243 297 371 438
#     4  12  28  44  74 104 152 188 244 300 368 424
#     4  12  25  47  77 110 145 192 245 305 370 427
#     4  11  26  48  70 105 152 191 242 302 361 440
#     4  12  26  44  79 111 145 189 248 311 355 435
#     4  12  25  48  80 107 144 193 250 296 368 438
#
# _framework density 26.914425000000001
#
# number of rings (size 3 to 8) (size 9 to 14) (size 15 to 20)
#    0.000    0.308    3.077    5.538    4.308    2.462 
#    0.000    2.308    0.000    0.000    0.000    0.000 
#    0.000    0.000    0.000    0.000    0.000    0.000 
#
# Total GULP energy -72813.775370 kJ/mol
# GULP energy per Si atom -5601.059644 kJ/mol
# Density = 2.685317 g / cm^3
# Si number density = 26.914425 Si / 1000 Ang^3
#
#
#
# Elastic Constant Matrix: (Units=GPa)
#
#
# Indices 1 2 3 4 5 6 
#
# 1 186.5227 35.4603 18.2098 -2.6815 -9.0748 21.0283
# 2 35.4603 171.7840 22.4723 16.5816 -15.3662 -10.5412
# 3 18.2098 22.4723 66.9006 -0.0883 -6.3094 7.4502
# 4 -2.6815 16.5816 -0.0883 34.4799 7.5046 3.9307
# 5 -9.0748 -15.3662 -6.3094 7.5046 33.5933 -2.4212
# 6 21.0283 -10.5412 7.4502 3.9307 -2.4212 48.0834
#
#
#
# Elastic Compliance Matrix: (Units=1/GPa)
#
#
# Indices 1 2 3 4 5 6 
#
# 1 0.006083 -0.001443 -0.000812 0.001437 0.000297 -0.002953
# 2 -0.001443 0.007412 -0.002086 -0.004900 0.003932 0.003178
# 3 -0.000812 -0.002086 0.016304 0.000959 0.001484 -0.002632
# 4 0.001437 -0.004900 0.000959 0.034164 -0.009675 -0.005131
# 5 0.000297 0.003932 0.001484 -0.009675 0.034305 0.003021
# 6 -0.002953 0.003178 -0.002632 -0.005131 0.003021 0.023765
#
#
# Mechanical properties :
#
#
# Convention : Reuss Voigt Hill
#
# Bulk Modulus (GPa) = 47.35855 64.16580 55.76217
# Shear Modulus (GPa) = 36.29682 46.50232 41.39957
#
# Velocity S-wave (km/s) = 3.67631 4.16117 3.92623
# Velocity P-wave (km/s) = 5.97114 6.85416 6.42783
#
# Compressibility (1/GPa) = 0.02111551
#
# Stress axis : x y z
#
# Youngs Moduli (GPa) = 164.39519 134.92103 61.33517
#
# Poissons Ratio (x) = 0.19466 0.04982
# Poissons Ratio (y) = 0.23718 0.12797
# Poissons Ratio (z) = 0.13354 0.28150
#
# Static dielectric constant tensor:
#      x y z
#    x 2.193930 -0.051490 -0.024460 
#    y -0.051490 2.018120 -0.074280 
#    z -0.024460 -0.074280 2.141240 
# 
# From -- ./inp_files/174653.got.cif
#   From: 2010.05.17/outbox.cif.g08.bks.cpg/sg2_88_cif.got.tgz:174653.got - 2010.06.03 11:33:40.
