data_PCOD9067783
_publ_section_title
;
Structure prediction by ZEFSAII (Michael W. Deem and Ramdas Pophale) SiO2 
 PCOD9067783
Probable space group: P -1
;
_chemical_formula_sum "Si O2"
_cell_formula_units_Z 14
_cell_length_a 11.859111
_cell_length_b 17.177050
_cell_length_c 9.321197
_cell_angle_alpha 54.800450
_cell_angle_beta 74.853727
_cell_angle_gamma 31.166441
_cell_volume 671.431171
_symmetry_space_group_name_H-M "P -1"
_symmetry_group_IT_number 2
_symmetry_cell_setting 'triclinic'
loop_
_space_group_symop_operation_xyz
x,y,z
-x,-y,-z
loop_
_atom_site_type_symbol
_atom_site_label
_atom_site_fract_x
_atom_site_fract_y
_atom_site_fract_z
Si Si1 0.190587 0.449619 0.458122
Si Si2 0.099162 0.160917 0.754122
Si Si3 0.604148 0.859207 0.744388
Si Si4 0.751937 0.277583 0.568597
Si Si5 0.141360 0.517364 0.064954
Si Si6 0.258093 0.641416 0.836498
Si Si7 0.219499 0.968301 0.213116
O O1 0.161089 0.500020 0.248248
O O2 0.492313 0.209690 0.645560
O O3 0.000000 0.500000 0.500000
O O4 0.100706 0.605350 0.417154
O O5 0.993869 0.156683 0.687109
O O6 0.369685 0.005240 0.772858
O O7 0.132070 0.091939 0.973067
O O8 0.717753 0.678828 0.833226
O O9 0.500000 0.000000 0.500000
O O10 0.842101 0.733772 0.883230
O O11 0.500000 0.500000 0.500000
O O12 0.730809 0.321338 0.363094
O O13 0.772868 0.148667 0.707078
O O14 0.267962 0.520035 0.956868
O O15 0.500000 0.500000 0.000000
O O16 0.990713 0.863822 0.769742
#
# Coordination Sequence:
#
# PCOD9067783 Si02
#       7
#     2   2   2   2   2   2   2
#     4  12  26  45  73 104 146 184 238 287 348 423
#     4  12  26  45  73 106 138 186 236 289 353 416
#     4  11  26  45  72 104 142 188 235 290 357 409
#     4  12  26  47  73 103 141 179 236 295 348 419
#     4  11  26  46  69 105 143 184 238 289 347 428
#     4  12  27  47  74 104 142 188 236 288 355 425
#     4  12  27  48  72 103 143 190 231 290 360 414
#
# _framework density 20.850984
#
# number of rings (size 3 to 8) (size 9 to 14) (size 15 to 20)
#    0.000    0.286    2.857    5.143   10.000    3.429 
#    0.000    0.000    0.000    0.000    0.000    0.000 
#    0.000    0.000    0.000    0.000    0.000    0.000 
#
# Total GULP energy -78448.175378 kJ/mol
# GULP energy per Si atom -5603.441098 kJ/mol
# Density = 2.080353 g / cm^3
# Si number density = 20.850984 Si / 1000 Ang^3
#
#
#
# Elastic Constant Matrix: (Units=GPa)
#
#
# Indices 1 2 3 4 5 6 
#
# 1 113.3795 21.0148 33.6742 -15.7147 1.7451 -13.2527
# 2 21.0148 123.9501 45.3129 0.7143 2.6154 -11.9365
# 3 33.6742 45.3129 106.4207 -3.5271 5.3824 -9.1164
# 4 -15.7147 0.7143 -3.5271 37.6157 -4.5472 2.4087
# 5 1.7451 2.6154 5.3824 -4.5472 48.5423 -2.8037
# 6 -13.2527 -11.9365 -9.1164 2.4087 -2.8037 33.5476
#
#
#
# Elastic Compliance Matrix: (Units=1/GPa)
#
#
# Indices 1 2 3 4 5 6 
#
# 1 0.010652 -0.000535 -0.002775 0.004068 0.000509 0.003014
# 2 -0.000535 0.009785 -0.003829 -0.000920 -0.000037 0.002293
# 3 -0.002775 -0.003829 0.012014 -0.000127 -0.000996 0.000732
# 4 0.004068 -0.000920 -0.000127 0.028638 0.002566 -0.000596
# 5 0.000509 -0.000037 -0.000996 0.002566 0.021021 0.001490
# 6 0.003014 0.002293 0.000732 -0.000596 0.001490 0.032181
#
#
# Mechanical properties :
#
#
# Convention : Reuss Voigt Hill
#
# Bulk Modulus (GPa) = 55.03160 60.41711 57.72435
# Shear Modulus (GPa) = 37.13929 40.19100 38.66514
#
# Velocity S-wave (km/s) = 4.22498 4.39513 4.31089
# Velocity P-wave (km/s) = 7.08877 7.40235 7.24726
#
# Compressibility (1/GPa) = 0.01817138
#
# Stress axis : x y z
#
# Youngs Moduli (GPa) = 93.88123 102.19444 83.23516
#
# Poissons Ratio (x) = 0.05471 0.23100
# Poissons Ratio (y) = 0.05026 0.31873
# Poissons Ratio (z) = 0.26055 0.39133
#
# Static dielectric constant tensor:
#      x y z
#    x 1.735610 0.008630 0.005500 
#    y 0.008630 1.719830 -0.024010 
#    z 0.005500 -0.024010 1.704280 
# 
# From -- ./inp_files/39650.got.cif
#   From: 2010.05.17/outbox.cif.g08.bks.cpg/sg2_20_cif.got.tgz:39650.got - 2010.06.03 11:33:40.
