data_PCOD9067861
_publ_section_title
;
Structure prediction by ZEFSAII (Michael W. Deem and Ramdas Pophale) SiO2 
 PCOD9067861
Probable space group: P -1
;
_chemical_formula_sum "Si O2"
_cell_formula_units_Z 12
_cell_length_a 14.376836
_cell_length_b 6.905484
_cell_length_c 9.786234
_cell_angle_alpha 43.709780
_cell_angle_beta 61.159677
_cell_angle_gamma 76.154456
_cell_volume 578.407866
_symmetry_space_group_name_H-M "P -1"
_symmetry_group_IT_number 2
_symmetry_cell_setting 'triclinic'
loop_
_space_group_symop_operation_xyz
x,y,z
-x,-y,-z
loop_
_atom_site_type_symbol
_atom_site_label
_atom_site_fract_x
_atom_site_fract_y
_atom_site_fract_z
Si Si1 0.926960 0.289480 0.265787
Si Si2 0.417014 0.708011 0.691812
Si Si3 0.293533 0.486969 0.625235
Si Si4 0.569631 0.292777 0.850469
Si Si5 0.062495 0.354783 0.416246
Si Si6 0.272937 0.814151 0.969326
O O1 0.811769 0.379843 0.331341
O O2 0.991262 0.315578 0.349764
O O3 0.914564 0.957564 0.399603
O O4 0.000000 0.500000 0.000000
O O5 0.384193 0.598940 0.618562
O O6 0.480667 0.489177 0.831241
O O7 0.500000 0.000000 0.500000
O O8 0.309818 0.751332 0.823477
O O9 0.345529 0.580494 0.393295
O O10 0.262044 0.143322 0.825761
O O11 0.633432 0.240572 0.966734
O O12 0.500000 0.000000 0.000000
O O13 0.169423 0.582571 0.195610
O O14 0.000000 0.500000 0.500000
#
# Coordination Sequence:
#
# PCOD9067861 Si02
#       6
#     2   2   2   2   2   2
#     4  11  26  46  70  99 134 170 219 280 331 392
#     4  12  25  44  68  99 137 178 223 268 328 391
#     4  12  26  45  67 100 136 173 222 276 329 390
#     4  12  25  44  68  97 139 178 219 273 325 389
#     4  11  26  46  70 100 131 172 223 272 334 398
#     4  12  26  44  69  99 133 178 222 270 332 394
#
# _framework density 20.746607000000001
#
# number of rings (size 3 to 8) (size 9 to 14) (size 15 to 20)
#    0.000    0.333    3.333    5.000    4.667    8.000 
#    0.000    0.000    0.000    0.000    0.000    0.000 
#    0.000    0.000    0.000    0.000    0.000    0.000 
#
# Total GULP energy -67150.756675 kJ/mol
# GULP energy per Si atom -5595.896390 kJ/mol
# Density = 2.069939 g / cm^3
# Si number density = 20.746607 Si / 1000 Ang^3
#
#
#
# Elastic Constant Matrix: (Units=GPa)
#
#
# Indices 1 2 3 4 5 6 
#
# 1 67.0021 25.7096 0.1387 -15.7448 1.0259 -13.4210
# 2 25.7096 159.0828 57.1412 -27.4321 -2.5459 -23.6876
# 3 0.1387 57.1412 105.6059 -20.2925 -14.9055 -8.4001
# 4 -15.7448 -27.4321 -20.2925 52.0951 3.2201 2.2974
# 5 1.0259 -2.5459 -14.9055 3.2201 42.3058 0.6147
# 6 -13.4210 -23.6876 -8.4001 2.2974 0.6147 43.2369
#
#
#
# Elastic Compliance Matrix: (Units=1/GPa)
#
#
# Indices 1 2 3 4 5 6 
#
# 1 0.017867 -0.002249 0.002495 0.004996 -0.000136 0.004535
# 2 -0.002249 0.009099 -0.004371 0.002334 -0.001164 0.003330
# 3 0.002495 -0.004371 0.013083 0.003269 0.004027 0.000690
# 4 0.004996 0.002334 0.003269 0.023148 -0.000623 0.002244
# 5 -0.000136 -0.001164 0.004027 -0.000623 0.025040 -0.000220
# 6 0.004535 0.003330 0.000690 0.002244 -0.000220 0.026379
#
#
# Mechanical properties :
#
#
# Convention : Reuss Voigt Hill
#
# Bulk Modulus (GPa) = 31.44826 55.29664 43.37245
# Shear Modulus (GPa) = 37.46267 44.10767 40.78517
#
# Velocity S-wave (km/s) = 4.25399 4.61588 4.43863
# Velocity P-wave (km/s) = 6.27055 7.42426 6.87166
#
# Compressibility (1/GPa) = 0.03179827
#
# Stress axis : x y z
#
# Youngs Moduli (GPa) = 55.96826 109.89661 76.43728
#
# Poissons Ratio (x) = 0.24717 -0.19072
# Poissons Ratio (y) = 0.12588 0.33414
# Poissons Ratio (z) = -0.13965 0.48041
#
# Static dielectric constant tensor:
#      x y z
#    x 1.707030 0.006840 0.025290 
#    y 0.006840 1.692030 0.026850 
#    z 0.025290 0.026850 1.708400 
# 
# From -- ./inp_files/286156.got.cif
#   From: 2010.05.17/outbox.cif.g08.bks.cpg/sg2_144_cif.got.tgz:286156.got - 2010.06.03 11:33:40.
