data_PCOD9067747
_publ_section_title
;
Structure prediction by ZEFSAII (Michael W. Deem and Ramdas Pophale) SiO2 
 PCOD9067747
Probable space group: P -1
;
_chemical_formula_sum "Si O2"
_cell_formula_units_Z 16
_cell_length_a 18.820110
_cell_length_b 10.207611
_cell_length_c 12.223948
_cell_angle_alpha 43.579271
_cell_angle_beta 29.276884
_cell_angle_gamma 42.446784
_cell_volume 751.494126
_symmetry_space_group_name_H-M "P -1"
_symmetry_group_IT_number 2
_symmetry_cell_setting 'triclinic'
loop_
_space_group_symop_operation_xyz
x,y,z
-x,-y,-z
loop_
_atom_site_type_symbol
_atom_site_label
_atom_site_fract_x
_atom_site_fract_y
_atom_site_fract_z
Si Si1 0.333695 0.778532 0.480003
Si Si2 0.164854 0.128232 0.113492
Si Si3 0.727800 0.104399 0.106037
Si Si4 0.227544 0.120633 0.588312
Si Si5 0.417440 0.385474 0.259991
Si Si6 0.914774 0.380185 0.760119
Si Si7 0.688113 0.591277 0.123421
Si Si8 0.188008 0.753419 0.463477
O O1 0.512827 0.693650 0.262765
O O2 0.299534 0.609152 0.703691
O O3 0.235286 0.811834 0.482657
O O4 0.295352 0.978799 0.480921
O O5 0.985739 0.247361 0.296171
O O6 0.195244 0.921412 0.264782
O O7 0.261285 0.257500 0.958348
O O8 0.208129 0.065103 0.968887
O O9 0.552230 0.222657 0.241989
O O10 0.744433 0.010829 0.260234
O O11 0.826109 0.258601 0.881667
O O12 0.316272 0.280871 0.389577
O O13 0.048168 0.226304 0.744872
O O14 0.305056 0.543160 0.396667
O O15 0.500000 0.500000 0.000000
O O16 0.000000 0.500000 0.500000
O O17 0.795341 0.528513 0.912085
#
# Coordination Sequence:
#
# PCOD9067747 Si02
#       8
#     2   2   2   2   2   2   2   2
#     4  11  26  47  70 103 142 181 233 287 351 422
#     4  11  26  45  69 101 140 183 231 286 348 413
#     4  12  25  47  71 101 142 183 238 290 346 417
#     4  12  27  46  73 105 138 187 234 290 352 414
#     4  12  25  47  70 104 140 185 236 287 350 416
#     4  12  27  47  73 102 143 187 238 290 348 419
#     4  11  26  47  69 104 139 184 233 287 355 413
#     4  11  26  45  69 101 140 182 230 287 350 414
#
# _framework density 21.290918999999999
#
# number of rings (size 3 to 8) (size 9 to 14) (size 15 to 20)
#    0.000    0.500    2.500    4.500   10.500    1.000 
#    0.000    0.000    0.000    0.000    0.000    0.000 
#    0.000    0.000    0.000    0.000    0.000    0.000 
#
# Total GULP energy -89683.348439 kJ/mol
# GULP energy per Si atom -5605.209277 kJ/mol
# Density = 2.124246 g / cm^3
# Si number density = 21.290919 Si / 1000 Ang^3
#
#
#
# Elastic Constant Matrix: (Units=GPa)
#
#
# Indices 1 2 3 4 5 6 
#
# 1 184.5883 118.1260 -12.1491 74.6962 -6.8720 -4.2149
# 2 118.1260 193.9572 7.5781 83.9706 -1.6106 12.4480
# 3 -12.1491 7.5781 102.2157 2.2098 -6.5765 15.1545
# 4 74.6962 83.9706 2.2098 71.5206 11.6057 -12.6392
# 5 -6.8720 -1.6106 -6.5765 11.6057 40.4834 0.1876
# 6 -4.2149 12.4480 15.1545 -12.6392 0.1876 37.1350
#
#
#
# Elastic Compliance Matrix: (Units=1/GPa)
#
#
# Indices 1 2 3 4 5 6 
#
# 1 0.011545 -0.002155 0.002529 -0.010977 0.005444 -0.002763
# 2 -0.002155 0.015713 0.001274 -0.019470 0.006107 -0.012689
# 3 0.002529 0.001274 0.011438 -0.006413 0.004209 -0.007012
# 4 -0.010977 -0.019470 -0.006413 0.056569 -0.020023 0.027253
# 5 0.005444 0.006107 0.004209 -0.020023 0.032339 -0.010125
# 6 -0.002763 -0.012689 -0.007012 0.027253 -0.010125 0.043057
#
#
# Mechanical properties :
#
#
# Convention : Reuss Voigt Hill
#
# Bulk Modulus (GPa) = 23.81389 78.65237 51.23313
# Shear Modulus (GPa) = 27.56910 54.30820 40.93865
#
# Velocity S-wave (km/s) = 3.60234 5.05599 4.38976
# Velocity P-wave (km/s) = 5.33964 8.43244 7.05754
#
# Compressibility (1/GPa) = 0.04199230
#
# Stress axis : x y z
#
# Youngs Moduli (GPa) = 86.62098 63.64208 87.42465
#
# Poissons Ratio (x) = 0.13715 -0.22111
# Poissons Ratio (y) = 0.18667 -0.11139
# Poissons Ratio (z) = -0.21908 -0.08109
#
# Static dielectric constant tensor:
#      x y z
#    x 1.724820 -0.020040 0.007220 
#    y -0.020040 1.739660 -0.010790 
#    z 0.007220 -0.010790 1.744250 
# 
# From -- ./inp_files/263568.got.cif
#   From: 2010.05.17/outbox.cif.g08.bks.cpg/sg2_132_cif.got.tgz:263568.got - 2010.06.03 11:33:40.
