data_PCOD9067693
_publ_section_title
;
Structure prediction by ZEFSAII (Michael W. Deem and Ramdas Pophale) SiO2 
 PCOD9067693
Probable space group: P -1
;
_chemical_formula_sum "Si O2"
_cell_formula_units_Z 16
_cell_length_a 9.471820
_cell_length_b 5.242385
_cell_length_c 18.611293
_cell_angle_alpha 100.211347
_cell_angle_beta 51.286472
_cell_angle_gamma 97.042745
_cell_volume 709.587794
_symmetry_space_group_name_H-M "P -1"
_symmetry_group_IT_number 2
_symmetry_cell_setting 'triclinic'
loop_
_space_group_symop_operation_xyz
x,y,z
-x,-y,-z
loop_
_atom_site_type_symbol
_atom_site_label
_atom_site_fract_x
_atom_site_fract_y
_atom_site_fract_z
Si Si1 0.888973 0.161879 0.315956
Si Si2 0.497067 0.775391 0.551953
Si Si3 0.464501 0.780297 0.059847
Si Si4 0.130700 0.504967 0.889772
Si Si5 0.912757 0.262410 0.476428
Si Si6 0.942378 0.375116 0.794283
Si Si7 0.291984 0.040974 0.377144
Si Si8 0.369103 0.032506 0.835169
O O1 0.692922 0.192608 0.343977
O O2 0.864471 0.262961 0.409360
O O3 0.033566 0.359205 0.244614
O O4 0.935934 0.860164 0.284638
O O5 0.500000 0.500000 0.500000
O O6 0.651505 0.778888 0.564187
O O7 0.500000 0.000000 0.500000
O O8 0.256795 0.749108 0.148457
O O9 0.583203 0.860414 0.095124
O O10 0.500000 0.500000 0.000000
O O11 0.500000 0.000000 0.000000
O O12 0.240960 0.777075 0.865849
O O13 0.007786 0.454443 0.856694
O O14 0.268000 0.266699 0.839885
O O15 0.000000 0.500000 0.000000
O O16 0.089356 0.073061 0.412587
O O17 0.000000 0.500000 0.500000
O O18 0.735155 0.215158 0.579089
O O19 0.444349 0.032423 0.268456
#
# Coordination Sequence:
#
# PCOD9067693 Si02
#       8
#     2   2   2   2   2   2   2   2
#     4  12  26  45  70 102 139 184 233 284 343 405
#     4  12  24  43  66  96 132 182 230 277 336 394
#     4  12  26  48  73 105 141 183 229 287 357 422
#     4  12  26  49  76 105 142 183 230 291 363 424
#     4  11  26  44  69  96 144 192 232 284 344 409
#     4  12  26  46  73 105 140 182 235 289 343 421
#     4  11  26  44  67 103 138 186 235 285 342 407
#     4  12  27  46  75 107 143 183 235 292 347 421
#
# _framework density 22.548304999999999
#
# number of rings (size 3 to 8) (size 9 to 14) (size 15 to 20)
#    0.000    0.250    1.250    7.875    7.000    0.000 
#    0.000    0.000    0.000    0.000    0.000    0.000 
#    0.000    0.000    0.000    0.000    0.000    0.000 
#
# Total GULP energy -89414.235627 kJ/mol
# GULP energy per Si atom -5588.389727 kJ/mol
# Density = 2.249698 g / cm^3
# Si number density = 22.548305 Si / 1000 Ang^3
#
#
#
# Elastic Constant Matrix: (Units=GPa)
#
#
# Indices 1 2 3 4 5 6 
#
# 1 72.9077 7.3885 -14.0288 -8.0230 7.7985 13.1662
# 2 7.3885 132.3558 11.2888 -4.7780 10.5937 15.5476
# 3 -14.0288 11.2888 71.4047 -7.2088 3.4462 7.4358
# 4 -8.0230 -4.7780 -7.2088 41.0952 2.9732 -2.7857
# 5 7.7985 10.5937 3.4462 2.9732 45.4972 4.2033
# 6 13.1662 15.5476 7.4358 -2.7857 4.2033 41.8192
#
#
#
# Elastic Compliance Matrix: (Units=1/GPa)
#
#
# Indices 1 2 3 4 5 6 
#
# 1 0.016227 -0.000299 0.004292 0.003734 -0.002798 -0.005231
# 2 -0.000299 0.008101 -0.000931 0.000661 -0.001572 -0.002550
# 3 0.004292 -0.000931 0.015771 0.003381 -0.001618 -0.003421
# 4 0.003734 0.000661 0.003381 0.025930 -0.002743 -0.000020
# 5 -0.002798 -0.001572 -0.001618 -0.002743 0.023197 -0.000761
# 6 -0.005231 -0.002550 -0.003421 -0.000020 -0.000761 0.027191
#
#
# Mechanical properties :
#
#
# Convention : Reuss Voigt Hill
#
# Bulk Modulus (GPa) = 21.63437 31.77392 26.70414
# Shear Modulus (GPa) = 39.77730 43.81697 41.79714
#
# Velocity S-wave (km/s) = 4.20467 4.41301 4.31010
# Velocity P-wave (km/s) = 5.76089 6.33153 6.05294
#
# Compressibility (1/GPa) = 0.04622276
#
# Stress axis : x y z
#
# Youngs Moduli (GPa) = 61.62601 123.44560 63.40789
#
# Poissons Ratio (x) = 0.03687 -0.27215
# Poissons Ratio (y) = 0.01841 0.05905
# Poissons Ratio (z) = -0.26450 0.11496
#
# Static dielectric constant tensor:
#      x y z
#    x 1.938810 -0.058860 -0.034340 
#    y -0.058860 2.038930 -0.099660 
#    z -0.034340 -0.099660 1.919340 
# 
# From -- ./inp_files/553518.got.cif
#   From: 2010.05.17/outbox.cif.g08.bks.cpg/sg2_277_cif.got.tgz:553518.got - 2010.06.03 11:33:40.
