data_PCOD9067414
_publ_section_title
;
Structure prediction by ZEFSAII (Michael W. Deem and Ramdas Pophale) SiO2 
 PCOD9067414
Probable space group: P -1
;
_chemical_formula_sum "Si O2"
_cell_formula_units_Z 10
_cell_length_a 5.037330
_cell_length_b 15.054722
_cell_length_c 12.999700
_cell_angle_alpha 28.389661
_cell_angle_beta 121.646347
_cell_angle_gamma 126.841018
_cell_volume 375.117808
_symmetry_space_group_name_H-M "P -1"
_symmetry_group_IT_number 2
_symmetry_cell_setting 'triclinic'
loop_
_space_group_symop_operation_xyz
x,y,z
-x,-y,-z
loop_
_atom_site_type_symbol
_atom_site_label
_atom_site_fract_x
_atom_site_fract_y
_atom_site_fract_z
Si Si1 0.897589 0.946908 0.154182
Si Si2 0.087493 0.634320 0.983014
Si Si3 0.797280 0.362839 0.693186
Si Si4 0.488960 0.953645 0.422666
Si Si5 0.376878 0.524487 0.780365
O O1 0.595213 0.733197 0.311780
O O2 0.162663 0.942258 0.299935
O O3 0.821309 0.149245 0.954386
O O4 0.000000 0.000000 0.000000
O O5 0.402936 0.568664 0.148843
O O6 0.763833 0.598183 0.021243
O O7 0.000000 0.500000 0.000000
O O8 0.230848 0.863070 0.756072
O O9 0.000000 0.500000 0.500000
O O10 0.021148 0.502827 0.682393
O O11 0.551977 0.751303 0.614527
O O12 0.500000 0.000000 0.500000
#
# Coordination Sequence:
#
# PCOD9067414 Si02
#       5
#     2   2   2   2   2
#     4  11  25  49  75 112 159 204 264 329 392 479
#     4  12  27  50  75 110 162 207 259 324 391 473
#     4  11  26  45  80 112 152 209 267 328 396 468
#     4  12  27  47  80 116 157 210 264 322 398 475
#     4  12  28  49  78 114 157 206 265 325 396 466
#
# _framework density 26.658294000000001
#
# number of rings (size 3 to 8) (size 9 to 14) (size 15 to 20)
#    0.000    0.400    4.000    3.000    2.800    5.600 
#    0.000    0.000    0.000    0.000    0.000    0.000 
#    0.000    0.000    0.000    0.000    0.000    0.000 
#
# Total GULP energy -55781.604650 kJ/mol
# GULP energy per Si atom -5578.160465 kJ/mol
# Density = 2.659762 g / cm^3
# Si number density = 26.658294 Si / 1000 Ang^3
#
#
#
# Elastic Constant Matrix: (Units=GPa)
#
#
# Indices 1 2 3 4 5 6 
#
# 1 104.4689 31.2889 49.1797 4.5872 -20.1715 22.6861
# 2 31.2889 173.0632 53.4918 -7.8879 -20.3595 45.3228
# 3 49.1797 53.4918 154.3627 -26.8629 -18.0634 24.7181
# 4 4.5872 -7.8879 -26.8629 73.8280 10.1531 3.6004
# 5 -20.1715 -20.3595 -18.0634 10.1531 53.9592 -3.7264
# 6 22.6861 45.3228 24.7181 3.6004 -3.7264 47.6923
#
#
#
# Elastic Compliance Matrix: (Units=1/GPa)
#
#
# Indices 1 2 3 4 5 6 
#
# 1 0.012886 0.000132 -0.003478 -0.002392 0.003879 -0.003969
# 2 0.000132 0.008335 -0.001478 0.000396 0.002136 -0.007081
# 3 -0.003478 -0.001478 0.009029 0.003378 0.000402 -0.001844
# 4 -0.002392 0.000396 0.003378 0.015450 -0.002684 -0.002366
# 5 0.003879 0.002136 0.000402 -0.002684 0.021275 -0.002218
# 6 -0.003969 -0.007081 -0.001844 -0.002366 -0.002218 0.030546
#
#
# Mechanical properties :
#
#
# Convention : Reuss Voigt Hill
#
# Bulk Modulus (GPa) = 48.53951 77.75731 63.14841
# Shear Modulus (GPa) = 43.84678 54.95819 49.40249
#
# Velocity S-wave (km/s) = 4.05998 4.54539 4.30952
# Velocity P-wave (km/s) = 6.34235 7.53518 6.96435
#
# Compressibility (1/GPa) = 0.02060177
#
# Stress axis : x y z
#
# Youngs Moduli (GPa) = 77.60515 119.97982 110.75941
#
# Poissons Ratio (x) = -0.01583 0.38522
# Poissons Ratio (y) = -0.01024 0.16366
# Poissons Ratio (z) = 0.26991 0.17728
#
# Static dielectric constant tensor:
#      x y z
#    x 3.047000 -0.343720 0.306860 
#    y -0.343720 3.472840 1.133670 
#    z 0.306860 1.133670 3.633470 
# 
# From -- ./inp_files/91577.got.cif
#   From: 2010.05.17/outbox.cif.g08.bks.cpg/sg2_46_cif.got.tgz:91577.got - 2010.06.03 11:33:40.
