data_PCOD9067212
_publ_section_title
;
Structure prediction by ZEFSAII (Michael W. Deem and Ramdas Pophale) SiO2 
 PCOD9067212
Probable space group: P -1
;
_chemical_formula_sum "Si O2"
_cell_formula_units_Z 10
_cell_length_a 13.239882
_cell_length_b 9.374557
_cell_length_c 9.146453
_cell_angle_alpha 53.682599
_cell_angle_beta 40.142343
_cell_angle_gamma 31.020046
_cell_volume 370.350776
_symmetry_space_group_name_H-M "P -1"
_symmetry_group_IT_number 2
_symmetry_cell_setting 'triclinic'
loop_
_space_group_symop_operation_xyz
x,y,z
-x,-y,-z
loop_
_atom_site_type_symbol
_atom_site_label
_atom_site_fract_x
_atom_site_fract_y
_atom_site_fract_z
Si Si1 0.775494 0.177621 0.524201
Si Si2 0.216541 0.452810 0.262632
Si Si3 0.044632 0.741110 0.990509
Si Si4 0.443703 0.152656 0.786672
Si Si5 0.482813 0.295675 0.352358
O O1 0.860215 0.205613 0.267730
O O2 0.653370 0.101062 0.654070
O O3 0.556598 0.484087 0.656170
O O4 0.000000 0.000000 0.500000
O O5 0.288997 0.464018 0.332131
O O6 0.000000 0.500000 0.500000
O O7 0.455673 0.133317 0.132326
O O8 0.124794 0.674724 0.112046
O O9 0.176298 0.441776 0.973104
O O10 0.749640 0.019168 0.156959
O O11 0.435656 0.198006 0.594254
#
# Coordination Sequence:
#
# PCOD9067212 Si02
#       5
#     2   2   2   2   2
#     4  11  27  50  73 106 148 189 240 301 355 429
#     4  12  25  48  75 108 146 188 240 300 353 429
#     4  11  26  46  78 103 145 193 241 288 367 424
#     4  11  25  49  70 108 150 184 240 299 356 427
#     4  11  25  48  74 105 145 188 243 291 358 424
#
# _framework density 27.001428000000001
#
# number of rings (size 3 to 8) (size 9 to 14) (size 15 to 20)
#    0.000    0.800    2.000    4.800    2.800    4.800 
#    3.600    0.000    0.000    0.000    0.000    0.000 
#    0.000    0.000    0.000    0.000    0.000    0.000 
#
# Total GULP energy -56123.279206 kJ/mol
# GULP energy per Si atom -5612.327921 kJ/mol
# Density = 2.693997 g / cm^3
# Si number density = 27.001428 Si / 1000 Ang^3
#
#
#
# Elastic Constant Matrix: (Units=GPa)
#
#
# Indices 1 2 3 4 5 6 
#
# 1 201.8457 64.0286 75.7976 -16.1914 39.1481 -36.3854
# 2 64.0286 90.4762 26.7182 19.5025 6.1597 -3.3346
# 3 75.7976 26.7182 154.0893 13.1023 23.0131 -21.7905
# 4 -16.1914 19.5025 13.1023 69.3958 -8.0780 20.1592
# 5 39.1481 6.1597 23.0131 -8.0780 23.3827 -3.3208
# 6 -36.3854 -3.3346 -21.7905 20.1592 -3.3208 64.7627
#
#
#
# Elastic Compliance Matrix: (Units=1/GPa)
#
#
# Indices 1 2 3 4 5 6 
#
# 1 0.011583 -0.006964 -0.001965 0.002183 -0.014291 0.004075
# 2 -0.006964 0.016742 0.000061 -0.005428 0.005161 -0.001076
# 3 -0.001965 0.000061 0.009162 -0.003801 -0.006655 0.002824
# 4 0.002183 -0.005428 -0.003801 0.019811 0.007491 -0.006114
# 5 -0.014291 0.005161 -0.006655 0.007491 0.073253 -0.008578
# 6 0.004075 -0.001076 0.002824 -0.006114 -0.008578 0.020089
#
#
# Mechanical properties :
#
#
# Convention : Reuss Voigt Hill
#
# Bulk Modulus (GPa) = 50.62941 86.61111 68.62026
# Shear Modulus (GPa) = 28.57809 50.16602 39.37205
#
# Velocity S-wave (km/s) = 3.25682 4.31502 3.82271
# Velocity P-wave (km/s) = 5.73880 7.54798 6.70469
#
# Compressibility (1/GPa) = 0.01975137
#
# Stress axis : x y z
#
# Youngs Moduli (GPa) = 86.33446 59.72991 109.14380
#
# Poissons Ratio (x) = 0.41597 0.21449
# Poissons Ratio (y) = 0.60125 -0.00671
# Poissons Ratio (z) = 0.16966 -0.00367
#
# Static dielectric constant tensor:
#      x y z
#    x 2.119580 0.030230 -0.024960 
#    y 0.030230 2.110770 0.014890 
#    z -0.024960 0.014890 2.075920 
# 
# From -- ./inp_files/230585.got.cif
#   From: 2010.05.17/outbox.cif.g08.bks.cpg/sg2_116_cif.got.tgz:230585.got - 2010.06.03 11:33:40.
