data_PCOD9067854
_publ_section_title
;
Structure prediction by ZEFSAII (Michael W. Deem and Ramdas Pophale) SiO2 
 PCOD9067854
Probable space group: P -1
;
_chemical_formula_sum "Si O2"
_cell_formula_units_Z 16
_cell_length_a 22.931050
_cell_length_b 9.353495
_cell_length_c 9.325068
_cell_angle_alpha 128.234205
_cell_angle_beta 127.769497
_cell_angle_gamma 29.920009
_cell_volume 768.702655
_symmetry_space_group_name_H-M "P -1"
_symmetry_group_IT_number 2
_symmetry_cell_setting 'triclinic'
loop_
_space_group_symop_operation_xyz
x,y,z
-x,-y,-z
loop_
_atom_site_type_symbol
_atom_site_label
_atom_site_fract_x
_atom_site_fract_y
_atom_site_fract_z
Si Si1 0.672216 0.907558 0.045655
Si Si2 0.737664 0.392987 0.825867
Si Si3 0.125506 0.182563 0.168562
Si Si4 0.859315 0.834663 0.160990
Si Si5 0.487354 0.714176 0.197589
Si Si6 0.738993 0.385031 0.478501
Si Si7 0.477249 0.741548 0.684582
Si Si8 0.307476 0.142062 0.435740
O O1 0.758286 0.890789 0.097010
O O2 0.594452 0.135734 0.199723
O O3 0.746681 0.586495 0.001635
O O4 0.578470 0.028745 0.856692
O O5 0.747330 0.360062 0.647350
O O6 0.605807 0.584125 0.794736
O O7 0.832332 0.079195 0.849323
O O8 0.205830 0.194685 0.352570
O O9 0.987790 0.499273 0.177069
O O10 0.149360 0.119503 0.994602
O O11 0.836196 0.066991 0.353653
O O12 0.610559 0.555747 0.340765
O O13 0.397020 0.873162 0.291462
O O14 0.500000 0.500000 0.000000
O O15 0.744519 0.578885 0.546014
O O16 0.500000 0.500000 0.500000
O O17 0.390111 0.022263 0.622120
#
# Coordination Sequence:
#
# PCOD9067854 Si02
#       8
#     2   2   2   2   2   2   2   2
#     4  12  25  43  66  99 134 173 214 264 328 390
#     4  12  25  43  67  99 134 169 213 271 326 384
#     4  11  26  46  68  93 128 173 222 273 317 378
#     4  11  26  47  67  93 127 175 226 263 321 386
#     4  12  21  39  70  96 129 173 208 257 329 394
#     4  12  24  42  69  99 131 172 214 264 328 395
#     4  12  24  40  66 104 136 165 212 270 327 393
#     4  12  23  43  66  98 135 170 210 268 328 385
#
# _framework density 20.81429
#
# number of rings (size 3 to 8) (size 9 to 14) (size 15 to 20)
#    0.000    0.250    6.250    3.000    3.500    1.500 
#    0.000    0.000    0.000    0.000    0.000    0.000 
#    0.000    0.000    0.000    0.000    0.000    0.000 
#
# Total GULP energy -89566.365886 kJ/mol
# GULP energy per Si atom -5597.897868 kJ/mol
# Density = 2.076692 g / cm^3
# Si number density = 20.814290 Si / 1000 Ang^3
#
#
#
# Elastic Constant Matrix: (Units=GPa)
#
#
# Indices 1 2 3 4 5 6 
#
# 1 67.1215 47.2681 16.0813 14.2051 -18.1733 17.4807
# 2 47.2681 133.2932 36.6827 7.7616 -23.3448 24.3640
# 3 16.0813 36.6827 56.2754 14.7907 -18.5043 0.5440
# 4 14.2051 7.7616 14.7907 34.8650 6.3082 -3.6225
# 5 -18.1733 -23.3448 -18.5043 6.3082 32.6361 9.4200
# 6 17.4807 24.3640 0.5440 -3.6225 9.4200 40.2833
#
#
#
# Elastic Compliance Matrix: (Units=1/GPa)
#
#
# Indices 1 2 3 4 5 6 
#
# 1 0.038280 -0.003515 0.012386 -0.029929 0.039265 -0.026526
# 2 -0.003515 0.012824 -0.004394 -0.001731 0.007384 -0.008054
# 3 0.012386 -0.004394 0.034602 -0.025917 0.032144 -0.013032
# 4 -0.029929 -0.001731 -0.025917 0.065618 -0.054839 0.033109
# 5 0.039265 0.007384 0.032144 -0.054839 0.101198 -0.050535
# 6 -0.026526 -0.008054 -0.013032 0.033109 -0.050535 0.056176
#
#
# Mechanical properties :
#
#
# Convention : Reuss Voigt Hill
#
# Bulk Modulus (GPa) = 10.56420 50.75047 30.65733
# Shear Modulus (GPa) = 15.09216 32.00076 23.54646
#
# Velocity S-wave (km/s) = 2.69566 3.92528 3.36708
# Velocity P-wave (km/s) = 3.84386 6.70665 5.46601
#
# Compressibility (1/GPa) = 0.09465932
#
# Stress axis : x y z
#
# Youngs Moduli (GPa) = 26.12364 77.97787 28.90030
#
# Poissons Ratio (x) = 0.27411 -0.35796
# Poissons Ratio (y) = 0.09183 0.12699
# Poissons Ratio (z) = -0.32357 0.34264
#
# Static dielectric constant tensor:
#      x y z
#    x 1.751090 0.041930 -0.008040 
#    y 0.041930 1.759100 -0.011200 
#    z -0.008040 -0.011200 1.751440 
# 
# From -- ./inp_files/206770.got.cif
#   From: 2010.05.17/outbox.cif.g08.bks.cpg/sg2_104_cif.got.tgz:206770.got - 2010.06.03 11:33:40.
