data_PCOD9067831
_publ_section_title
;
Structure prediction by ZEFSAII (Michael W. Deem and Ramdas Pophale) SiO2 
 PCOD9067831
Probable space group: P -1
;
_chemical_formula_sum "Si O2"
_cell_formula_units_Z 12
_cell_length_a 10.030930
_cell_length_b 14.493519
_cell_length_c 9.263742
_cell_angle_alpha 56.249054
_cell_angle_beta 29.592424
_cell_angle_gamma 48.656296
_cell_volume 498.674360
_symmetry_space_group_name_H-M "P -1"
_symmetry_group_IT_number 2
_symmetry_cell_setting 'triclinic'
loop_
_space_group_symop_operation_xyz
x,y,z
-x,-y,-z
loop_
_atom_site_type_symbol
_atom_site_label
_atom_site_fract_x
_atom_site_fract_y
_atom_site_fract_z
Si Si1 0.161372 0.111335 0.319959
Si Si2 0.481954 0.499914 0.841262
Si Si3 0.337058 0.911425 0.723559
Si Si4 0.429396 0.773798 0.040452
Si Si5 0.652431 0.160827 0.547396
Si Si6 0.116698 0.420115 0.812732
O O1 0.902147 0.143744 0.658367
O O2 0.962380 0.152166 0.327728
O O3 0.344735 0.186915 0.121833
O O4 0.645809 0.035763 0.723187
O O5 0.512079 0.366148 0.882993
O O6 0.734878 0.523059 0.495334
O O7 0.500000 0.500000 0.000000
O O8 0.158122 0.591140 0.001624
O O9 0.351600 0.852490 0.607363
O O10 0.500000 0.000000 0.500000
O O11 0.458802 0.806646 0.819766
O O12 0.000000 0.000000 0.000000
O O13 0.380474 0.290378 0.723582
O O14 0.000000 0.500000 0.000000
#
# Coordination Sequence:
#
# PCOD9067831 Si02
#       6
#     2   2   2   2   2   2
#     4  11  26  45  75 109 148 197 246 321 391 453
#     4  12  28  51  80 112 156 210 263 321 389 461
#     4  12  24  44  70 110 147 191 246 313 386 455
#     4  12  24  48  73 109 150 194 255 314 388 458
#     4  11  26  48  75 111 154 196 259 312 391 463
#     4  12  28  51  80 114 156 210 266 320 385 465
#
# _framework density 24.063801000000002
#
# number of rings (size 3 to 8) (size 9 to 14) (size 15 to 20)
#    0.000    0.333    3.333    4.000    0.000   12.000 
#    0.000    0.000    0.000    0.000    0.000    0.000 
#    0.000    0.000    0.000    0.000    0.000    0.000 
#
# Total GULP energy -67307.155989 kJ/mol
# GULP energy per Si atom -5608.929666 kJ/mol
# Density = 2.400903 g / cm^3
# Si number density = 24.063801 Si / 1000 Ang^3
#
#
#
# Elastic Constant Matrix: (Units=GPa)
#
#
# Indices 1 2 3 4 5 6 
#
# 1 202.1297 56.9592 65.3887 8.9650 26.0848 6.0853
# 2 56.9592 140.2669 48.6140 17.8731 -0.4914 2.5095
# 3 65.3887 48.6140 152.0827 -7.0264 3.8303 11.2432
# 4 8.9650 17.8731 -7.0264 48.1124 -4.6268 4.0663
# 5 26.0848 -0.4914 3.8303 -4.6268 47.1462 -0.0642
# 6 6.0853 2.5095 11.2432 4.0663 -0.0642 42.0420
#
#
#
# Elastic Compliance Matrix: (Units=1/GPa)
#
#
# Indices 1 2 3 4 5 6 
#
# 1 0.006722 -0.001792 -0.002273 -0.001260 -0.003677 -0.000142
# 2 -0.001792 0.009096 -0.002366 -0.003356 0.000950 0.000675
# 3 -0.002273 -0.002366 0.008573 0.002809 0.000809 -0.002093
# 4 -0.001260 -0.003356 0.002809 0.023157 0.002703 -0.002604
# 5 -0.003677 0.000950 0.000809 0.002703 0.023455 0.000034
# 6 -0.000142 0.000675 -0.002093 -0.002604 0.000034 0.024578
#
#
# Mechanical properties :
#
#
# Convention : Reuss Voigt Hill
#
# Bulk Modulus (GPa) = 86.73003 92.93367 89.83185
# Shear Modulus (GPa) = 44.52997 49.02793 46.77895
#
# Velocity S-wave (km/s) = 4.30641 4.51867 4.41381
# Velocity P-wave (km/s) = 7.80044 8.11961 7.96162
#
# Compressibility (1/GPa) = 0.01153003
#
# Stress axis : x y z
#
# Youngs Moduli (GPa) = 148.76247 109.94052 116.64626
#
# Poissons Ratio (x) = 0.19699 0.26509
# Poissons Ratio (y) = 0.26655 0.27599
# Poissons Ratio (z) = 0.33807 0.26012
#
# Static dielectric constant tensor:
#      x y z
#    x 2.008820 0.013700 0.108320 
#    y 0.013700 1.918080 0.031270 
#    z 0.108320 0.031270 2.025440 
# 
# From -- ./inp_files/206125.got.cif
#   From: 2010.05.17/outbox.cif.g08.bks.cpg/sg2_104_cif.got.tgz:206125.got - 2010.06.03 11:33:40.
