data_PCOD9067720
_publ_section_title
;
Structure prediction by ZEFSAII (Michael W. Deem and Ramdas Pophale) SiO2 
 PCOD9067720
Probable space group: P -1
;
_chemical_formula_sum "Si O2"
_cell_formula_units_Z 12
_cell_length_a 17.349751
_cell_length_b 13.878190
_cell_length_c 11.635444
_cell_angle_alpha 20.616233
_cell_angle_beta 147.917062
_cell_angle_gamma 148.782968
_cell_volume 494.142053
_symmetry_space_group_name_H-M "P -1"
_symmetry_group_IT_number 2
_symmetry_cell_setting 'triclinic'
loop_
_space_group_symop_operation_xyz
x,y,z
-x,-y,-z
loop_
_atom_site_type_symbol
_atom_site_label
_atom_site_fract_x
_atom_site_fract_y
_atom_site_fract_z
Si Si1 0.585981 0.072704 0.823088
Si Si2 0.924601 0.240448 0.109860
Si Si3 0.089165 0.435493 0.866179
Si Si4 0.339017 0.554188 0.725290
Si Si5 0.423830 0.434881 0.349078
Si Si6 0.161301 0.889519 0.268392
O O1 0.644316 0.293932 0.545907
O O2 0.471581 0.180438 0.635367
O O3 0.742926 0.104947 0.051968
O O4 0.508512 0.745110 0.048390
O O5 0.000000 0.000000 0.500000
O O6 0.000000 0.500000 0.000000
O O7 0.972490 0.363476 0.905392
O O8 0.136616 0.757856 0.512362
O O9 0.992429 0.241821 0.855710
O O10 0.243018 0.379350 0.166912
O O11 0.288858 0.763211 0.515608
O O12 0.500000 0.500000 0.000000
O O13 0.217129 0.233639 0.944021
O O14 0.500000 0.500000 0.500000
#
# Coordination Sequence:
#
# PCOD9067720 Si02
#       6
#     2   2   2   2   2   2
#     4  12  25  46  69 103 140 184 240 293 353 427
#     4  12  27  46  73 103 142 190 240 299 355 423
#     4  11  26  48  73 107 148 189 244 297 364 428
#     4  12  24  45  71 107 144 186 235 292 365 430
#     4  12  26  46  71 103 143 192 243 294 356 424
#     4  11  26  44  73 107 144 191 235 300 360 432
#
# _framework density 24.284514000000001
#
# number of rings (size 3 to 8) (size 9 to 14) (size 15 to 20)
#    0.000    0.333    1.667    7.000    2.333    6.667 
#    0.000    0.000    0.000    0.000    0.000    0.000 
#    0.000    0.000    0.000    0.000    0.000    0.000 
#
# Total GULP energy -67270.733516 kJ/mol
# GULP energy per Si atom -5605.894460 kJ/mol
# Density = 2.422924 g / cm^3
# Si number density = 24.284514 Si / 1000 Ang^3
#
#
#
# Elastic Constant Matrix: (Units=GPa)
#
#
# Indices 1 2 3 4 5 6 
#
# 1 93.4446 6.4938 39.9178 9.5060 1.2486 7.7269
# 2 6.4938 90.1451 23.8856 27.6585 12.7242 20.3591
# 3 39.9178 23.8856 122.6133 7.4628 1.5499 -3.5537
# 4 9.5060 27.6585 7.4628 64.0639 9.0745 10.8705
# 5 1.2486 12.7242 1.5499 9.0745 60.2916 4.4565
# 6 7.7269 20.3591 -3.5537 10.8705 4.4565 33.7954
#
#
#
# Elastic Compliance Matrix: (Units=1/GPa)
#
#
# Indices 1 2 3 4 5 6 
#
# 1 0.013019 0.001606 -0.004580 -0.001420 0.000016 -0.003971
# 2 0.001606 0.015522 -0.003466 -0.004867 -0.001876 -0.008269
# 3 -0.004580 -0.003466 0.010425 0.000230 0.000219 0.004129
# 4 -0.001420 -0.004867 0.000230 0.018535 -0.001556 -0.002476
# 5 0.000016 -0.001876 0.000219 -0.001556 0.017257 -0.000626
# 6 -0.003971 -0.008269 0.004129 -0.002476 -0.000626 0.036793
#
#
# Mechanical properties :
#
#
# Convention : Reuss Voigt Hill
#
# Bulk Modulus (GPa) = 38.33639 49.64415 43.99027
# Shear Modulus (GPa) = 37.55846 47.35723 42.45784
#
# Velocity S-wave (km/s) = 3.93695 4.42078 4.18586
# Velocity P-wave (km/s) = 6.04043 6.82238 6.44328
#
# Compressibility (1/GPa) = 0.02608488
#
# Stress axis : x y z
#
# Youngs Moduli (GPa) = 76.81006 64.42591 95.92336
#
# Poissons Ratio (x) = -0.10347 0.43935
# Poissons Ratio (y) = -0.12336 0.33250
# Poissons Ratio (z) = 0.35181 0.22332
#
# Static dielectric constant tensor:
#      x y z
#    x 1.908590 0.036260 -0.020860 
#    y 0.036260 1.884830 0.009500 
#    z -0.020860 0.009500 1.959030 
# 
# From -- ./inp_files/131170.got.cif
#   From: 2010.05.17/outbox.cif.g08.bks.cpg/sg2_66_cif.got.tgz:131170.got - 2010.06.03 11:33:40.
