data_PCOD9067710
_publ_section_title
;
Structure prediction by ZEFSAII (Michael W. Deem and Ramdas Pophale) SiO2 
 PCOD9067710
Probable space group: P -1
;
_chemical_formula_sum "Si O2"
_cell_formula_units_Z 12
_cell_length_a 9.711059
_cell_length_b 27.516619
_cell_length_c 24.459666
_cell_angle_alpha 170.434904
_cell_angle_beta 150.832300
_cell_angle_gamma 28.037253
_cell_volume 510.170404
_symmetry_space_group_name_H-M "P -1"
_symmetry_group_IT_number 2
_symmetry_cell_setting 'triclinic'
loop_
_space_group_symop_operation_xyz
x,y,z
-x,-y,-z
loop_
_atom_site_type_symbol
_atom_site_label
_atom_site_fract_x
_atom_site_fract_y
_atom_site_fract_z
Si Si1 0.932641 0.554544 0.319089
Si Si2 0.265072 0.942061 0.814150
Si Si3 0.303629 0.233352 0.420936
Si Si4 0.913342 0.347249 0.745194
Si Si5 0.240510 0.589395 0.644451
Si Si6 0.843109 0.373820 0.966593
O O1 0.670070 0.692890 0.423643
O O2 0.060086 0.840742 0.674456
O O3 0.946327 0.472112 0.168858
O O4 0.103079 0.235114 0.049649
O O5 0.463883 0.676080 0.551004
O O6 0.500000 0.000000 0.000000
O O7 0.565640 0.367223 0.637459
O O8 0.957322 0.364759 0.429282
O O9 0.333465 0.888943 0.028812
O O10 0.061846 0.988446 0.405867
O O11 0.000000 0.500000 0.000000
O O12 0.046718 0.479248 0.885226
O O13 0.000000 0.500000 0.500000
O O14 0.500000 0.500000 0.000000
#
# Coordination Sequence:
#
# PCOD9067710 Si02
#       6
#     2   2   2   2   2   2
#     4  12  27  46  75 106 152 197 250 309 372 446
#     4  12  25  45  69 107 148 202 250 300 372 439
#     4  11  27  46  72 113 150 204 251 313 378 448
#     4  12  28  52  82 111 151 197 253 319 385 456
#     4  11  26  44  72 106 159 200 257 306 373 451
#     4  12  28  52  78 113 148 197 254 317 383 456
#
# _framework density 23.521553999999998
#
# number of rings (size 3 to 8) (size 9 to 14) (size 15 to 20)
#    0.000    0.333    1.667    5.500   11.667    1.333 
#    0.000    0.000    0.000    0.000    0.000    0.000 
#    0.000    0.000    0.000    0.000    0.000    0.000 
#
# Total GULP energy -66906.617569 kJ/mol
# GULP energy per Si atom -5575.551464 kJ/mol
# Density = 2.346802 g / cm^3
# Si number density = 23.521554 Si / 1000 Ang^3
#
#
#
# Elastic Constant Matrix: (Units=GPa)
#
#
# Indices 1 2 3 4 5 6 
#
# 1 207.2178 49.5688 66.2296 -16.2231 21.9519 9.2755
# 2 49.5688 66.4205 32.4176 -11.7340 15.0026 6.8365
# 3 66.2296 32.4176 110.3824 -16.6577 6.0479 -3.2854
# 4 -16.2231 -11.7340 -16.6577 36.0486 8.5207 -11.6724
# 5 21.9519 15.0026 6.0479 8.5207 57.7584 -1.1258
# 6 9.2755 6.8365 -3.2854 -11.6724 -1.1258 53.6656
#
#
#
# Elastic Compliance Matrix: (Units=1/GPa)
#
#
# Indices 1 2 3 4 5 6 
#
# 1 0.006772 -0.002999 -0.002998 0.000798 -0.001615 -0.000832
# 2 -0.002999 0.020984 -0.003476 0.004489 -0.004638 -0.001489
# 3 -0.002998 -0.003476 0.012574 0.004144 0.000166 0.002636
# 4 0.000798 0.004489 0.004144 0.035428 -0.006991 0.007103
# 5 -0.001615 -0.004638 0.000166 -0.006991 0.020142 -0.000218
# 6 -0.000832 -0.001489 0.002636 0.007103 -0.000218 0.020669
#
#
# Mechanical properties :
#
#
# Convention : Reuss Voigt Hill
#
# Bulk Modulus (GPa) = 46.76564 75.60584 61.18574
# Shear Modulus (GPa) = 35.05218 45.21484 40.13351
#
# Velocity S-wave (km/s) = 3.86452 4.38913 4.13515
# Velocity P-wave (km/s) = 6.31173 7.60914 6.99059
#
# Compressibility (1/GPa) = 0.02138322
#
# Stress axis : x y z
#
# Youngs Moduli (GPa) = 147.65604 47.65485 79.52914
#
# Poissons Ratio (x) = 0.14293 0.23847
# Poissons Ratio (y) = 0.44287 0.27644
# Poissons Ratio (z) = 0.44275 0.16565
#
# Static dielectric constant tensor:
#      x y z
#    x 2.260510 -0.080800 0.029120 
#    y -0.080800 2.041040 -0.088410 
#    z 0.029120 -0.088410 2.009230 
# 
# From -- ./inp_files/608828.got.cif
#   From: 2010.05.17/outbox.cif.g08.bks.cpg/sg2_305_cif.got.tgz:608828.got - 2010.06.03 11:33:40.
