data_PCOD9067103
_publ_section_title
;
Structure prediction by ZEFSAII (Michael W. Deem and Ramdas Pophale) SiO2 
 PCOD9067103
Probable space group: P -1
;
_chemical_formula_sum "Si O2"
_cell_formula_units_Z 14
_cell_length_a 7.996570
_cell_length_b 19.604106
_cell_length_c 4.929286
_cell_angle_alpha 67.512329
_cell_angle_beta 110.193120
_cell_angle_gamma 132.329432
_cell_volume 523.477413
_symmetry_space_group_name_H-M "P -1"
_symmetry_group_IT_number 2
_symmetry_cell_setting 'triclinic'
loop_
_space_group_symop_operation_xyz
x,y,z
-x,-y,-z
loop_
_atom_site_type_symbol
_atom_site_label
_atom_site_fract_x
_atom_site_fract_y
_atom_site_fract_z
Si Si1 0.417087 0.333987 0.841869
Si Si2 0.840591 0.333322 0.087216
Si Si3 0.904430 0.554983 0.433329
Si Si4 0.764506 0.786377 0.566468
Si Si5 0.456679 0.838358 0.426990
Si Si6 0.500000 0.000000 0.000000
Si Si7 0.837969 0.015496 0.731349
Si Si8 0.500000 0.500000 0.000000
O O1 0.287521 0.293465 0.545896
O O2 0.659009 0.353416 0.941862
O O3 0.262107 0.245071 0.093899
O O4 0.443514 0.418919 0.868030
O O5 0.712491 0.234833 0.324314
O O6 0.046644 0.410621 0.284707
O O7 0.956605 0.353206 0.829567
O O8 0.650101 0.484193 0.295539
O O9 0.000000 0.500000 0.500000
O O10 0.563149 0.795594 0.394945
O O11 0.002169 0.886131 0.486197
O O12 0.676218 0.933101 0.550753
O O13 0.376956 0.883990 0.124907
O O14 0.674486 0.014744 0.846206
O O15 0.000000 0.000000 0.000000
#
# Coordination Sequence:
#
# PCOD9067103 Si02
#       8
#     2   2   2   2   2   1   2   1
#     4  11  26  47  78 115 153 207 268 328 402 491
#     4  11  25  49  79 108 158 204 263 325 406 478
#     4  12  27  50  79 114 152 206 256 335 411 478
#     4  11  25  47  79 111 156 216 263 326 406 472
#     4  11  26  48  78 114 159 215 269 330 401 481
#     4  12  28  42  74 116 150 210 274 334 376 494
#     4  12  25  48  77 109 163 209 267 332 404 461
#     4  12  30  50  82 116 160 196 276 332 406 498
#
# _framework density 26.744229000000001
#
# number of rings (size 3 to 8) (size 9 to 14) (size 15 to 20)
#    0.000    0.571    2.857    4.714    4.000    4.571 
#    0.000    0.000    0.000    0.000    0.000    0.000 
#    0.000    0.000    0.000    0.000    0.000    0.000 
#
# Total GULP energy -78115.692898 kJ/mol
# GULP energy per Si atom -5579.692350 kJ/mol
# Density = 2.668336 g / cm^3
# Si number density = 26.744229 Si / 1000 Ang^3
#
#
#
# Elastic Constant Matrix: (Units=GPa)
#
#
# Indices 1 2 3 4 5 6 
#
# 1 85.5639 21.9661 19.1163 -8.9842 -17.7939 -19.5789
# 2 21.9661 138.8319 14.7906 -10.1033 -15.9608 6.0112
# 3 19.1163 14.7906 59.4946 -3.2482 -14.8116 24.2821
# 4 -8.9842 -10.1033 -3.2482 70.4635 11.1465 -11.7718
# 5 -17.7939 -15.9608 -14.8116 11.1465 43.1570 -8.7711
# 6 -19.5789 6.0112 24.2821 -11.7718 -8.7711 45.0426
#
#
#
# Elastic Compliance Matrix: (Units=1/GPa)
#
#
# Indices 1 2 3 4 5 6 
#
# 1 0.020454 -0.001760 -0.011491 0.003739 0.006440 0.017552
# 2 -0.001760 0.007803 -0.000485 0.000424 0.001658 -0.001111
# 3 -0.011491 -0.000485 0.029712 -0.004086 0.001938 -0.021638
# 4 0.003739 0.000424 -0.004086 0.016172 -0.002348 0.007541
# 5 0.006440 0.001658 0.001938 -0.002348 0.029048 0.006576
# 6 0.017552 -0.001111 -0.021638 0.007541 0.006576 0.044895
#
#
# Mechanical properties :
#
#
# Convention : Reuss Voigt Hill
#
# Bulk Modulus (GPa) = 32.78919 43.95959 38.37439
# Shear Modulus (GPa) = 26.92214 46.93378 36.92796
#
# Velocity S-wave (km/s) = 3.17622 4.19371 3.71992
# Velocity P-wave (km/s) = 5.07327 6.31841 5.72977
#
# Compressibility (1/GPa) = 0.03049785
#
# Stress axis : x y z
#
# Youngs Moduli (GPa) = 48.88937 128.16169 33.65690
#
# Poissons Ratio (x) = 0.22550 0.38675
# Poissons Ratio (y) = 0.08602 0.01632
# Poissons Ratio (z) = 0.56178 0.06216
#
# Static dielectric constant tensor:
#      x y z
#    x 2.031130 0.047090 -0.037230 
#    y 0.047090 2.104100 -0.056620 
#    z -0.037230 -0.056620 1.980260 
# 
# From -- ./inp_files/52607.got.cif
#   From: 2010.05.17/outbox.cif.g08.bks.cpg/sg2_27_cif.got.tgz:52607.got - 2010.06.03 11:33:40.
