data_PCOD9067526
_publ_section_title
;
Structure prediction by ZEFSAII (Michael W. Deem and Ramdas Pophale) SiO2 
 PCOD9067526
Probable space group: P -1
;
_chemical_formula_sum "Si O2"
_cell_formula_units_Z 14
_cell_length_a 11.092823
_cell_length_b 11.498850
_cell_length_c 5.059947
_cell_angle_alpha 78.843229
_cell_angle_beta 60.374378
_cell_angle_gamma 79.197328
_cell_volume 547.247379
_symmetry_space_group_name_H-M "P -1"
_symmetry_group_IT_number 2
_symmetry_cell_setting 'triclinic'
loop_
_space_group_symop_operation_xyz
x,y,z
-x,-y,-z
loop_
_atom_site_type_symbol
_atom_site_label
_atom_site_fract_x
_atom_site_fract_y
_atom_site_fract_z
Si Si1 0.124730 0.020002 0.060266
Si Si2 0.350140 0.559219 0.226639
Si Si3 0.645623 0.276765 0.344486
Si Si4 0.217893 0.319399 0.376904
Si Si5 0.953433 0.637915 0.962633
Si Si6 0.877312 0.177036 0.478742
Si Si7 0.401959 0.125691 0.534786
O O1 0.033322 0.108886 0.318268
O O2 0.179613 0.896037 0.192176
O O3 0.257376 0.085361 0.815887
O O4 0.000000 0.000000 0.000000
O O5 0.366840 0.622198 0.460519
O O6 0.262625 0.446135 0.371042
O O7 0.500000 0.500000 0.000000
O O8 0.311489 0.660301 0.999617
O O9 0.763881 0.175755 0.370306
O O10 0.501275 0.218191 0.508775
O O11 0.172473 0.338634 0.116693
O O12 0.337194 0.207869 0.321968
O O13 0.089984 0.304570 0.729456
O O14 0.082229 0.690294 0.653069
O O15 0.000000 0.500000 0.000000
O O16 0.500000 0.000000 0.500000
#
# Coordination Sequence:
#
# PCOD9067526 Si02
#       7
#     2   2   2   2   2   2   2
#     4  11  25  50  76 105 152 202 264 322 386 451
#     4  12  26  48  78 111 159 205 254 322 403 464
#     4  12  29  49  79 116 155 206 263 321 397 480
#     4  12  26  48  79 114 157 202 263 327 386 466
#     4  12  26  48  78 117 154 199 256 327 399 465
#     4  11  26  45  76 109 151 202 258 326 385 461
#     4  12  28  51  79 116 160 215 264 323 391 478
#
# _framework density 25.582581000000001
#
# number of rings (size 3 to 8) (size 9 to 14) (size 15 to 20)
#    0.000    0.286    2.857    5.143    6.000    1.714 
#    5.143    0.000    0.000    0.000    0.000    0.000 
#    0.000    0.000    0.000    0.000    0.000    0.000 
#
# Total GULP energy -78225.905251 kJ/mol
# GULP energy per Si atom -5587.564661 kJ/mol
# Density = 2.552435 g / cm^3
# Si number density = 25.582581 Si / 1000 Ang^3
#
#
#
# Elastic Constant Matrix: (Units=GPa)
#
#
# Indices 1 2 3 4 5 6 
#
# 1 127.2803 26.6198 46.4800 -36.0818 -3.1588 -18.7558
# 2 26.6198 121.5948 35.9010 -39.4787 8.6532 -22.0201
# 3 46.4800 35.9010 112.5373 -49.0783 -0.0336 6.2836
# 4 -36.0818 -39.4787 -49.0783 56.0946 -1.4332 -0.9321
# 5 -3.1588 8.6532 -0.0336 -1.4332 57.1815 -15.5981
# 6 -18.7558 -22.0201 6.2836 -0.9321 -15.5981 62.5015
#
#
#
# Elastic Compliance Matrix: (Units=1/GPa)
#
#
# Indices 1 2 3 4 5 6 
#
# 1 0.010855 0.000798 -0.002648 0.005344 0.001793 0.004332
# 2 0.000798 0.011776 -0.000761 0.008202 -0.000302 0.004511
# 3 -0.002648 -0.000761 0.015141 0.010955 -0.000438 -0.002531
# 4 0.005344 0.008202 0.010955 0.036721 0.001133 0.004222
# 5 0.001793 -0.000302 -0.000438 0.001133 0.019095 0.005258
# 6 0.004332 0.004511 -0.002531 0.004222 0.005258 0.020519
#
#
# Mechanical properties :
#
#
# Convention : Reuss Voigt Hill
#
# Bulk Modulus (GPa) = 30.72398 64.37931 47.55164
# Shear Modulus (GPa) = 38.40847 51.98295 45.19571
#
# Velocity S-wave (km/s) = 3.87893 4.51262 4.20772
# Velocity P-wave (km/s) = 5.66545 7.23682 6.49880
#
# Compressibility (1/GPa) = 0.03254787
#
# Stress axis : x y z
#
# Youngs Moduli (GPa) = 92.12520 84.92147 66.04440
#
# Poissons Ratio (x) = -0.06773 0.17491
# Poissons Ratio (y) = -0.07347 0.05026
# Poissons Ratio (z) = 0.24398 0.06463
#
# Static dielectric constant tensor:
#      x y z
#    x 1.980830 0.019380 0.014000 
#    y 0.019380 2.139370 -0.139310 
#    z 0.014000 -0.139310 1.986640 
# 
# From -- ./inp_files/68271.got.cif
#   From: 2010.05.17/outbox.cif.g08.bks.cpg/sg2_35_cif.got.tgz:68271.got - 2010.06.03 11:33:40.
