data_PCOD9067405
_publ_section_title
;
Structure prediction by ZEFSAII (Michael W. Deem and Ramdas Pophale) SiO2 
 PCOD9067405
Probable space group: P -1
;
_chemical_formula_sum "Si O2"
_cell_formula_units_Z 16
_cell_length_a 15.355656
_cell_length_b 15.157980
_cell_length_c 9.511089
_cell_angle_alpha 88.050720
_cell_angle_beta 108.903481
_cell_angle_gamma 29.899897
_cell_volume 777.249716
_symmetry_space_group_name_H-M "P -1"
_symmetry_group_IT_number 2
_symmetry_cell_setting 'triclinic'
loop_
_space_group_symop_operation_xyz
x,y,z
-x,-y,-z
loop_
_atom_site_type_symbol
_atom_site_label
_atom_site_fract_x
_atom_site_fract_y
_atom_site_fract_z
Si Si1 0.417300 0.978586 0.294156
Si Si2 0.465648 0.306200 0.225240
Si Si3 0.083225 0.981636 0.412207
Si Si4 0.029388 0.234086 0.877849
Si Si5 0.681358 0.928377 0.439137
Si Si6 0.364149 0.485043 0.862059
Si Si7 0.901795 0.035059 0.079244
Si Si8 0.145838 0.541812 0.523226
O O1 0.503128 0.003179 0.324640
O O2 0.659380 0.701767 0.421853
O O3 0.298315 0.072438 0.382187
O O4 0.235809 0.109401 0.068707
O O5 0.219346 0.529905 0.176409
O O6 0.668856 0.187455 0.412176
O O7 0.568362 0.115632 0.297273
O O8 0.419718 0.381010 0.038961
O O9 0.868340 0.243492 0.249146
O O10 0.092434 0.899357 0.303101
O O11 0.000000 0.000000 0.500000
O O12 0.986949 0.296700 0.689954
O O13 0.094840 0.072729 0.931580
O O14 0.943565 0.679224 0.514288
O O15 0.285660 0.490683 0.692913
O O16 0.618069 0.308448 0.960851
O O17 0.000000 0.000000 0.000000
#
# Coordination Sequence:
#
# PCOD9067405 Si02
#       8
#     2   2   2   2   2   2   2   2
#     4  11  26  50  72 106 144 182 234 291 353 421
#     4  12  26  46  72 102 141 188 234 289 355 414
#     4  12  26  46  70 100 136 185 239 285 346 418
#     4  12  27  46  70 106 142 182 235 292 350 418
#     4  11  25  49  75 105 142 185 233 290 353 423
#     4  12  25  47  71  99 143 186 232 293 350 413
#     4  12  27  42  68 101 138 184 232 289 349 409
#     4  12  24  47  76 105 142 186 232 291 354 415
#
# _framework density 20.585405000000002
#
# number of rings (size 3 to 8) (size 9 to 14) (size 15 to 20)
#    0.000    0.250    5.000    3.750    5.250    1.500 
#    2.250    0.000    0.000    0.000    0.000    0.000 
#    0.000    0.000    0.000    0.000    0.000    0.000 
#
# Total GULP energy -89537.084700 kJ/mol
# GULP energy per Si atom -5596.067794 kJ/mol
# Density = 2.053855 g / cm^3
# Si number density = 20.585405 Si / 1000 Ang^3
#
#
#
# Elastic Constant Matrix: (Units=GPa)
#
#
# Indices 1 2 3 4 5 6 
#
# 1 86.0329 4.9437 57.4709 18.7609 17.5812 -19.7636
# 2 4.9437 58.6684 20.6608 14.5945 17.8678 -30.6659
# 3 57.4709 20.6608 140.9328 27.2070 12.3926 -8.8708
# 4 18.7609 14.5945 27.2070 41.7230 -4.9368 2.5394
# 5 17.5812 17.8678 12.3926 -4.9368 15.4101 22.0359
# 6 -19.7636 -30.6659 -8.8708 2.5394 22.0359 37.0612
#
#
#
# Elastic Compliance Matrix: (Units=1/GPa)
#
#
# Indices 1 2 3 4 5 6 
#
# 1 0.011284 -0.006695 -0.005505 0.002556 0.010590 -0.007312
# 2 -0.006695 0.005735 -0.001317 0.004705 0.018605 -0.010524
# 3 -0.005505 -0.001317 0.010592 -0.004277 -0.002455 0.000262
# 4 0.002556 0.004705 -0.004277 0.021927 -0.012094 0.009921
# 5 0.010590 0.018605 -0.002455 -0.012094 -0.007312 0.025630
# 6 -0.007312 -0.010524 0.000262 0.009921 0.025630 -0.001481
#
#
# Mechanical properties :
#
#
# Convention : Reuss Voigt Hill
#
# Bulk Modulus (GPa) = 1735.15293 50.19831 892.67562
# Shear Modulus (GPa) = 73.55987 32.34277 52.95132
#
# Velocity S-wave (km/s) = 5.98428 3.96807 5.07726
# Velocity P-wave (km/s) = 29.87446 6.74036 21.65543
#
# Compressibility (1/GPa) = 0.00057632
#
# Stress axis : x y z
#
# Youngs Moduli (GPa) = 88.61804 174.35746 94.41408
#
# Poissons Ratio (x) = 1.16737 0.51975
# Poissons Ratio (y) = 0.59332 0.12437
# Poissons Ratio (z) = 0.48784 0.22968
#
# Static dielectric constant tensor:
#      x y z
#    x 1.713520 0.019990 0.039020 
#    y 0.019990 1.753460 -0.011900 
#    z 0.039020 -0.011900 1.766140 
# 
# From -- ./inp_files/37781.got.cif
#   From: 2010.05.17/outbox.cif.g08.bks.cpg/sg2_19_cif.got.tgz:37781.got - 2010.06.03 11:33:40.
