data_PCOD9067993
_publ_section_title
;
Structure prediction by ZEFSAII (Michael W. Deem and Ramdas Pophale) SiO2 
 PCOD9067993
Probable space group: P -1
;
_chemical_formula_sum "Si O2"
_cell_formula_units_Z 13
_cell_length_a 8.888108
_cell_length_b 9.019031
_cell_length_c 11.492539
_cell_angle_alpha 118.695452
_cell_angle_beta 139.662615
_cell_angle_gamma 80.034441
_cell_volume 491.959812
_symmetry_space_group_name_H-M "P -1"
_symmetry_group_IT_number 2
_symmetry_cell_setting 'triclinic'
loop_
_space_group_symop_operation_xyz
x,y,z
-x,-y,-z
loop_
_atom_site_type_symbol
_atom_site_label
_atom_site_fract_x
_atom_site_fract_y
_atom_site_fract_z
Si Si1 0.580906 0.170673 0.750715
Si Si2 0.500000 0.500000 0.500000
Si Si3 0.747088 0.863000 0.129939
Si Si4 0.213763 0.625160 0.826293
Si Si5 0.263673 0.104687 0.136951
Si Si6 0.120166 0.662358 0.222322
Si Si7 0.074920 0.244895 0.482842
O O1 0.711200 0.186495 0.710152
O O2 0.324833 0.203609 0.595207
O O3 0.558685 0.988167 0.734171
O O4 0.745949 0.323449 0.995951
O O5 0.321902 0.311885 0.272409
O O6 0.290153 0.597778 0.384745
O O7 0.927228 0.746254 0.194149
O O8 0.480854 0.739177 0.971706
O O9 0.727494 0.912634 0.002479
O O10 0.870466 0.059451 0.334389
O O11 0.139472 0.416849 0.669809
O O12 0.012417 0.690629 0.665565
O O13 0.000000 0.000000 0.000000
O O14 0.000000 0.500000 0.000000
#
# Coordination Sequence:
#
# PCOD9067993 Si02
#       7
#     2   1   2   2   2   2   2
#     4  12  26  49  79 113 156 201 254 318 381 454
#     4  12  28  48  78 114 152 204 250 310 392 456
#     4  12  25  50  78 111 157 197 256 316 378 455
#     4  11  27  51  74 111 155 202 260 309 372 463
#     4  12  26  47  77 115 155 198 251 320 380 453
#     4  12  26  49  79 117 152 197 256 318 383 454
#     4  11  26  46  78 106 152 208 250 308 383 443
#
# _framework density 26.424923
#
# number of rings (size 3 to 8) (size 9 to 14) (size 15 to 20)
#    0.000    0.308    4.615    2.769    2.154    3.077 
#    5.538    0.000    0.000    0.000    0.000    0.000 
#    0.000    0.000    0.000    0.000    0.000    0.000 
#
# Total GULP energy -72775.220092 kJ/mol
# GULP energy per Si atom -5598.093853 kJ/mol
# Density = 2.636478 g / cm^3
# Si number density = 26.424923 Si / 1000 Ang^3
#
#
#
# Elastic Constant Matrix: (Units=GPa)
#
#
# Indices 1 2 3 4 5 6 
#
# 1 108.2720 57.8009 55.6177 -23.6586 -5.6042 11.1034
# 2 57.8009 191.7854 62.9907 -8.9387 0.9332 -36.7775
# 3 55.6177 62.9907 149.1513 17.7792 -0.7589 -7.8747
# 4 -23.6586 -8.9387 17.7792 93.2126 -27.6987 1.1301
# 5 -5.6042 0.9332 -0.7589 -27.6987 14.5284 -5.2127
# 6 11.1034 -36.7775 -7.8747 1.1301 -5.2127 45.1060
#
#
#
# Elastic Compliance Matrix: (Units=1/GPa)
#
#
# Indices 1 2 3 4 5 6 
#
# 1 0.025841 -0.004699 -0.010585 0.023993 0.053128 -0.006501
# 2 -0.004699 0.008626 -0.001453 -0.000144 0.000138 0.007955
# 3 -0.010585 -0.001453 0.012846 -0.014337 -0.030474 0.000501
# 4 0.023993 -0.000144 -0.014337 0.051485 0.107613 0.002620
# 5 0.053128 0.000138 -0.030474 0.107613 0.297707 0.013423
# 6 -0.006501 0.007955 0.000501 0.002620 0.013423 0.031830
#
#
# Mechanical properties :
#
#
# Convention : Reuss Voigt Hill
#
# Bulk Modulus (GPa) = 72.25426 89.11415 80.68420
# Shear Modulus (GPa) = 10.71996 48.75601 29.73798
#
# Velocity S-wave (km/s) = 2.01633 4.30010 3.35830
# Velocity P-wave (km/s) = 5.72917 7.64534 6.75553
#
# Compressibility (1/GPa) = 0.01384002
#
# Stress axis : x y z
#
# Youngs Moduli (GPa) = 38.69853 115.93359 77.84778
#
# Poissons Ratio (x) = 0.54472 0.82398
# Poissons Ratio (y) = 0.18183 0.11311
# Poissons Ratio (z) = 0.40961 0.16844
#
# Static dielectric constant tensor:
#      x y z
#    x 2.028590 0.040360 0.036790 
#    y 0.040360 2.046900 0.039940 
#    z 0.036790 0.039940 2.092200 
# 
# From -- ./inp_files/190107.got.cif
#   From: 2010.05.17/outbox.cif.g08.bks.cpg/sg2_96_cif.got.tgz:190107.got - 2010.06.03 11:33:40.
