data_PCOD9067055
_publ_section_title
;
Structure prediction by ZEFSAII (Michael W. Deem and Ramdas Pophale) SiO2 
 PCOD9067055
Probable space group: P -1
;
_chemical_formula_sum "Si O2"
_cell_formula_units_Z 13
_cell_length_a 6.320853
_cell_length_b 8.762257
_cell_length_c 11.796867
_cell_angle_alpha 117.236623
_cell_angle_beta 84.616569
_cell_angle_gamma 74.756489
_cell_volume 542.741583
_symmetry_space_group_name_H-M "P -1"
_symmetry_group_IT_number 2
_symmetry_cell_setting 'triclinic'
loop_
_space_group_symop_operation_xyz
x,y,z
-x,-y,-z
loop_
_atom_site_type_symbol
_atom_site_label
_atom_site_fract_x
_atom_site_fract_y
_atom_site_fract_z
Si Si1 0.173884 0.462162 0.374361
Si Si2 0.440328 0.209110 0.823111
Si Si3 0.230993 0.828369 0.413624
Si Si4 0.603159 0.169728 0.360046
Si Si5 0.000000 0.500000 0.000000
Si Si6 0.245641 0.776768 0.005529
Si Si7 0.962975 0.198043 0.203316
O O1 0.182512 0.642391 0.375602
O O2 0.409712 0.342658 0.378251
O O3 0.000000 0.500000 0.500000
O O4 0.097512 0.336659 0.247790
O O5 0.643682 0.185772 0.717176
O O6 0.513781 0.269707 0.961289
O O7 0.409587 0.013257 0.758678
O O8 0.207108 0.368434 0.862995
O O9 0.403509 0.841440 0.508239
O O10 0.000000 0.000000 0.500000
O O11 0.842269 0.189186 0.324169
O O12 0.095144 0.671380 0.034506
O O13 0.233062 0.744672 0.861868
O O14 0.129727 0.994916 0.100807
#
# Coordination Sequence:
#
# PCOD9067055 Si02
#       7
#     2   2   2   2   1   2   2
#     4  12  26  47  78 110 150 197 256 312 382 453
#     4  12  27  49  75 111 157 201 253 310 388 449
#     4  12  28  49  80 114 156 199 251 322 388 453
#     4  12  25  50  76 110 152 199 253 317 379 459
#     4  12  28  46  72 106 158 200 252 306 374 452
#     4  11  26  48  71 109 147 204 252 310 372 454
#     4  11  25  47  77 107 147 195 258 309 378 451
#
# _framework density 23.952468
#
# number of rings (size 3 to 8) (size 9 to 14) (size 15 to 20)
#    0.000    0.308    4.615    3.231    4.308    1.846 
#    0.000    0.000    0.000    0.000    0.000    0.000 
#    0.000    0.000    0.000    0.000    0.000    0.000 
#
# Total GULP energy -72573.254545 kJ/mol
# GULP energy per Si atom -5582.558042 kJ/mol
# Density = 2.389795 g / cm^3
# Si number density = 23.952468 Si / 1000 Ang^3
#
#
#
# Elastic Constant Matrix: (Units=GPa)
#
#
# Indices 1 2 3 4 5 6 
#
# 1 57.4795 45.2737 29.0660 15.8054 3.7886 20.7440
# 2 45.2737 131.7730 32.5294 37.6145 6.9393 16.9551
# 3 29.0660 32.5294 68.1536 14.1505 4.9682 -1.5804
# 4 15.8054 37.6145 14.1505 43.5387 -4.1995 9.3186
# 5 3.7886 6.9393 4.9682 -4.1995 59.3267 10.8686
# 6 20.7440 16.9551 -1.5804 9.3186 10.8686 38.3716
#
#
#
# Elastic Compliance Matrix: (Units=1/GPa)
#
#
# Indices 1 2 3 4 5 6 
#
# 1 0.035183 -0.007406 -0.012450 0.001712 0.002994 -0.017524
# 2 -0.007406 0.012753 -0.001060 -0.008321 -0.001669 0.000818
# 3 -0.012450 -0.001060 0.021781 -0.004061 -0.003013 0.009935
# 4 0.001712 -0.008321 -0.004061 0.032751 0.004753 -0.006716
# 5 0.002994 -0.001669 -0.003013 0.004753 0.018821 -0.007490
# 6 -0.017524 0.000818 0.009935 -0.006716 -0.007490 0.039335
#
#
# Mechanical properties :
#
#
# Convention : Reuss Voigt Hill
#
# Bulk Modulus (GPa) = 35.86172 52.34936 44.10554
# Shear Modulus (GPa) = 23.61282 38.28320 30.94801
#
# Velocity S-wave (km/s) = 3.14318 4.00221 3.59842
# Velocity P-wave (km/s) = 5.30823 6.57722 5.97650
#
# Compressibility (1/GPa) = 0.02788489
#
# Stress axis : x y z
#
# Youngs Moduli (GPa) = 28.42313 78.41479 45.91071
#
# Poissons Ratio (x) = 0.58074 0.57158
# Poissons Ratio (y) = 0.21050 0.04867
# Poissons Ratio (z) = 0.35386 0.08313
#
# Static dielectric constant tensor:
#      x y z
#    x 1.911860 -0.067360 0.058000 
#    y -0.067360 1.900110 -0.005740 
#    z 0.058000 -0.005740 1.873430 
# 
# From -- ./inp_files/22402.got.cif
#   From: 2010.05.17/outbox.cif.g08.bks.cpg/sg2_12_cif.got.tgz:22402.got - 2010.06.03 11:33:40.
