data_PCOD9067659
_publ_section_title
;
Structure prediction by ZEFSAII (Michael W. Deem and Ramdas Pophale) SiO2 
 PCOD9067659
Probable space group: P -1
;
_chemical_formula_sum "Si O2"
_cell_formula_units_Z 16
_cell_length_a 15.035494
_cell_length_b 4.828323
_cell_length_c 15.964296
_cell_angle_alpha 88.556943
_cell_angle_beta 36.361871
_cell_angle_gamma 73.884028
_cell_volume 618.798630
_symmetry_space_group_name_H-M "P -1"
_symmetry_group_IT_number 2
_symmetry_cell_setting 'triclinic'
loop_
_space_group_symop_operation_xyz
x,y,z
-x,-y,-z
loop_
_atom_site_type_symbol
_atom_site_label
_atom_site_fract_x
_atom_site_fract_y
_atom_site_fract_z
Si Si1 0.458049 0.937015 0.351513
Si Si2 0.056452 0.278221 0.380359
Si Si3 0.791368 0.908837 0.305575
Si Si4 0.024402 0.213003 0.117316
Si Si5 0.544626 0.312046 0.054053
Si Si6 0.739097 0.209075 0.642083
Si Si7 0.763644 0.631346 0.909368
Si Si8 0.683023 0.238512 0.213167
O O1 0.356364 0.910038 0.349084
O O2 0.612068 0.603417 0.254871
O O3 0.332750 0.051976 0.524435
O O4 0.543780 0.163017 0.274864
O O5 0.901048 0.209865 0.475302
O O6 0.000000 0.500000 0.500000
O O7 0.114859 0.427578 0.260934
O O8 0.199970 0.980345 0.315983
O O9 0.882926 0.559386 0.203497
O O10 0.927537 0.027708 0.231047
O O11 0.694301 0.133517 0.301546
O O12 0.146265 0.293625 0.082771
O O13 0.138850 0.983837 0.960343
O O14 0.695457 0.379553 0.976275
O O15 0.607045 0.951448 0.003353
O O16 0.500000 0.500000 0.000000
O O17 0.386399 0.460072 0.232003
#
# Coordination Sequence:
#
# PCOD9067659 Si02
#       8
#     2   2   2   2   2   2   2   2
#     4  12  26  44  71 100 138 174 226 275 334 397
#     4  11  26  42  67  92 136 176 222 269 331 387
#     4  12  25  45  72 101 136 176 221 275 342 400
#     4  12  25  44  71 102 137 175 224 278 331 398
#     4  12  24  44  66  95 129 180 226 267 328 380
#     4  11  26  43  65  98 131 177 221 274 326 391
#     4  12  26  44  68  98 134 175 225 271 324 391
#     4  12  25  47  70 102 135 177 220 277 338 406
#
# _framework density 25.856551
#
# number of rings (size 3 to 8) (size 9 to 14) (size 15 to 20)
#    0.000    0.250    1.250    7.875    7.000    0.000 
#    0.000    0.000    0.000    0.000    0.000    0.000 
#    0.000    0.000    0.000    0.000    0.000    0.000 
#
# Total GULP energy -89807.487404 kJ/mol
# GULP energy per Si atom -5612.967963 kJ/mol
# Density = 2.579770 g / cm^3
# Si number density = 25.856551 Si / 1000 Ang^3
#
#
#
# Elastic Constant Matrix: (Units=GPa)
#
#
# Indices 1 2 3 4 5 6 
#
# 1 101.7777 1.1048 20.4814 6.0299 -19.1883 -2.3751
# 2 1.1048 94.5369 15.3922 -8.4483 -14.8456 6.3904
# 3 20.4814 15.3922 128.7610 -8.4393 1.5781 -4.0873
# 4 6.0299 -8.4483 -8.4393 12.6689 -2.8388 -1.3754
# 5 -19.1883 -14.8456 1.5781 -2.8388 21.3296 -6.9210
# 6 -2.3751 6.3904 -4.0873 -1.3754 -6.9210 36.4421
#
#
#
# Elastic Compliance Matrix: (Units=1/GPa)
#
#
# Indices 1 2 3 4 5 6 
#
# 1 0.013218 0.001978 -0.002640 -0.003317 0.013909 0.002735
# 2 0.001978 0.013696 -0.001431 0.010173 0.012902 0.000401
# 3 -0.002640 -0.001431 0.008780 0.005541 -0.003058 0.000692
# 4 -0.003317 0.010173 0.005541 0.095702 0.018274 0.005704
# 5 0.013909 0.012902 -0.003058 0.018274 0.075350 0.013301
# 6 0.002735 0.000401 0.000692 0.005704 0.013301 0.030368
#
#
# Mechanical properties :
#
#
# Convention : Reuss Voigt Hill
#
# Bulk Modulus (GPa) = 31.73713 44.33694 38.03704
# Shear Modulus (GPa) = 19.85701 33.29458 26.57580
#
# Velocity S-wave (km/s) = 2.77423 3.59230 3.20944
# Velocity P-wave (km/s) = 4.75003 5.86435 5.33636
#
# Compressibility (1/GPa) = 0.03150883
#
# Stress axis : x y z
#
# Youngs Moduli (GPa) = 75.65575 73.01546 113.89661
#
# Poissons Ratio (x) = -0.14444 0.30069
# Poissons Ratio (y) = -0.14967 0.16293
# Poissons Ratio (z) = 0.19973 0.10445
#
# Static dielectric constant tensor:
#      x y z
#    x 2.060120 -0.045250 -0.049490 
#    y -0.045250 2.021230 0.046010 
#    z -0.049490 0.046010 2.010050 
# 
# From -- ./inp_files/525763.got.cif
#   From: 2010.05.17/outbox.cif.g08.bks.cpg/sg2_263_cif.got.tgz:525763.got - 2010.06.03 11:33:40.
