data_PCOD9067047
_publ_section_title
;
Structure prediction by ZEFSAII (Michael W. Deem and Ramdas Pophale) SiO2 
 PCOD9067047
Probable space group: P -1
;
_chemical_formula_sum "Si O2"
_cell_formula_units_Z 14
_cell_length_a 7.963118
_cell_length_b 16.885697
_cell_length_c 9.744462
_cell_angle_alpha 35.497850
_cell_angle_beta 74.437148
_cell_angle_gamma 50.322770
_cell_volume 484.058068
_symmetry_space_group_name_H-M "P -1"
_symmetry_group_IT_number 2
_symmetry_cell_setting 'triclinic'
loop_
_space_group_symop_operation_xyz
x,y,z
-x,-y,-z
loop_
_atom_site_type_symbol
_atom_site_label
_atom_site_fract_x
_atom_site_fract_y
_atom_site_fract_z
Si Si1 0.220308 0.764082 0.383088
Si Si2 0.827860 0.556330 0.827913
Si Si3 0.214682 0.482791 0.648166
Si Si4 0.220509 0.660812 0.015077
Si Si5 0.355234 0.013901 0.320062
Si Si6 0.521002 0.118508 0.929401
Si Si7 0.257843 0.928172 0.731609
O O1 0.175954 0.668031 0.414857
O O2 0.739769 0.103310 0.865140
O O3 0.507010 0.551819 0.680381
O O4 0.992100 0.901898 0.353782
O O5 0.531392 0.783016 0.567610
O O6 0.982171 0.540607 0.694136
O O7 0.802876 0.410472 0.019359
O O8 0.000000 0.500000 0.000000
O O9 0.484907 0.290000 0.943622
O O10 0.277780 0.366677 0.657151
O O11 0.206012 0.830307 0.778962
O O12 0.930650 0.799029 0.950271
O O13 0.534544 0.030523 0.197139
O O14 0.312449 0.017930 0.485713
O O15 0.500000 0.000000 0.000000
#
# Coordination Sequence:
#
# PCOD9067047 Si02
#       7
#     2   2   2   2   2   2   2
#     4  11  28  52  79 113 158 210 257 316 393 460
#     4  12  26  47  76 120 157 202 252 328 395 458
#     4  11  27  50  80 114 156 204 263 318 389 463
#     4  11  25  47  76 111 158 201 259 313 387 458
#     4  12  27  48  78 116 155 196 261 321 385 457
#     4  12  27  53  78 116 157 209 257 320 385 467
#     4  11  26  50  81 117 152 201 261 328 387 459
#
# _framework density 28.922149999999998
#
# number of rings (size 3 to 8) (size 9 to 14) (size 15 to 20)
#    0.000    0.571    2.857    3.429    4.000    3.429 
#    7.714    0.000    0.000    0.000    0.000    0.000 
#    0.000    0.000    0.000    0.000    0.000    0.000 
#
# Total GULP energy -78295.970381 kJ/mol
# GULP energy per Si atom -5592.569313 kJ/mol
# Density = 2.885632 g / cm^3
# Si number density = 28.922150 Si / 1000 Ang^3
#
#
#
# Elastic Constant Matrix: (Units=GPa)
#
#
# Indices 1 2 3 4 5 6 
#
# 1 182.0699 97.1473 71.9934 -12.5219 -30.7684 -0.9852
# 2 97.1473 205.5185 82.3354 -28.0248 -25.5692 -24.8939
# 3 71.9934 82.3354 195.8189 -36.2651 3.2379 0.7602
# 4 -12.5219 -28.0248 -36.2651 65.9123 -4.5666 -7.0976
# 5 -30.7684 -25.5692 3.2379 -4.5666 58.4900 -17.5911
# 6 -0.9852 -24.8939 0.7602 -7.0976 -17.5911 80.4002
#
#
#
# Elastic Compliance Matrix: (Units=1/GPa)
#
#
# Indices 1 2 3 4 5 6 
#
# 1 0.008282 -0.002792 -0.002018 -0.000514 0.003179 -0.000094
# 2 -0.002792 0.008189 -0.002034 0.002449 0.003466 0.003495
# 3 -0.002018 -0.002034 0.007199 0.002428 -0.002476 -0.001050
# 4 -0.000514 0.002449 0.002428 0.017975 0.002960 0.002963
# 5 0.003179 0.003466 -0.002476 0.002960 0.022557 0.006332
# 6 -0.000094 0.003495 -0.001050 0.002963 0.006332 0.015176
#
#
# Mechanical properties :
#
#
# Convention : Reuss Voigt Hill
#
# Bulk Modulus (GPa) = 100.19443 120.70662 110.45052
# Shear Modulus (GPa) = 51.87116 63.08924 57.48020
#
# Velocity S-wave (km/s) = 4.23954 4.67556 4.46288
# Velocity P-wave (km/s) = 7.66048 8.42457 8.05159
#
# Compressibility (1/GPa) = 0.00998059
#
# Stress axis : x y z
#
# Youngs Moduli (GPa) = 120.74973 122.11737 138.91473
#
# Poissons Ratio (x) = 0.34095 0.28036
# Poissons Ratio (y) = 0.33713 0.28256
# Poissons Ratio (z) = 0.24370 0.24839
#
# Static dielectric constant tensor:
#      x y z
#    x 2.464130 0.164940 0.005910 
#    y 0.164940 2.420060 0.042880 
#    z 0.005910 0.042880 2.202240 
# 
# From -- ./inp_files/401805.got.cif
#   From: 2010.05.17/outbox.cif.g08.bks.cpg/sg2_201_cif.got.tgz:401805.got - 2010.06.03 11:33:40.
