data_PCOD9067388
_publ_section_title
;
Structure prediction by ZEFSAII (Michael W. Deem and Ramdas Pophale) SiO2 
 PCOD9067388
Probable space group: P -1
;
_chemical_formula_sum "Si O2"
_cell_formula_units_Z 16
_cell_length_a 13.285139
_cell_length_b 7.722978
_cell_length_c 16.145784
_cell_angle_alpha 85.707788
_cell_angle_beta 25.807101
_cell_angle_gamma 92.933078
_cell_volume 691.820117
_symmetry_space_group_name_H-M "P -1"
_symmetry_group_IT_number 2
_symmetry_cell_setting 'triclinic'
loop_
_space_group_symop_operation_xyz
x,y,z
-x,-y,-z
loop_
_atom_site_type_symbol
_atom_site_label
_atom_site_fract_x
_atom_site_fract_y
_atom_site_fract_z
Si Si1 0.674920 0.444447 0.613206
Si Si2 0.558732 0.083192 0.219516
Si Si3 0.959312 0.333264 0.977296
Si Si4 0.455337 0.338738 0.153990
Si Si5 0.696411 0.627382 0.413603
Si Si6 0.847913 0.816800 0.016866
Si Si7 0.142076 0.322003 0.227880
Si Si8 0.178393 0.954828 0.639319
O O1 0.692639 0.572562 0.674712
O O2 0.683018 0.540735 0.515942
O O3 0.399422 0.319897 0.824984
O O4 0.901172 0.359659 0.444196
O O5 0.479579 0.160602 0.191564
O O6 0.782126 0.002427 0.041796
O O7 0.380296 0.954023 0.420837
O O8 0.677527 0.255991 0.180744
O O9 0.060254 0.383222 0.810624
O O10 0.104681 0.212118 0.921305
O O11 0.000000 0.500000 0.000000
O O12 0.309630 0.288903 0.178934
O O13 0.699241 0.496249 0.943394
O O14 0.500000 0.500000 0.500000
O O15 0.735265 0.842390 0.393970
O O16 0.098007 0.827337 0.783877
O O17 0.058014 0.143669 0.237984
#
# Coordination Sequence:
#
# PCOD9067388 Si02
#       8
#     2   2   2   2   2   2   2   2
#     4  12  23  47  74 104 147 187 237 297 358 428
#     4  12  25  46  69 101 143 191 229 298 355 418
#     4  12  26  44  71 102 144 190 235 290 357 428
#     4  11  25  49  74 104 143 186 241 300 364 422
#     4  12  25  44  71 105 141 190 237 285 355 434
#     4  12  26  45  68 105 147 183 239 289 350 432
#     4  11  26  46  76 107 137 189 243 298 363 427
#     4  12  26  46  70 105 145 186 239 296 351 424
#
# _framework density 23.127400000000002
#
# number of rings (size 3 to 8) (size 9 to 14) (size 15 to 20)
#    0.000    0.250    6.250    3.000    1.750    1.000 
#    0.000    0.625    0.000    0.000    0.000    0.000 
#    0.000    0.000    0.000    0.000    0.000    0.000 
#
# Total GULP energy -89154.531444 kJ/mol
# GULP energy per Si atom -5572.158215 kJ/mol
# Density = 2.307476 g / cm^3
# Si number density = 23.127400 Si / 1000 Ang^3
#
#
#
# Elastic Constant Matrix: (Units=GPa)
#
#
# Indices 1 2 3 4 5 6 
#
# 1 106.4757 23.5140 17.7894 -0.2192 0.6398 8.8045
# 2 23.5140 63.5435 5.0763 0.9834 -3.7048 8.9542
# 3 17.7894 5.0763 132.2515 -12.9781 19.3620 -4.5059
# 4 -0.2192 0.9834 -12.9781 31.6546 4.0879 -7.0642
# 5 0.6398 -3.7048 19.3620 4.0879 37.3609 -2.9241
# 6 8.8045 8.9542 -4.5059 -7.0642 -2.9241 44.4779
#
#
#
# Elastic Compliance Matrix: (Units=1/GPa)
#
#
# Indices 1 2 3 4 5 6 
#
# 1 0.010546 -0.003534 -0.001443 -0.000797 0.000176 -0.001637
# 2 -0.003534 0.017705 -0.000818 -0.001887 0.002204 -0.003102
# 3 -0.001443 -0.000818 0.009072 0.004799 -0.005142 0.001793
# 4 -0.000797 -0.001887 0.004799 0.035806 -0.006084 0.006311
# 5 0.000176 0.002204 -0.005142 -0.006084 0.030314 0.000027
# 6 -0.001637 -0.003102 0.001793 0.006311 0.000027 0.024617
#
#
# Mechanical properties :
#
#
# Convention : Reuss Voigt Hill
#
# Bulk Modulus (GPa) = 38.85860 43.89225 41.37542
# Shear Modulus (GPa) = 33.73208 39.75808 36.74508
#
# Velocity S-wave (km/s) = 3.82322 4.15069 3.99031
# Velocity P-wave (km/s) = 6.02725 6.48002 6.25773
#
# Compressibility (1/GPa) = 0.02573433
#
# Stress axis : x y z
#
# Youngs Moduli (GPa) = 94.82309 56.48080 110.23299
#
# Poissons Ratio (x) = 0.19960 0.15902
# Poissons Ratio (y) = 0.33510 0.09014
# Poissons Ratio (z) = 0.13679 0.04618
#
# Static dielectric constant tensor:
#      x y z
#    x 1.883010 -0.009830 -0.026750 
#    y -0.009830 2.079620 -0.069520 
#    z -0.026750 -0.069520 1.946790 
# 
# From -- ./inp_files/515618.got.cif
#   From: 2010.05.17/outbox.cif.g08.bks.cpg/sg2_258_cif.got.tgz:515618.got - 2010.06.03 11:33:40.
