data_PCOD9067908
_publ_section_title
;
Structure prediction by ZEFSAII (Michael W. Deem and Ramdas Pophale) SiO2 
 PCOD9067908
Probable space group: P -1
;
_chemical_formula_sum "Si O2"
_cell_formula_units_Z 16
_cell_length_a 15.847334
_cell_length_b 10.296374
_cell_length_c 13.067475
_cell_angle_alpha 57.396182
_cell_angle_beta 36.940658
_cell_angle_gamma 33.386972
_cell_volume 649.728809
_symmetry_space_group_name_H-M "P -1"
_symmetry_group_IT_number 2
_symmetry_cell_setting 'triclinic'
loop_
_space_group_symop_operation_xyz
x,y,z
-x,-y,-z
loop_
_atom_site_type_symbol
_atom_site_label
_atom_site_fract_x
_atom_site_fract_y
_atom_site_fract_z
Si Si1 0.870426 0.985648 0.465643
Si Si2 0.708997 0.265797 0.972403
Si Si3 0.582776 0.527701 0.203650
Si Si4 0.392854 0.947241 0.719311
Si Si5 0.432947 0.751294 0.544458
Si Si6 0.103714 0.499792 0.805136
Si Si7 0.264725 0.274006 0.066292
Si Si8 0.077457 0.490226 0.538355
O O1 0.996483 0.739109 0.509887
O O2 0.698213 0.219062 0.614724
O O3 0.697806 0.076453 0.503114
O O4 0.064325 0.901222 0.245578
O O5 0.668470 0.395321 0.064607
O O6 0.706567 0.091296 0.087919
O O7 0.500000 0.500000 0.000000
O O8 0.649385 0.348429 0.303706
O O9 0.679299 0.614767 0.090243
O O10 0.385367 0.879016 0.643299
O O11 0.653705 0.750069 0.590742
O O12 0.256308 0.225977 0.726611
O O13 0.710561 0.527913 0.351990
O O14 0.875381 0.729804 0.861440
O O15 0.000000 0.500000 0.000000
O O16 0.083373 0.467545 0.249153
O O17 0.500000 0.000000 0.000000
O O18 0.000000 0.500000 0.500000
#
# Coordination Sequence:
#
# PCOD9067908 Si02
#       8
#     2   2   2   2   2   2   2   2
#     4  12  25  47  77 106 148 196 243 307 365 437
#     4  11  26  46  72 111 148 194 246 301 373 434
#     4  11  27  47  75 106 148 190 250 297 368 438
#     4  11  26  48  71 108 148 193 247 303 367 440
#     4  11  26  49  72 108 147 191 244 303 373 431
#     4  12  28  45  74 107 146 192 244 300 367 436
#     4  12  27  48  71 110 144 187 243 301 364 437
#     4  12  25  45  75 103 148 196 243 301 368 433
#
# _framework density 24.625658000000001
#
# number of rings (size 3 to 8) (size 9 to 14) (size 15 to 20)
#    0.000    0.500    3.750    3.000    8.750    1.500 
#    0.000    0.000    0.000    0.000    0.000    0.000 
#    0.000    0.000    0.000    0.000    0.000    0.000 
#
# Total GULP energy -89490.883207 kJ/mol
# GULP energy per Si atom -5593.180200 kJ/mol
# Density = 2.456961 g / cm^3
# Si number density = 24.625658 Si / 1000 Ang^3
#
#
#
# Elastic Constant Matrix: (Units=GPa)
#
#
# Indices 1 2 3 4 5 6 
#
# 1 72.7060 11.5464 27.0816 3.6224 -3.0553 -15.5183
# 2 11.5464 82.8068 27.9862 -4.9040 -15.5245 -12.0421
# 3 27.0816 27.9862 197.7140 -16.3411 -0.7469 -3.3702
# 4 3.6224 -4.9040 -16.3411 52.5368 -5.5214 -3.9209
# 5 -3.0553 -15.5245 -0.7469 -5.5214 42.2300 6.8011
# 6 -15.5183 -12.0421 -3.3702 -3.9209 6.8011 42.3818
#
#
#
# Elastic Compliance Matrix: (Units=1/GPa)
#
#
# Indices 1 2 3 4 5 6 
#
# 1 0.015860 -0.000871 -0.002080 -0.001453 -0.000253 0.005301
# 2 -0.000871 0.014204 -0.001691 0.001591 0.004862 0.002949
# 3 -0.002080 -0.001691 0.005710 0.001681 -0.000359 -0.000575
# 4 -0.001453 0.001591 0.001681 0.020221 0.002919 0.001456
# 5 -0.000253 0.004862 -0.000359 0.002919 0.026256 -0.002683
# 6 0.005301 0.002949 -0.000575 0.001456 -0.002683 0.026893
#
#
# Mechanical properties :
#
#
# Convention : Reuss Voigt Hill
#
# Bulk Modulus (GPa) = 37.75058 54.05057 45.90057
# Shear Modulus (GPa) = 39.28996 46.53722 42.91359
#
# Velocity S-wave (km/s) = 3.99869 4.35188 4.17902
# Velocity P-wave (km/s) = 6.05660 6.87375 6.47807
#
# Compressibility (1/GPa) = 0.02648966
#
# Stress axis : x y z
#
# Youngs Moduli (GPa) = 63.05102 70.40311 175.13663
#
# Poissons Ratio (x) = 0.06134 0.36424
# Poissons Ratio (y) = 0.05494 0.29617
# Poissons Ratio (z) = 0.13113 0.11906
#
# Static dielectric constant tensor:
#      x y z
#    x 1.361540 0.242910 -0.058530 
#    y 0.242910 1.915600 0.027230 
#    z -0.058530 0.027230 2.006110 
# 
# From -- ./inp_files/336697.got.cif
#   From: 2010.05.17/outbox.cif.g08.bks.cpg/sg2_169_cif.got.tgz:336697.got - 2010.06.03 11:33:40.
