data_PCOD9067800
_publ_section_title
;
Structure prediction by ZEFSAII (Michael W. Deem and Ramdas Pophale) SiO2 
 PCOD9067800
Probable space group: P -1
;
_chemical_formula_sum "Si O2"
_cell_formula_units_Z 16
_cell_length_a 14.422878
_cell_length_b 15.125129
_cell_length_c 9.363416
_cell_angle_alpha 140.107234
_cell_angle_beta 81.599586
_cell_angle_gamma 129.117663
_cell_volume 745.964138
_symmetry_space_group_name_H-M "P -1"
_symmetry_group_IT_number 2
_symmetry_cell_setting 'triclinic'
loop_
_space_group_symop_operation_xyz
x,y,z
-x,-y,-z
loop_
_atom_site_type_symbol
_atom_site_label
_atom_site_fract_x
_atom_site_fract_y
_atom_site_fract_z
Si Si1 0.637945 0.087634 0.244247
Si Si2 0.597365 0.734761 0.850495
Si Si3 0.596240 0.732514 0.181699
Si Si4 0.853411 0.407973 0.845923
Si Si5 0.022811 0.885952 0.436059
Si Si6 0.142411 0.587260 0.654478
Si Si7 0.021653 0.882633 0.766464
Si Si8 0.635427 0.070999 0.727967
O O1 0.785281 0.249335 0.526152
O O2 0.712191 0.249890 0.290980
O O3 0.503441 0.014204 0.264175
O O4 0.573612 0.857623 0.941529
O O5 0.500000 0.500000 0.500000
O O6 0.548311 0.682046 0.963249
O O7 0.788351 0.929279 0.038460
O O8 0.788673 0.931301 0.386932
O O9 0.574440 0.851953 0.412551
O O10 0.500000 0.500000 0.000000
O O11 0.708368 0.238674 0.783685
O O12 0.000000 0.500000 0.000000
O O13 0.916341 0.635837 0.081836
O O14 0.976375 0.842328 0.559549
O O15 0.000000 0.000000 0.500000
O O16 0.000000 0.500000 0.500000
O O17 0.080033 0.364777 0.447762
O O18 0.214811 0.759980 0.985055
O O19 0.000000 0.000000 0.000000
#
# Coordination Sequence:
#
# PCOD9067800 Si02
#       8
#     2   2   2   2   2   2   2   2
#     4  12  27  44  74 111 142 190 245 296 369 426
#     4  11  26  47  69 103 149 191 234 293 364 434
#     4  11  27  45  70 104 147 188 236 295 366 426
#     4  12  22  47  76 102 142 188 247 301 350 424
#     4  11  26  45  73 105 141 188 241 299 358 425
#     4  12  26  47  76 104 143 192 246 297 361 430
#     4  11  26  47  70 105 142 189 242 296 357 430
#     4  12  26  46  74 107 147 186 244 307 354 432
#
# _framework density 21.448751999999999
#
# number of rings (size 3 to 8) (size 9 to 14) (size 15 to 20)
#    0.000    0.500    5.000    2.250    7.000    2.000 
#    0.000    0.000    0.000    0.000    0.000    0.000 
#    0.000    0.000    0.000    0.000    0.000    0.000 
#
# Total GULP energy -89634.234142 kJ/mol
# GULP energy per Si atom -5602.139634 kJ/mol
# Density = 2.139993 g / cm^3
# Si number density = 21.448752 Si / 1000 Ang^3
#
#
#
# Elastic Constant Matrix: (Units=GPa)
#
#
# Indices 1 2 3 4 5 6 
#
# 1 102.5737 45.6249 45.5430 4.2659 -33.6396 -6.7900
# 2 45.6249 164.2189 57.0510 20.3542 -24.9706 -8.1263
# 3 45.5430 57.0510 159.4677 4.9122 -34.4238 -12.1603
# 4 4.2659 20.3542 4.9122 40.0761 -9.8716 -7.5924
# 5 -33.6396 -24.9706 -34.4238 -9.8716 42.3063 -1.4071
# 6 -6.7900 -8.1263 -12.1603 -7.5924 -1.4071 38.2505
#
#
#
# Elastic Compliance Matrix: (Units=1/GPa)
#
#
# Indices 1 2 3 4 5 6 
#
# 1 0.014657 -0.002385 -0.001020 0.002789 0.010157 0.002698
# 2 -0.002385 0.007917 -0.001968 -0.003441 0.000371 -0.000037
# 3 -0.001020 -0.001968 0.008621 0.001945 0.005587 0.002733
# 4 0.002789 -0.003441 0.001945 0.029604 0.008896 0.006586
# 5 0.010157 0.000371 0.005587 0.008896 0.038781 0.006850
# 6 0.002698 -0.000037 0.002733 0.006586 0.006850 0.029043
#
#
# Mechanical properties :
#
#
# Convention : Reuss Voigt Hill
#
# Bulk Modulus (GPa) = 48.90609 80.29977 64.60293
# Shear Modulus (GPa) = 34.20323 42.66267 38.43295
#
# Velocity S-wave (km/s) = 3.99764 4.46472 4.23762
# Velocity P-wave (km/s) = 6.64522 8.00609 7.35719
#
# Compressibility (1/GPa) = 0.02044735
#
# Stress axis : x y z
#
# Youngs Moduli (GPa) = 68.22868 126.31160 116.00005
#
# Poissons Ratio (x) = 0.30131 0.11833
# Poissons Ratio (y) = 0.16276 0.22827
# Poissons Ratio (z) = 0.06960 0.24856
#
# Static dielectric constant tensor:
#      x y z
#    x 1.807980 0.005010 0.033630 
#    y 0.005010 1.769350 -0.007940 
#    z 0.033630 -0.007940 1.781660 
# 
# From -- ./inp_files/243965.got.cif
#   From: 2010.05.17/outbox.cif.g08.bks.cpg/sg2_122_cif.got.tgz:243965.got - 2010.06.03 11:33:40.
