data_PCOD9067680
_publ_section_title
;
Structure prediction by ZEFSAII (Michael W. Deem and Ramdas Pophale) SiO2 
 PCOD9067680
Probable space group: P -1
;
_chemical_formula_sum "Si O2"
_cell_formula_units_Z 16
_cell_length_a 18.824896
_cell_length_b 5.250634
_cell_length_c 14.015794
_cell_angle_alpha 54.272709
_cell_angle_beta 136.840585
_cell_angle_gamma 110.692840
_cell_volume 762.687733
_symmetry_space_group_name_H-M "P -1"
_symmetry_group_IT_number 2
_symmetry_cell_setting 'triclinic'
loop_
_space_group_symop_operation_xyz
x,y,z
-x,-y,-z
loop_
_atom_site_type_symbol
_atom_site_label
_atom_site_fract_x
_atom_site_fract_y
_atom_site_fract_z
Si Si1 0.756854 0.182347 0.603733
Si Si2 0.494696 0.875831 0.915729
Si Si3 0.990062 0.880730 0.910365
Si Si4 0.918722 0.164106 0.461041
Si Si5 0.661406 0.148437 0.886375
Si Si6 0.893726 0.836758 0.204394
Si Si7 0.614946 0.900676 0.681461
Si Si8 0.728025 0.915072 0.434964
O O1 0.755784 0.539778 0.561085
O O2 0.873518 0.015663 0.737353
O O3 0.697291 0.005149 0.663272
O O4 0.710869 0.135959 0.463761
O O5 0.586690 0.976568 0.918653
O O6 0.383337 0.036417 0.734331
O O7 0.500000 0.500000 0.000000
O O8 0.500000 0.000000 0.000000
O O9 0.070026 0.050742 0.887572
O O10 0.000000 0.500000 0.000000
O O11 0.000000 0.000000 0.000000
O O12 0.872334 0.487337 0.291258
O O13 0.999229 0.161709 0.629370
O O14 0.820730 0.007939 0.438030
O O15 0.000000 0.000000 0.500000
O O16 0.632323 0.522798 0.788456
O O17 0.637527 0.050073 0.774572
O O18 0.782040 0.052323 0.058988
O O19 0.500000 0.000000 0.500000
#
# Coordination Sequence:
#
# PCOD9067680 Si02
#       8
#     2   2   2   2   2   2   2   2
#     4  12  24  44  68 100 134 177 229 276 343 404
#     4  12  26  45  69 100 136 177 226 285 345 403
#     4  12  25  43  67  98 138 179 224 278 338 407
#     4  11  26  43  73  97 143 188 233 290 337 422
#     4  12  26  45  72 103 140 178 233 288 347 419
#     4  11  26  45  67 106 138 186 235 282 352 406
#     4  12  25  46  72 102 137 184 230 287 350 411
#     4  12  25  45  70 100 135 180 229 281 342 408
#
# _framework density 20.978442000000001
#
# number of rings (size 3 to 8) (size 9 to 14) (size 15 to 20)
#    0.000    0.250    1.250    7.875    7.000    0.000 
#    0.000    0.000    0.000    0.000    0.000    0.000 
#    0.000    0.000    0.000    0.000    0.000    0.000 
#
# Total GULP energy -89367.734045 kJ/mol
# GULP energy per Si atom -5585.483378 kJ/mol
# Density = 2.093069 g / cm^3
# Si number density = 20.978442 Si / 1000 Ang^3
#
#
#
# Elastic Constant Matrix: (Units=GPa)
#
#
# Indices 1 2 3 4 5 6 
#
# 1 163.6872 35.6510 12.4617 -0.1326 -10.2323 29.0471
# 2 35.6510 83.0812 8.2811 -21.5947 -7.6232 5.2020
# 3 12.4617 8.2811 99.3837 -16.2488 15.5630 9.5369
# 4 -0.1326 -21.5947 -16.2488 44.9002 -3.0024 -6.4690
# 5 -10.2323 -7.6232 15.5630 -3.0024 40.9311 6.4620
# 6 29.0471 5.2020 9.5369 -6.4690 6.4620 50.5932
#
#
#
# Elastic Compliance Matrix: (Units=1/GPa)
#
#
# Indices 1 2 3 4 5 6 
#
# 1 0.007892 -0.003442 -0.001027 -0.002515 0.002263 -0.004594
# 2 -0.003442 0.015725 -0.000092 0.007840 0.002511 0.001059
# 3 -0.001027 -0.000092 0.011539 0.003763 -0.004299 -0.000546
# 4 -0.002515 0.007840 0.003763 0.027945 0.000916 0.003385
# 5 0.002263 0.002511 -0.004299 0.000916 0.027827 -0.004184
# 6 -0.004594 0.001059 -0.000546 0.003385 -0.004184 0.023364
#
#
# Mechanical properties :
#
#
# Convention : Reuss Voigt Hill
#
# Bulk Modulus (GPa) = 38.41294 50.99329 44.70312
# Shear Modulus (GPa) = 37.85218 46.60212 42.22715
#
# Velocity S-wave (km/s) = 4.25236 4.71832 4.49138
# Velocity P-wave (km/s) = 6.51617 7.35144 6.94637
#
# Compressibility (1/GPa) = 0.02603289
#
# Stress axis : x y z
#
# Youngs Moduli (GPa) = 126.71330 63.59477 86.66062
#
# Poissons Ratio (x) = 0.21892 0.08904
# Poissons Ratio (y) = 0.43619 0.00794
# Poissons Ratio (z) = 0.13019 0.00582
#
# Static dielectric constant tensor:
#      x y z
#    x 1.597270 0.144310 0.077680 
#    y 0.144310 1.569620 -0.140410 
#    z 0.077680 -0.140410 1.677630 
# 
# From -- ./inp_files/536252.got.cif
#   From: 2010.05.17/outbox.cif.g08.bks.cpg/sg2_269_cif.got.tgz:536252.got - 2010.06.03 11:33:40.
