data_PCOD9067654
_publ_section_title
;
Structure prediction by ZEFSAII (Michael W. Deem and Ramdas Pophale) SiO2 
 PCOD9067654
Probable space group: P -1
;
_chemical_formula_sum "Si O2"
_cell_formula_units_Z 10
_cell_length_a 11.092958
_cell_length_b 8.080420
_cell_length_c 5.339334
_cell_angle_alpha 59.513464
_cell_angle_beta 68.720819
_cell_angle_gamma 83.888270
_cell_volume 382.509517
_symmetry_space_group_name_H-M "P -1"
_symmetry_group_IT_number 2
_symmetry_cell_setting 'triclinic'
loop_
_space_group_symop_operation_xyz
x,y,z
-x,-y,-z
loop_
_atom_site_type_symbol
_atom_site_label
_atom_site_fract_x
_atom_site_fract_y
_atom_site_fract_z
Si Si1 0.296279 0.498300 0.161773
Si Si2 0.624306 0.269753 0.576012
Si Si3 0.605589 0.864906 0.430486
Si Si4 0.183760 0.988741 0.187311
Si Si5 0.043945 0.331186 0.275405
O O1 0.337848 0.626148 0.272682
O O2 0.372576 0.310423 0.272903
O O3 0.143369 0.428937 0.329172
O O4 0.327226 0.605327 0.796078
O O5 0.470570 0.225522 0.689150
O O6 0.704120 0.081935 0.664407
O O7 0.500000 0.000000 0.500000
O O8 0.742654 0.969953 0.161356
O O9 0.072598 0.810590 0.411132
O O10 0.124833 0.182064 0.171922
O O11 0.000000 0.500000 0.000000
#
# Coordination Sequence:
#
# PCOD9067654 Si02
#       5
#     2   2   2   2   2
#     4  12  27  50  82 119 161 220 271 337 415 485
#     4  12  26  50  81 119 165 211 272 338 413 494
#     4  12  27  50  78 119 169 209 273 338 408 495
#     4  11  26  50  84 118 158 216 274 332 413 479
#     4  11  25  53  83 116 165 210 280 337 405 484
#
# _framework density 26.143139999999999
#
# number of rings (size 3 to 8) (size 9 to 14) (size 15 to 20)
#    0.000    0.400    2.000    5.400    0.000    4.800 
#    0.000    0.000    0.000    0.000    0.000    0.000 
#    0.000    0.000    0.000    0.000    0.000    0.000 
#
# Total GULP energy -56158.917679 kJ/mol
# GULP energy per Si atom -5615.891768 kJ/mol
# Density = 2.608364 g / cm^3
# Si number density = 26.143140 Si / 1000 Ang^3
#
#
#
# Elastic Constant Matrix: (Units=GPa)
#
#
# Indices 1 2 3 4 5 6 
#
# 1 119.8626 37.3611 45.2057 -16.6932 2.5211 2.6263
# 2 37.3611 150.6838 79.1391 -16.5285 17.3229 -18.4254
# 3 45.2057 79.1391 198.3061 -14.4372 0.7490 -14.2994
# 4 -16.6932 -16.5285 -14.4372 47.7873 -10.7934 13.6986
# 5 2.5211 17.3229 0.7490 -10.7934 59.6195 -10.8731
# 6 2.6263 -18.4254 -14.2994 13.6986 -10.8731 61.7812
#
#
#
# Elastic Compliance Matrix: (Units=1/GPa)
#
#
# Indices 1 2 3 4 5 6 
#
# 1 0.009870 -0.001564 -0.001540 0.003037 0.000265 -0.001869
# 2 -0.001564 0.009189 -0.003137 0.000759 -0.002147 0.001535
# 3 -0.001540 -0.003137 0.006730 0.000436 0.001114 0.000787
# 4 0.003037 0.000759 0.000436 0.024443 0.003222 -0.004654
# 5 0.000265 -0.002147 0.001114 0.003222 0.018342 0.002120
# 6 -0.001869 0.001535 0.000787 -0.004654 0.002120 0.018311
#
#
# Mechanical properties :
#
#
# Convention : Reuss Voigt Hill
#
# Bulk Modulus (GPa) = 75.14926 88.02935 81.58931
# Shear Modulus (GPa) = 48.16842 54.31405 51.24123
#
# Velocity S-wave (km/s) = 4.29708 4.56298 4.43202
# Velocity P-wave (km/s) = 7.30941 7.84259 7.58069
#
# Compressibility (1/GPa) = 0.01330685
#
# Stress axis : x y z
#
# Youngs Moduli (GPa) = 101.32004 108.82110 148.59007
#
# Poissons Ratio (x) = 0.17020 0.22889
# Poissons Ratio (y) = 0.15847 0.46607
# Poissons Ratio (z) = 0.15607 0.34133
#
# Static dielectric constant tensor:
#      x y z
#    x 2.061860 0.062230 -0.036190 
#    y 0.062230 2.164440 0.007670 
#    z -0.036190 0.007670 2.007170 
# 
# From -- ./inp_files/57214.got.cif
#   From: 2010.05.17/outbox.cif.g08.bks.cpg/sg2_29_cif.got.tgz:57214.got - 2010.06.03 11:33:40.
