data_PCOD9067550
_publ_section_title
;
Structure prediction by ZEFSAII (Michael W. Deem and Ramdas Pophale) SiO2 
 PCOD9067550
Probable space group: P -1
;
_chemical_formula_sum "Si O2"
_cell_formula_units_Z 12
_cell_length_a 8.786894
_cell_length_b 5.057334
_cell_length_c 25.409048
_cell_angle_alpha 51.079487
_cell_angle_beta 32.309689
_cell_angle_gamma 56.408864
_cell_volume 468.871959
_symmetry_space_group_name_H-M "P -1"
_symmetry_group_IT_number 2
_symmetry_cell_setting 'triclinic'
loop_
_space_group_symop_operation_xyz
x,y,z
-x,-y,-z
loop_
_atom_site_type_symbol
_atom_site_label
_atom_site_fract_x
_atom_site_fract_y
_atom_site_fract_z
Si Si1 0.753132 0.307919 0.244096
Si Si2 0.699647 0.683581 0.461306
Si Si3 0.367927 0.804129 0.369220
Si Si4 0.685699 0.111835 0.881165
Si Si5 0.293001 0.165899 0.891971
Si Si6 0.819523 0.848775 0.723272
O O1 0.600821 0.571203 0.296688
O O2 0.740460 0.470054 0.169577
O O3 0.541798 0.008987 0.335703
O O4 0.083292 0.184644 0.167156
O O5 0.500000 0.500000 0.500000
O O6 0.793388 0.445090 0.513498
O O7 0.500000 0.000000 0.500000
O O8 0.980935 0.883772 0.339353
O O9 0.184761 0.049653 0.350938
O O10 0.440060 0.171168 0.903481
O O11 0.861332 0.460456 0.780179
O O12 0.500000 0.000000 0.000000
O O13 0.500794 0.943743 0.821747
O O14 0.000000 0.000000 0.000000
#
# Coordination Sequence:
#
# PCOD9067550 Si02
#       6
#     2   2   2   2   2   2
#     4  11  26  47  78 113 156 204 258 319 386 460
#     4  12  28  47  79 119 155 199 263 321 388 467
#     4  11  25  50  78 109 157 203 256 316 385 466
#     4  12  28  46  79 112 157 206 266 320 394 460
#     4  11  27  49  73 111 156 203 264 323 387 463
#     4  11  27  49  76 112 157 210 260 318 392 467
#
# _framework density 25.593339
#
# number of rings (size 3 to 8) (size 9 to 14) (size 15 to 20)
#    0.000    0.667    1.667    3.500   14.000    2.667 
#    0.000    4.167    0.000    0.000    0.000    0.000 
#    0.000    0.000    0.000    0.000    0.000    0.000 
#
# Total GULP energy -67089.754202 kJ/mol
# GULP energy per Si atom -5590.812850 kJ/mol
# Density = 2.553509 g / cm^3
# Si number density = 25.593339 Si / 1000 Ang^3
#
#
#
# Elastic Constant Matrix: (Units=GPa)
#
#
# Indices 1 2 3 4 5 6 
#
# 1 152.0472 26.3849 93.6193 -26.4572 4.5536 -12.6355
# 2 26.3849 93.3160 -18.1949 -0.6866 10.9702 -1.4197
# 3 93.6193 -18.1949 682.7274 -105.4390 -69.1315 -29.4764
# 4 -26.4572 -0.6866 -105.4390 54.9701 3.7196 3.7185
# 5 4.5536 10.9702 -69.1315 3.7196 73.6424 -13.0843
# 6 -12.6355 -1.4197 -29.4764 3.7185 -13.0843 39.8793
#
#
#
# Elastic Compliance Matrix: (Units=1/GPa)
#
#
# Indices 1 2 3 4 5 6 
#
# 1 0.008013 -0.002299 -0.000851 0.002159 -0.000820 0.001358
# 2 -0.002299 0.011599 0.000509 0.000117 -0.001173 -0.000335
# 3 -0.000851 0.000509 0.002611 0.004286 0.002589 0.002128
# 4 0.002159 0.000117 0.004286 0.027102 0.002909 0.002283
# 5 -0.000820 -0.001173 0.002589 0.002909 0.017337 0.007030
# 6 0.001358 -0.000335 0.002128 0.002283 0.007030 0.029161
#
#
# Mechanical properties :
#
#
# Convention : Reuss Voigt Hill
#
# Bulk Modulus (GPa) = 59.02411 125.74546 92.38478
# Shear Modulus (GPa) = 46.83808 88.78377 67.81092
#
# Velocity S-wave (km/s) = 4.28259 5.89623 5.15297
# Velocity P-wave (km/s) = 6.89685 9.77716 8.46047
#
# Compressibility (1/GPa) = 0.01694223
#
# Stress axis : x y z
#
# Youngs Moduli (GPa) = 124.79971 86.21299 383.00526
#
# Poissons Ratio (x) = 0.19817 0.32590
# Poissons Ratio (y) = 0.28687 -0.19502
# Poissons Ratio (z) = 0.10619 -0.04390
#
# Static dielectric constant tensor:
#      x y z
#    x 2.020510 0.041930 0.094680 
#    y 0.041930 1.999100 -0.108250 
#    z 0.094680 -0.108250 1.782120 
# 
# From -- ./inp_files/115800.got.cif
#   From: 2010.05.17/outbox.cif.g08.bks.cpg/sg2_58_cif.got.tgz:115800.got - 2010.06.03 11:33:40.
