data_PCOD9067470
_publ_section_title
;
Structure prediction by ZEFSAII (Michael W. Deem and Ramdas Pophale) SiO2 
 PCOD9067470
Probable space group: P -1
;
_chemical_formula_sum "Si O2"
_cell_formula_units_Z 13
_cell_length_a 10.936491
_cell_length_b 11.565287
_cell_length_c 4.874764
_cell_angle_alpha 125.963144
_cell_angle_beta 66.236211
_cell_angle_gamma 117.821074
_cell_volume 434.156230
_symmetry_space_group_name_H-M "P -1"
_symmetry_group_IT_number 2
_symmetry_cell_setting 'triclinic'
loop_
_space_group_symop_operation_xyz
x,y,z
-x,-y,-z
loop_
_atom_site_type_symbol
_atom_site_label
_atom_site_fract_x
_atom_site_fract_y
_atom_site_fract_z
Si Si1 0.500000 0.000000 0.500000
Si Si2 0.106978 0.219971 0.725584
Si Si3 0.616581 0.487886 0.668266
Si Si4 0.500000 0.000000 0.000000
Si Si5 0.000000 0.000000 0.000000
Si Si6 0.182145 0.875960 0.463234
Si Si7 0.137562 0.546765 0.257722
Si Si8 0.616935 0.759019 0.755119
O O1 0.450526 0.872473 0.613262
O O2 0.658947 0.060883 0.707970
O O3 0.257713 0.196537 0.516690
O O4 0.053300 0.159880 0.987411
O O5 0.125584 0.393870 0.891044
O O6 0.974490 0.119942 0.513227
O O7 0.735763 0.437488 0.630464
O O8 0.678943 0.660699 0.761956
O O9 0.530716 0.369358 0.359469
O O10 0.500000 0.500000 0.000000
O O11 0.561116 0.899162 0.061578
O O12 0.832537 0.009129 0.129832
O O13 0.157311 0.701842 0.299275
O O14 0.000000 0.500000 0.500000
#
# Coordination Sequence:
#
# PCOD9067470 Si02
#       8
#     1   2   2   1   1   2   2   2
#     4  12  32  52  80 128 172 218 292 346 432 512
#     4  12  27  51  81 120 165 222 280 355 430 509
#     4  11  25  49  79 117 161 215 272 351 428 503
#     4  12  30  50  82 118 166 224 272 350 416 508
#     4  12  28  50  78 114 168 218 280 338 434 510
#     4  12  29  50  82 118 164 222 277 356 424 514
#     4  12  25  50  84 117 160 213 281 351 423 511
#     4  11  27  48  80 119 164 213 281 349 427 512
#
# _framework density 29.943135000000002
#
# number of rings (size 3 to 8) (size 9 to 14) (size 15 to 20)
#    0.000    0.308    3.077    3.692    8.615    1.231 
#    0.000    0.000    0.000    0.000    0.000    0.000 
#    0.000    0.000    0.000    0.000    0.000    0.000 
#
# Total GULP energy -72385.353016 kJ/mol
# GULP energy per Si atom -5568.104078 kJ/mol
# Density = 2.987498 g / cm^3
# Si number density = 29.943135 Si / 1000 Ang^3
#
#
#
# Elastic Constant Matrix: (Units=GPa)
#
#
# Indices 1 2 3 4 5 6 
#
# 1 228.4178 75.0633 81.8919 12.7654 -40.9229 11.0536
# 2 75.0633 207.9070 71.5966 21.4620 -16.1258 -15.0290
# 3 81.8919 71.5966 189.5688 -13.8700 -24.6328 -8.3066
# 4 12.7654 21.4620 -13.8700 82.8598 -7.5724 -2.5706
# 5 -40.9229 -16.1258 -24.6328 -7.5724 79.3716 -3.2982
# 6 11.0536 -15.0290 -8.3066 -2.5706 -3.2982 46.4012
#
#
#
# Elastic Compliance Matrix: (Units=1/GPa)
#
#
# Indices 1 2 3 4 5 6 
#
# 1 0.006070 -0.001431 -0.001964 -0.000771 0.002066 -0.002157
# 2 -0.001431 0.006245 -0.001789 -0.001645 -0.000100 0.001945
# 3 -0.001964 -0.001789 0.007156 0.002107 0.001103 0.001365
# 4 -0.000771 -0.001645 0.002107 0.013103 0.001207 0.000840
# 5 0.002066 -0.000100 0.001103 0.001207 0.014132 0.000744
# 6 -0.002157 0.001945 0.001365 0.000840 0.000744 0.023039
#
#
# Mechanical properties :
#
#
# Convention : Reuss Voigt Hill
#
# Bulk Modulus (GPa) = 109.84538 120.33304 115.08921
# Shear Modulus (GPa) = 60.13393 68.21595 64.17494
#
# Velocity S-wave (km/s) = 4.48624 4.77821 4.63452
# Velocity P-wave (km/s) = 7.97492 8.40929 8.19498
#
# Compressibility (1/GPa) = 0.00910371
#
# Stress axis : x y z
#
# Youngs Moduli (GPa) = 164.74153 160.12318 139.73539
#
# Poissons Ratio (x) = 0.22917 0.27446
# Poissons Ratio (y) = 0.23578 0.24993
# Poissons Ratio (z) = 0.32358 0.28640
#
# Static dielectric constant tensor:
#      x y z
#    x 3.182560 0.112230 0.650650 
#    y 0.112230 2.275590 0.088570 
#    z 0.650650 0.088570 3.845560 
# 
# From -- ./inp_files/65094.got.cif
#   From: 2010.05.17/outbox.cif.g08.bks.cpg/sg2_33_cif.got.tgz:65094.got - 2010.06.03 11:33:40.
