data_PCOD9067101
_publ_section_title
;
Structure prediction by ZEFSAII (Michael W. Deem and Ramdas Pophale) SiO2 
 PCOD9067101
Probable space group: P -1
;
_chemical_formula_sum "Si O2"
_cell_formula_units_Z 13
_cell_length_a 9.171961
_cell_length_b 9.104178
_cell_length_c 8.143893
_cell_angle_alpha 53.118457
_cell_angle_beta 112.373930
_cell_angle_gamma 100.708521
_cell_volume 502.164372
_symmetry_space_group_name_H-M "P -1"
_symmetry_group_IT_number 2
_symmetry_cell_setting 'triclinic'
loop_
_space_group_symop_operation_xyz
x,y,z
-x,-y,-z
loop_
_atom_site_type_symbol
_atom_site_label
_atom_site_fract_x
_atom_site_fract_y
_atom_site_fract_z
Si Si1 0.684021 0.013602 0.552085
Si Si2 0.154709 0.650957 0.159693
Si Si3 0.512747 0.217428 0.887676
Si Si4 0.789983 0.750617 0.482383
Si Si5 0.121395 0.666167 0.525667
Si Si6 0.190304 0.317778 0.016349
Si Si7 0.500000 0.500000 0.000000
O O1 0.747761 0.913777 0.481094
O O2 0.500000 0.000000 0.500000
O O3 0.732752 0.221794 0.423965
O O4 0.755589 0.899459 0.815939
O O5 0.309035 0.749636 0.110843
O O6 0.176627 0.435799 0.279259
O O7 0.139385 0.668711 0.337914
O O8 0.986559 0.707132 0.970452
O O9 0.363905 0.289008 0.664322
O O10 0.491567 0.329529 0.972966
O O11 0.500000 0.000000 0.000000
O O12 0.954222 0.765269 0.443156
O O13 0.146094 0.463069 0.750827
O O14 0.345183 0.415259 0.082080
#
# Coordination Sequence:
#
# PCOD9067101 Si02
#       7
#     2   2   2   2   2   2   1
#     4  12  27  45  73 113 161 207 263 324 388 479
#     4  11  25  51  77 111 154 206 263 331 405 471
#     4  12  29  46  79 116 158 207 267 330 404 486
#     4  11  25  50  71 111 154 204 263 327 398 472
#     4  11  25  47  79 110 157 205 260 334 393 478
#     4  11  26  47  81 112 155 213 262 324 409 466
#     4  12  26  48  74 114 158 204 264 324 400 482
#
# _framework density 25.887938999999999
#
# number of rings (size 3 to 8) (size 9 to 14) (size 15 to 20)
#    0.000    0.615    0.000    7.385    8.615    6.154 
#    0.000    0.000    0.000    0.000    0.000    0.000 
#    0.000    0.000    0.000    0.000    0.000    0.000 
#
# Total GULP energy -72419.914409 kJ/mol
# GULP energy per Si atom -5570.762647 kJ/mol
# Density = 2.582902 g / cm^3
# Si number density = 25.887939 Si / 1000 Ang^3
#
#
#
# Elastic Constant Matrix: (Units=GPa)
#
#
# Indices 1 2 3 4 5 6 
#
# 1 213.2788 31.3732 42.8792 24.0058 -4.5450 3.8119
# 2 31.3732 109.4694 31.1152 23.3570 -21.7904 -10.7722
# 3 42.8792 31.1152 65.7233 -2.7960 13.4599 -3.2639
# 4 24.0058 23.3570 -2.7960 30.5355 4.0295 -5.7075
# 5 -4.5450 -21.7904 13.4599 4.0295 47.8919 4.8890
# 6 3.8119 -10.7722 -3.2639 -5.7075 4.8890 61.5227
#
#
#
# Elastic Compliance Matrix: (Units=1/GPa)
#
#
# Indices 1 2 3 4 5 6 
#
# 1 0.006941 0.002986 -0.007457 -0.009386 0.005063 -0.001576
# 2 0.002986 0.020583 -0.015940 -0.021802 0.016037 -0.000724
# 3 -0.007457 -0.015940 0.032822 0.024241 -0.019553 0.003215
# 4 -0.009386 -0.021802 0.024241 0.063211 -0.023533 0.005784
# 5 0.005063 0.016037 -0.019553 -0.023533 0.036503 -0.003627
# 6 -0.001576 -0.000724 0.003215 0.005784 -0.003627 0.017221
#
#
# Mechanical properties :
#
#
# Convention : Reuss Voigt Hill
#
# Bulk Modulus (GPa) = 51.21950 66.57852 58.89901
# Shear Modulus (GPa) = 22.26074 46.86359 34.56216
#
# Velocity S-wave (km/s) = 2.93557 4.25932 3.65782
# Velocity P-wave (km/s) = 5.59626 7.06844 6.37499
#
# Compressibility (1/GPa) = 0.01952382
#
# Stress axis : x y z
#
# Youngs Moduli (GPa) = 144.06742 48.58405 30.46744
#
# Poissons Ratio (x) = -0.14506 0.22718
# Poissons Ratio (y) = -0.43014 0.48565
# Poissons Ratio (z) = 1.07426 0.77444
#
# Static dielectric constant tensor:
#      x y z
#    x 2.109950 0.056320 0.048500 
#    y 0.056320 -7.978610 -4.011970 
#    z 0.048500 -4.011970 0.553330 
# 
# From -- ./inp_files/156522.got.cif
#   From: 2010.05.17/outbox.cif.g08.bks.cpg/sg2_79_cif.got.tgz:156522.got - 2010.06.03 11:33:40.
