data_PCOD9067207
_publ_section_title
;
Structure prediction by ZEFSAII (Michael W. Deem and Ramdas Pophale) SiO2 
 PCOD9067207
Probable space group: P -1
;
_chemical_formula_sum "Si O2"
_cell_formula_units_Z 13
_cell_length_a 10.901015
_cell_length_b 10.714439
_cell_length_c 12.749731
_cell_angle_alpha 134.918472
_cell_angle_beta 147.833414
_cell_angle_gamma 37.924141
_cell_volume 483.906917
_symmetry_space_group_name_H-M "P -1"
_symmetry_group_IT_number 2
_symmetry_cell_setting 'triclinic'
loop_
_space_group_symop_operation_xyz
x,y,z
-x,-y,-z
loop_
_atom_site_type_symbol
_atom_site_label
_atom_site_fract_x
_atom_site_fract_y
_atom_site_fract_z
Si Si1 0.912848 0.551495 0.587373
Si Si2 0.000000 0.000000 0.500000
Si Si3 0.490025 0.212441 0.292270
Si Si4 0.040596 0.385473 0.796119
Si Si5 0.453884 0.619187 0.770623
Si Si6 0.231053 0.950265 0.980486
Si Si7 0.729128 0.001481 0.732363
O O1 0.634740 0.548233 0.393842
O O2 0.901404 0.758512 0.736137
O O3 0.000000 0.500000 0.500000
O O4 0.089438 0.398965 0.716017
O O5 0.759683 0.067244 0.462578
O O6 0.085176 0.163267 0.711282
O O7 0.659142 0.236238 0.330360
O O8 0.265487 0.437049 0.297622
O O9 0.331631 0.094418 0.091001
O O10 0.241424 0.432797 0.034442
O O11 0.316308 0.760613 0.854578
O O12 0.349690 0.890387 0.148737
O O13 0.915831 0.061238 0.839832
O O14 0.500000 0.000000 0.500000
#
# Coordination Sequence:
#
# PCOD9067207 Si02
#       7
#     2   1   2   2   2   2   2
#     4  12  27  49  72 112 152 197 262 307 382 457
#     4  12  26  46  82 106 156 204 254 312 386 456
#     4  12  26  50  74 116 152 198 259 312 388 449
#     4  12  28  50  76 114 154 203 252 322 378 459
#     4  12  27  47  77 111 151 203 250 320 382 455
#     4  11  25  48  73 111 153 190 259 314 373 456
#     4  11  27  48  76 108 149 209 250 315 379 453
#
# _framework density 26.86467
#
# number of rings (size 3 to 8) (size 9 to 14) (size 15 to 20)
#    0.000    0.308    6.154    1.385    4.308    1.846 
#    0.000    0.000    0.000    0.000    0.000    0.000 
#    0.000    0.000    0.000    0.000    0.000    0.000 
#
# Total GULP energy -72592.530046 kJ/mol
# GULP energy per Si atom -5584.040773 kJ/mol
# Density = 2.680352 g / cm^3
# Si number density = 26.864670 Si / 1000 Ang^3
#
#
#
# Elastic Constant Matrix: (Units=GPa)
#
#
# Indices 1 2 3 4 5 6 
#
# 1 132.7435 16.5999 56.5613 -2.8481 5.7548 -15.5394
# 2 16.5999 81.5525 21.3981 14.4553 23.7460 -21.1691
# 3 56.5613 21.3981 171.3957 3.2828 27.9878 1.0616
# 4 -2.8481 14.4553 3.2828 43.8334 5.9180 4.7490
# 5 5.7548 23.7460 27.9878 5.9180 65.4549 4.1837
# 6 -15.5394 -21.1691 1.0616 4.7490 4.1837 42.7508
#
#
#
# Elastic Compliance Matrix: (Units=1/GPa)
#
#
# Indices 1 2 3 4 5 6 
#
# 1 0.009273 -0.000511 -0.003099 0.000609 0.000443 0.003083
# 2 -0.000511 0.018171 -0.001033 -0.006210 -0.006192 0.010134
# 3 -0.003099 -0.001033 0.007389 0.000085 -0.002418 -0.001594
# 4 0.000609 -0.006210 0.000085 0.025483 0.000224 -0.005709
# 5 0.000443 -0.006192 -0.002418 0.000224 0.018800 -0.004710
# 6 0.003083 0.010134 -0.001594 -0.005709 -0.004710 0.030665
#
#
# Mechanical properties :
#
#
# Convention : Reuss Voigt Hill
#
# Bulk Modulus (GPa) = 39.14312 63.86780 51.50546
# Shear Modulus (GPa) = 39.19034 49.81665 44.50350
#
# Velocity S-wave (km/s) = 3.82358 4.31089 4.07453
# Velocity P-wave (km/s) = 5.83910 6.97165 6.43036
#
# Compressibility (1/GPa) = 0.02554728
#
# Stress axis : x y z
#
# Youngs Moduli (GPa) = 107.84408 55.03223 135.33058
#
# Poissons Ratio (x) = 0.02811 0.41944
# Poissons Ratio (y) = 0.05509 0.13976
# Poissons Ratio (z) = 0.33425 0.05683
#
# Static dielectric constant tensor:
#      x y z
#    x 2.759710 4.220020 -2.376450 
#    y 4.220020 31.591780 -16.459420 
#    z -2.376450 -16.459420 11.144460 
# 
# From -- ./inp_files/518333.got.cif
#   From: 2010.05.17/outbox.cif.g08.bks.cpg/sg2_260_cif.got.tgz:518333.got - 2010.06.03 11:33:40.
