data_PCOD9067830
_publ_section_title
;
Structure prediction by ZEFSAII (Michael W. Deem and Ramdas Pophale) SiO2 
 PCOD9067830
Probable space group: P -1
;
_chemical_formula_sum "Si O2"
_cell_formula_units_Z 16
_cell_length_a 5.708463
_cell_length_b 11.982693
_cell_length_c 11.729798
_cell_angle_alpha 96.009210
_cell_angle_beta 59.085449
_cell_angle_gamma 79.451274
_cell_volume 657.674857
_symmetry_space_group_name_H-M "P -1"
_symmetry_group_IT_number 2
_symmetry_cell_setting 'triclinic'
loop_
_space_group_symop_operation_xyz
x,y,z
-x,-y,-z
loop_
_atom_site_type_symbol
_atom_site_label
_atom_site_fract_x
_atom_site_fract_y
_atom_site_fract_z
Si Si1 0.691105 0.537927 0.308287
Si Si2 0.586337 0.223492 0.673653
Si Si3 0.592038 0.977253 0.344249
Si Si4 0.892355 0.942996 0.876361
Si Si5 0.711263 0.604726 0.566570
Si Si6 0.466259 0.173646 0.936197
Si Si7 0.123308 0.167899 0.369350
Si Si8 0.769521 0.550006 0.957583
O O1 0.535723 0.638895 0.271760
O O2 0.638189 0.601729 0.450665
O O3 0.548189 0.433635 0.317855
O O4 0.023299 0.492798 0.205478
O O5 0.340881 0.161944 0.698438
O O6 0.659561 0.173644 0.775945
O O7 0.825063 0.193522 0.513986
O O8 0.500000 0.000000 0.500000
O O9 0.305523 0.044437 0.358375
O O10 0.817445 0.032394 0.234537
O O11 0.866211 0.853904 0.770542
O O12 0.674535 0.073463 0.949562
O O13 0.811358 0.878201 0.000764
O O14 0.751938 0.725503 0.613789
O O15 0.000000 0.500000 0.500000
O O16 0.344037 0.309996 0.005442
O O17 0.500000 0.500000 0.000000
O O18 0.000000 0.500000 0.000000
#
# Coordination Sequence:
#
# PCOD9067830 Si02
#       8
#     2   2   2   2   2   2   2   2
#     4  11  27  47  72 110 147 198 256 315 399 459
#     4  12  23  46  73 107 148 190 251 315 386 469
#     4  12  24  42  75 104 141 188 246 311 380 454
#     4  11  27  49  71 108 146 203 249 319 386 461
#     4  11  26  45  75 108 148 192 249 327 387 471
#     4  11  27  50  72 105 156 195 263 315 385 467
#     4  12  25  44  76 106 145 189 249 311 386 463
#     4  12  30  51  81 114 154 214 264 322 391 475
#
# _framework density 24.328130000000002
#
# number of rings (size 3 to 8) (size 9 to 14) (size 15 to 20)
#    0.000    0.500    5.000    1.875    8.750    0.500 
#    0.000    0.000    0.000    0.000    0.000    0.000 
#    0.000    0.000    0.000    0.000    0.000    0.000 
#
# Total GULP energy -89273.416045 kJ/mol
# GULP energy per Si atom -5579.588503 kJ/mol
# Density = 2.427276 g / cm^3
# Si number density = 24.328130 Si / 1000 Ang^3
#
#
#
# Elastic Constant Matrix: (Units=GPa)
#
#
# Indices 1 2 3 4 5 6 
#
# 1 86.1543 50.3101 34.8828 -9.4621 -24.3653 23.4242
# 2 50.3101 178.7684 51.5596 -1.0162 -12.6453 23.8964
# 3 34.8828 51.5596 106.8220 -5.3785 -30.0056 13.0413
# 4 -9.4621 -1.0162 -5.3785 36.2900 -0.6299 -6.6384
# 5 -24.3653 -12.6453 -30.0056 -0.6299 50.0756 -0.5662
# 6 23.4242 23.8964 13.0413 -6.6384 -0.5662 42.8047
#
#
#
# Elastic Compliance Matrix: (Units=1/GPa)
#
#
# Indices 1 2 3 4 5 6 
#
# 1 0.018488 -0.003314 -0.001328 0.003332 0.007323 -0.007249
# 2 -0.003314 0.007450 -0.002774 -0.001409 -0.001431 -0.001738
# 3 -0.001328 -0.002774 0.013230 0.001385 0.006582 -0.001453
# 4 0.003332 -0.001409 0.001385 0.029201 0.002498 0.003103
# 5 0.007323 -0.001431 0.006582 0.002498 0.027096 -0.004468
# 6 -0.007249 -0.001738 -0.001453 0.003103 -0.004468 0.029164
#
#
# Mechanical properties :
#
#
# Convention : Reuss Voigt Hill
#
# Bulk Modulus (GPa) = 41.09311 71.69441 56.39376
# Shear Modulus (GPa) = 33.88149 41.50022 37.69086
#
# Velocity S-wave (km/s) = 3.73592 4.13468 3.94035
# Velocity P-wave (km/s) = 5.96132 7.23380 6.62817
#
# Compressibility (1/GPa) = 0.02433498
#
# Stress axis : x y z
#
# Youngs Moduli (GPa) = 54.08966 134.23399 75.58557
#
# Poissons Ratio (x) = 0.44486 0.10037
# Poissons Ratio (y) = 0.17926 0.20970
# Poissons Ratio (z) = 0.07183 0.37241
#
# Static dielectric constant tensor:
#      x y z
#    x 2.034440 0.025110 0.088220 
#    y 0.025110 1.904830 -0.022730 
#    z 0.088220 -0.022730 1.758830 
# 
# From -- ./inp_files/364431.got.cif
#   From: 2010.05.17/outbox.cif.g08.bks.cpg/sg2_183_cif.got.tgz:364431.got - 2010.06.03 11:33:40.
