data_PCOD9067942
_publ_section_title
;
Structure prediction by ZEFSAII (Michael W. Deem and Ramdas Pophale) SiO2 
 PCOD9067942
Probable space group: P -1
;
_chemical_formula_sum "Si O2"
_cell_formula_units_Z 12
_cell_length_a 6.171144
_cell_length_b 14.750763
_cell_length_c 12.023242
_cell_angle_alpha 29.913499
_cell_angle_beta 81.294982
_cell_angle_gamma 96.885009
_cell_volume 464.296935
_symmetry_space_group_name_H-M "P -1"
_symmetry_group_IT_number 2
_symmetry_cell_setting 'triclinic'
loop_
_space_group_symop_operation_xyz
x,y,z
-x,-y,-z
loop_
_atom_site_type_symbol
_atom_site_label
_atom_site_fract_x
_atom_site_fract_y
_atom_site_fract_z
Si Si1 0.289216 0.965522 0.143965
Si Si2 0.430134 0.509366 0.789878
Si Si3 0.924796 0.172409 0.289125
Si Si4 0.195491 0.349963 0.738560
Si Si5 0.177920 0.512173 0.339685
Si Si6 0.513733 0.939419 0.384677
O O1 0.413459 0.001464 0.218004
O O2 0.058235 0.724558 0.410185
O O3 0.500000 0.000000 0.000000
O O4 0.191594 0.131222 0.960250
O O5 0.305878 0.462219 0.727952
O O6 0.636757 0.437444 0.833346
O O7 0.568413 0.755387 0.540948
O O8 0.197932 0.381214 0.027875
O O9 0.732691 0.166416 0.402533
O O10 0.757097 0.103188 0.263160
O O11 0.000000 0.000000 0.500000
O O12 0.300472 0.489321 0.469935
O O13 0.918985 0.329463 0.791316
#
# Coordination Sequence:
#
# PCOD9067942 Si02
#       6
#     2   2   2   2   2   2
#     4  12  27  49  81 115 161 208 255 317 390 466
#     4  12  26  47  80 109 157 201 258 328 387 458
#     4  11  28  52  79 112 152 205 265 324 386 464
#     4  11  26  46  74 112 162 206 253 315 382 459
#     4  11  27  47  72 119 160 205 261 314 385 467
#     4  11  27  52  76 116 155 203 266 317 391 463
#
# _framework density 25.845531999999999
#
# number of rings (size 3 to 8) (size 9 to 14) (size 15 to 20)
#    0.000    0.667    1.667    3.500   11.667    3.333 
#    0.000    0.000    0.000    0.000    0.000    0.000 
#    0.000    0.000    0.000    0.000    0.000    0.000 
#
# Total GULP energy -67267.842083 kJ/mol
# GULP energy per Si atom -5605.653507 kJ/mol
# Density = 2.578671 g / cm^3
# Si number density = 25.845532 Si / 1000 Ang^3
#
#
#
# Elastic Constant Matrix: (Units=GPa)
#
#
# Indices 1 2 3 4 5 6 
#
# 1 99.1279 47.0202 54.3587 -6.5135 19.0427 -25.8524
# 2 47.0202 108.9901 38.8953 -4.6411 14.1397 -16.3629
# 3 54.3587 38.8953 93.2029 -1.7079 10.2878 -11.2518
# 4 -6.5135 -4.6411 -1.7079 49.0311 -8.9043 7.0274
# 5 19.0427 14.1397 10.2878 -8.9043 69.6448 -4.0255
# 6 -25.8524 -16.3629 -11.2518 7.0274 -4.0255 52.8063
#
#
#
# Elastic Compliance Matrix: (Units=1/GPa)
#
#
# Indices 1 2 3 4 5 6 
#
# 1 0.018427 -0.003797 -0.008155 0.000484 -0.002664 0.005840
# 2 -0.003797 0.012039 -0.002555 0.000201 -0.000932 0.001230
# 3 -0.008155 -0.002555 0.016375 -0.000547 0.000190 -0.001208
# 4 0.000484 0.000201 -0.000547 0.021263 0.002484 -0.002458
# 5 -0.002664 -0.000932 0.000190 0.002484 0.015525 -0.000699
# 6 0.005840 0.001230 -0.001208 -0.002458 -0.000699 0.022194
#
#
# Mechanical properties :
#
#
# Convention : Reuss Voigt Hill
#
# Bulk Modulus (GPa) = 56.09077 64.65213 60.37145
# Shear Modulus (GPa) = 35.51675 45.03289 40.27482
#
# Velocity S-wave (km/s) = 3.71103 4.17872 3.95180
# Velocity P-wave (km/s) = 6.33339 6.95352 6.65068
#
# Compressibility (1/GPa) = 0.01782824
#
# Stress axis : x y z
#
# Youngs Moduli (GPa) = 54.26699 83.06443 61.06898
#
# Poissons Ratio (x) = 0.31537 0.49802
# Poissons Ratio (y) = 0.20603 0.15601
# Poissons Ratio (z) = 0.44255 0.21221
#
# Static dielectric constant tensor:
#      x y z
#    x 2.143380 0.015470 -0.053070 
#    y 0.015470 1.948610 0.013850 
#    z -0.053070 0.013850 2.100830 
# 
# From -- ./inp_files/365960.got.cif
#   From: 2010.05.17/outbox.cif.g08.bks.cpg/sg2_183_cif.got.tgz:365960.got - 2010.06.03 11:33:40.
