data_PCOD9067293
_publ_section_title
;
Structure prediction by ZEFSAII (Michael W. Deem and Ramdas Pophale) SiO2 
 PCOD9067293
Probable space group: P -1
;
_chemical_formula_sum "Si O2"
_cell_formula_units_Z 14
_cell_length_a 17.136330
_cell_length_b 11.359444
_cell_length_c 8.962196
_cell_angle_alpha 142.381919
_cell_angle_beta 46.063465
_cell_angle_gamma 147.994529
_cell_volume 563.060108
_symmetry_space_group_name_H-M "P -1"
_symmetry_group_IT_number 2
_symmetry_cell_setting 'triclinic'
loop_
_space_group_symop_operation_xyz
x,y,z
-x,-y,-z
loop_
_atom_site_type_symbol
_atom_site_label
_atom_site_fract_x
_atom_site_fract_y
_atom_site_fract_z
Si Si1 0.125830 0.845256 0.272113
Si Si2 0.367321 0.448365 0.544143
Si Si3 0.379363 0.594603 0.349249
Si Si4 0.285483 0.694600 0.085023
Si Si5 0.166211 0.660250 0.740943
Si Si6 0.827077 0.769461 0.019176
Si Si7 0.696082 0.008383 0.383643
O O1 0.196027 0.746852 0.165705
O O2 0.960503 0.647769 0.357624
O O3 0.216484 0.149913 0.476425
O O4 0.136814 0.794304 0.033060
O O5 0.500000 0.500000 0.500000
O O6 0.381004 0.467267 0.367067
O O7 0.372264 0.669113 0.826911
O O8 0.319256 0.729835 0.619011
O O9 0.547925 0.791653 0.267926
O O10 0.264081 0.397973 0.176934
O O11 0.355682 0.900774 0.333293
O O12 0.196008 0.423542 0.021999
O O13 0.175284 0.755922 0.657925
O O14 0.756071 0.892213 0.269883
O O15 0.000000 0.000000 0.000000
#
# Coordination Sequence:
#
# PCOD9067293 Si02
#       7
#     2   2   2   2   2   2   2
#     4  11  26  48  74 107 153 197 251 315 379 450
#     4  12  28  48  76 111 156 201 256 310 378 459
#     4  12  26  50  78 109 152 203 251 315 382 445
#     4  12  26  44  73 109 151 196 253 309 378 439
#     4  11  25  48  77 108 145 202 254 311 382 449
#     4  12  28  47  76 113 151 198 254 312 382 452
#     4  12  27  49  77 108 155 196 256 316 376 450
#
# _framework density 24.864132000000001
#
# number of rings (size 3 to 8) (size 9 to 14) (size 15 to 20)
#    0.000    0.286    2.857    5.143    6.000    4.000 
#    0.000    0.000    0.000    0.000    0.000    0.000 
#    0.000    0.000    0.000    0.000    0.000    0.000 
#
# Total GULP energy -78377.689147 kJ/mol
# GULP energy per Si atom -5598.406368 kJ/mol
# Density = 2.480754 g / cm^3
# Si number density = 24.864132 Si / 1000 Ang^3
#
#
#
# Elastic Constant Matrix: (Units=GPa)
#
#
# Indices 1 2 3 4 5 6 
#
# 1 68.8629 20.0784 12.0341 -3.9648 -1.7147 -17.2819
# 2 20.0784 116.4460 40.4128 1.7424 5.2544 -6.3549
# 3 12.0341 40.4128 128.9359 1.2199 4.0927 -2.8865
# 4 -3.9648 1.7424 1.2199 32.5710 -3.4394 4.9108
# 5 -1.7147 5.2544 4.0927 -3.4394 47.6959 -9.0175
# 6 -17.2819 -6.3549 -2.8865 4.9108 -9.0175 46.9304
#
#
#
# Elastic Compliance Matrix: (Units=1/GPa)
#
#
# Indices 1 2 3 4 5 6 
#
# 1 0.017067 -0.002463 -0.000768 0.001543 0.002229 0.006171
# 2 -0.002463 0.010081 -0.002887 -0.000862 -0.000979 0.000183
# 3 -0.000768 -0.002887 0.008747 -0.000291 -0.000520 -0.000205
# 4 0.001543 -0.000862 -0.000291 0.031531 0.001979 -0.002485
# 5 0.002229 -0.000979 -0.000520 0.001979 0.022234 0.004721
# 6 0.006171 0.000183 -0.000205 -0.002485 0.004721 0.024760
#
#
# Mechanical properties :
#
#
# Convention : Reuss Voigt Hill
#
# Bulk Modulus (GPa) = 42.26635 51.03283 46.64959
# Shear Modulus (GPa) = 37.16316 41.55410 39.35863
#
# Velocity S-wave (km/s) = 3.87026 4.09252 3.98294
# Velocity P-wave (km/s) = 6.08340 6.54988 6.32094
#
# Compressibility (1/GPa) = 0.02365948
#
# Stress axis : x y z
#
# Youngs Moduli (GPa) = 58.59262 99.19444 114.32642
#
# Poissons Ratio (x) = 0.24433 0.08782
# Poissons Ratio (y) = 0.14432 0.33001
# Poissons Ratio (z) = 0.04501 0.28633
#
# Static dielectric constant tensor:
#      x y z
#    x 1.935150 -0.015350 0.031870 
#    y -0.015350 1.994380 0.012470 
#    z 0.031870 0.012470 2.027420 
# 
# From -- ./inp_files/333888.got.cif
#   From: 2010.05.17/outbox.cif.g08.bks.cpg/sg2_167_cif.got.tgz:333888.got - 2010.06.03 11:33:40.
