data_PCOD9067577
_publ_section_title
;
Structure prediction by ZEFSAII (Michael W. Deem and Ramdas Pophale) SiO2 
 PCOD9067577
Probable space group: P -1
;
_chemical_formula_sum "Si O2"
_cell_formula_units_Z 12
_cell_length_a 11.684146
_cell_length_b 5.215571
_cell_length_c 11.347360
_cell_angle_alpha 87.293279
_cell_angle_beta 129.295623
_cell_angle_gamma 65.619335
_cell_volume 438.207611
_symmetry_space_group_name_H-M "P -1"
_symmetry_group_IT_number 2
_symmetry_cell_setting 'triclinic'
loop_
_space_group_symop_operation_xyz
x,y,z
-x,-y,-z
loop_
_atom_site_type_symbol
_atom_site_label
_atom_site_fract_x
_atom_site_fract_y
_atom_site_fract_z
Si Si1 0.780126 0.464104 0.413876
Si Si2 0.595578 0.123213 0.385185
Si Si3 0.009245 0.206680 0.791806
Si Si4 0.272253 0.235294 0.084051
Si Si5 0.310609 0.548036 0.901567
Si Si6 0.313550 0.817371 0.327860
O O1 0.680997 0.303789 0.395627
O O2 0.802195 0.399650 0.291310
O O3 0.944643 0.337941 0.614371
O O4 0.657934 0.834012 0.346529
O O5 0.378375 0.342049 0.228979
O O6 0.680587 0.968176 0.570168
O O7 0.857674 0.187040 0.755958
O O8 0.186551 0.855161 0.894378
O O9 0.065507 0.386370 0.909170
O O10 0.316095 0.948640 0.201230
O O11 0.341607 0.254225 0.999553
O O12 0.500000 0.500000 0.000000
O O13 0.500000 0.500000 0.500000
#
# Coordination Sequence:
#
# PCOD9067577 Si02
#       6
#     2   2   2   2   2   2
#     4  11  26  50  79 114 164 210 268 326 406 475
#     4  11  25  50  81 113 155 215 269 328 404 476
#     4  11  28  48  77 121 157 209 267 335 399 481
#     4  12  26  45  82 113 158 209 267 327 409 464
#     4  12  27  49  79 116 166 208 268 329 398 487
#     4  11  27  55  82 114 161 208 272 335 405 483
#
# _framework density 27.384281999999999
#
# number of rings (size 3 to 8) (size 9 to 14) (size 15 to 20)
#    0.000    0.667    1.667    4.500    9.333    2.667 
#    0.000    0.000    0.000    0.000    0.000    0.000 
#    0.000    0.000    0.000    0.000    0.000    0.000 
#
# Total GULP energy -67135.632112 kJ/mol
# GULP energy per Si atom -5594.636009 kJ/mol
# Density = 2.732195 g / cm^3
# Si number density = 27.384282 Si / 1000 Ang^3
#
#
#
# Elastic Constant Matrix: (Units=GPa)
#
#
# Indices 1 2 3 4 5 6 
#
# 1 159.6299 30.8264 72.3893 4.4431 -0.2253 24.0319
# 2 30.8264 88.6687 26.3423 -0.5469 2.6909 4.4228
# 3 72.3893 26.3423 244.1161 23.0803 -14.6114 22.3546
# 4 4.4431 -0.5469 23.0803 48.6864 8.0484 9.7792
# 5 -0.2253 2.6909 -14.6114 8.0484 73.2186 6.1982
# 6 24.0319 4.4228 22.3546 9.7792 6.1982 52.9831
#
#
#
# Elastic Compliance Matrix: (Units=1/GPa)
#
#
# Indices 1 2 3 4 5 6 
#
# 1 0.007937 -0.002030 -0.001965 0.000756 -0.000146 -0.002724
# 2 -0.002030 0.012257 -0.000859 0.000812 -0.000734 0.000196
# 3 -0.001965 -0.000859 0.005161 -0.002316 0.001390 -0.000950
# 4 0.000756 0.000812 -0.002316 0.022689 -0.002704 -0.003305
# 5 -0.000146 -0.000734 0.001390 -0.002704 0.014398 -0.001645
# 6 -0.002724 0.000196 -0.000950 -0.003305 -0.001645 0.021296
#
#
# Mechanical properties :
#
#
# Convention : Reuss Voigt Hill
#
# Bulk Modulus (GPa) = 63.91976 83.50342 73.71159
# Shear Modulus (GPa) = 50.67847 59.16808 54.92327
#
# Velocity S-wave (km/s) = 4.30657 4.65333 4.48331
# Velocity P-wave (km/s) = 6.93695 7.70913 7.33321
#
# Compressibility (1/GPa) = 0.01564461
#
# Stress axis : x y z
#
# Youngs Moduli (GPa) = 125.99942 81.58869 193.76027
#
# Poissons Ratio (x) = 0.16566 0.38076
# Poissons Ratio (y) = 0.25584 0.16648
# Poissons Ratio (z) = 0.24760 0.07010
#
# Static dielectric constant tensor:
#      x y z
#    x 2.111800 -0.109020 0.020670 
#    y -0.109020 2.305100 0.026770 
#    z 0.020670 0.026770 2.162380 
# 
# From -- ./inp_files/409356.got.cif
#   From: 2010.05.17/outbox.cif.g08.bks.cpg/sg2_205_cif.got.tgz:409356.got - 2010.06.03 11:33:40.
