data_PCOD9067468
_publ_section_title
;
Structure prediction by ZEFSAII (Michael W. Deem and Ramdas Pophale) SiO2 
 PCOD9067468
Probable space group: P -1
;
_chemical_formula_sum "Si O2"
_cell_formula_units_Z 11
_cell_length_a 18.494158
_cell_length_b 7.962232
_cell_length_c 13.671334
_cell_angle_alpha 56.610495
_cell_angle_beta 18.719313
_cell_angle_gamma 45.243292
_cell_volume 394.283578
_symmetry_space_group_name_H-M "P -1"
_symmetry_group_IT_number 2
_symmetry_cell_setting 'triclinic'
loop_
_space_group_symop_operation_xyz
x,y,z
-x,-y,-z
loop_
_atom_site_type_symbol
_atom_site_label
_atom_site_fract_x
_atom_site_fract_y
_atom_site_fract_z
Si Si1 0.018226 0.720642 0.876415
Si Si2 0.264974 0.079654 0.534229
Si Si3 0.633223 0.258630 0.320181
Si Si4 0.032590 0.242215 0.561574
Si Si5 0.352367 0.491378 0.328824
Si Si6 0.000000 0.000000 0.500000
O O1 0.349941 0.564113 0.549586
O O2 0.084997 0.694473 0.685543
O O3 0.000000 0.500000 0.000000
O O4 0.752233 0.020755 0.164636
O O5 0.371028 0.242146 0.364952
O O6 0.219524 0.086344 0.473301
O O7 0.458223 0.821386 0.443438
O O8 0.926963 0.226289 0.962969
O O9 0.682880 0.369138 0.979354
O O10 0.784555 0.321291 0.650725
O O11 0.000000 0.500000 0.500000
O O12 0.168564 0.029031 0.366118
#
# Coordination Sequence:
#
# PCOD9067468 Si02
#       6
#     2   2   2   2   2   1
#     4  12  25  49  81 119 167 216 266 335 409 495
#     4  11  25  49  79 115 162 210 267 342 401 495
#     4  11  26  50  77 122 167 216 266 331 414 493
#     4  12  27  55  76 115 157 211 275 343 406 485
#     4  12  27  51  79 116 163 208 278 336 409 484
#     4  12  28  50  82 110 150 222 270 340 408 476
#
# _framework density 27.898703999999999
#
# number of rings (size 3 to 8) (size 9 to 14) (size 15 to 20)
#    0.000    0.364    5.455    2.182    0.000    3.636 
#    9.818    0.000    0.000    0.000    0.000    0.000 
#    0.000    0.000    0.000    0.000    0.000    0.000 
#
# Total GULP energy -61441.972116 kJ/mol
# GULP energy per Si atom -5585.633829 kJ/mol
# Density = 2.783521 g / cm^3
# Si number density = 27.898704 Si / 1000 Ang^3
#
#
#
# Elastic Constant Matrix: (Units=GPa)
#
#
# Indices 1 2 3 4 5 6 
#
# 1 183.3005 57.3449 32.1333 -0.7151 9.7580 8.0043
# 2 57.3449 110.3627 30.0707 -17.1523 13.8051 -9.6781
# 3 32.1333 30.0707 98.4598 -19.3448 -15.0493 8.8388
# 4 -0.7151 -17.1523 -19.3448 44.8973 17.0843 -5.9809
# 5 9.7580 13.8051 -15.0493 17.0843 41.6641 -0.9718
# 6 8.0043 -9.6781 8.8388 -5.9809 -0.9718 74.0745
#
#
#
# Elastic Compliance Matrix: (Units=1/GPa)
#
#
# Indices 1 2 3 4 5 6 
#
# 1 0.006882 -0.003567 -0.001464 -0.001976 -0.000176 -0.001197
# 2 -0.003567 0.014232 -0.003224 0.007464 -0.008033 0.003127
# 3 -0.001464 -0.003224 0.012975 0.002156 0.005177 -0.001569
# 4 -0.001976 0.007464 0.002156 0.031877 -0.014225 0.003319
# 5 -0.000176 -0.008033 0.005177 -0.014225 0.034353 -0.002346
# 6 -0.001197 0.003127 -0.001569 0.003319 -0.002346 0.014462
#
#
# Mechanical properties :
#
#
# Convention : Reuss Voigt Hill
#
# Bulk Modulus (GPa) = 56.89151 70.13565 63.51358
# Shear Modulus (GPa) = 36.45576 50.29879 43.37727
#
# Velocity S-wave (km/s) = 3.61878 4.25067 3.94739
# Velocity P-wave (km/s) = 6.15607 7.02032 6.60235
#
# Compressibility (1/GPa) = 0.01757731
#
# Stress axis : x y z
#
# Youngs Moduli (GPa) = 145.30404 70.26366 77.07116
#
# Poissons Ratio (x) = 0.25063 0.11287
# Poissons Ratio (y) = 0.51830 0.24851
# Poissons Ratio (z) = 0.21280 0.22656
#
# Static dielectric constant tensor:
#      x y z
#    x 2.521490 0.119940 0.082410 
#    y 0.119940 2.207060 0.045110 
#    z 0.082410 0.045110 2.313920 
# 
# From -- ./inp_files/442629.got.cif
#   From: 2010.05.17/outbox.cif.g08.bks.cpg/sg2_222_cif.got.tgz:442629.got - 2010.06.03 11:33:40.
