data_PCOD9067689
_publ_section_title
;
Structure prediction by ZEFSAII (Michael W. Deem and Ramdas Pophale) SiO2 
 PCOD9067689
Probable space group: P -1
;
_chemical_formula_sum "Si O2"
_cell_formula_units_Z 14
_cell_length_a 10.197298
_cell_length_b 12.013533
_cell_length_c 4.900358
_cell_angle_alpha 67.464568
_cell_angle_beta 101.997222
_cell_angle_gamma 94.845830
_cell_volume 542.363411
_symmetry_space_group_name_H-M "P -1"
_symmetry_group_IT_number 2
_symmetry_cell_setting 'triclinic'
loop_
_space_group_symop_operation_xyz
x,y,z
-x,-y,-z
loop_
_atom_site_type_symbol
_atom_site_label
_atom_site_fract_x
_atom_site_fract_y
_atom_site_fract_z
Si Si1 0.699736 0.924738 0.274889
Si Si2 0.994105 0.336433 0.874325
Si Si3 0.599014 0.336744 0.269679
Si Si4 0.998969 0.173520 0.521437
Si Si5 0.720482 0.075612 0.639972
Si Si6 0.573129 0.675361 0.296891
Si Si7 0.215706 0.481119 0.149881
O O1 0.609809 0.813320 0.247600
O O2 0.854456 0.883298 0.358297
O O3 0.669908 0.968820 0.523630
O O4 0.684569 0.038472 0.963778
O O5 0.964974 0.220374 0.160825
O O6 0.129889 0.392463 0.002078
O O7 0.999694 0.289558 0.613585
O O8 0.882316 0.435614 0.790992
O O9 0.661810 0.204275 0.413766
O O10 0.554273 0.360549 0.536648
O O11 0.467052 0.339908 0.018966
O O12 0.700045 0.431072 0.092214
O O13 0.880551 0.086794 0.653283
O O14 0.693986 0.597285 0.536871
#
# Coordination Sequence:
#
# PCOD9067689 Si02
#       7
#     2   2   2   2   2   2   2
#     4  12  26  47  75 105 146 186 239 296 355 423
#     4  11  26  43  80 105 145 184 227 301 366 424
#     4  12  28  47  74 104 143 194 240 290 349 419
#     4  12  24  48  72 111 143 182 236 295 367 421
#     4  12  26  47  75 105 146 186 239 296 355 423
#     4  12  28  47  74 104 143 194 240 290 349 419
#     4  11  26  50  74 110 144 183 240 296 360 425
#
# _framework density 25.812953
#
# number of rings (size 3 to 8) (size 9 to 14) (size 15 to 20)
#    0.000    0.286    2.857    5.143    4.000    8.000 
#    0.000    0.000    0.000    0.000    0.000    0.000 
#    0.000    0.000    0.000    0.000    0.000    0.000 
#
# Total GULP energy -78732.406611 kJ/mol
# GULP energy per Si atom -5623.743329 kJ/mol
# Density = 2.575420 g / cm^3
# Si number density = 25.812953 Si / 1000 Ang^3
#
#
#
# Elastic Constant Matrix: (Units=GPa)
#
#
# Indices 1 2 3 4 5 6 
#
# 1 75.7487 18.5378 22.1889 -6.4924 4.5775 -0.2693
# 2 18.5378 94.7303 10.3457 3.1701 2.8751 4.0934
# 3 22.1889 10.3457 90.9712 -6.6272 -1.0979 -3.6726
# 4 -6.4924 3.1701 -6.6272 40.2316 -4.7526 -3.6752
# 5 4.5775 2.8751 -1.0979 -4.7526 24.6032 -1.7409
# 6 -0.2693 4.0934 -3.6726 -3.6752 -1.7409 37.4210
#
#
#
# Elastic Compliance Matrix: (Units=1/GPa)
#
#
# Indices 1 2 3 4 5 6 
#
# 1 0.015092 -0.002595 -0.003273 0.001844 -0.002284 0.000146
# 2 -0.002595 0.011325 -0.000863 -0.001754 -0.001330 -0.001576
# 3 -0.003273 -0.000863 0.012108 0.001877 0.001720 0.001523
# 4 0.001844 -0.001754 0.001877 0.026523 0.005298 0.003241
# 5 -0.002284 -0.001330 0.001720 0.005298 0.042524 0.002796
# 6 0.000146 -0.001576 0.001523 0.003241 0.002796 0.027494
#
#
# Mechanical properties :
#
#
# Convention : Reuss Voigt Hill
#
# Bulk Modulus (GPa) = 39.89744 40.39946 40.14845
# Shear Modulus (GPa) = 31.87105 34.47634 33.17370
#
# Velocity S-wave (km/s) = 3.51763 3.65858 3.58880
# Velocity P-wave (km/s) = 5.65581 5.79066 5.72363
#
# Compressibility (1/GPa) = 0.02506427
#
# Stress axis : x y z
#
# Youngs Moduli (GPa) = 66.26030 88.29704 82.59012
#
# Poissons Ratio (x) = 0.22909 0.27035
# Poissons Ratio (y) = 0.17192 0.07124
# Poissons Ratio (z) = 0.21689 0.07617
#
# Static dielectric constant tensor:
#      x y z
#    x 2.027010 0.019990 0.009360 
#    y 0.019990 1.960660 -0.018600 
#    z 0.009360 -0.018600 1.925170 
# 
# From -- ./inp_files/68633.got.cif
#   From: 2010.05.17/outbox.cif.g08.bks.cpg/sg2_35_cif.got.tgz:68633.got - 2010.06.03 11:33:40.
