data_PCOD9067333
_publ_section_title
;
Structure prediction by ZEFSAII (Michael W. Deem and Ramdas Pophale) SiO2 
 PCOD9067333
Probable space group: P -1
;
_chemical_formula_sum "Si O2"
_cell_formula_units_Z 14
_cell_length_a 14.141132
_cell_length_b 12.330185
_cell_length_c 9.824118
_cell_angle_alpha 125.117798
_cell_angle_beta 40.407638
_cell_angle_gamma 149.727973
_cell_volume 541.676468
_symmetry_space_group_name_H-M "P -1"
_symmetry_group_IT_number 2
_symmetry_cell_setting 'triclinic'
loop_
_space_group_symop_operation_xyz
x,y,z
-x,-y,-z
loop_
_atom_site_type_symbol
_atom_site_label
_atom_site_fract_x
_atom_site_fract_y
_atom_site_fract_z
Si Si1 0.719283 0.569594 0.869548
Si Si2 0.352953 0.521352 0.545004
Si Si3 0.330904 0.889055 0.753966
Si Si4 0.972629 0.535016 0.403062
Si Si5 0.802632 0.163417 0.833045
Si Si6 0.477923 0.311220 0.224838
Si Si7 0.737904 0.980970 0.304961
O O1 0.800066 0.532592 0.632868
O O2 0.500000 0.500000 0.000000
O O3 0.980084 0.823846 0.816624
O O4 0.620692 0.423701 0.007164
O O5 0.350890 0.361693 0.417722
O O6 0.365487 0.577534 0.728465
O O7 0.583434 0.749542 0.374762
O O8 0.775357 0.237231 0.784437
O O9 0.295198 0.010076 0.813840
O O10 0.591992 0.005993 0.535849
O O11 0.274849 0.845525 0.941545
O O12 0.852332 0.336257 0.295441
O O13 0.000000 0.500000 0.500000
O O14 0.905785 0.620090 0.323986
O O15 0.702520 0.944329 0.759250
#
# Coordination Sequence:
#
# PCOD9067333 Si02
#       7
#     2   2   2   2   2   2   2
#     4  12  28  49  77 116 160 216 271 327 404 476
#     4  11  25  50  77 116 159 209 271 332 404 477
#     4  11  26  48  81 120 161 210 264 334 408 475
#     4  12  26  49  81 120 164 206 272 334 399 487
#     4  12  26  49  80 118 159 211 266 331 408 477
#     4  11  28  46  75 113 161 213 266 331 397 484
#     4  11  25  48  79 114 158 206 264 339 387 480
#
# _framework density 25.845687999999999
#
# number of rings (size 3 to 8) (size 9 to 14) (size 15 to 20)
#    0.000    0.571    2.857    3.429    4.000    2.857 
#    0.000    2.143    0.000    0.000    0.000    0.000 
#    0.000    0.000    0.000    0.000    0.000    0.000 
#
# Total GULP energy -78397.419016 kJ/mol
# GULP energy per Si atom -5599.815644 kJ/mol
# Density = 2.578686 g / cm^3
# Si number density = 25.845688 Si / 1000 Ang^3
#
#
#
# Elastic Constant Matrix: (Units=GPa)
#
#
# Indices 1 2 3 4 5 6 
#
# 1 137.7790 42.7743 62.9596 -13.4165 2.3068 1.3322
# 2 42.7743 155.7330 54.4453 -24.4227 24.0139 -15.0483
# 3 62.9596 54.4453 166.2306 -14.3326 54.9230 -4.8956
# 4 -13.4165 -24.4227 -14.3326 41.9482 -1.0072 1.4859
# 5 2.3068 24.0139 54.9230 -1.0072 54.8012 -6.4061
# 6 1.3322 -15.0483 -4.8956 1.4859 -6.4061 39.4411
#
#
#
# Elastic Compliance Matrix: (Units=1/GPa)
#
#
# Indices 1 2 3 4 5 6 
#
# 1 0.010044 -0.001831 -0.004892 0.000629 0.005197 -0.000825
# 2 -0.001831 0.008464 -0.000884 0.003889 -0.002364 0.002651
# 3 -0.004892 -0.000884 0.012129 0.001808 -0.011602 -0.000619
# 4 0.000629 0.003889 0.001808 0.026843 -0.003028 0.000184
# 5 0.005197 -0.002364 -0.011602 -0.003028 0.030944 0.002622
# 6 -0.000825 0.002651 -0.000619 0.000184 0.002622 0.026736
#
#
# Mechanical properties :
#
#
# Convention : Reuss Voigt Hill
#
# Bulk Modulus (GPa) = 64.83667 86.67789 75.75728
# Shear Modulus (GPa) = 36.89662 47.20897 42.05279
#
# Velocity S-wave (km/s) = 3.78242 4.27848 4.03807
# Velocity P-wave (km/s) = 6.64952 7.61687 7.14957
#
# Compressibility (1/GPa) = 0.01542337
#
# Stress axis : x y z
#
# Youngs Moduli (GPa) = 99.56235 118.14845 82.44753
#
# Poissons Ratio (x) = 0.21633 0.40331
# Poissons Ratio (y) = 0.18230 0.07289
# Poissons Ratio (z) = 0.48703 0.10445
#
# Static dielectric constant tensor:
#      x y z
#    x 2.342370 -0.103390 0.065800 
#    y -0.103390 2.081200 -0.050780 
#    z 0.065800 -0.050780 2.055920 
# 
# From -- ./inp_files/292194.got.cif
#   From: 2010.05.17/outbox.cif.g08.bks.cpg/sg2_147_cif.got.tgz:292194.got - 2010.06.03 11:33:40.
