data_PCOD9067709
_publ_section_title
;
Structure prediction by ZEFSAII (Michael W. Deem and Ramdas Pophale) SiO2 
 PCOD9067709
Probable space group: P -1
;
_chemical_formula_sum "Si O2"
_cell_formula_units_Z 15
_cell_length_a 17.337429
_cell_length_b 11.239883
_cell_length_c 5.023003
_cell_angle_alpha 74.719182
_cell_angle_beta 96.363182
_cell_angle_gamma 138.456132
_cell_volume 620.466724
_symmetry_space_group_name_H-M "P -1"
_symmetry_group_IT_number 2
_symmetry_cell_setting 'triclinic'
loop_
_space_group_symop_operation_xyz
x,y,z
-x,-y,-z
loop_
_atom_site_type_symbol
_atom_site_label
_atom_site_fract_x
_atom_site_fract_y
_atom_site_fract_z
Si Si1 0.351780 0.497437 0.007036
Si Si2 0.424769 0.801052 0.476202
Si Si3 0.039272 0.674182 0.551742
Si Si4 0.915912 0.913406 0.264913
Si Si5 0.827211 0.080266 0.060362
Si Si6 0.195067 0.446586 0.391587
Si Si7 0.435511 0.244357 0.670889
Si Si8 0.500000 0.500000 0.000000
O O1 0.246984 0.420344 0.193440
O O2 0.474388 0.594776 0.160989
O O3 0.361021 0.380328 0.926380
O O4 0.391598 0.665516 0.772744
O O5 0.298706 0.666637 0.367209
O O6 0.507164 0.821206 0.305177
O O7 0.500000 0.000000 0.500000
O O8 0.110354 0.750183 0.809424
O O9 0.000000 0.500000 0.500000
O O10 0.925328 0.621566 0.615943
O O11 0.122140 0.837045 0.264490
O O12 0.827182 0.691884 0.329499
O O13 0.863083 0.985456 0.216386
O O14 0.000000 0.000000 0.500000
O O15 0.000000 0.000000 0.000000
O O16 0.690102 0.926720 0.150319
O O17 0.443738 0.329573 0.349454
#
# Coordination Sequence:
#
# PCOD9067709 Si02
#       8
#     2   2   2   2   2   2   2   1
#     4   9  23  43  71 100 143 184 242 302 375 435
#     4  11  26  44  72 105 142 192 249 306 374 449
#     4  12  29  49  73 108 147 204 250 306 372 447
#     4  12  25  46  72 106 150 184 249 295 371 443
#     4  12  26  48  75 110 148 195 248 311 373 447
#     4  11  26  45  73 106 140 198 241 311 372 443
#     4   9  24  43  69 106 138 190 237 302 374 436
#     4   8  20  46  60 102 136 178 236 288 376 426
#
# _framework density 24.175350000000002
#
# number of rings (size 3 to 8) (size 9 to 14) (size 15 to 20)
#    0.800    0.533    2.667    0.400    9.333    5.867 
#    0.000    0.000    0.000    0.000    0.000    0.000 
#    0.000    0.000    0.000    0.000    0.000    0.000 
#
# Total GULP energy -83606.961473 kJ/mol
# GULP energy per Si atom -5573.797432 kJ/mol
# Density = 2.412033 g / cm^3
# Si number density = 24.175350 Si / 1000 Ang^3
#
#
#
# Elastic Constant Matrix: (Units=GPa)
#
#
# Indices 1 2 3 4 5 6 
#
# 1 99.3682 26.8850 35.6970 -8.4797 -48.2102 10.9536
# 2 26.8850 130.7204 19.7176 -5.5228 -24.7594 -13.4143
# 3 35.6970 19.7176 108.3189 4.6723 -41.1198 18.7875
# 4 -8.4797 -5.5228 4.6723 36.3742 4.7299 -6.7582
# 5 -48.2102 -24.7594 -41.1198 4.7299 46.9767 -5.6555
# 6 10.9536 -13.4143 18.7875 -6.7582 -5.6555 41.8830
#
#
#
# Elastic Compliance Matrix: (Units=1/GPa)
#
#
# Indices 1 2 3 4 5 6 
#
# 1 0.020810 -0.000697 0.002434 0.000830 0.022607 -0.003571
# 2 -0.000697 0.009126 -0.000827 0.001634 0.003718 0.004242
# 3 0.002434 -0.000827 0.015901 -0.004884 0.015665 -0.006707
# 4 0.000830 0.001634 -0.004884 0.030443 -0.004813 0.006759
# 5 0.022607 0.003718 0.015665 -0.004813 0.060113 -0.004408
# 6 -0.003571 0.004242 -0.006707 0.006759 -0.004408 0.029672
#
#
# Mechanical properties :
#
#
# Convention : Reuss Voigt Hill
#
# Bulk Modulus (GPa) = 20.98225 55.88963 38.43594
# Shear Modulus (GPa) = 27.75774 42.12064 34.93919
#
# Velocity S-wave (km/s) = 3.39216 4.17861 3.80576
# Velocity P-wave (km/s) = 4.90310 6.81540 5.93675
#
# Compressibility (1/GPa) = 0.04765934
#
# Stress axis : x y z
#
# Youngs Moduli (GPa) = 48.05377 109.57275 62.88905
#
# Poissons Ratio (x) = 0.07634 -0.15309
# Poissons Ratio (y) = 0.03348 0.05198
# Poissons Ratio (z) = -0.11697 0.09057
#
# Static dielectric constant tensor:
#      x y z
#    x 1.959540 0.101220 0.034820 
#    y 0.101220 2.057180 0.060510 
#    z 0.034820 0.060510 2.100850 
# 
# From -- ./inp_files/67539.got.cif
#   From: 2010.05.17/outbox.cif.g08.bks.cpg/sg2_34_cif.got.tgz:67539.got - 2010.06.03 11:33:40.
