data_PCOD9067770
_publ_section_title
;
Structure prediction by ZEFSAII (Michael W. Deem and Ramdas Pophale) SiO2 
 PCOD9067770
Probable space group: P -1
;
_chemical_formula_sum "Si O2"
_cell_formula_units_Z 14
_cell_length_a 13.723897
_cell_length_b 14.324915
_cell_length_c 26.010453
_cell_angle_alpha 25.477918
_cell_angle_beta 21.309177
_cell_angle_gamma 21.038645
_cell_volume 645.112259
_symmetry_space_group_name_H-M "P -1"
_symmetry_group_IT_number 2
_symmetry_cell_setting 'triclinic'
loop_
_space_group_symop_operation_xyz
x,y,z
-x,-y,-z
loop_
_atom_site_type_symbol
_atom_site_label
_atom_site_fract_x
_atom_site_fract_y
_atom_site_fract_z
Si Si1 0.929299 0.950407 0.502103
Si Si2 0.836594 0.787196 0.911109
Si Si3 0.664919 0.064593 0.431609
Si Si4 0.079773 0.200953 0.914255
Si Si5 0.110643 0.532544 0.545187
Si Si6 0.821262 0.862144 0.221015
Si Si7 0.802696 0.762081 0.820601
O O1 0.179116 0.654102 0.501211
O O2 0.563673 0.022465 0.645256
O O3 0.000000 0.000000 0.500000
O O4 0.966644 0.143418 0.352546
O O5 0.750756 0.778401 0.898557
O O6 0.080452 0.879317 0.744252
O O7 0.000000 0.500000 0.000000
O O8 0.500000 0.000000 0.000000
O O9 0.396030 0.325666 0.467954
O O10 0.500000 0.000000 0.500000
O O11 0.852745 0.801229 0.506572
O O12 0.042331 0.254282 0.845074
O O13 0.973019 0.464615 0.865082
O O14 0.460121 0.963091 0.858667
O O15 0.866257 0.096277 0.088423
O O16 0.997310 0.362918 0.712151
#
# Coordination Sequence:
#
# PCOD9067770 Si02
#       7
#     2   2   2   2   2   2   2
#     4  12  25  45  79 109 147 193 244 291 366 438
#     4  12  27  48  73 104 142 186 241 306 364 427
#     4  12  28  50  77 105 145 191 250 309 366 428
#     4  11  28  44  70 106 152 190 233 293 370 436
#     4  12  25  47  76 108 147 187 250 301 359 434
#     4  11  26  45  71 107 151 190 239 293 362 442
#     4  12  26  47  72 104 145 190 243 298 359 439
#
# _framework density 21.701649
#
# number of rings (size 3 to 8) (size 9 to 14) (size 15 to 20)
#    0.000    0.286    4.286    3.000    6.000    5.714 
#    0.000    0.000    0.000    0.000    0.000    0.000 
#    0.000    0.000    0.000    0.000    0.000    0.000 
#
# Total GULP energy -78369.820120 kJ/mol
# GULP energy per Si atom -5597.844294 kJ/mol
# Density = 2.165226 g / cm^3
# Si number density = 21.701649 Si / 1000 Ang^3
#
#
#
# Elastic Constant Matrix: (Units=GPa)
#
#
# Indices 1 2 3 4 5 6 
#
# 1 88.6893 98.0384 54.6273 -18.9845 3.9021 25.2426
# 2 98.0384 281.2840 97.1962 -39.4129 -14.6579 59.5876
# 3 54.6273 97.1962 190.8673 -17.2341 3.9906 16.7475
# 4 -18.9845 -39.4129 -17.2341 27.6751 0.0542 -7.9762
# 5 3.9021 -14.6579 3.9906 0.0542 49.3413 -10.2128
# 6 25.2426 59.5876 16.7475 -7.9762 -10.2128 59.5970
#
#
#
# Elastic Compliance Matrix: (Units=1/GPa)
#
#
# Indices 1 2 3 4 5 6 
#
# 1 0.020498 -0.005314 -0.002469 0.004176 -0.003569 -0.002728
# 2 -0.005314 0.007589 -0.001589 0.005052 0.001996 -0.003872
# 3 -0.002469 -0.001589 0.006750 0.000443 -0.000682 0.000681
# 4 0.004176 0.005052 0.000443 0.046300 0.000963 -0.000583
# 5 -0.003569 0.001996 -0.000682 0.000963 0.021941 0.003596
# 6 -0.002728 -0.003872 0.000681 -0.000583 0.003596 0.022153
#
#
# Mechanical properties :
#
#
# Convention : Reuss Voigt Hill
#
# Bulk Modulus (GPa) = 62.14729 117.84049 89.99389
# Shear Modulus (GPa) = 33.48098 48.05460 40.76779
#
# Velocity S-wave (km/s) = 3.93209 4.71077 4.33893
# Velocity P-wave (km/s) = 7.02242 9.16551 8.16459
#
# Compressibility (1/GPa) = 0.01609081
#
# Stress axis : x y z
#
# Youngs Moduli (GPa) = 48.78572 131.77736 148.14948
#
# Poissons Ratio (x) = 0.70026 0.36585
# Poissons Ratio (y) = 0.25925 0.23545
# Poissons Ratio (z) = 0.12048 0.20943
#
# Static dielectric constant tensor:
#      x y z
#    x 1.806270 -0.020630 -0.002100 
#    y -0.020630 1.778780 0.009370 
#    z -0.002100 0.009370 1.764700 
# 
# From -- ./inp_files/619622.got.cif
#   From: 2010.05.17/outbox.cif.g08.bks.cpg/sg2_310_cif.got.tgz:619622.got - 2010.06.03 11:33:40.
