data_PCOD9067248
_publ_section_title
;
Structure prediction by ZEFSAII (Michael W. Deem and Ramdas Pophale) SiO2 
 PCOD9067248
Probable space group: P -1
;
_chemical_formula_sum "Si O2"
_cell_formula_units_Z 14
_cell_length_a 14.596098
_cell_length_b 14.294800
_cell_length_c 6.548807
_cell_angle_alpha 97.795270
_cell_angle_beta 68.844201
_cell_angle_gamma 150.911459
_cell_volume 568.750548
_symmetry_space_group_name_H-M "P -1"
_symmetry_group_IT_number 2
_symmetry_cell_setting 'triclinic'
loop_
_space_group_symop_operation_xyz
x,y,z
-x,-y,-z
loop_
_atom_site_type_symbol
_atom_site_label
_atom_site_fract_x
_atom_site_fract_y
_atom_site_fract_z
Si Si1 0.872459 0.552135 0.035666
Si Si2 0.257503 0.109604 0.365635
Si Si3 0.573258 0.397878 0.526105
Si Si4 0.785084 0.309555 0.752505
Si Si5 0.213220 0.169695 0.013185
Si Si6 0.165711 0.320580 0.229834
Si Si7 0.680427 0.027633 0.971729
O O1 0.706696 0.427614 0.320751
O O2 0.114619 0.790500 0.985312
O O3 0.841514 0.420342 0.939537
O O4 0.819093 0.574014 0.890702
O O5 0.441770 0.321504 0.411286
O O6 0.162881 0.092077 0.257603
O O7 0.332997 0.079722 0.178867
O O8 0.083048 0.923685 0.614342
O O9 0.757371 0.604435 0.575685
O O10 0.381751 0.239518 0.802699
O O11 0.732222 0.157370 0.811875
O O12 0.000000 0.500000 0.500000
O O13 0.559416 0.158016 0.797800
O O14 0.294282 0.346630 0.024101
O O15 0.000000 0.000000 0.000000
#
# Coordination Sequence:
#
# PCOD9067248 Si02
#       7
#     2   2   2   2   2   2   2
#     4  12  26  48  75 108 147 191 245 298 370 441
#     4  12  25  48  72 105 147 191 246 300 364 434
#     4  12  27  44  77  99 149 194 244 301 360 433
#     4  11  26  48  76 112 146 186 247 301 371 448
#     4  12  27  46  70 108 148 194 247 301 360 428
#     4  12  27  46  72 108 145 194 245 299 363 426
#     4  11  25  48  75 108 149 187 240 306 368 436
#
# _framework density 24.615359999999999
#
# number of rings (size 3 to 8) (size 9 to 14) (size 15 to 20)
#    0.000    0.286    4.286    3.857    0.000    1.714 
#    0.000    0.000    0.000    0.000    0.000    0.000 
#    0.000    0.000    0.000    0.000    0.000    0.000 
#
# Total GULP energy -78204.790979 kJ/mol
# GULP energy per Si atom -5586.056498 kJ/mol
# Density = 2.455933 g / cm^3
# Si number density = 24.615360 Si / 1000 Ang^3
#
#
#
# Elastic Constant Matrix: (Units=GPa)
#
#
# Indices 1 2 3 4 5 6 
#
# 1 93.3515 42.8878 44.0128 4.7845 2.0188 2.6147
# 2 42.8878 56.9392 21.9125 25.5442 2.8502 16.0695
# 3 44.0128 21.9125 135.0458 -5.6434 -25.2278 -5.6221
# 4 4.7845 25.5442 -5.6434 60.7870 6.3293 -0.9360
# 5 2.0188 2.8502 -25.2278 6.3293 39.0871 -6.0234
# 6 2.6147 16.0695 -5.6221 -0.9360 -6.0234 41.8324
#
#
#
# Elastic Compliance Matrix: (Units=1/GPa)
#
#
# Indices 1 2 3 4 5 6 
#
# 1 0.020162 -0.017576 -0.003719 0.005773 -0.002358 0.004781
# 2 -0.017576 0.045894 -0.004168 -0.018048 -0.005014 -0.018217
# 3 -0.003719 -0.004168 0.011065 0.002312 0.007959 0.004518
# 4 0.005773 -0.018048 0.002312 0.023933 -0.000227 0.007386
# 5 -0.002358 -0.005014 0.007959 -0.000227 0.032449 0.007810
# 6 0.004781 -0.018217 0.004518 0.007386 0.007810 0.032501
#
#
# Mechanical properties :
#
#
# Convention : Reuss Voigt Hill
#
# Bulk Modulus (GPa) = 38.17581 55.88474 47.03027
# Shear Modulus (GPa) = 22.15709 40.10953 31.13331
#
# Velocity S-wave (km/s) = 3.00348 4.04103 3.56025
# Velocity P-wave (km/s) = 5.25076 6.67276 6.00400
#
# Compressibility (1/GPa) = 0.02619460
#
# Stress axis : x y z
#
# Youngs Moduli (GPa) = 49.59850 21.78923 90.37590
#
# Poissons Ratio (x) = 0.38297 0.33613
# Poissons Ratio (y) = 0.87176 0.37666
# Poissons Ratio (z) = 0.18447 0.09081
#
# Static dielectric constant tensor:
#      x y z
#    x 2.017490 0.065630 -0.028420 
#    y 0.065630 1.976790 -0.004770 
#    z -0.028420 -0.004770 1.935260 
# 
# From -- ./inp_files/98235.got.cif
#   From: 2010.05.17/outbox.cif.g08.bks.cpg/sg2_50_cif.got.tgz:98235.got - 2010.06.03 11:33:40.
