data_PCOD9067799
_publ_section_title
;
Structure prediction by ZEFSAII (Michael W. Deem and Ramdas Pophale) SiO2 
 PCOD9067799
Probable space group: P -1
;
_chemical_formula_sum "Si O2"
_cell_formula_units_Z 16
_cell_length_a 16.498983
_cell_length_b 5.612258
_cell_length_c 9.320135
_cell_angle_alpha 126.197489
_cell_angle_beta 86.163450
_cell_angle_gamma 90.734003
_cell_volume 694.496024
_symmetry_space_group_name_H-M "P -1"
_symmetry_group_IT_number 2
_symmetry_cell_setting 'triclinic'
loop_
_space_group_symop_operation_xyz
x,y,z
-x,-y,-z
loop_
_atom_site_type_symbol
_atom_site_label
_atom_site_fract_x
_atom_site_fract_y
_atom_site_fract_z
Si Si1 0.565894 0.189839 0.981951
Si Si2 0.244243 0.432156 0.636246
Si Si3 0.536150 0.827879 0.296561
Si Si4 0.709209 0.924901 0.212487
Si Si5 0.065989 0.295717 0.499596
Si Si6 0.284285 0.131941 0.276951
Si Si7 0.218242 0.521500 0.176235
Si Si8 0.038694 0.664701 0.188045
O O1 0.533215 0.219563 0.832395
O O2 0.649897 0.013246 0.888403
O O3 0.571942 0.489485 0.178901
O O4 0.500000 0.000000 0.000000
O O5 0.249344 0.224430 0.702520
O O6 0.156691 0.391586 0.556483
O O7 0.314033 0.302227 0.474417
O O8 0.254179 0.783483 0.759044
O O9 0.614659 0.989140 0.282868
O O10 0.500000 0.000000 0.500000
O O11 0.725249 0.665780 0.005229
O O12 0.000000 0.500000 0.500000
O O13 0.026891 0.289314 0.661341
O O14 0.067115 0.001747 0.296583
O O15 0.239072 0.388225 0.281014
O O16 0.239110 0.857037 0.256311
O O17 0.122133 0.486619 0.152917
O O18 0.000000 0.500000 0.000000
#
# Coordination Sequence:
#
# PCOD9067799 Si02
#       8
#     2   2   2   2   2   2   2   2
#     4  11  26  45  73 104 144 192 236 299 364 431
#     4  12  27  46  74 103 144 191 243 296 363 422
#     4  11  26  47  71 105 146 188 241 297 364 430
#     4  12  27  47  73 106 143 189 244 301 352 433
#     4  11  26  47  71 104 147 188 238 301 357 434
#     4  12  25  47  73 102 144 190 242 292 362 424
#     4  12  25  47  72 103 144 189 239 301 351 429
#     4  11  26  46  73 105 144 190 240 294 366 428
#
# _framework density 23.038287
#
# number of rings (size 3 to 8) (size 9 to 14) (size 15 to 20)
#    0.000    0.500    2.500    4.500   10.500    1.000 
#    0.000    0.000    0.000    0.000    0.000    0.000 
#    0.000    0.000    0.000    0.000    0.000    0.000 
#
# Total GULP energy -89280.133925 kJ/mol
# GULP energy per Si atom -5580.008370 kJ/mol
# Density = 2.298585 g / cm^3
# Si number density = 23.038287 Si / 1000 Ang^3
#
#
#
# Elastic Constant Matrix: (Units=GPa)
#
#
# Indices 1 2 3 4 5 6 
#
# 1 83.0865 27.7114 2.8561 -0.5611 2.5740 -5.8742
# 2 27.7114 103.4579 25.8356 -0.0106 3.8214 -7.5644
# 3 2.8561 25.8356 116.0008 -5.0628 -0.2930 -4.5823
# 4 -0.5611 -0.0106 -5.0628 35.6970 2.8588 5.8239
# 5 2.5740 3.8214 -0.2930 2.8588 36.1782 1.5261
# 6 -5.8742 -7.5644 -4.5823 5.8239 1.5261 35.2744
#
#
#
# Elastic Compliance Matrix: (Units=1/GPa)
#
#
# Indices 1 2 3 4 5 6 
#
# 1 0.013337 -0.003568 0.000529 0.000084 -0.000639 0.001538
# 2 -0.003568 0.011382 -0.002409 -0.000588 -0.000992 0.001674
# 3 0.000529 -0.002409 0.009220 0.001210 0.000172 0.000562
# 4 0.000084 -0.000588 0.001210 0.029112 -0.002037 -0.004673
# 5 -0.000639 -0.000992 0.000172 -0.002037 0.028003 -0.001172
# 6 0.001538 0.001674 0.000562 -0.004673 -0.001172 0.029860
#
#
# Mechanical properties :
#
#
# Convention : Reuss Voigt Hill
#
# Bulk Modulus (GPa) = 43.39951 46.15015 44.77483
# Shear Modulus (GPa) = 35.84481 37.83939 36.84210
#
# Velocity S-wave (km/s) = 3.94874 4.05712 4.00330
# Velocity P-wave (km/s) = 6.29833 6.48247 6.39106
#
# Compressibility (1/GPa) = 0.02304174
#
# Stress axis : x y z
#
# Youngs Moduli (GPa) = 74.98099 87.85705 108.46446
#
# Poissons Ratio (x) = 0.31350 -0.05740
# Poissons Ratio (y) = 0.26756 0.26131
# Poissons Ratio (z) = -0.03968 0.21167
#
# Static dielectric constant tensor:
#      x y z
#    x 1.905240 0.013840 0.011700 
#    y 0.013840 1.931470 0.000650 
#    z 0.011700 0.000650 1.843240 
# 
# From -- ./inp_files/106081.got.cif
#   From: 2010.05.17/outbox.cif.g08.bks.cpg/sg2_54_cif.got.tgz:106081.got - 2010.06.03 11:33:40.
