data_PCOD9067617
_publ_section_title
;
Structure prediction by ZEFSAII (Michael W. Deem and Ramdas Pophale) SiO2 
 PCOD9067617
Probable space group: P -1
;
_chemical_formula_sum "Si O2"
_cell_formula_units_Z 16
_cell_length_a 11.072626
_cell_length_b 14.905530
_cell_length_c 12.106048
_cell_angle_alpha 36.587085
_cell_angle_beta 82.535191
_cell_angle_gamma 54.543039
_cell_volume 700.480303
_symmetry_space_group_name_H-M "P -1"
_symmetry_group_IT_number 2
_symmetry_cell_setting 'triclinic'
loop_
_space_group_symop_operation_xyz
x,y,z
-x,-y,-z
loop_
_atom_site_type_symbol
_atom_site_label
_atom_site_fract_x
_atom_site_fract_y
_atom_site_fract_z
Si Si1 0.323235 0.112650 0.987809
Si Si2 0.983721 0.691828 0.407289
Si Si3 0.106516 0.825957 0.422209
Si Si4 0.896299 0.303518 0.847276
Si Si5 0.539849 0.352864 0.534842
Si Si6 0.856311 0.433607 0.159334
Si Si7 0.548934 0.042742 0.225568
Si Si8 0.133057 0.439151 0.203075
O O1 0.335139 0.920578 0.175112
O O2 0.407220 0.077880 0.131903
O O3 0.500000 0.000000 0.000000
O O4 0.123697 0.402547 0.682504
O O5 0.098719 0.686197 0.485056
O O6 0.748965 0.900430 0.271842
O O7 0.995491 0.246659 0.773267
O O8 0.327021 0.684305 0.530090
O O9 0.051613 0.813276 0.560349
O O10 0.966184 0.083686 0.119127
O O11 0.663473 0.506038 0.637362
O O12 0.919995 0.409906 0.831718
O O13 0.500000 0.500000 0.500000
O O14 0.981892 0.450270 0.181176
O O15 0.865214 0.454328 0.007792
O O16 0.617968 0.674386 0.988354
O O17 0.650167 0.851816 0.503506
#
# Coordination Sequence:
#
# PCOD9067617 Si02
#       8
#     2   2   2   2   2   2   2   2
#     4  12  24  42  72 105 145 193 241 297 355 433
#     4  12  26  46  72 115 147 189 241 300 368 443
#     4  12  27  43  70 106 155 193 237 298 373 436
#     4  12  28  46  70 111 147 197 236 300 370 438
#     4  12  27  45  68 106 156 196 231 293 369 443
#     4  11  27  50  76 106 137 196 246 315 358 421
#     4  12  24  43  78 107 143 181 248 305 365 424
#     4  11  25  51  79 103 139 186 261 305 358 429
#
# _framework density 22.841470000000001
#
# number of rings (size 3 to 8) (size 9 to 14) (size 15 to 20)
#    0.000    0.250    6.250    0.750    7.000    1.500 
#    2.250    0.625    0.000    0.000    0.000    0.000 
#    0.000    0.000    0.000    0.000    0.000    0.000 
#
# Total GULP energy -89441.548366 kJ/mol
# GULP energy per Si atom -5590.096773 kJ/mol
# Density = 2.278948 g / cm^3
# Si number density = 22.841470 Si / 1000 Ang^3
#
#
#
# Elastic Constant Matrix: (Units=GPa)
#
#
# Indices 1 2 3 4 5 6 
#
# 1 90.5617 40.1257 38.2302 24.6120 -3.1143 -19.7901
# 2 40.1257 96.0503 50.6588 35.5118 1.6893 -9.3487
# 3 38.2302 50.6588 144.6190 36.8014 -9.7239 -25.0660
# 4 24.6120 35.5118 36.8014 48.3936 -1.1720 -4.8131
# 5 -3.1143 1.6893 -9.7239 -1.1720 48.0800 7.0872
# 6 -19.7901 -9.3487 -25.0660 -4.8131 7.0872 34.1417
#
#
#
# Elastic Compliance Matrix: (Units=1/GPa)
#
#
# Indices 1 2 3 4 5 6 
#
# 1 0.015687 -0.004193 -0.000483 -0.003833 -0.000069 0.007064
# 2 -0.004193 0.016585 -0.002932 -0.007929 -0.001516 -0.000844
# 3 -0.000483 -0.002932 0.010367 -0.004901 0.001226 0.005583
# 4 -0.003833 -0.007929 -0.004901 0.031812 0.000342 -0.003578
# 5 -0.000069 -0.001516 0.001226 0.000342 0.021695 -0.004010
# 6 0.007064 -0.000844 0.005583 -0.003578 -0.004010 0.037580
#
#
# Mechanical properties :
#
#
# Convention : Reuss Voigt Hill
#
# Bulk Modulus (GPa) = 36.46466 65.47340 50.96903
# Shear Modulus (GPa) = 31.62932 39.60415 35.61674
#
# Velocity S-wave (km/s) = 3.72524 4.16849 3.95308
# Velocity P-wave (km/s) = 5.87385 7.20382 6.57256
#
# Compressibility (1/GPa) = 0.02742381
#
# Stress axis : x y z
#
# Youngs Moduli (GPa) = 63.74798 60.29527 96.46228
#
# Poissons Ratio (x) = 0.25279 0.04659
# Poissons Ratio (y) = 0.26726 0.28281
# Poissons Ratio (z) = 0.03079 0.17678
#
# Static dielectric constant tensor:
#      x y z
#    x 1.901850 0.009520 0.014050 
#    y 0.009520 1.914240 -0.038250 
#    z 0.014050 -0.038250 1.894000 
# 
# From -- ./inp_files/505014.got.cif
#   From: 2010.05.17/outbox.cif.g08.bks.cpg/sg2_253_cif.got.tgz:505014.got - 2010.06.03 11:33:40.
