data_PCOD9067784
_publ_section_title
;
Structure prediction by ZEFSAII (Michael W. Deem and Ramdas Pophale) SiO2 
 PCOD9067784
Probable space group: P -1
;
_chemical_formula_sum "Si O2"
_cell_formula_units_Z 14
_cell_length_a 8.808363
_cell_length_b 5.688170
_cell_length_c 18.409118
_cell_angle_alpha 59.114541
_cell_angle_beta 52.817662
_cell_angle_gamma 63.797546
_cell_volume 618.912919
_symmetry_space_group_name_H-M "P -1"
_symmetry_group_IT_number 2
_symmetry_cell_setting 'triclinic'
loop_
_space_group_symop_operation_xyz
x,y,z
-x,-y,-z
loop_
_atom_site_type_symbol
_atom_site_label
_atom_site_fract_x
_atom_site_fract_y
_atom_site_fract_z
Si Si1 0.845341 0.371382 0.519244
Si Si2 0.597783 0.684830 0.036520
Si Si3 0.244789 0.455832 0.132574
Si Si4 0.059644 0.083369 0.889053
Si Si5 0.005549 0.796862 0.643372
Si Si6 0.430531 0.742594 0.599643
Si Si7 0.731449 0.442023 0.184567
O O1 0.916499 0.415335 0.410144
O O2 0.614441 0.491778 0.569228
O O3 0.000000 0.500000 0.500000
O O4 0.892308 0.059838 0.588205
O O5 0.463108 0.459501 0.092296
O O6 0.639572 0.648899 0.114462
O O7 0.764740 0.618566 0.937871
O O8 0.500000 0.000000 0.000000
O O9 0.131385 0.772051 0.121612
O O10 0.143625 0.273973 0.243736
O O11 0.173243 0.343291 0.826466
O O12 0.155107 0.815838 0.856557
O O13 0.000000 0.000000 0.000000
O O14 0.208732 0.794718 0.626033
O O15 0.402855 0.701584 0.700430
O O16 0.500000 0.000000 0.500000
#
# Coordination Sequence:
#
# PCOD9067784 Si02
#       7
#     2   2   2   2   2   2   2
#     4  11  26  47  74 107 146 194 254 314 380 453
#     4  11  27  46  72 107 153 196 247 320 385 464
#     4  11  26  45  72 106 146 197 248 314 388 458
#     4  12  25  48  74 109 150 194 252 313 378 464
#     4  11  26  48  75 107 147 198 253 318 383 457
#     4  12  27  48  75 110 153 202 257 322 387 457
#     4  12  29  47  77 112 147 206 256 314 389 461
#
# _framework density 22.620305999999999
#
# number of rings (size 3 to 8) (size 9 to 14) (size 15 to 20)
#    0.000    0.571    4.286    1.714   10.000    1.143 
#    0.000    0.000    0.000    0.000    0.000    0.000 
#    0.000    0.000    0.000    0.000    0.000    0.000 
#
# Total GULP energy -77996.144133 kJ/mol
# GULP energy per Si atom -5571.153152 kJ/mol
# Density = 2.256882 g / cm^3
# Si number density = 22.620306 Si / 1000 Ang^3
#
#
#
# Elastic Constant Matrix: (Units=GPa)
#
#
# Indices 1 2 3 4 5 6 
#
# 1 70.2086 19.8736 45.6528 0.0719 0.4654 -4.5318
# 2 19.8736 91.0442 31.0594 -1.1631 -3.1370 -12.1251
# 3 45.6528 31.0594 196.4172 -4.0520 4.2200 7.4454
# 4 0.0719 -1.1631 -4.0520 30.7184 -4.6408 4.1716
# 5 0.4654 -3.1370 4.2200 -4.6408 33.4673 -5.8259
# 6 -4.5318 -12.1251 7.4454 4.1716 -5.8259 37.6699
#
#
#
# Elastic Compliance Matrix: (Units=1/GPa)
#
#
# Indices 1 2 3 4 5 6 
#
# 1 0.017508 -0.002209 -0.003832 -0.000896 0.000309 0.002300
# 2 -0.002209 0.012730 -0.001719 -0.000017 0.002225 0.004518
# 3 -0.003832 -0.001719 0.006397 0.000951 -0.001231 -0.002574
# 4 -0.000896 -0.000017 0.000951 0.033746 0.003974 -0.003424
# 5 0.000309 0.002225 -0.001231 0.003974 0.031742 0.005465
# 6 0.002300 0.004518 -0.002574 -0.003424 0.005465 0.030010
#
#
# Mechanical properties :
#
#
# Convention : Reuss Voigt Hill
#
# Bulk Modulus (GPa) = 47.35929 61.20461 54.28195
# Shear Modulus (GPa) = 32.32215 37.77674 35.04945
#
# Velocity S-wave (km/s) = 3.78418 4.09104 3.94060
# Velocity P-wave (km/s) = 6.33052 7.03076 6.68981
#
# Compressibility (1/GPa) = 0.02111518
#
# Stress axis : x y z
#
# Youngs Moduli (GPa) = 57.11760 78.55231 156.31289
#
# Poissons Ratio (x) = 0.17351 0.59904
# Poissons Ratio (y) = 0.12616 0.26871
# Poissons Ratio (z) = 0.21889 0.13504
#
# Static dielectric constant tensor:
#      x y z
#    x 1.793320 0.048080 0.022240 
#    y 0.048080 1.954620 -0.008940 
#    z 0.022240 -0.008940 1.833410 
# 
# From -- ./inp_files/88409.got.cif
#   From: 2010.05.17/outbox.cif.g08.bks.cpg/sg2_45_cif.got.tgz:88409.got - 2010.06.03 11:33:40.
