data_PCOD9067556
_publ_section_title
;
Structure prediction by ZEFSAII (Michael W. Deem and Ramdas Pophale) SiO2 
 PCOD9067556
Probable space group: P -1
;
_chemical_formula_sum "Si O2"
_cell_formula_units_Z 14
_cell_length_a 20.798587
_cell_length_b 8.733280
_cell_length_c 5.491059
_cell_angle_alpha 58.383871
_cell_angle_beta 47.947920
_cell_angle_gamma 55.076427
_cell_volume 590.776321
_symmetry_space_group_name_H-M "P -1"
_symmetry_group_IT_number 2
_symmetry_cell_setting 'triclinic'
loop_
_space_group_symop_operation_xyz
x,y,z
-x,-y,-z
loop_
_atom_site_type_symbol
_atom_site_label
_atom_site_fract_x
_atom_site_fract_y
_atom_site_fract_z
Si Si1 0.200741 0.685247 0.237904
Si Si2 0.546360 0.113962 0.463116
Si Si3 0.053446 0.012873 0.095918
Si Si4 0.105514 0.366683 0.780735
Si Si5 0.303809 0.768313 0.309389
Si Si6 0.293535 0.102113 0.422020
Si Si7 0.644139 0.591925 0.199720
O O1 0.145620 0.829914 0.050058
O O2 0.145579 0.539405 0.513844
O O3 0.213083 0.798978 0.349242
O O4 0.305928 0.556157 0.015328
O O5 0.463256 0.287311 0.647731
O O6 0.500000 0.000000 0.500000
O O7 0.611565 0.967224 0.612642
O O8 0.614470 0.196783 0.078228
O O9 0.000000 0.000000 0.500000
O O10 0.076962 0.206305 0.839531
O O11 0.000000 0.000000 0.000000
O O12 0.206689 0.204259 0.736292
O O13 0.000000 0.500000 0.000000
O O14 0.335343 0.549652 0.505794
O O15 0.289390 0.920633 0.436877
O O16 0.301270 0.257856 0.074949
#
# Coordination Sequence:
#
# PCOD9067556 Si02
#       7
#     2   2   2   2   2   2   2
#     4  11  28  50  75 115 153 201 260 325 397 474
#     4  12  26  48  75 110 154 207 256 320 398 477
#     4  12  28  52  81 117 158 207 269 333 403 476
#     4  11  25  50  78 113 150 205 261 324 396 476
#     4  12  26  47  79 110 154 198 258 325 397 473
#     4  11  27  49  74 110 158 198 263 327 394 472
#     4  11  26  45  75 108 146 199 256 314 390 474
#
# _framework density 23.697631999999999
#
# number of rings (size 3 to 8) (size 9 to 14) (size 15 to 20)
#    0.000    0.571    2.857    3.429    8.000    4.000 
#    2.571    0.000    0.000    0.000    0.000    0.000 
#    0.000    0.000    0.000    0.000    0.000    0.000 
#
# Total GULP energy -77945.619413 kJ/mol
# GULP energy per Si atom -5567.544244 kJ/mol
# Density = 2.364370 g / cm^3
# Si number density = 23.697632 Si / 1000 Ang^3
#
#
#
# Elastic Constant Matrix: (Units=GPa)
#
#
# Indices 1 2 3 4 5 6 
#
# 1 191.9544 86.4252 52.3484 -19.1233 -14.0278 9.3448
# 2 86.4252 161.7094 32.3440 4.5310 -17.4537 -21.1228
# 3 52.3484 32.3440 122.0704 -12.0160 -20.1842 0.8844
# 4 -19.1233 4.5310 -12.0160 61.4693 -0.8528 -22.4991
# 5 -14.0278 -17.4537 -20.1842 -0.8528 32.3177 -4.2173
# 6 9.3448 -21.1228 0.8844 -22.4991 -4.2173 41.9051
#
#
#
# Elastic Compliance Matrix: (Units=1/GPa)
#
#
# Indices 1 2 3 4 5 6 
#
# 1 0.008033 -0.004398 -0.002264 0.001113 -0.000722 -0.003435
# 2 -0.004398 0.009848 -0.000031 0.000363 0.004257 0.006569
# 3 -0.002264 -0.000031 0.010318 0.002124 0.005761 0.001991
# 4 0.001113 0.000363 0.002124 0.021371 0.004106 0.011777
# 5 -0.000722 0.004257 0.005761 0.004106 0.037703 0.008184
# 6 -0.003435 0.006569 0.001991 0.011777 0.008184 0.035045
#
#
# Mechanical properties :
#
#
# Convention : Reuss Voigt Hill
#
# Bulk Modulus (GPa) = 67.51301 90.88549 79.19925
# Shear Modulus (GPa) = 35.55123 47.44619 41.49871
#
# Velocity S-wave (km/s) = 3.87745 4.47939 4.18924
# Velocity P-wave (km/s) = 6.97118 8.07395 7.54274
#
# Compressibility (1/GPa) = 0.01481196
#
# Stress axis : x y z
#
# Youngs Moduli (GPa) = 124.49335 101.54413 96.91398
#
# Poissons Ratio (x) = 0.44658 0.21944
# Poissons Ratio (y) = 0.54751 0.00304
# Poissons Ratio (z) = 0.28188 0.00318
#
# Static dielectric constant tensor:
#      x y z
#    x 1.841050 0.003650 0.020900 
#    y 0.003650 1.933230 0.053460 
#    z 0.020900 0.053460 2.022440 
# 
# From -- ./inp_files/106163.got.cif
#   From: 2010.05.17/outbox.cif.g08.bks.cpg/sg2_54_cif.got.tgz:106163.got - 2010.06.03 11:33:40.
