data_PCOD9067374
_publ_section_title
;
Structure prediction by ZEFSAII (Michael W. Deem and Ramdas Pophale) SiO2 
 PCOD9067374
Probable space group: P -1
;
_chemical_formula_sum "Si O2"
_cell_formula_units_Z 16
_cell_length_a 6.870616
_cell_length_b 9.925082
_cell_length_c 17.896096
_cell_angle_alpha 121.890465
_cell_angle_beta 66.606108
_cell_angle_gamma 130.701386
_cell_volume 782.910125
_symmetry_space_group_name_H-M "P -1"
_symmetry_group_IT_number 2
_symmetry_cell_setting 'triclinic'
loop_
_space_group_symop_operation_xyz
x,y,z
-x,-y,-z
loop_
_atom_site_type_symbol
_atom_site_label
_atom_site_fract_x
_atom_site_fract_y
_atom_site_fract_z
Si Si1 0.736254 0.226495 0.026115
Si Si2 0.460990 0.932745 0.690145
Si Si3 0.999984 0.682242 0.576531
Si Si4 0.306479 0.448846 0.945853
Si Si5 0.569610 0.334546 0.753439
Si Si6 0.534281 0.562947 0.353169
Si Si7 0.799831 0.823374 0.528532
Si Si8 0.166849 0.635786 0.777395
O O1 0.669953 0.357938 0.027977
O O2 0.798090 0.304323 0.124270
O O3 0.010124 0.286342 0.966753
O O4 0.500000 0.000000 0.000000
O O5 0.671997 0.890457 0.625364
O O6 0.325641 0.823101 0.755251
O O7 0.254927 0.832019 0.625476
O O8 0.560699 0.153758 0.735077
O O9 0.759070 0.618442 0.647935
O O10 0.954380 0.757746 0.530369
O O11 0.000000 0.500000 0.500000
O O12 0.398480 0.376282 0.843190
O O13 0.500000 0.500000 0.000000
O O14 0.464504 0.310771 0.677821
O O15 0.867817 0.512777 0.764211
O O16 0.600251 0.662372 0.453446
O O17 0.720756 0.493779 0.290054
O O18 0.000000 0.000000 0.500000
#
# Coordination Sequence:
#
# PCOD9067374 Si02
#       8
#     2   2   2   2   2   2   2   2
#     4  11  27  47  77 107 144 186 233 285 362 436
#     4  12  27  43  70 103 136 185 240 286 344 422
#     4  12  24  43  68  96 136 189 237 285 349 408
#     4  11  25  49  73 106 147 185 225 295 361 426
#     4  12  27  45  72 105 140 182 237 290 351 421
#     4  12  24  44  69  95 143 184 227 294 347 403
#     4  12  26  43  64  97 140 185 235 286 346 410
#     4  12  25  47  69 104 141 181 229 295 352 410
#
# _framework density 20.436572999999999
#
# number of rings (size 3 to 8) (size 9 to 14) (size 15 to 20)
#    0.000    0.250    6.250    2.625    3.500    3.500 
#    2.250    0.000    0.000    0.000    0.000    0.000 
#    0.000    0.000    0.000    0.000    0.000    0.000 
#
# Total GULP energy -89499.759106 kJ/mol
# GULP energy per Si atom -5593.734944 kJ/mol
# Density = 2.039006 g / cm^3
# Si number density = 20.436573 Si / 1000 Ang^3
#
#
#
# Elastic Constant Matrix: (Units=GPa)
#
#
# Indices 1 2 3 4 5 6 
#
# 1 99.5861 32.7799 12.3562 -14.6563 -0.2378 -23.0256
# 2 32.7799 114.7221 6.4013 -20.4007 -2.2266 -18.5631
# 3 12.3562 6.4013 46.7610 -18.5822 -14.2532 -9.7295
# 4 -14.6563 -20.4007 -18.5822 30.8142 -1.9809 3.7365
# 5 -0.2378 -2.2266 -14.2532 -1.9809 38.7068 -9.1351
# 6 -23.0256 -18.5631 -9.7295 3.7365 -9.1351 42.3871
#
#
#
# Elastic Compliance Matrix: (Units=1/GPa)
#
#
# Indices 1 2 3 4 5 6 
#
# 1 0.012679 -0.001799 0.000582 0.004556 0.001895 0.006240
# 2 -0.001799 0.011586 0.005083 0.009506 0.004275 0.005347
# 3 0.000582 0.005083 0.040383 0.027613 0.019800 0.013645
# 4 0.004556 0.009506 0.027613 0.057228 0.016376 0.011461
# 5 0.001895 0.004275 0.019800 0.016376 0.037548 0.014095
# 6 0.006240 0.005347 0.013645 0.011461 0.014095 0.034483
#
#
# Mechanical properties :
#
#
# Convention : Reuss Voigt Hill
#
# Bulk Modulus (GPa) = 13.81582 40.46044 27.13813
# Shear Modulus (GPa) = 23.77541 36.35040 30.06290
#
# Velocity S-wave (km/s) = 3.41453 4.22203 3.83957
# Velocity P-wave (km/s) = 4.72444 6.60367 5.74146
#
# Compressibility (1/GPa) = 0.07238082
#
# Stress axis : x y z
#
# Youngs Moduli (GPa) = 78.86888 86.31318 24.76301
#
# Poissons Ratio (x) = 0.15525 -0.01442
# Poissons Ratio (y) = 0.14186 -0.12586
# Poissons Ratio (z) = -0.04593 -0.43871
#
# Static dielectric constant tensor:
#      x y z
#    x 1.495210 -0.171590 -0.112770 
#    y -0.171590 1.598280 -0.078630 
#    z -0.112770 -0.078630 1.653160 
# 
# From -- ./inp_files/47582.got.cif
#   From: 2010.05.17/outbox.cif.g08.bks.cpg/sg2_24_cif.got.tgz:47582.got - 2010.06.03 11:33:40.
