data_PCOD9067399
_publ_section_title
;
Structure prediction by ZEFSAII (Michael W. Deem and Ramdas Pophale) SiO2 
 PCOD9067399
Probable space group: P -1
;
_chemical_formula_sum "Si O2"
_cell_formula_units_Z 14
_cell_length_a 4.901101
_cell_length_b 9.057296
_cell_length_c 15.745932
_cell_angle_alpha 93.838943
_cell_angle_beta 113.591136
_cell_angle_gamma 57.976601
_cell_volume 533.507884
_symmetry_space_group_name_H-M "P -1"
_symmetry_group_IT_number 2
_symmetry_cell_setting 'triclinic'
loop_
_space_group_symop_operation_xyz
x,y,z
-x,-y,-z
loop_
_atom_site_type_symbol
_atom_site_label
_atom_site_fract_x
_atom_site_fract_y
_atom_site_fract_z
Si Si1 0.006221 0.268097 0.713294
Si Si2 0.407416 0.834618 0.553469
Si Si3 0.005836 0.326560 0.515054
Si Si4 0.324289 0.354013 0.092287
Si Si5 0.923085 0.997661 0.088500
Si Si6 0.541605 0.378446 0.807746
Si Si7 0.392633 0.117519 0.238631
O O1 0.017093 0.292085 0.615137
O O2 0.243058 0.336893 0.783639
O O3 0.628702 0.371930 0.718120
O O4 0.211718 0.054586 0.741004
O O5 0.636768 0.811255 0.498360
O O6 0.602877 0.846407 0.660435
O O7 0.334114 0.679724 0.554764
O O8 0.000000 0.000000 0.500000
O O9 0.000000 0.500000 0.500000
O O10 0.527957 0.166064 0.061443
O O11 0.527178 0.450325 0.146082
O O12 0.278295 0.287861 0.174768
O O13 0.000000 0.500000 0.000000
O O14 0.147560 0.049346 0.176874
O O15 0.080682 0.794355 0.121343
O O16 0.000000 0.000000 0.000000
#
# Coordination Sequence:
#
# PCOD9067399 Si02
#       7
#     2   2   2   2   2   2   2
#     4  11  25  49  74 110 155 209 251 318 388 465
#     4  12  27  48  78 114 156 205 264 317 386 473
#     4  12  28  46  75 115 161 201 261 321 385 458
#     4  12  29  47  79 113 153 201 267 327 401 466
#     4  11  27  51  78 110 156 207 263 331 397 473
#     4  11  27  46  77 109 156 201 261 314 395 466
#     4  11  27  46  79 107 156 206 262 315 403 458
#
# _framework density 26.241408
#
# number of rings (size 3 to 8) (size 9 to 14) (size 15 to 20)
#    0.000    0.571    2.857    2.571   12.000    2.286 
#    0.000    0.000    0.000    0.000    0.000    0.000 
#    0.000    0.000    0.000    0.000    0.000    0.000 
#
# Total GULP energy -78425.356041 kJ/mol
# GULP energy per Si atom -5601.811146 kJ/mol
# Density = 2.618168 g / cm^3
# Si number density = 26.241408 Si / 1000 Ang^3
#
#
#
# Elastic Constant Matrix: (Units=GPa)
#
#
# Indices 1 2 3 4 5 6 
#
# 1 97.8811 27.1638 39.7273 7.8002 -5.9838 7.1967
# 2 27.1638 134.6624 28.4599 -8.6620 -14.8593 8.3948
# 3 39.7273 28.4599 149.2216 -9.4604 -8.2456 3.1198
# 4 7.8002 -8.6620 -9.4604 40.1358 11.1529 -2.2530
# 5 -5.9838 -14.8593 -8.2456 11.1529 45.2801 11.7419
# 6 7.1967 8.3948 3.1198 -2.2530 11.7419 53.2713
#
#
#
# Elastic Compliance Matrix: (Units=1/GPa)
#
#
# Indices 1 2 3 4 5 6 
#
# 1 0.012585 -0.001812 -0.003123 -0.004240 0.002026 -0.001858
# 2 -0.001812 0.008421 -0.000880 0.001192 0.002465 -0.001524
# 3 -0.003123 -0.000880 0.007847 0.002239 0.000133 0.000167
# 4 -0.004240 0.001192 0.002239 0.028838 -0.007686 0.003168
# 5 0.002026 0.002465 0.000133 -0.007686 0.026873 -0.006918
# 6 -0.001858 -0.001524 0.000167 0.003168 -0.006918 0.020912
#
#
# Mechanical properties :
#
#
# Convention : Reuss Voigt Hill
#
# Bulk Modulus (GPa) = 58.06281 63.60746 60.83514
# Shear Modulus (GPa) = 40.70099 46.83171 43.76635
#
# Velocity S-wave (km/s) = 3.94257 4.22909 4.08834
# Velocity P-wave (km/s) = 6.54978 6.93822 6.74680
#
# Compressibility (1/GPa) = 0.01722273
#
# Stress axis : x y z
#
# Youngs Moduli (GPa) = 79.45818 118.74826 127.44492
#
# Poissons Ratio (x) = 0.21518 0.39801
# Poissons Ratio (y) = 0.14398 0.11216
# Poissons Ratio (z) = 0.24815 0.10451
#
# Static dielectric constant tensor:
#      x y z
#    x 2.069110 -0.065750 -0.015330 
#    y -0.065750 2.173230 -0.039340 
#    z -0.015330 -0.039340 2.115280 
# 
# From -- ./inp_files/479920.got.cif
#   From: 2010.05.17/outbox.cif.g08.bks.cpg/sg2_240_cif.got.tgz:479920.got - 2010.06.03 11:33:40.
