data_PCOD9067120
_publ_section_title
;
Structure prediction by ZEFSAII (Michael W. Deem and Ramdas Pophale) SiO2 
 PCOD9067120
Probable space group: P -1
;
_chemical_formula_sum "Si O2"
_cell_formula_units_Z 12
_cell_length_a 11.040964
_cell_length_b 7.655242
_cell_length_c 18.171097
_cell_angle_alpha 36.089045
_cell_angle_beta 29.922515
_cell_angle_gamma 51.183476
_cell_volume 436.909804
_symmetry_space_group_name_H-M "P -1"
_symmetry_group_IT_number 2
_symmetry_cell_setting 'triclinic'
loop_
_space_group_symop_operation_xyz
x,y,z
-x,-y,-z
loop_
_atom_site_type_symbol
_atom_site_label
_atom_site_fract_x
_atom_site_fract_y
_atom_site_fract_z
Si Si1 0.503506 0.221927 0.037387
Si Si2 0.138810 0.183182 0.017712
Si Si3 0.364429 0.258566 0.513562
Si Si4 0.158928 0.357096 0.799873
Si Si5 0.401783 0.464602 0.267323
Si Si6 0.962278 0.101823 0.401815
O O1 0.691569 0.616781 0.077572
O O2 0.638971 0.337921 0.849002
O O3 0.500000 0.500000 0.000000
O O4 0.664650 0.999226 0.057234
O O5 0.207267 0.061051 0.242191
O O6 0.889097 0.937239 0.251655
O O7 0.096685 0.413276 0.898759
O O8 0.539191 0.492014 0.399938
O O9 0.297998 0.431918 0.416741
O O10 0.500000 0.000000 0.500000
O O11 0.000000 0.000000 0.000000
O O12 0.298973 0.121684 0.409639
O O13 0.940222 0.438813 0.276868
O O14 0.000000 0.000000 0.500000
#
# Coordination Sequence:
#
# PCOD9067120 Si02
#       6
#     2   2   2   2   2   2
#     4  12  26  49  78 115 164 214 263 336 412 478
#     4  11  28  50  81 119 163 209 278 339 403 484
#     4  11  25  50  82 118 159 217 271 333 410 485
#     4  11  27  51  80 120 160 207 272 340 405 481
#     4  11  25  47  82 114 163 208 278 327 406 484
#     4  12  26  49  80 115 161 215 268 329 417 484
#
# _framework density 27.465624999999999
#
# number of rings (size 3 to 8) (size 9 to 14) (size 15 to 20)
#    0.000    0.667    3.333    2.500    2.333    6.000 
#    3.000    0.000    0.000    0.000    0.000    0.000 
#    0.000    0.000    0.000    0.000    0.000    0.000 
#
# Total GULP energy -67007.656260 kJ/mol
# GULP energy per Si atom -5583.971355 kJ/mol
# Density = 2.740311 g / cm^3
# Si number density = 27.465625 Si / 1000 Ang^3
#
#
#
# Elastic Constant Matrix: (Units=GPa)
#
#
# Indices 1 2 3 4 5 6 
#
# 1 184.3118 18.4822 78.2849 -14.0185 19.2014 11.4147
# 2 18.4822 105.2110 61.8048 0.5453 -5.3641 -18.4685
# 3 78.2849 61.8048 270.9077 -12.2232 -12.2536 -8.2547
# 4 -14.0185 0.5453 -12.2232 56.7454 13.2422 5.0245
# 5 19.2014 -5.3641 -12.2536 13.2422 73.2772 0.6399
# 6 11.4147 -18.4685 -8.2547 5.0245 0.6399 23.8795
#
#
#
# Elastic Compliance Matrix: (Units=1/GPa)
#
#
# Indices 1 2 3 4 5 6 
#
# 1 0.007203 -0.001222 -0.001981 0.002486 -0.002709 -0.005524
# 2 -0.001222 0.012952 -0.002333 -0.002106 0.001170 0.010207
# 3 -0.001981 -0.002333 0.004881 0.000259 0.001111 0.000746
# 4 0.002486 -0.002106 0.000259 0.019919 -0.004302 -0.006803
# 5 -0.002709 0.001170 0.001111 -0.004302 0.015379 0.003077
# 6 -0.005524 0.010207 0.000746 -0.006803 0.003077 0.054018
#
#
# Mechanical properties :
#
#
# Convention : Reuss Voigt Hill
#
# Bulk Modulus (GPa) = 71.61633 97.50823 84.56228
# Shear Modulus (GPa) = 38.43830 57.57098 48.00464
#
# Velocity S-wave (km/s) = 3.74506 4.58330 4.18521
# Velocity P-wave (km/s) = 6.69568 7.97420 7.36274
#
# Compressibility (1/GPa) = 0.01396330
#
# Stress axis : x y z
#
# Youngs Moduli (GPa) = 138.82883 77.20856 204.88660
#
# Poissons Ratio (x) = 0.09435 0.40596
# Poissons Ratio (y) = 0.16965 0.47796
# Poissons Ratio (z) = 0.27508 0.18011
#
# Static dielectric constant tensor:
#      x y z
#    x 2.210880 0.028000 -0.049150 
#    y 0.028000 2.187320 -0.042520 
#    z -0.049150 -0.042520 2.183150 
# 
# From -- ./inp_files/619132.got.cif
#   From: 2010.05.17/outbox.cif.g08.bks.cpg/sg2_310_cif.got.tgz:619132.got - 2010.06.03 11:33:40.
