data_PCOD9067052
_publ_section_title
;
Structure prediction by ZEFSAII (Michael W. Deem and Ramdas Pophale) SiO2 
 PCOD9067052
Probable space group: P -1
;
_chemical_formula_sum "Si O2"
_cell_formula_units_Z 14
_cell_length_a 15.917605
_cell_length_b 8.005156
_cell_length_c 12.199173
_cell_angle_alpha 63.595411
_cell_angle_beta 28.030416
_cell_angle_gamma 54.142201
_cell_volume 581.269404
_symmetry_space_group_name_H-M "P -1"
_symmetry_group_IT_number 2
_symmetry_cell_setting 'triclinic'
loop_
_space_group_symop_operation_xyz
x,y,z
-x,-y,-z
loop_
_atom_site_type_symbol
_atom_site_label
_atom_site_fract_x
_atom_site_fract_y
_atom_site_fract_z
Si Si1 0.647736 0.804428 0.655884
Si Si2 0.050459 0.014152 0.093254
Si Si3 0.770274 0.120525 0.846153
Si Si4 0.196107 0.524847 0.807282
Si Si5 0.057770 0.572683 0.192135
Si Si6 0.583686 0.114438 0.451212
Si Si7 0.860899 0.797322 0.640428
O O1 0.733611 0.830138 0.666950
O O2 0.824894 0.624222 0.433154
O O3 0.584706 0.016749 0.597106
O O4 0.464614 0.749126 0.896007
O O5 0.141642 0.024799 0.104021
O O6 0.033204 0.800843 0.183278
O O7 0.198732 0.965481 0.832716
O O8 0.858078 0.237191 0.231682
O O9 0.912549 0.231722 0.632451
O O10 0.779740 0.986469 0.766493
O O11 0.417341 0.356557 0.564959
O O12 0.184953 0.503448 0.956664
O O13 0.000000 0.500000 0.000000
O O14 0.139652 0.401412 0.241700
O O15 0.500000 0.000000 0.500000
#
# Coordination Sequence:
#
# PCOD9067052 Si02
#       7
#     2   2   2   2   2   2   2
#     4  12  23  45  78 107 148 194 251 312 366 456
#     4  12  25  48  72 113 152 197 245 317 376 450
#     4  11  25  47  77 102 150 196 260 303 378 445
#     4  12  24  45  75 108 151 199 247 314 380 445
#     4  12  26  46  71 108 156 193 251 310 378 442
#     4  12  24  45  77 114 146 192 255 302 382 454
#     4  11  26  49  71 108 147 204 248 316 369 441
#
# _framework density 24.085218999999999
#
# number of rings (size 3 to 8) (size 9 to 14) (size 15 to 20)
#    0.000    0.286    5.714    3.000    0.000    1.143 
#    2.571    0.000    0.000    0.000    0.000    0.000 
#    0.000    0.000    0.000    0.000    0.000    0.000 
#
# Total GULP energy -78285.971006 kJ/mol
# GULP energy per Si atom -5591.855072 kJ/mol
# Density = 2.403040 g / cm^3
# Si number density = 24.085219 Si / 1000 Ang^3
#
#
#
# Elastic Constant Matrix: (Units=GPa)
#
#
# Indices 1 2 3 4 5 6 
#
# 1 113.2547 47.4517 14.6770 -12.3232 10.1021 -24.4171
# 2 47.4517 123.2928 21.7721 -7.8954 9.5495 -14.9194
# 3 14.6770 21.7721 104.7453 6.1241 7.7893 -8.8401
# 4 -12.3232 -7.8954 6.1241 46.5374 1.0592 7.7688
# 5 10.1021 9.5495 7.7893 1.0592 29.9355 0.4556
# 6 -24.4171 -14.9194 -8.8401 7.7688 0.4556 33.3961
#
#
#
# Elastic Compliance Matrix: (Units=1/GPa)
#
#
# Indices 1 2 3 4 5 6 
#
# 1 0.012295 -0.003490 -0.000264 0.001596 -0.003131 0.007032
# 2 -0.003490 0.010054 -0.001399 0.000769 -0.001714 0.001414
# 3 -0.000264 -0.001399 0.010356 -0.002026 -0.002124 0.002423
# 4 0.001596 0.000769 -0.002026 0.023061 -0.001006 -0.004377
# 5 -0.003131 -0.001714 -0.002124 -0.001006 0.035656 -0.003869
# 6 0.007032 0.001414 0.002423 -0.004377 -0.003869 0.037429
#
#
# Mechanical properties :
#
#
# Convention : Reuss Voigt Hill
#
# Bulk Modulus (GPa) = 44.64567 56.56605 50.60586
# Shear Modulus (GPa) = 34.10100 39.13325 36.61713
#
# Velocity S-wave (km/s) = 3.76686 4.03523 3.90335
# Velocity P-wave (km/s) = 6.12338 6.72663 6.43208
#
# Compressibility (1/GPa) = 0.02239859
#
# Stress axis : x y z
#
# Youngs Moduli (GPa) = 81.33436 99.46248 96.56461
#
# Poissons Ratio (x) = 0.34709 0.02554
# Poissons Ratio (y) = 0.28383 0.13509
# Poissons Ratio (z) = 0.02151 0.13914
#
# Static dielectric constant tensor:
#      x y z
#    x 1.981750 -0.015680 -0.135650 
#    y -0.015680 2.067100 0.251500 
#    z -0.135650 0.251500 2.505510 
# 
# From -- ./inp_files/446895.got.cif
#   From: 2010.05.17/outbox.cif.g08.bks.cpg/sg2_224_cif.got.tgz:446895.got - 2010.06.03 11:33:40.
