data_PCOD9067567
_publ_section_title
;
Structure prediction by ZEFSAII (Michael W. Deem and Ramdas Pophale) SiO2 
 PCOD9067567
Probable space group: P -1
;
_chemical_formula_sum "Si O2"
_cell_formula_units_Z 14
_cell_length_a 10.982766
_cell_length_b 7.720219
_cell_length_c 17.891041
_cell_angle_alpha 64.141602
_cell_angle_beta 146.532885
_cell_angle_gamma 135.378421
_cell_volume 536.770316
_symmetry_space_group_name_H-M "P -1"
_symmetry_group_IT_number 2
_symmetry_cell_setting 'triclinic'
loop_
_space_group_symop_operation_xyz
x,y,z
-x,-y,-z
loop_
_atom_site_type_symbol
_atom_site_label
_atom_site_fract_x
_atom_site_fract_y
_atom_site_fract_z
Si Si1 0.334919 0.295261 0.631214
Si Si2 0.778737 0.661928 0.672774
Si Si3 0.154886 0.339363 0.948318
Si Si4 0.168974 0.876874 0.329717
Si Si5 0.042868 0.573734 0.593647
Si Si6 0.563101 0.864090 0.136911
Si Si7 0.691630 0.009314 0.907111
O O1 0.630553 0.435230 0.703637
O O2 0.246886 0.462448 0.535055
O O3 0.396392 0.274516 0.751850
O O4 0.000000 0.000000 0.500000
O O5 0.500000 0.500000 0.500000
O O6 0.107790 0.830636 0.768328
O O7 0.847623 0.910563 0.698860
O O8 0.919249 0.224844 0.780984
O O9 0.414841 0.661201 0.029577
O O10 0.972511 0.226331 0.954723
O O11 0.286100 0.205141 0.027394
O O12 0.955427 0.619264 0.322130
O O13 0.500000 0.000000 0.500000
O O14 0.000000 0.500000 0.500000
O O15 0.372976 0.867060 0.727360
O O16 0.329779 0.877749 0.050424
#
# Coordination Sequence:
#
# PCOD9067567 Si02
#       7
#     2   2   2   2   2   2   2
#     4  12  24  47  80 118 160 206 273 329 395 480
#     4  12  26  47  79 120 162 207 271 337 397 479
#     4  11  28  52  80 113 165 210 272 337 405 494
#     4  12  27  50  80 118 154 205 271 342 407 478
#     4  12  24  45  80 115 157 210 267 330 406 472
#     4  12  27  53  80 119 166 217 269 336 407 479
#     4  11  25  50  79 113 160 221 265 325 414 482
#
# _framework density 26.08192
#
# number of rings (size 3 to 8) (size 9 to 14) (size 15 to 20)
#    0.000    0.286    4.286    3.857    4.000    3.429 
#    2.571    1.429    0.000    0.000    0.000    0.000 
#    0.000    0.000    0.000    0.000    0.000    0.000 
#
# Total GULP energy -78461.887606 kJ/mol
# GULP energy per Si atom -5604.420543 kJ/mol
# Density = 2.602256 g / cm^3
# Si number density = 26.081920 Si / 1000 Ang^3
#
#
#
# Elastic Constant Matrix: (Units=GPa)
#
#
# Indices 1 2 3 4 5 6 
#
# 1 124.9579 55.8826 45.4336 9.2961 -0.5937 -5.3221
# 2 55.8826 144.1399 48.6070 6.0120 -3.7024 11.3721
# 3 45.4336 48.6070 146.4405 15.5302 -10.2927 -1.9864
# 4 9.2961 6.0120 15.5302 45.5165 -5.4814 -0.4131
# 5 -0.5937 -3.7024 -10.2927 -5.4814 47.4710 0.4864
# 6 -5.3221 11.3721 -1.9864 -0.4131 0.4864 49.1430
#
#
#
# Elastic Compliance Matrix: (Units=1/GPa)
#
#
# Indices 1 2 3 4 5 6 
#
# 1 0.010447 -0.003499 -0.001992 -0.001061 -0.000716 0.001859
# 2 -0.003499 0.009170 -0.001993 0.000195 0.000288 -0.002583
# 3 -0.001992 -0.001993 0.008430 -0.002032 0.001407 0.000555
# 4 -0.001061 0.000195 -0.002032 0.023122 0.002232 -0.000070
# 5 -0.000716 0.000288 0.001407 0.002232 0.021645 -0.000283
# 6 0.001859 -0.002583 0.000555 -0.000070 -0.000283 0.021172
#
#
# Mechanical properties :
#
#
# Convention : Reuss Voigt Hill
#
# Bulk Modulus (GPa) = 76.46998 79.48718 77.97858
# Shear Modulus (GPa) = 44.12495 46.13374 45.12934
#
# Velocity S-wave (km/s) = 4.11759 4.21027 4.16419
# Velocity P-wave (km/s) = 7.21033 7.36053 7.28582
#
# Compressibility (1/GPa) = 0.01307703
#
# Stress axis : x y z
#
# Youngs Moduli (GPa) = 95.72515 109.05669 118.61848
#
# Poissons Ratio (x) = 0.38160 0.23632
# Poissons Ratio (y) = 0.33495 0.23646
# Poissons Ratio (z) = 0.19071 0.21740
#
# Static dielectric constant tensor:
#      x y z
#    x 2.170440 -0.050560 0.137900 
#    y -0.050560 2.006140 -0.151480 
#    z 0.137900 -0.151480 1.979470 
# 
# From -- ./inp_files/594063.got.cif
#   From: 2010.05.17/outbox.cif.g08.bks.cpg/sg2_298_cif.got.tgz:594063.got - 2010.06.03 11:33:40.
