data_PCOD9067219
_publ_section_title
;
Structure prediction by ZEFSAII (Michael W. Deem and Ramdas Pophale) SiO2 
 PCOD9067219
Probable space group: P -1
;
_chemical_formula_sum "Si O2"
_cell_formula_units_Z 12
_cell_length_a 11.357166
_cell_length_b 4.930746
_cell_length_c 9.492048
_cell_angle_alpha 101.637176
_cell_angle_beta 67.305032
_cell_angle_gamma 99.757913
_cell_volume 477.833662
_symmetry_space_group_name_H-M "P -1"
_symmetry_group_IT_number 2
_symmetry_cell_setting 'triclinic'
loop_
_space_group_symop_operation_xyz
x,y,z
-x,-y,-z
loop_
_atom_site_type_symbol
_atom_site_label
_atom_site_fract_x
_atom_site_fract_y
_atom_site_fract_z
Si Si1 0.020802 0.721734 0.327987
Si Si2 0.781322 0.552899 0.607739
Si Si3 0.960729 0.124871 0.176644
Si Si4 0.402605 0.233880 0.055157
Si Si5 0.308250 0.186487 0.788381
Si Si6 0.380925 0.668646 0.603717
O O1 0.145430 0.649241 0.346799
O O2 0.898801 0.727599 0.488688
O O3 0.035999 0.990976 0.252955
O O4 0.983674 0.454364 0.215779
O O5 0.682664 0.711280 0.763060
O O6 0.703409 0.380963 0.503094
O O7 0.814200 0.994854 0.239526
O O8 0.000000 0.000000 0.000000
O O9 0.500000 0.500000 0.000000
O O10 0.310878 0.189670 0.955915
O O11 0.500000 0.000000 0.000000
O O12 0.317862 0.491105 0.748069
O O13 0.415263 0.986932 0.669099
O O14 0.500000 0.500000 0.500000
#
# Coordination Sequence:
#
# PCOD9067219 Si02
#       6
#     2   2   2   2   2   2
#     4  11  26  44  73 108 143 191 238 296 365 429
#     4  11  25  48  74 107 148 188 242 300 360 432
#     4  12  24  45  70 107 144 186 234 293 362 431
#     4  12  28  47  71 104 144 193 243 296 360 425
#     4  12  24  46  67 102 139 181 238 286 352 425
#     4  12  25  45  72 101 138 186 236 294 349 419
#
# _framework density 25.113344000000001
#
# number of rings (size 3 to 8) (size 9 to 14) (size 15 to 20)
#    0.000    0.333    3.333    5.000    0.000   10.667 
#    0.000    0.000    0.000    0.000    0.000    0.000 
#    0.000    0.000    0.000    0.000    0.000    0.000 
#
# Total GULP energy -67257.518605 kJ/mol
# GULP energy per Si atom -5604.793217 kJ/mol
# Density = 2.505618 g / cm^3
# Si number density = 25.113344 Si / 1000 Ang^3
#
#
#
# Elastic Constant Matrix: (Units=GPa)
#
#
# Indices 1 2 3 4 5 6 
#
# 1 98.9151 3.2379 34.1261 1.9398 10.8333 -11.5452
# 2 3.2379 115.6245 34.7129 19.0159 -4.1165 -6.6929
# 3 34.1261 34.7129 196.4062 27.1467 2.9456 -17.2564
# 4 1.9398 19.0159 27.1467 24.9910 -3.7125 -0.8283
# 5 10.8333 -4.1165 2.9456 -3.7125 54.6513 4.8329
# 6 -11.5452 -6.6929 -17.2564 -0.8283 4.8329 28.5931
#
#
#
# Elastic Compliance Matrix: (Units=1/GPa)
#
#
# Indices 1 2 3 4 5 6 
#
# 1 0.011428 0.000251 -0.001710 0.000547 -0.002477 0.004075
# 2 0.000251 0.010092 -0.000726 -0.006831 0.000126 0.001806
# 3 -0.001710 -0.000726 0.006722 -0.006632 -0.000806 0.003140
# 4 0.000547 -0.006831 -0.006632 0.052777 0.003716 -0.004480
# 5 -0.002477 0.000126 -0.000806 0.003716 0.019505 -0.004647
# 6 0.004075 0.001806 0.003140 -0.004480 -0.004647 0.039593
#
#
# Mechanical properties :
#
#
# Convention : Reuss Voigt Hill
#
# Bulk Modulus (GPa) = 41.89223 61.67774 51.78498
# Shear Modulus (GPa) = 32.79882 44.23833 38.51857
#
# Velocity S-wave (km/s) = 3.61783 4.20163 3.92061
# Velocity P-wave (km/s) = 5.84543 6.93912 6.41562
#
# Compressibility (1/GPa) = 0.02387078
#
# Stress axis : x y z
#
# Youngs Moduli (GPa) = 87.50572 99.08612 148.77309
#
# Poissons Ratio (x) = -0.02490 0.25446
# Poissons Ratio (y) = -0.02199 0.10806
# Poissons Ratio (z) = 0.14967 0.07197
#
# Static dielectric constant tensor:
#      x y z
#    x 2.139670 -0.018530 -0.090800 
#    y -0.018530 1.963280 0.012520 
#    z -0.090800 0.012520 2.008220 
# 
# From -- ./inp_files/229215.got.cif
#   From: 2010.05.17/outbox.cif.g08.bks.cpg/sg2_115_cif.got.tgz:229215.got - 2010.06.03 11:33:40.
