data_PCOD9067954
_publ_section_title
;
Structure prediction by ZEFSAII (Michael W. Deem and Ramdas Pophale) SiO2 
 PCOD9067954
Probable space group: P -1
;
_chemical_formula_sum "Si O2"
_cell_formula_units_Z 11
_cell_length_a 5.099481
_cell_length_b 10.419254
_cell_length_c 9.711070
_cell_angle_alpha 64.527418
_cell_angle_beta 83.560293
_cell_angle_gamma 81.911387
_cell_volume 460.414198
_symmetry_space_group_name_H-M "P -1"
_symmetry_group_IT_number 2
_symmetry_cell_setting 'triclinic'
loop_
_space_group_symop_operation_xyz
x,y,z
-x,-y,-z
loop_
_atom_site_type_symbol
_atom_site_label
_atom_site_fract_x
_atom_site_fract_y
_atom_site_fract_z
Si Si1 0.262375 0.399241 0.065424
Si Si2 0.306897 0.268632 0.828034
Si Si3 0.858139 0.103403 0.847942
Si Si4 0.500000 0.500000 0.500000
Si Si5 0.449254 0.250817 0.389843
Si Si6 0.827874 0.012184 0.370655
O O1 0.253023 0.329465 0.250380
O O2 0.500000 0.500000 0.000000
O O3 0.296649 0.293406 0.981365
O O4 0.000000 0.500000 0.000000
O O5 0.017710 0.242415 0.797562
O O6 0.398420 0.398748 0.674853
O O7 0.544990 0.142052 0.851486
O O8 0.961621 0.023678 0.742882
O O9 0.000000 0.000000 0.000000
O O10 0.518161 0.363045 0.449094
O O11 0.669950 0.168469 0.313530
O O12 0.352439 0.118521 0.543052
O O13 0.000000 0.000000 0.500000
#
# Coordination Sequence:
#
# PCOD9067954 Si02
#       6
#     2   2   2   1   2   2
#     4  12  27  47  73 109 152 198 243 305 379 446
#     4  12  27  47  75 113 145 198 251 308 376 444
#     4  12  27  48  76 106 151 194 250 311 372 446
#     4  12  24  50  76 108 158 192 256 308 380 448
#     4  11  26  48  75 109 152 196 256 312 375 455
#     4  11  26  46  75 109 147 201 250 312 379 443
#
# _framework density 23.891528000000001
#
# number of rings (size 3 to 8) (size 9 to 14) (size 15 to 20)
#    0.000    0.364    3.636    3.818    7.636    2.182 
#    0.000    0.000    0.000    0.000    0.000    0.000 
#    0.000    0.000    0.000    0.000    0.000    0.000 
#
# Total GULP energy -61266.113881 kJ/mol
# GULP energy per Si atom -5569.646716 kJ/mol
# Density = 2.383715 g / cm^3
# Si number density = 23.891528 Si / 1000 Ang^3
#
#
#
# Elastic Constant Matrix: (Units=GPa)
#
#
# Indices 1 2 3 4 5 6 
#
# 1 95.0785 26.3682 -4.5966 4.0750 5.8357 -12.1658
# 2 26.3682 157.1005 42.6665 26.2562 -2.4274 -0.7291
# 3 -4.5966 42.6665 104.9348 22.8988 8.2809 -4.6247
# 4 4.0750 26.2562 22.8988 67.6450 0.7436 -7.5303
# 5 5.8357 -2.4274 8.2809 0.7436 28.1588 1.9829
# 6 -12.1658 -0.7291 -4.6247 -7.5303 1.9829 35.0958
#
#
#
# Elastic Compliance Matrix: (Units=1/GPa)
#
#
# Indices 1 2 3 4 5 6 
#
# 1 0.012179 -0.002672 0.002084 0.000160 -0.003701 0.004684
# 2 -0.002672 0.008064 -0.003201 -0.002108 0.002370 -0.001767
# 3 0.002084 -0.003201 0.011924 -0.002661 -0.004278 0.001898
# 4 0.000160 -0.002108 -0.002661 0.016860 -0.000109 0.003285
# 5 -0.003701 0.002370 -0.004278 -0.000109 0.038025 -0.003969
# 6 0.004684 -0.001767 0.001898 0.003285 -0.003969 0.031260
#
#
# Mechanical properties :
#
#
# Convention : Reuss Voigt Hill
#
# Bulk Modulus (GPa) = 40.66913 53.99887 47.33400
# Shear Modulus (GPa) = 37.28936 45.69162 41.49049
#
# Velocity S-wave (km/s) = 3.95495 4.37791 4.17180
# Velocity P-wave (km/s) = 6.15751 6.94302 6.56203
#
# Compressibility (1/GPa) = 0.02458867
#
# Stress axis : x y z
#
# Youngs Moduli (GPa) = 82.10731 124.00887 83.86149
#
# Poissons Ratio (x) = 0.33139 -0.17473
# Poissons Ratio (y) = 0.21942 0.26842
# Poissons Ratio (z) = -0.17108 0.39692
#
# Static dielectric constant tensor:
#      x y z
#    x 2.886100 -0.343260 0.261900 
#    y -0.343260 2.761500 -0.511180 
#    z 0.261900 -0.511180 2.176560 
# 
# From -- ./inp_files/22752.got.cif
#   From: 2010.05.17/outbox.cif.g08.bks.cpg/sg2_12_cif.got.tgz:22752.got - 2010.06.03 11:33:40.
