data_PCOD9067489
_publ_section_title
;
Structure prediction by ZEFSAII (Michael W. Deem and Ramdas Pophale) SiO2 
 PCOD9067489
Probable space group: P -1
;
_chemical_formula_sum "Si O2"
_cell_formula_units_Z 15
_cell_length_a 9.826168
_cell_length_b 20.950197
_cell_length_c 9.536157
_cell_angle_alpha 144.371264
_cell_angle_beta 136.194454
_cell_angle_gamma 36.411381
_cell_volume 665.717009
_symmetry_space_group_name_H-M "P -1"
_symmetry_group_IT_number 2
_symmetry_cell_setting 'triclinic'
loop_
_space_group_symop_operation_xyz
x,y,z
-x,-y,-z
loop_
_atom_site_type_symbol
_atom_site_label
_atom_site_fract_x
_atom_site_fract_y
_atom_site_fract_z
Si Si1 0.331500 0.967277 0.396721
Si Si2 0.474387 0.693489 0.890493
Si Si3 0.606540 0.319966 0.709020
Si Si4 0.584934 0.959191 0.831416
Si Si5 0.788998 0.135799 0.261663
Si Si6 0.000000 0.500000 0.000000
Si Si7 0.849058 0.656077 0.458341
Si Si8 0.695089 0.422042 0.214257
O O1 0.370359 0.985856 0.621159
O O2 0.500000 0.000000 0.500000
O O3 0.414253 0.820067 0.161462
O O4 0.066130 0.058059 0.312232
O O5 0.341382 0.750353 0.746531
O O6 0.379092 0.620132 0.777412
O O7 0.749988 0.596391 0.903348
O O8 0.730385 0.195888 0.480796
O O9 0.370115 0.341992 0.637004
O O10 0.524918 0.444203 0.770061
O O11 0.754232 0.321144 0.950900
O O12 0.777053 0.805848 0.680594
O O13 0.500000 0.000000 0.000000
O O14 0.691176 0.042457 0.008575
O O15 0.895617 0.598771 0.235263
O O16 0.082132 0.572742 0.574536
#
# Coordination Sequence:
#
# PCOD9067489 Si02
#       8
#     2   2   2   2   2   1   2   2
#     4  12  27  49  75 110 154 200 253 314 381 453
#     4  12  26  50  73 113 150 199 256 312 376 459
#     4  11  25  50  70 114 148 192 259 311 378 451
#     4  12  26  48  78 111 149 200 248 316 389 441
#     4  12  28  47  79 113 153 200 255 316 383 458
#     4  12  26  46  80 108 150 198 256 310 370 452
#     4  12  25  48  76 108 153 193 254 313 376 456
#     4  11  26  47  75 102 153 199 247 313 377 449
#
# _framework density 22.532095000000002
#
# number of rings (size 3 to 8) (size 9 to 14) (size 15 to 20)
#    0.000    0.267    5.333    2.400    3.733    3.733 
#    0.000    0.000    0.000    0.000    0.000    0.000 
#    0.000    0.000    0.000    0.000    0.000    0.000 
#
# Total GULP energy -83781.413189 kJ/mol
# GULP energy per Si atom -5585.427546 kJ/mol
# Density = 2.248081 g / cm^3
# Si number density = 22.532095 Si / 1000 Ang^3
#
#
#
# Elastic Constant Matrix: (Units=GPa)
#
#
# Indices 1 2 3 4 5 6 
#
# 1 83.8334 41.9502 41.7700 3.1486 -14.9563 -0.2750
# 2 41.9502 127.4652 14.0563 -16.5197 -12.5853 -21.5713
# 3 41.7700 14.0563 105.9535 -4.9212 -30.4942 -13.9055
# 4 3.1486 -16.5197 -4.9212 48.9355 -1.8536 -0.2436
# 5 -14.9563 -12.5853 -30.4942 -1.8536 40.7889 1.6893
# 6 -0.2750 -21.5713 -13.9055 -0.2436 1.6893 37.5811
#
#
#
# Elastic Compliance Matrix: (Units=1/GPa)
#
#
# Indices 1 2 3 4 5 6 
#
# 1 0.019795 -0.007558 -0.008321 -0.004744 -0.001210 -0.007249
# 2 -0.007558 0.012370 0.003746 0.005222 0.003740 0.008297
# 3 -0.008321 0.003746 0.016342 0.003867 0.010179 0.007704
# 4 -0.004744 0.005222 0.003867 0.023051 0.003629 0.004380
# 5 -0.001210 0.003740 0.010179 0.003629 0.032817 0.004452
# 6 -0.007249 0.008297 0.007704 0.004380 0.004452 0.033997
#
#
# Mechanical properties :
#
#
# Convention : Reuss Voigt Hill
#
# Bulk Modulus (GPa) = 41.25266 56.97836 49.11551
# Shear Modulus (GPa) = 29.28817 40.09280 34.69049
#
# Velocity S-wave (km/s) = 3.60924 4.22283 3.92803
# Velocity P-wave (km/s) = 5.97637 7.00849 6.51291
#
# Compressibility (1/GPa) = 0.02424086
#
# Stress axis : x y z
#
# Youngs Moduli (GPa) = 50.51794 80.84271 61.19339
#
# Poissons Ratio (x) = 0.61102 0.50919
# Poissons Ratio (y) = 0.38182 -0.22925
# Poissons Ratio (z) = 0.42036 -0.30287
#
# Static dielectric constant tensor:
#      x y z
#    x 1.825030 0.031480 0.009000 
#    y 0.031480 1.842760 -0.003350 
#    z 0.009000 -0.003350 1.850910 
# 
# From -- ./inp_files/222678.got.cif
#   From: 2010.05.17/outbox.cif.g08.bks.cpg/sg2_112_cif.got.tgz:222678.got - 2010.06.03 11:33:40.
