data_PCOD9067247
_publ_section_title
;
Structure prediction by ZEFSAII (Michael W. Deem and Ramdas Pophale) SiO2 
 PCOD9067247
Probable space group: P -1
;
_chemical_formula_sum "Si O2"
_cell_formula_units_Z 12
_cell_length_a 15.822610
_cell_length_b 10.396047
_cell_length_c 15.813253
_cell_angle_alpha 153.213399
_cell_angle_beta 151.930523
_cell_angle_gamma 32.250580
_cell_volume 530.542621
_symmetry_space_group_name_H-M "P -1"
_symmetry_group_IT_number 2
_symmetry_cell_setting 'triclinic'
loop_
_space_group_symop_operation_xyz
x,y,z
-x,-y,-z
loop_
_atom_site_type_symbol
_atom_site_label
_atom_site_fract_x
_atom_site_fract_y
_atom_site_fract_z
Si Si1 0.983296 0.535466 0.904896
Si Si2 0.599788 0.200437 0.760526
Si Si3 0.359204 0.235663 0.956549
Si Si4 0.927786 0.167142 0.148731
Si Si5 0.316741 0.773316 0.510699
Si Si6 0.265657 0.201111 0.566143
O O1 0.171594 0.384295 0.930963
O O2 0.830326 0.360730 0.649011
O O3 0.000000 0.500000 0.000000
O O4 0.913165 0.878372 0.017978
O O5 0.477193 0.205248 0.739355
O O6 0.500000 0.000000 0.500000
O O7 0.557098 0.505461 0.850428
O O8 0.813954 0.150503 0.951984
O O9 0.333262 0.049072 0.742724
O O10 0.500000 0.000000 0.000000
O O11 0.826975 0.485076 0.287318
O O12 0.144289 0.170233 0.357072
O O13 0.500000 0.500000 0.500000
O O14 0.258266 0.924532 0.456526
#
# Coordination Sequence:
#
# PCOD9067247 Si02
#       6
#     2   2   2   2   2   2
#     4  12  26  47  77 106 149 199 249 309 381 449
#     4  12  28  47  75 110 152 195 255 310 387 448
#     4  12  30  48  71 111 153 197 254 314 376 458
#     4  11  25  48  75 108 148 197 257 308 381 452
#     4  12  26  49  78 110 151 198 256 308 383 455
#     4  11  25  48  77 109 144 204 248 317 380 447
#
# _framework density 22.618352999999999
#
# number of rings (size 3 to 8) (size 9 to 14) (size 15 to 20)
#    0.000    0.333    3.333    4.000    9.333    2.667 
#    0.000    0.000    0.000    0.000    0.000    0.000 
#    0.000    0.000    0.000    0.000    0.000    0.000 
#
# Total GULP energy -67013.660638 kJ/mol
# GULP energy per Si atom -5584.471720 kJ/mol
# Density = 2.256687 g / cm^3
# Si number density = 22.618353 Si / 1000 Ang^3
#
#
#
# Elastic Constant Matrix: (Units=GPa)
#
#
# Indices 1 2 3 4 5 6 
#
# 1 68.8307 33.1718 32.6684 4.8664 -0.1480 -8.8160
# 2 33.1718 154.4926 58.5284 18.3207 1.3965 9.4067
# 3 32.6684 58.5284 172.6709 16.6337 -3.1660 -4.5065
# 4 4.8664 18.3207 16.6337 54.1299 12.7311 3.1919
# 5 -0.1480 1.3965 -3.1660 12.7311 58.7242 -2.7031
# 6 -8.8160 9.4067 -4.5065 3.1919 -2.7031 33.3862
#
#
#
# Elastic Compliance Matrix: (Units=1/GPa)
#
#
# Indices 1 2 3 4 5 6 
#
# 1 0.017837 -0.003352 -0.002069 -0.000226 0.000312 0.005422
# 2 -0.003352 0.008411 -0.002148 -0.001656 -0.000121 -0.003396
# 3 -0.002069 -0.002148 0.007106 -0.001536 0.000819 0.001231
# 4 -0.000226 -0.001656 -0.001536 0.020746 -0.004641 -0.002159
# 5 0.000312 -0.000121 0.000819 -0.004641 0.018181 0.002143
# 6 0.005422 -0.003396 0.001231 -0.002159 0.002143 0.032887
#
#
# Mechanical properties :
#
#
# Convention : Reuss Voigt Hill
#
# Bulk Modulus (GPa) = 54.90021 71.63683 63.26852
# Shear Modulus (GPa) = 39.56360 47.35644 43.46002
#
# Velocity S-wave (km/s) = 4.18686 4.58068 4.38819
# Velocity P-wave (km/s) = 6.90639 7.72772 7.32857
#
# Compressibility (1/GPa) = 0.01821487
#
# Stress axis : x y z
#
# Youngs Moduli (GPa) = 56.06264 118.89781 140.72520
#
# Poissons Ratio (x) = 0.39855 0.29123
# Poissons Ratio (y) = 0.18792 0.30227
# Poissons Ratio (z) = 0.11602 0.25539
#
# Static dielectric constant tensor:
#      x y z
#    x 1.653090 -0.120280 0.223860 
#    y -0.120280 1.762750 0.101170 
#    z 0.223860 0.101170 1.478990 
# 
# From -- ./inp_files/181988.got.cif
#   From: 2010.05.17/outbox.cif.g08.bks.cpg/sg2_91_cif.got.tgz:181988.got - 2010.06.03 11:33:40.
