data_PCOD9067002
_publ_section_title
;
Structure prediction by ZEFSAII (Michael W. Deem and Ramdas Pophale) SiO2 
 PCOD9067002
Probable space group: P -1
;
_chemical_formula_sum "Si O2"
_cell_formula_units_Z 11
_cell_length_a 5.521533
_cell_length_b 8.908515
_cell_length_c 14.658266
_cell_angle_alpha 139.353875
_cell_angle_beta 96.918667
_cell_angle_gamma 93.383090
_cell_volume 453.453918
_symmetry_space_group_name_H-M "P -1"
_symmetry_group_IT_number 2
_symmetry_cell_setting 'triclinic'
loop_
_space_group_symop_operation_xyz
x,y,z
-x,-y,-z
loop_
_atom_site_type_symbol
_atom_site_label
_atom_site_fract_x
_atom_site_fract_y
_atom_site_fract_z
Si Si1 0.588692 0.373822 0.725987
Si Si2 0.836607 0.011936 0.231536
Si Si3 0.294564 0.768214 0.852076
Si Si4 0.036975 0.660398 0.971687
Si Si5 0.809203 0.094957 0.471244
Si Si6 0.500000 0.500000 0.000000
O O1 0.413814 0.541803 0.762843
O O2 0.438196 0.118423 0.634806
O O3 0.748809 0.497132 0.878152
O O4 0.752036 0.319672 0.623715
O O5 0.898141 0.125528 0.385614
O O6 0.592971 0.793591 0.127278
O O7 0.789525 0.190373 0.233979
O O8 0.041814 0.881882 0.138618
O O9 0.082558 0.743995 0.908472
O O10 0.500000 0.000000 0.000000
O O11 0.230690 0.504812 0.934441
O O12 0.000000 0.000000 0.500000
#
# Coordination Sequence:
#
# PCOD9067002 Si02
#       6
#     2   2   2   2   2   1
#     4  11  25  47  74  98 147 187 229 295 349 409
#     4  12  25  41  73 103 138 186 234 288 354 413
#     4  12  24  45  69 107 144 180 232 294 352 417
#     4  12  24  44  70 105 141 181 238 294 346 415
#     4  11  26  50  70 102 144 188 239 288 344 420
#     4  12  24  40  66 106 136 180 236 284 348 406
#
# _framework density 24.258254000000001
#
# number of rings (size 3 to 8) (size 9 to 14) (size 15 to 20)
#    0.000    0.364    3.636    5.455    0.000    5.091 
#    0.000    3.636    0.000    0.000    0.000    0.000 
#    0.000    0.000    0.000    0.000    0.000    0.000 
#
# Total GULP energy -61446.414517 kJ/mol
# GULP energy per Si atom -5586.037683 kJ/mol
# Density = 2.420304 g / cm^3
# Si number density = 24.258254 Si / 1000 Ang^3
#
#
#
# Elastic Constant Matrix: (Units=GPa)
#
#
# Indices 1 2 3 4 5 6 
#
# 1 60.2013 16.1833 14.0448 -11.0670 -16.8439 -24.5260
# 2 16.1833 165.0696 41.1370 -44.5157 -24.9513 -16.1719
# 3 14.0448 41.1370 127.6146 -37.1167 -36.2358 2.5594
# 4 -11.0670 -44.5157 -37.1167 57.2756 7.2088 0.1249
# 5 -16.8439 -24.9513 -36.2358 7.2088 52.2180 4.6070
# 6 -24.5260 -16.1719 2.5594 0.1249 4.6070 34.3021
#
#
#
# Elastic Compliance Matrix: (Units=1/GPa)
#
#
# Indices 1 2 3 4 5 6 
#
# 1 0.026977 0.001859 -0.000415 0.005485 0.006846 0.019257
# 2 0.001859 0.008674 -0.000306 0.006489 0.003196 0.004989
# 3 -0.000415 -0.000306 0.012025 0.006553 0.007368 -0.002352
# 4 0.005485 0.006489 0.006553 0.027147 0.005167 0.005699
# 5 0.006846 0.003196 0.007368 0.005167 0.027092 0.002195
# 6 0.019257 0.004989 -0.002352 0.005699 0.002195 0.045133
#
#
# Mechanical properties :
#
#
# Convention : Reuss Voigt Hill
#
# Bulk Modulus (GPa) = 20.01901 55.06841 37.54371
# Shear Modulus (GPa) = 30.97467 47.52718 39.25092
#
# Velocity S-wave (km/s) = 3.57721 4.43111 4.02686
# Velocity P-wave (km/s) = 5.03312 6.99498 6.09352
#
# Compressibility (1/GPa) = 0.04995251
#
# Stress axis : x y z
#
# Youngs Moduli (GPa) = 37.06881 115.28848 83.15697
#
# Poissons Ratio (x) = -0.21435 0.03454
# Poissons Ratio (y) = -0.06892 0.02542
# Poissons Ratio (z) = 0.01540 0.03524
#
# Static dielectric constant tensor:
#      x y z
#    x 1.675990 -0.091050 0.152760 
#    y -0.091050 1.826660 0.039950 
#    z 0.152760 0.039950 1.859080 
# 
# From -- ./inp_files/87636.got.cif
#   From: 2010.05.17/outbox.cif.g08.bks.cpg/sg2_44_cif.got.tgz:87636.got - 2010.06.03 11:33:40.
