data_PCOD9067233
_publ_section_title
;
Structure prediction by ZEFSAII (Michael W. Deem and Ramdas Pophale) SiO2 
 PCOD9067233
Probable space group: P -1
;
_chemical_formula_sum "Si O2"
_cell_formula_units_Z 12
_cell_length_a 10.566839
_cell_length_b 10.918595
_cell_length_c 15.656424
_cell_angle_alpha 146.756278
_cell_angle_beta 148.829752
_cell_angle_gamma 53.687897
_cell_volume 461.507224
_symmetry_space_group_name_H-M "P -1"
_symmetry_group_IT_number 2
_symmetry_cell_setting 'triclinic'
loop_
_space_group_symop_operation_xyz
x,y,z
-x,-y,-z
loop_
_atom_site_type_symbol
_atom_site_label
_atom_site_fract_x
_atom_site_fract_y
_atom_site_fract_z
Si Si1 0.822442 0.349045 0.678583
Si Si2 0.438971 0.519947 0.075982
Si Si3 0.501105 0.045107 0.874929
Si Si4 0.549576 0.647010 0.763855
Si Si5 0.089045 0.110255 0.210987
Si Si6 0.149136 0.932137 0.311279
O O1 0.652093 0.097330 0.381956
O O2 0.684332 0.538003 0.704317
O O3 0.794097 0.261015 0.710094
O O4 0.127725 0.462689 0.884759
O O5 0.660957 0.791159 0.388259
O O6 0.500000 0.500000 0.000000
O O7 0.477069 0.298237 0.016063
O O8 0.403628 0.818741 0.753458
O O9 0.816723 0.111938 0.090327
O O10 0.318363 0.389227 0.510654
O O11 0.824383 0.824794 0.075399
O O12 0.183023 0.956004 0.241947
O O13 0.000000 0.000000 0.000000
#
# Coordination Sequence:
#
# PCOD9067233 Si02
#       6
#     2   2   2   2   2   2
#     4  12  25  47  75 112 146 195 250 310 368 434
#     4  12  28  49  75 109 152 202 251 299 367 445
#     4  11  26  45  78 107 148 201 244 304 366 444
#     4  11  26  46  75 110 150 191 245 313 371 434
#     4  11  25  48  74 111 149 192 245 303 378 440
#     4  11  27  46  74 112 151 195 247 309 365 440
#
# _framework density 26.001759
#
# number of rings (size 3 to 8) (size 9 to 14) (size 15 to 20)
#    0.000    0.667    3.333    2.500    4.667    6.667 
#    0.000    5.000    0.000    0.000    0.000    0.000 
#    0.000    0.000    0.000    0.000    0.000    0.000 
#
# Total GULP energy -67092.457106 kJ/mol
# GULP energy per Si atom -5591.038092 kJ/mol
# Density = 2.594258 g / cm^3
# Si number density = 26.001759 Si / 1000 Ang^3
#
#
#
# Elastic Constant Matrix: (Units=GPa)
#
#
# Indices 1 2 3 4 5 6 
#
# 1 114.9346 46.8651 52.8720 1.5234 11.7493 12.3749
# 2 46.8651 143.4105 53.8472 13.4514 -7.0241 5.5169
# 3 52.8720 53.8472 239.2442 18.2310 9.1305 0.4540
# 4 1.5234 13.4514 18.2310 40.9209 3.3886 -6.2434
# 5 11.7493 -7.0241 9.1305 3.3886 42.7906 2.3238
# 6 12.3749 5.5169 0.4540 -6.2434 2.3238 49.1150
#
#
#
# Elastic Compliance Matrix: (Units=1/GPa)
#
#
# Indices 1 2 3 4 5 6 
#
# 1 0.011392 -0.003270 -0.001757 0.001376 -0.003282 -0.002156
# 2 -0.003270 0.008896 -0.001189 -0.002605 0.002852 -0.000631
# 3 -0.001757 -0.001189 0.004987 -0.001657 -0.000665 0.000351
# 4 0.001376 -0.002605 -0.001657 0.026742 -0.002759 0.003491
# 5 -0.003282 0.002852 -0.000665 -0.002759 0.025155 -0.001028
# 6 -0.002156 -0.000631 0.000351 0.003491 -0.001028 0.021464
#
#
# Mechanical properties :
#
#
# Convention : Reuss Voigt Hill
#
# Bulk Modulus (GPa) = 77.86281 89.41753 83.64017
# Shear Modulus (GPa) = 43.34729 49.49898 46.42314
#
# Velocity S-wave (km/s) = 4.08743 4.36785 4.22996
# Velocity P-wave (km/s) = 7.23093 7.73958 7.48958
#
# Compressibility (1/GPa) = 0.01284310
#
# Stress axis : x y z
#
# Youngs Moduli (GPa) = 87.78428 112.40731 200.53485
#
# Poissons Ratio (x) = 0.36754 0.35236
# Poissons Ratio (y) = 0.28703 0.23840
# Poissons Ratio (z) = 0.15425 0.13363
#
# Static dielectric constant tensor:
#      x y z
#    x 2.165880 0.079770 -0.035540 
#    y 0.079770 2.068250 -0.027160 
#    z -0.035540 -0.027160 1.991170 
# 
# From -- ./inp_files/567713.got.cif
#   From: 2010.05.17/outbox.cif.g08.bks.cpg/sg2_284_cif.got.tgz:567713.got - 2010.06.03 11:33:40.
