data_PCOD9067508
_publ_section_title
;
Structure prediction by ZEFSAII (Michael W. Deem and Ramdas Pophale) SiO2 
 PCOD9067508
Probable space group: P -1
;
_chemical_formula_sum "Si O2"
_cell_formula_units_Z 12
_cell_length_a 15.009781
_cell_length_b 13.064817
_cell_length_c 5.067647
_cell_angle_alpha 98.137502
_cell_angle_beta 80.526504
_cell_angle_gamma 37.970668
_cell_volume 539.463282
_symmetry_space_group_name_H-M "P -1"
_symmetry_group_IT_number 2
_symmetry_cell_setting 'triclinic'
loop_
_space_group_symop_operation_xyz
x,y,z
-x,-y,-z
loop_
_atom_site_type_symbol
_atom_site_label
_atom_site_fract_x
_atom_site_fract_y
_atom_site_fract_z
Si Si1 0.571838 0.329458 0.770546
Si Si2 0.078744 0.698291 0.369240
Si Si3 0.294460 0.460700 0.676776
Si Si4 0.489510 0.935826 0.731461
Si Si5 0.233722 0.022230 0.097491
Si Si6 0.097059 0.983013 0.762188
O O1 0.437681 0.401106 0.680672
O O2 0.728558 0.218753 0.494382
O O3 0.642637 0.172299 0.875558
O O4 0.500000 0.500000 0.000000
O O5 0.192339 0.600022 0.531774
O O6 0.909907 0.803294 0.573475
O O7 0.179937 0.555123 0.023998
O O8 0.016262 0.869373 0.364369
O O9 0.371875 0.281323 0.466258
O O10 0.500000 0.000000 0.500000
O O11 0.329802 0.019529 0.898160
O O12 0.500000 0.000000 0.000000
O O13 0.142303 0.040368 0.933660
O O14 0.000000 0.000000 0.000000
#
# Coordination Sequence:
#
# PCOD9067508 Si02
#       6
#     2   2   2   2   2   2
#     4  11  27  44  75 112 157 201 256 301 370 453
#     4  11  26  46  78 103 159 194 245 309 381 437
#     4  12  25  50  75 115 147 196 254 318 367 451
#     4  12  27  50  83 109 144 196 256 319 385 441
#     4  11  25  50  74 111 155 201 250 312 374 453
#     4  11  26  47  73 107 156 209 249 295 380 448
#
# _framework density 22.244332
#
# number of rings (size 3 to 8) (size 9 to 14) (size 15 to 20)
#    0.000    0.667    3.333    3.000    7.000    3.333 
#    0.000    8.333    0.000    0.000    0.000    0.000 
#    0.000    0.000    0.000    0.000    0.000    0.000 
#
# Total GULP energy -67197.608892 kJ/mol
# GULP energy per Si atom -5599.800741 kJ/mol
# Density = 2.219370 g / cm^3
# Si number density = 22.244332 Si / 1000 Ang^3
#
#
#
# Elastic Constant Matrix: (Units=GPa)
#
#
# Indices 1 2 3 4 5 6 
#
# 1 150.8093 86.7280 94.8914 -4.3102 -11.4895 6.9031
# 2 86.7280 162.0061 89.4278 -9.1951 -4.8090 -21.7996
# 3 94.8914 89.4278 233.6990 15.3730 -16.5668 0.5638
# 4 -4.3102 -9.1951 15.3730 58.5447 6.8607 6.3993
# 5 -11.4895 -4.8090 -16.5668 6.8607 58.8215 -7.3358
# 6 6.9031 -21.7996 0.5638 6.3993 -7.3358 31.0249
#
#
#
# Elastic Compliance Matrix: (Units=1/GPa)
#
#
# Indices 1 2 3 4 5 6 
#
# 1 0.012062 -0.005792 -0.002756 0.001458 0.000065 -0.006989
# 2 -0.005792 0.011863 -0.002253 0.000953 0.000282 0.009535
# 3 -0.002756 -0.002253 0.006515 -0.002397 0.001358 -0.000273
# 4 0.001458 0.000953 -0.002397 0.018781 -0.003027 -0.004201
# 5 0.000065 0.000282 0.001358 -0.003027 0.018412 0.005137
# 6 -0.006989 0.009535 -0.000273 -0.004201 0.005137 0.042573
#
#
# Mechanical properties :
#
#
# Convention : Reuss Voigt Hill
#
# Bulk Modulus (GPa) = 113.15513 120.95653 117.05583
# Shear Modulus (GPa) = 37.10454 48.04269 42.57362
#
# Velocity S-wave (km/s) = 4.08860 4.65238 4.37957
# Velocity P-wave (km/s) = 8.55970 9.12983 8.84936
#
# Compressibility (1/GPa) = 0.00883743
#
# Stress axis : x y z
#
# Youngs Moduli (GPa) = 82.90286 84.29887 153.49456
#
# Poissons Ratio (x) = 0.48825 0.42302
# Poissons Ratio (y) = 0.48016 0.34588
# Poissons Ratio (z) = 0.22848 0.18995
#
# Static dielectric constant tensor:
#      x y z
#    x 1.799340 -0.006090 0.018300 
#    y -0.006090 1.842560 0.014750 
#    z 0.018300 0.014750 1.896440 
# 
# From -- ./inp_files/93585.got.cif
#   From: 2010.05.17/outbox.cif.g08.bks.cpg/sg2_47_cif.got.tgz:93585.got - 2010.06.03 11:33:40.
