data_PCOD9067595
_publ_section_title
;
Structure prediction by ZEFSAII (Michael W. Deem and Ramdas Pophale) SiO2 
 PCOD9067595
Probable space group: P -1
;
_chemical_formula_sum "Si O2"
_cell_formula_units_Z 14
_cell_length_a 7.019037
_cell_length_b 8.930519
_cell_length_c 19.953209
_cell_angle_alpha 35.272620
_cell_angle_beta 66.203766
_cell_angle_gamma 57.033517
_cell_volume 603.820805
_symmetry_space_group_name_H-M "P -1"
_symmetry_group_IT_number 2
_symmetry_cell_setting 'triclinic'
loop_
_space_group_symop_operation_xyz
x,y,z
-x,-y,-z
loop_
_atom_site_type_symbol
_atom_site_label
_atom_site_fract_x
_atom_site_fract_y
_atom_site_fract_z
Si Si1 0.887098 0.210446 0.256854
Si Si2 0.337095 0.754659 0.296672
Si Si3 0.498246 0.575103 0.086652
Si Si4 0.622553 0.067500 0.155393
Si Si5 0.093919 0.191974 0.374186
Si Si6 0.418464 0.124373 0.541398
Si Si7 0.140582 0.745418 0.190225
O O1 0.717113 0.472066 0.141852
O O2 0.952470 0.291455 0.289970
O O3 0.758736 0.002328 0.363931
O O4 0.120654 0.024757 0.254539
O O5 0.332578 0.461850 0.429615
O O6 0.309356 0.752610 0.221458
O O7 0.560837 0.797778 0.271083
O O8 0.517900 0.294382 0.146177
O O9 0.272130 0.703745 0.116846
O O10 0.489873 0.789980 0.950874
O O11 0.890830 0.994752 0.139063
O O12 0.093020 0.465379 0.311906
O O13 0.360806 0.998930 0.397246
O O14 0.000000 0.000000 0.500000
O O15 0.500000 0.000000 0.500000
#
# Coordination Sequence:
#
# PCOD9067595 Si02
#       7
#     2   2   2   2   2   2   2
#     4  12  25  45  69 105 142 185 230 288 353 412
#     4  12  26  44  71 106 138 183 239 287 344 421
#     4  11  25  51  72 100 144 184 231 296 348 412
#     4  11  27  49  72 103 140 183 238 291 348 409
#     4  12  24  40  71 100 140 188 225 284 352 411
#     4  12  23  44  67 101 144 180 232 285 343 416
#     4  12  24  46  71 105 139 181 239 284 348 419
#
# _framework density 23.185684999999999
#
# number of rings (size 3 to 8) (size 9 to 14) (size 15 to 20)
#    0.000    0.286    5.714    2.571    2.000    1.714 
#    2.571    0.000    0.000    0.000    0.000    0.000 
#    0.000    0.000    0.000    0.000    0.000    0.000 
#
# Total GULP energy -78407.445588 kJ/mol
# GULP energy per Si atom -5600.531828 kJ/mol
# Density = 2.313291 g / cm^3
# Si number density = 23.185685 Si / 1000 Ang^3
#
#
#
# Elastic Constant Matrix: (Units=GPa)
#
#
# Indices 1 2 3 4 5 6 
#
# 1 98.5941 -3.9514 -4.4738 3.9662 6.4021 -0.7223
# 2 -3.9514 57.8040 -12.3217 14.2177 -14.3848 -12.7123
# 3 -4.4738 -12.3217 33.3541 5.3897 17.2880 5.7419
# 4 3.9662 14.2177 5.3897 30.3567 0.9843 -2.5942
# 5 6.4021 -14.3848 17.2880 0.9843 36.6234 -3.3336
# 6 -0.7223 -12.7123 5.7419 -2.5942 -3.3336 36.8899
#
#
#
# Elastic Compliance Matrix: (Units=1/GPa)
#
#
# Indices 1 2 3 4 5 6 
#
# 1 0.010703 0.001373 0.004146 -0.002710 -0.003256 -0.000447
# 2 0.001373 0.025540 0.006309 -0.012862 0.007855 0.007651
# 3 0.004146 0.006309 0.046869 -0.011807 -0.020759 -0.007746
# 4 -0.002710 -0.012862 -0.011807 0.041441 -0.000095 0.000258
# 5 -0.003256 0.007855 -0.020759 -0.000095 0.041638 0.009630
# 6 -0.000447 0.007651 -0.007746 0.000258 0.009630 0.031830
#
#
# Mechanical properties :
#
#
# Convention : Reuss Voigt Hill
#
# Bulk Modulus (GPa) = 9.36623 16.47316 12.91970
# Shear Modulus (GPa) = 23.81474 34.80726 29.31100
#
# Velocity S-wave (km/s) = 3.20837 3.87879 3.55940
# Velocity P-wave (km/s) = 4.21583 5.21347 4.74097
#
# Compressibility (1/GPa) = 0.10676654
#
# Stress axis : x y z
#
# Youngs Moduli (GPa) = 93.43223 39.15491 21.33609
#
# Poissons Ratio (x) = -0.05377 -0.08845
# Poissons Ratio (y) = -0.12830 -0.13460
# Poissons Ratio (z) = -0.38734 -0.24701
#
# Static dielectric constant tensor:
#      x y z
#    x 1.868570 -0.002750 0.022360 
#    y -0.002750 1.871850 0.001100 
#    z 0.022360 0.001100 1.860760 
# 
# From -- ./inp_files/48854.got.cif
#   From: 2010.05.17/outbox.cif.g08.bks.cpg/sg2_25_cif.got.tgz:48854.got - 2010.06.03 11:33:40.
