data_PCOD9067278
_publ_section_title
;
Structure prediction by ZEFSAII (Michael W. Deem and Ramdas Pophale) SiO2 
 PCOD9067278
Probable space group: P -1
;
_chemical_formula_sum "Si O2"
_cell_formula_units_Z 15
_cell_length_a 8.964717
_cell_length_b 13.462650
_cell_length_c 14.301343
_cell_angle_alpha 148.967462
_cell_angle_beta 137.165277
_cell_angle_gamma 38.159241
_cell_volume 540.066483
_symmetry_space_group_name_H-M "P -1"
_symmetry_group_IT_number 2
_symmetry_cell_setting 'triclinic'
loop_
_space_group_symop_operation_xyz
x,y,z
-x,-y,-z
loop_
_atom_site_type_symbol
_atom_site_label
_atom_site_fract_x
_atom_site_fract_y
_atom_site_fract_z
Si Si1 0.314557 0.912856 0.148463
Si Si2 0.241130 0.771502 0.807927
Si Si3 0.500000 0.000000 0.000000
Si Si4 0.103225 0.757397 0.385753
Si Si5 0.520068 0.221319 0.689283
Si Si6 0.958785 0.502617 0.244480
Si Si7 0.980253 0.265803 0.872701
Si Si8 0.354693 0.322285 0.423508
O O1 0.380679 0.111358 0.320750
O O2 0.030568 0.031658 0.145736
O O3 0.448274 0.757364 0.168596
O O4 0.357997 0.772771 0.963009
O O5 0.215670 0.557832 0.597338
O O6 0.396131 0.834767 0.857438
O O7 0.736160 0.903193 0.111158
O O8 0.992548 0.705247 0.384936
O O9 0.055745 0.651528 0.184679
O O10 0.384983 0.683646 0.477410
O O11 0.000000 0.000000 0.500000
O O12 0.751944 0.202652 0.723802
O O13 0.251633 0.419080 0.711009
O O14 0.500000 0.000000 0.500000
O O15 0.211495 0.326906 0.265662
O O16 0.923722 0.403475 0.052956
#
# Coordination Sequence:
#
# PCOD9067278 Si02
#       8
#     2   2   1   2   2   2   2   2
#     4  11  25  48  76 113 154 207 266 313 401 456
#     4  11  26  45  78 109 158 203 260 325 380 475
#     4  12  26  48  78 116 156 204 260 320 404 454
#     4  12  29  50  77 113 160 207 261 325 400 468
#     4  12  26  51  77 113 158 207 258 326 397 465
#     4  12  28  48  79 116 155 203 267 325 393 470
#     4  12  28  49  80 113 158 207 260 327 393 470
#     4  12  27  49  79 119 157 207 269 321 400 465
#
# _framework density 27.774357999999999
#
# number of rings (size 3 to 8) (size 9 to 14) (size 15 to 20)
#    0.000    0.267    1.333    6.400   11.200    1.067 
#    0.000    0.000    0.000    0.000    0.000    0.000 
#    0.000    0.000    0.000    0.000    0.000    0.000 
#
# Total GULP energy -83859.520347 kJ/mol
# GULP energy per Si atom -5590.634690 kJ/mol
# Density = 2.771114 g / cm^3
# Si number density = 27.774358 Si / 1000 Ang^3
#
#
#
# Elastic Constant Matrix: (Units=GPa)
#
#
# Indices 1 2 3 4 5 6 
#
# 1 132.7478 46.4018 35.7562 -9.4257 26.2878 12.6704
# 2 46.4018 67.4878 6.0128 -13.8641 8.0707 -12.2244
# 3 35.7562 6.0128 116.5393 -1.8068 10.3271 -2.1586
# 4 -9.4257 -13.8641 -1.8068 42.9347 3.2473 10.4837
# 5 26.2878 8.0707 10.3271 3.2473 46.2617 1.2811
# 6 12.6704 -12.2244 -2.1586 10.4837 1.2811 43.8344
#
#
#
# Elastic Compliance Matrix: (Units=1/GPa)
#
#
# Indices 1 2 3 4 5 6 
#
# 1 0.013478 -0.009202 -0.003293 0.001940 -0.005263 -0.006934
# 2 -0.009202 0.023176 0.001809 0.003472 0.000306 0.008373
# 3 -0.003293 0.001809 0.009587 -0.000173 -0.000628 0.001988
# 4 0.001940 0.003472 -0.000173 0.026513 -0.003369 -0.005844
# 5 -0.005263 0.000306 -0.000628 -0.003369 0.024884 0.001654
# 6 -0.006934 0.008373 0.001988 -0.005844 0.001654 0.028600
#
#
# Mechanical properties :
#
#
# Convention : Reuss Voigt Hill
#
# Bulk Modulus (GPa) = 40.20609 54.79070 47.49839
# Shear Modulus (GPa) = 32.07193 41.84643 36.95918
#
# Velocity S-wave (km/s) = 3.40182 3.88578 3.65183
# Velocity P-wave (km/s) = 5.47149 6.31682 5.90929
#
# Compressibility (1/GPa) = 0.02487185
#
# Stress axis : x y z
#
# Youngs Moduli (GPa) = 74.19356 43.14727 104.30315
#
# Poissons Ratio (x) = 0.39703 0.34343
# Poissons Ratio (y) = 0.68272 -0.18872
# Poissons Ratio (z) = 0.24429 -0.07807
#
# Static dielectric constant tensor:
#      x y z
#    x 2.163850 -0.117220 -0.066140 
#    y -0.117220 2.326220 0.009940 
#    z -0.066140 0.009940 2.368040 
# 
# From -- ./inp_files/506005.got.cif
#   From: 2010.05.17/outbox.cif.g08.bks.cpg/sg2_254_cif.got.tgz:506005.got - 2010.06.03 11:33:40.
