data_PCOD9067475
_publ_section_title
;
Structure prediction by ZEFSAII (Michael W. Deem and Ramdas Pophale) SiO2 
 PCOD9067475
Probable space group: P -1
;
_chemical_formula_sum "Si O2"
_cell_formula_units_Z 13
_cell_length_a 11.403240
_cell_length_b 8.510838
_cell_length_c 9.578274
_cell_angle_alpha 118.387772
_cell_angle_beta 86.554879
_cell_angle_gamma 50.605437
_cell_volume 535.050980
_symmetry_space_group_name_H-M "P -1"
_symmetry_group_IT_number 2
_symmetry_cell_setting 'triclinic'
loop_
_space_group_symop_operation_xyz
x,y,z
-x,-y,-z
loop_
_atom_site_type_symbol
_atom_site_label
_atom_site_fract_x
_atom_site_fract_y
_atom_site_fract_z
Si Si1 0.859102 0.136565 0.445047
Si Si2 0.848811 0.060966 0.109445
Si Si3 0.972922 0.484339 0.153938
Si Si4 0.500000 0.000000 0.000000
Si Si5 0.518044 0.298291 0.611955
Si Si6 0.118721 0.489300 0.386557
Si Si7 0.411752 0.129766 0.747848
O O1 0.897467 0.988253 0.237851
O O2 0.677982 0.256955 0.567625
O O3 0.850455 0.352080 0.483494
O O4 0.000000 0.000000 0.500000
O O5 0.658519 0.374789 0.239785
O O6 0.000000 0.000000 0.000000
O O7 0.877217 0.832503 0.947515
O O8 0.772727 0.635900 0.229766
O O9 0.994462 0.625058 0.314353
O O10 0.000000 0.500000 0.000000
O O11 0.682092 0.787189 0.798216
O O12 0.384747 0.169424 0.932518
O O13 0.527755 0.161182 0.691108
O O14 0.526233 0.140554 0.419926
O O15 0.000000 0.500000 0.500000
#
# Coordination Sequence:
#
# PCOD9067475 Si02
#       7
#     2   2   2   1   2   2   2
#     4  12  28  48  74 114 157 200 259 326 396 465
#     4  12  25  48  76 114 150 201 264 327 387 466
#     4  12  24  48  79 111 152 208 259 320 398 474
#     4  12  28  46  80 116 150 202 270 322 390 480
#     4  11  26  49  80 109 158 208 263 324 403 477
#     4  12  29  49  76 112 160 206 255 323 397 474
#     4  11  25  49  80 114 151 212 261 325 407 483
#
# _framework density 24.296749999999999
#
# number of rings (size 3 to 8) (size 9 to 14) (size 15 to 20)
#    0.000    0.308    3.077    5.077    8.615    0.000 
#    0.000    1.538    0.000    0.000    0.000    0.000 
#    0.000    0.000    0.000    0.000    0.000    0.000 
#
# Total GULP energy -72401.832847 kJ/mol
# GULP energy per Si atom -5569.371757 kJ/mol
# Density = 2.424145 g / cm^3
# Si number density = 24.296750 Si / 1000 Ang^3
#
#
#
# Elastic Constant Matrix: (Units=GPa)
#
#
# Indices 1 2 3 4 5 6 
#
# 1 159.4101 33.7251 46.8326 8.0813 -18.6463 19.8041
# 2 33.7251 92.6691 42.2278 7.9219 -2.9675 -4.9099
# 3 46.8326 42.2278 105.5327 6.2301 -19.0246 3.0303
# 4 8.0813 7.9219 6.2301 53.2286 3.8777 4.6031
# 5 -18.6463 -2.9675 -19.0246 3.8777 53.1649 1.2975
# 6 19.8041 -4.9099 3.0303 4.6031 1.2975 38.7731
#
#
#
# Elastic Compliance Matrix: (Units=1/GPa)
#
#
# Indices 1 2 3 4 5 6 
#
# 1 0.008175 -0.002057 -0.002282 -0.000449 0.002073 -0.004274
# 2 -0.002057 0.014087 -0.005054 -0.001365 -0.001728 0.003449
# 3 -0.002282 -0.005054 0.013236 -0.000674 0.003717 -0.000553
# 4 -0.000449 -0.001365 -0.000674 0.019456 -0.001842 -0.002139
# 5 0.002073 -0.001728 0.003717 -0.001842 0.020954 -0.002051
# 6 -0.004274 0.003449 -0.000553 -0.002139 -0.002051 0.028777
#
#
# Mechanical properties :
#
#
# Convention : Reuss Voigt Hill
#
# Bulk Modulus (GPa) = 59.83484 67.02031 63.42758
# Shear Modulus (GPa) = 38.74739 44.68841 41.71790
#
# Velocity S-wave (km/s) = 3.99777 4.29333 4.14818
# Velocity P-wave (km/s) = 6.78157 7.22640 7.00752
#
# Compressibility (1/GPa) = 0.01671267
#
# Stress axis : x y z
#
# Youngs Moduli (GPa) = 122.32675 70.98875 75.55004
#
# Poissons Ratio (x) = 0.14602 0.17239
# Poissons Ratio (y) = 0.25162 0.38182
# Poissons Ratio (z) = 0.27912 0.35877
#
# Static dielectric constant tensor:
#      x y z
#    x 1.992100 0.010910 0.008000 
#    y 0.010910 2.088850 0.021210 
#    z 0.008000 0.021210 1.965850 
# 
# From -- ./inp_files/240985.got.cif
#   From: 2010.05.17/outbox.cif.g08.bks.cpg/sg2_121_cif.got.tgz:240985.got - 2010.06.03 11:33:40.
