data_PCOD9067148
_publ_section_title
;
Structure prediction by ZEFSAII (Michael W. Deem and Ramdas Pophale) SiO2 
 PCOD9067148
Probable space group: P -1
;
_chemical_formula_sum "Si O2"
_cell_formula_units_Z 16
_cell_length_a 19.338501
_cell_length_b 11.778216
_cell_length_c 5.477512
_cell_angle_alpha 88.020661
_cell_angle_beta 110.232610
_cell_angle_gamma 46.738003
_cell_volume 782.284674
_symmetry_space_group_name_H-M "P -1"
_symmetry_group_IT_number 2
_symmetry_cell_setting 'triclinic'
loop_
_space_group_symop_operation_xyz
x,y,z
-x,-y,-z
loop_
_atom_site_type_symbol
_atom_site_label
_atom_site_fract_x
_atom_site_fract_y
_atom_site_fract_z
Si Si1 0.134474 0.371469 0.925750
Si Si2 0.948298 0.970594 0.750950
Si Si3 0.214784 0.375768 0.511495
Si Si4 0.671871 0.352266 0.634230
Si Si5 0.643908 0.587422 0.198874
Si Si6 0.168119 0.752880 0.788585
Si Si7 0.989480 0.692693 0.032369
Si Si8 0.517176 0.378476 0.222154
O O1 0.211961 0.304558 0.264503
O O2 0.030136 0.572500 0.854945
O O3 0.187610 0.342000 0.733699
O O4 0.084578 0.303189 0.890978
O O5 0.050399 0.834286 0.698228
O O6 0.851115 0.140484 0.469031
O O7 0.928702 0.874536 0.863098
O O8 0.000000 0.000000 0.000000
O O9 0.324437 0.325275 0.673942
O O10 0.107519 0.580488 0.316077
O O11 0.665848 0.465702 0.436494
O O12 0.637069 0.271144 0.481912
O O13 0.574121 0.492315 0.694694
O O14 0.783736 0.228782 0.931174
O O15 0.740018 0.448047 0.130398
O O16 0.523242 0.693823 0.938767
O O17 0.500000 0.500000 0.000000
#
# Coordination Sequence:
#
# PCOD9067148 Si02
#       8
#     2   2   2   2   2   2   2   2
#     4   9  20  32  48  69  87 130 159 210 250 290
#     4  11  21  33  43  70  92 134 168 205 235 287
#     4  10  18  30  47  70  91 119 163 196 253 287
#     4   9  16  29  44  65  92 130 157 194 238 298
#     4  10  18  28  48  65  98 128 157 204 243 295
#     4  10  20  30  44  64  96 128 169 196 241 277
#     4   9  19  31  48  61  96 122 169 202 248 287
#     4   8  16  27  43  67  92 124 156 189 245 295
#
# _framework density 20.452912000000001
#
# number of rings (size 3 to 8) (size 9 to 14) (size 15 to 20)
#    0.750    1.750    0.000    3.375    3.500    1.000 
#    0.000    0.000    0.000    0.000    0.000    0.000 
#    0.000    2.000    0.000    1.875    0.000    0.000 
#
# Total GULP energy -89078.453699 kJ/mol
# GULP energy per Si atom -5567.403356 kJ/mol
# Density = 2.040636 g / cm^3
# Si number density = 20.452912 Si / 1000 Ang^3
#
#
#
# Elastic Constant Matrix: (Units=GPa)
#
#
# Indices 1 2 3 4 5 6 
#
# 1 81.7876 4.8164 18.9770 2.3348 1.9456 14.1170
# 2 4.8164 19.1875 1.6271 -1.8762 -6.3062 11.2157
# 3 18.9770 1.6271 93.3574 10.8454 8.7646 13.8822
# 4 2.3348 -1.8762 10.8454 14.9545 3.6985 -1.8012
# 5 1.9456 -6.3062 8.7646 3.6985 40.0710 9.7775
# 6 14.1170 11.2157 13.8822 -1.8012 9.7775 28.2868
#
#
#
# Elastic Compliance Matrix: (Units=1/GPa)
#
#
# Indices 1 2 3 4 5 6 
#
# 1 0.013832 0.001473 -0.001657 -0.002156 0.001948 -0.007484
# 2 0.001473 0.084814 0.002898 -0.002866 0.023680 -0.044154
# 3 -0.001657 0.002898 0.013253 -0.010009 0.000418 -0.007608
# 4 -0.002156 -0.002866 -0.010009 0.078190 -0.009094 0.015247
# 5 0.001948 0.023680 0.000418 -0.009094 0.035008 -0.023246
# 6 -0.007484 -0.044154 -0.007608 0.015247 -0.023246 0.069334
#
#
# Mechanical properties :
#
#
# Convention : Reuss Voigt Hill
#
# Bulk Modulus (GPa) = 8.52330 27.24151 17.88240
# Shear Modulus (GPa) = 15.23873 27.92327 21.58100
#
# Velocity S-wave (km/s) = 2.73255 3.69893 3.25184
# Velocity P-wave (km/s) = 3.75927 5.62057 4.78137
#
# Compressibility (1/GPa) = 0.11732542
#
# Stress axis : x y z
#
# Youngs Moduli (GPa) = 72.29867 11.79054 75.45734
#
# Poissons Ratio (x) = -0.01736 0.12501
# Poissons Ratio (y) = -0.10647 -0.21866
# Poissons Ratio (z) = 0.11978 -0.03417
#
# Static dielectric constant tensor:
#      x y z
#    x 1.787990 -0.030280 0.019940 
#    y -0.030280 1.755710 0.065650 
#    z 0.019940 0.065650 1.820410 
# 
# From -- ./inp_files/108990.got.cif
#   From: 2010.05.17/outbox.cif.g08.bks.cpg/sg2_55_cif.got.tgz:108990.got - 2010.06.03 11:33:40.
