data_PCOD9067024
_publ_section_title
;
Structure prediction by ZEFSAII (Michael W. Deem and Ramdas Pophale) SiO2 
 PCOD9067024
Probable space group: P -1
;
_chemical_formula_sum "Si O2"
_cell_formula_units_Z 12
_cell_length_a 14.643927
_cell_length_b 12.032207
_cell_length_c 9.321759
_cell_angle_alpha 66.021905
_cell_angle_beta 111.834737
_cell_angle_gamma 159.563699
_cell_volume 523.803293
_symmetry_space_group_name_H-M "P -1"
_symmetry_group_IT_number 2
_symmetry_cell_setting 'triclinic'
loop_
_space_group_symop_operation_xyz
x,y,z
-x,-y,-z
loop_
_atom_site_type_symbol
_atom_site_label
_atom_site_fract_x
_atom_site_fract_y
_atom_site_fract_z
Si Si1 0.491470 0.697646 0.418741
Si Si2 0.263704 0.378839 0.991056
Si Si3 0.029018 0.801917 0.776539
Si Si4 0.622315 0.603004 0.237989
Si Si5 0.715625 0.181761 0.432430
Si Si6 0.720028 0.319973 0.057604
O O1 0.412141 0.491880 0.575591
O O2 0.236712 0.468473 0.320152
O O3 0.725533 0.941975 0.316358
O O4 0.611443 0.928121 0.480580
O O5 0.394836 0.515157 0.837096
O O6 0.304402 0.565058 0.967987
O O7 0.412486 0.464132 0.146319
O O8 0.000000 0.000000 0.000000
O O9 0.108459 0.012338 0.802237
O O10 0.971073 0.622338 0.941126
O O11 0.741627 0.272291 0.243049
O O12 0.000000 0.500000 0.500000
O O13 0.500000 0.000000 0.500000
O O14 0.500000 0.000000 0.000000
#
# Coordination Sequence:
#
# PCOD9067024 Si02
#       6
#     2   2   2   2   2   2
#     4  12  27  47  76 114 156 201 258 328 391 459
#     4  11  25  47  75 112 149 209 261 318 395 457
#     4  12  26  47  75 118 147 206 256 316 397 461
#     4  11  26  45  77 109 157 197 264 325 386 466
#     4  12  29  50  77 113 156 209 260 319 394 467
#     4  12  27  52  82 111 162 207 262 322 387 480
#
# _framework density 22.909362000000002
#
# number of rings (size 3 to 8) (size 9 to 14) (size 15 to 20)
#    0.000    0.333    3.333    4.000    4.667    3.333 
#    0.000    0.000    0.000    0.000    0.000    0.000 
#    0.000    0.000    0.000    0.000    0.000    0.000 
#
# Total GULP energy -67054.346540 kJ/mol
# GULP energy per Si atom -5587.862212 kJ/mol
# Density = 2.285722 g / cm^3
# Si number density = 22.909362 Si / 1000 Ang^3
#
#
#
# Elastic Constant Matrix: (Units=GPa)
#
#
# Indices 1 2 3 4 5 6 
#
# 1 94.6294 50.9907 7.1298 6.5212 -16.8162 -17.2573
# 2 50.9907 170.6720 53.7850 16.3923 5.2132 -7.7578
# 3 7.1298 53.7850 144.1838 -14.5347 17.1361 12.2182
# 4 6.5212 16.3923 -14.5347 55.3300 -8.3129 2.9931
# 5 -16.8162 5.2132 17.1361 -8.3129 26.4204 -1.0579
# 6 -17.2573 -7.7578 12.2182 2.9931 -1.0579 50.0921
#
#
#
# Elastic Compliance Matrix: (Units=1/GPa)
#
#
# Indices 1 2 3 4 5 6 
#
# 1 0.016346 -0.004840 -0.000837 0.000862 0.012385 0.005296
# 2 -0.004840 0.008695 -0.002920 -0.003394 -0.003950 0.000511
# 3 -0.000837 -0.002920 0.009243 0.002787 -0.005205 -0.003271
# 4 0.000862 -0.003394 0.002787 0.020696 0.005842 -0.002022
# 5 0.012385 -0.003950 -0.005205 0.005842 0.051953 0.005673
# 6 0.005296 0.000511 -0.003271 -0.002022 0.005673 0.022905
#
#
# Mechanical properties :
#
#
# Convention : Reuss Voigt Hill
#
# Bulk Modulus (GPa) = 58.51278 70.36625 64.43952
# Shear Modulus (GPa) = 32.73741 46.20716 39.47228
#
# Velocity S-wave (km/s) = 3.78431 4.49592 4.15538
# Velocity P-wave (km/s) = 6.68514 7.59821 7.15625
#
# Compressibility (1/GPa) = 0.01709028
#
# Stress axis : x y z
#
# Youngs Moduli (GPa) = 61.17684 115.00272 108.18867
#
# Poissons Ratio (x) = 0.55666 0.09050
# Poissons Ratio (y) = 0.29612 0.31594
# Poissons Ratio (z) = 0.05117 0.33584
#
# Static dielectric constant tensor:
#      x y z
#    x 1.948240 0.008250 -0.086880 
#    y 0.008250 1.866790 -0.021910 
#    z -0.086880 -0.021910 1.888130 
# 
# From -- ./inp_files/65909.got.cif
#   From: 2010.05.17/outbox.cif.g08.bks.cpg/sg2_33_cif.got.tgz:65909.got - 2010.06.03 11:33:40.
