data_PCOD9067877
_publ_section_title
;
Structure prediction by ZEFSAII (Michael W. Deem and Ramdas Pophale) SiO2 
 PCOD9067877
Probable space group: P -1
;
_chemical_formula_sum "Si O2"
_cell_formula_units_Z 16
_cell_length_a 30.668687
_cell_length_b 9.704939
_cell_length_c 16.611341
_cell_angle_alpha 43.103282
_cell_angle_beta 161.856848
_cell_angle_gamma 146.432044
_cell_volume 794.770733
_symmetry_space_group_name_H-M "P -1"
_symmetry_group_IT_number 2
_symmetry_cell_setting 'triclinic'
loop_
_space_group_symop_operation_xyz
x,y,z
-x,-y,-z
loop_
_atom_site_type_symbol
_atom_site_label
_atom_site_fract_x
_atom_site_fract_y
_atom_site_fract_z
Si Si1 0.033799 0.749697 0.913819
Si Si2 0.385118 0.098130 0.261566
Si Si3 0.837395 0.373175 0.207044
Si Si4 0.677272 0.536499 0.269284
Si Si5 0.487712 0.005570 0.875553
Si Si6 0.942035 0.872329 0.080610
Si Si7 0.149205 0.975497 0.745345
Si Si8 0.697308 0.739998 0.553180
O O1 0.845020 0.636501 0.582622
O O2 0.071393 0.942775 0.967941
O O3 0.000000 0.500000 0.000000
O O4 0.222554 0.932232 0.114165
O O5 0.532405 0.421971 0.386765
O O6 0.500000 0.000000 0.500000
O O7 0.267939 0.014480 0.011387
O O8 0.863581 0.612552 0.106331
O O9 0.000000 0.500000 0.500000
O O10 0.878845 0.246781 0.264437
O O11 0.660584 0.176467 0.041048
O O12 0.745920 0.774001 0.232234
O O13 0.626893 0.291802 0.233031
O O14 0.500000 0.500000 0.000000
O O15 0.389977 0.126577 0.637909
O O16 0.500000 0.000000 0.000000
O O17 0.819637 0.774357 0.827297
O O18 0.157984 0.076873 0.343826
O O19 0.000000 0.000000 0.500000
#
# Coordination Sequence:
#
# PCOD9067877 Si02
#       8
#     2   2   2   2   2   2   2   2
#     4  12  27  46  73 105 144 190 240 299 358 429
#     4  12  27  46  74 105 142 190 243 294 362 429
#     4  12  27  44  71 104 144 187 237 294 358 423
#     4  12  27  47  73 107 146 191 243 293 360 427
#     4  12  27  44  71 105 143 188 237 293 357 428
#     4  11  26  46  72 102 145 185 240 295 358 430
#     4  12  27  47  73 106 146 190 242 298 358 430
#     4  11  26  46  71 104 141 190 236 294 360 428
#
# _framework density 20.131592000000001
#
# number of rings (size 3 to 8) (size 9 to 14) (size 15 to 20)
#    0.000    0.250    2.500    5.250   10.500    6.000 
#    0.000    0.000    0.000    0.000    0.000    0.000 
#    0.000    0.000    0.000    0.000    0.000    0.000 
#
# Total GULP energy -89090.264736 kJ/mol
# GULP energy per Si atom -5568.141546 kJ/mol
# Density = 2.008577 g / cm^3
# Si number density = 20.131592 Si / 1000 Ang^3
#
#
#
# Elastic Constant Matrix: (Units=GPa)
#
#
# Indices 1 2 3 4 5 6 
#
# 1 141.6106 37.9626 33.8578 19.9772 37.4897 -5.3351
# 2 37.9626 120.1028 -5.6004 -2.6769 10.5869 -23.9968
# 3 33.8578 -5.6004 82.2802 -6.4571 14.9240 -13.6539
# 4 19.9772 -2.6769 -6.4571 43.6752 8.7467 0.4335
# 5 37.4897 10.5869 14.9240 8.7467 64.4431 2.2589
# 6 -5.3351 -23.9968 -13.6539 0.4335 2.2589 47.4722
#
#
#
# Elastic Compliance Matrix: (Units=1/GPa)
#
#
# Indices 1 2 3 4 5 6 
#
# 1 0.010891 -0.003805 -0.004749 -0.005128 -0.003850 -0.001836
# 2 -0.003805 0.011146 0.003833 0.003159 -0.001156 0.006335
# 3 -0.004749 0.003833 0.016269 0.005265 -0.002565 0.006157
# 4 -0.005128 0.003159 0.005265 0.026683 -0.002461 0.002408
# 5 -0.003850 -0.001156 -0.002565 -0.002461 0.018968 -0.002635
# 6 -0.001836 0.006335 0.006157 0.002408 -0.002635 0.025935
#
#
# Mechanical properties :
#
#
# Convention : Reuss Voigt Hill
#
# Bulk Modulus (GPa) = 34.64615 52.93709 43.79162
# Shear Modulus (GPa) = 38.77319 49.63633 44.20476
#
# Velocity S-wave (km/s) = 4.39337 4.97086 4.69101
# Velocity P-wave (km/s) = 6.55613 7.70056 7.15127
#
# Compressibility (1/GPa) = 0.02886324
#
# Stress axis : x y z
#
# Youngs Moduli (GPa) = 91.82053 89.71922 61.46678
#
# Poissons Ratio (x) = 0.34143 0.29191
# Poissons Ratio (y) = 0.34942 -0.23563
# Poissons Ratio (z) = 0.43607 -0.34393
#
# Static dielectric constant tensor:
#      x y z
#    x 1.728260 0.076020 0.017170 
#    y 0.076020 1.714720 0.053770 
#    z 0.017170 0.053770 1.704250 
# 
# From -- ./inp_files/543817.got.cif
#   From: 2010.05.17/outbox.cif.g08.bks.cpg/sg2_272_cif.got.tgz:543817.got - 2010.06.03 11:33:40.
