data_PCOD9067746
_publ_section_title
;
Structure prediction by ZEFSAII (Michael W. Deem and Ramdas Pophale) SiO2 
 PCOD9067746
Probable space group: P -1
;
_chemical_formula_sum "Si O2"
_cell_formula_units_Z 16
_cell_length_a 9.353816
_cell_length_b 9.272620
_cell_length_c 15.165130
_cell_angle_alpha 94.863270
_cell_angle_beta 73.170102
_cell_angle_gamma 43.336147
_cell_volume 771.750958
_symmetry_space_group_name_H-M "P -1"
_symmetry_group_IT_number 2
_symmetry_cell_setting 'triclinic'
loop_
_space_group_symop_operation_xyz
x,y,z
-x,-y,-z
loop_
_atom_site_type_symbol
_atom_site_label
_atom_site_fract_x
_atom_site_fract_y
_atom_site_fract_z
Si Si1 0.304187 0.901883 0.654712
Si Si2 0.706479 0.376130 0.028214
Si Si3 0.389246 0.121285 0.120866
Si Si4 0.251546 0.923149 0.861740
Si Si5 0.492667 0.784423 0.209557
Si Si6 0.129929 0.359613 0.730136
Si Si7 0.159457 0.475646 0.536556
Si Si8 0.978735 0.944078 0.596432
O O1 0.331876 0.821296 0.744264
O O2 0.564197 0.733025 0.556562
O O3 0.153176 0.902866 0.625921
O O4 0.167625 0.159910 0.700675
O O5 0.719577 0.231999 0.085437
O O6 0.642291 0.565260 0.107100
O O7 0.500000 0.500000 0.000000
O O8 0.970230 0.185626 0.926666
O O9 0.579898 0.077273 0.134360
O O10 0.133773 0.397711 0.172945
O O11 0.361569 0.000196 0.180058
O O12 0.500000 0.000000 0.000000
O O13 0.667060 0.733253 0.244591
O O14 0.291102 0.850926 0.303922
O O15 0.149847 0.418158 0.633522
O O16 0.059779 0.715105 0.565662
O O17 0.000000 0.500000 0.500000
O O18 0.000000 0.000000 0.500000
#
# Coordination Sequence:
#
# PCOD9067746 Si02
#       8
#     2   2   2   2   2   2   2   2
#     4  12  26  44  73 102 141 186 233 289 354 416
#     4  11  26  45  71 101 148 186 231 290 356 415
#     4  12  26  45  73 103 144 186 242 290 348 416
#     4  11  26  45  68 108 139 187 236 287 350 422
#     4  12  26  46  72 106 140 187 237 291 350 419
#     4  12  26  47  72 103 142 186 233 291 351 418
#     4  12  25  48  74 103 142 183 233 291 352 425
#     4  12  27  46  71 107 143 182 236 291 355 422
#
# _framework density 20.732077
#
# number of rings (size 3 to 8) (size 9 to 14) (size 15 to 20)
#    0.000    0.250    2.500    6.000    8.750    3.000 
#    0.000    0.000    0.000    0.000    0.000    0.000 
#    0.000    0.000    0.000    0.000    0.000    0.000 
#
# Total GULP energy -89645.177638 kJ/mol
# GULP energy per Si atom -5602.823602 kJ/mol
# Density = 2.068489 g / cm^3
# Si number density = 20.732077 Si / 1000 Ang^3
#
#
#
# Elastic Constant Matrix: (Units=GPa)
#
#
# Indices 1 2 3 4 5 6 
#
# 1 157.2211 27.0970 45.9695 3.0920 20.3311 -14.7152
# 2 27.0970 82.6680 26.3485 1.6925 7.8753 -0.7904
# 3 45.9695 26.3485 122.1196 -3.3306 5.3480 -13.6013
# 4 3.0920 1.6925 -3.3306 48.8803 -6.7855 -0.4170
# 5 20.3311 7.8753 5.3480 -6.7855 46.3487 1.6858
# 6 -14.7152 -0.7904 -13.6013 -0.4170 1.6858 38.7210
#
#
#
# Elastic Compliance Matrix: (Units=1/GPa)
#
#
# Indices 1 2 3 4 5 6 
#
# 1 0.007943 -0.001526 -0.002292 -0.001030 -0.003195 0.002311
# 2 -0.001526 0.013508 -0.002421 -0.000742 -0.001415 -0.001101
# 3 -0.002292 -0.002421 0.009869 0.000968 0.000327 0.002542
# 4 -0.001030 -0.000742 0.000968 0.021109 0.003556 0.000006
# 5 -0.003195 -0.001415 0.000327 0.003556 0.023778 -0.002125
# 6 0.002311 -0.001101 0.002542 0.000006 -0.002125 0.027667
#
#
# Mechanical properties :
#
#
# Convention : Reuss Voigt Hill
#
# Bulk Modulus (GPa) = 53.06932 62.31541 57.69237
# Shear Modulus (GPa) = 40.77262 44.29625 42.53443
#
# Velocity S-wave (km/s) = 4.43950 4.62736 4.53440
# Velocity P-wave (km/s) = 7.20639 7.65981 7.43656
#
# Compressibility (1/GPa) = 0.01884328
#
# Stress axis : x y z
#
# Youngs Moduli (GPa) = 125.89379 74.03146 101.32769
#
# Poissons Ratio (x) = 0.11294 0.23221
# Poissons Ratio (y) = 0.19207 0.24532
# Poissons Ratio (z) = 0.28851 0.17923
#
# Static dielectric constant tensor:
#      x y z
#    x 1.683180 0.011830 -0.012320 
#    y 0.011830 1.743810 0.003560 
#    z -0.012320 0.003560 1.713610 
# 
# From -- ./inp_files/90192.got.cif
#   From: 2010.05.17/outbox.cif.g08.bks.cpg/sg2_46_cif.got.tgz:90192.got - 2010.06.03 11:33:40.
