data_PCOD9067722
_publ_section_title
;
Structure prediction by ZEFSAII (Michael W. Deem and Ramdas Pophale) SiO2 
 PCOD9067722
Probable space group: P -1
;
_chemical_formula_sum "Si O2"
_cell_formula_units_Z 13
_cell_length_a 22.706124
_cell_length_b 12.603981
_cell_length_c 9.421844
_cell_angle_alpha 48.632694
_cell_angle_beta 150.873729
_cell_angle_gamma 151.478074
_cell_volume 556.812960
_symmetry_space_group_name_H-M "P -1"
_symmetry_group_IT_number 2
_symmetry_cell_setting 'triclinic'
loop_
_space_group_symop_operation_xyz
x,y,z
-x,-y,-z
loop_
_atom_site_type_symbol
_atom_site_label
_atom_site_fract_x
_atom_site_fract_y
_atom_site_fract_z
Si Si1 0.556903 0.308415 0.811366
Si Si2 0.506936 0.231911 0.085445
Si Si3 0.898208 0.530023 0.844453
Si Si4 0.789399 0.814568 0.809363
Si Si5 0.837200 0.933167 0.122435
Si Si6 0.500000 0.500000 0.000000
Si Si7 0.202714 0.682095 0.871719
O O1 0.653043 0.541798 0.734768
O O2 0.316540 0.133836 0.484701
O O3 0.631274 0.349071 0.092349
O O4 0.614986 0.233184 0.901860
O O5 0.673624 0.349551 0.455288
O O6 0.444514 0.331414 0.905293
O O7 0.310751 0.934463 0.921025
O O8 0.865321 0.462009 0.999902
O O9 0.056894 0.814400 0.906102
O O10 0.000000 0.500000 0.000000
O O11 0.825227 0.845591 0.024732
O O12 0.000000 0.000000 0.000000
O O13 0.618869 0.718195 0.939757
O O14 0.000000 0.000000 0.500000
O O15 0.000000 0.500000 0.500000
#
# Coordination Sequence:
#
# PCOD9067722 Si02
#       7
#     2   2   2   2   2   1   2
#     4  11  26  47  73 114 155 206 268 323 412 472
#     4  12  27  49  78 112 159 210 271 330 402 487
#     4  12  27  49  77 118 160 214 268 331 411 483
#     4  11  26  44  73 113 155 204 258 329 400 476
#     4  12  26  46  77 110 159 203 267 323 399 475
#     4  12  26  48  78 118 156 208 268 336 394 476
#     4  12  29  50  81 114 164 216 271 339 409 487
#
# _framework density 23.347159999999999
#
# number of rings (size 3 to 8) (size 9 to 14) (size 15 to 20)
#    0.000    0.308    3.077    3.692   10.769    0.000 
#    0.000    0.000    0.000    0.000    0.000    0.000 
#    0.000    0.000    0.000    0.000    0.000    0.000 
#
# Total GULP energy -72501.484565 kJ/mol
# GULP energy per Si atom -5577.037274 kJ/mol
# Density = 2.329402 g / cm^3
# Si number density = 23.347160 Si / 1000 Ang^3
#
#
#
# Elastic Constant Matrix: (Units=GPa)
#
#
# Indices 1 2 3 4 5 6 
#
# 1 168.5135 60.5285 32.1680 -1.0528 -1.3080 15.8680
# 2 60.5285 200.6456 31.1355 4.5388 -3.7953 -5.0834
# 3 32.1680 31.1355 100.6710 0.6622 -10.7360 8.8776
# 4 -1.0528 4.5388 0.6622 27.2371 3.9695 -7.2782
# 5 -1.3080 -3.7953 -10.7360 3.9695 43.8427 -9.1014
# 6 15.8680 -5.0834 8.8776 -7.2782 -9.1014 57.9074
#
#
#
# Elastic Compliance Matrix: (Units=1/GPa)
#
#
# Indices 1 2 3 4 5 6 
#
# 1 0.007126 -0.001975 -0.001576 0.000227 -0.000775 -0.001978
# 2 -0.001975 0.005826 -0.001223 -0.000760 0.000468 0.001218
# 3 -0.001576 -0.001223 0.011177 -0.000778 0.002425 -0.001106
# 4 0.000227 -0.000760 -0.000778 0.038450 -0.002822 0.004379
# 5 -0.000775 0.000468 0.002425 -0.002822 0.024372 0.003358
# 6 -0.001978 0.001218 -0.001106 0.004379 0.003358 0.019166
#
#
# Mechanical properties :
#
#
# Convention : Reuss Voigt Hill
#
# Bulk Modulus (GPa) = 68.58674 79.72158 74.15416
# Shear Modulus (GPa) = 41.48455 48.86398 45.17427
#
# Velocity S-wave (km/s) = 4.21985 4.57982 4.40351
# Velocity P-wave (km/s) = 7.29270 7.88585 7.59507
#
# Compressibility (1/GPa) = 0.01458008
#
# Stress axis : x y z
#
# Youngs Moduli (GPa) = 140.32795 171.62979 89.47321
#
# Poissons Ratio (x) = 0.33899 0.14101
# Poissons Ratio (y) = 0.27716 0.10947
# Poissons Ratio (z) = 0.22115 0.20998
#
# Static dielectric constant tensor:
#      x y z
#    x 1.857130 -0.011990 0.039570 
#    y -0.011990 1.913090 -0.022380 
#    z 0.039570 -0.022380 2.005970 
# 
# From -- ./inp_files/181518.got.cif
#   From: 2010.05.17/outbox.cif.g08.bks.cpg/sg2_91_cif.got.tgz:181518.got - 2010.06.03 11:33:40.
