data_PCOD9067432
_publ_section_title
;
Structure prediction by ZEFSAII (Michael W. Deem and Ramdas Pophale) SiO2 
 PCOD9067432
Probable space group: P -1
;
_chemical_formula_sum "Si O2"
_cell_formula_units_Z 12
_cell_length_a 13.881955
_cell_length_b 17.796122
_cell_length_c 5.293854
_cell_angle_alpha 70.201865
_cell_angle_beta 76.846406
_cell_angle_gamma 24.678217
_cell_volume 502.944362
_symmetry_space_group_name_H-M "P -1"
_symmetry_group_IT_number 2
_symmetry_cell_setting 'triclinic'
loop_
_space_group_symop_operation_xyz
x,y,z
-x,-y,-z
loop_
_atom_site_type_symbol
_atom_site_label
_atom_site_fract_x
_atom_site_fract_y
_atom_site_fract_z
Si Si1 0.852633 0.395270 0.362348
Si Si2 0.646824 0.963367 0.291703
Si Si3 0.252654 0.276582 0.537873
Si Si4 0.511532 0.772802 0.226091
Si Si5 0.725909 0.391760 0.946992
Si Si6 0.074623 0.992172 0.215769
O O1 0.760072 0.554342 0.234878
O O2 0.746182 0.425497 0.634548
O O3 0.133645 0.186855 0.475165
O O4 0.760752 0.424197 0.126682
O O5 0.722016 0.830421 0.230107
O O6 0.376818 0.156600 0.339301
O O7 0.622056 0.064033 0.044385
O O8 0.426747 0.221313 0.571303
O O9 0.000000 0.500000 0.500000
O O10 0.345842 0.817223 0.281883
O O11 0.500000 0.500000 0.000000
O O12 0.938323 0.174536 0.078662
O O13 0.000000 0.000000 0.500000
O O14 0.000000 0.000000 0.000000
#
# Coordination Sequence:
#
# PCOD9067432 Si02
#       6
#     2   2   2   2   2   2
#     4  12  26  46  76 111 150 207 252 317 389 462
#     4  11  26  48  75 111 152 205 257 326 388 466
#     4  11  25  49  76 111 153 201 263 321 395 463
#     4  12  26  46  78 105 158 197 257 316 391 455
#     4  12  25  47  72 108 156 198 261 319 380 455
#     4  12  26  45  75 112 150 198 253 312 379 457
#
# _framework density 23.859497000000001
#
# number of rings (size 3 to 8) (size 9 to 14) (size 15 to 20)
#    0.000    0.333    3.333    5.000    4.667    0.667 
#    0.000    0.000    0.000    0.000    0.000    0.000 
#    0.000    0.000    0.000    0.000    0.000    0.000 
#
# Total GULP energy -66953.705563 kJ/mol
# GULP energy per Si atom -5579.475464 kJ/mol
# Density = 2.380519 g / cm^3
# Si number density = 23.859497 Si / 1000 Ang^3
#
#
#
# Elastic Constant Matrix: (Units=GPa)
#
#
# Indices 1 2 3 4 5 6 
#
# 1 121.5906 48.1617 37.1408 15.1366 3.5101 4.0140
# 2 48.1617 181.2949 48.3806 -21.2739 -13.0067 17.3973
# 3 37.1408 48.3806 91.2118 14.7203 -1.4291 18.8936
# 4 15.1366 -21.2739 14.7203 45.2708 16.6076 0.8472
# 5 3.5101 -13.0067 -1.4291 16.6076 34.0390 -0.7619
# 6 4.0140 17.3973 18.8936 0.8472 -0.7619 75.8335
#
#
#
# Elastic Compliance Matrix: (Units=1/GPa)
#
#
# Indices 1 2 3 4 5 6 
#
# 1 0.010488 -0.002706 -0.002350 -0.003923 -0.000285 0.000692
# 2 -0.002706 0.008083 -0.003970 0.005896 0.000307 -0.000785
# 3 -0.002350 -0.003970 0.015814 -0.007214 0.002846 -0.002796
# 4 -0.003923 0.005896 -0.007214 0.033678 -0.014074 0.000135
# 5 -0.000285 0.000307 0.002846 -0.014074 0.036505 -0.000240
# 6 0.000692 -0.000785 -0.002796 0.000135 -0.000240 0.014023
#
#
# Mechanical properties :
#
#
# Convention : Reuss Voigt Hill
#
# Bulk Modulus (GPa) = 61.22492 73.49596 67.36044
# Shear Modulus (GPa) = 35.18962 48.38962 41.78962
#
# Velocity S-wave (km/s) = 3.84457 4.50834 4.18962
# Velocity P-wave (km/s) = 6.73973 7.61385 7.19008
#
# Compressibility (1/GPa) = 0.01633322
#
# Stress axis : x y z
#
# Youngs Moduli (GPa) = 95.34964 123.70974 63.23524
#
# Poissons Ratio (x) = 0.33478 0.14859
# Poissons Ratio (y) = 0.25803 0.25104
# Poissons Ratio (z) = 0.22406 0.49112
#
# Static dielectric constant tensor:
#      x y z
#    x 1.703880 0.005770 -0.288100 
#    y 0.005770 1.951940 0.108630 
#    z -0.288100 0.108630 1.979710 
# 
# From -- ./inp_files/77623.got.cif
#   From: 2010.05.17/outbox.cif.g08.bks.cpg/sg2_39_cif.got.tgz:77623.got - 2010.06.03 11:33:40.
