data_PCOD9067130
_publ_section_title
;
Structure prediction by ZEFSAII (Michael W. Deem and Ramdas Pophale) SiO2 
 PCOD9067130
Probable space group: P -1
;
_chemical_formula_sum "Si O2"
_cell_formula_units_Z 14
_cell_length_a 9.874179
_cell_length_b 8.082179
_cell_length_c 10.493940
_cell_angle_alpha 44.782557
_cell_angle_beta 95.453327
_cell_angle_gamma 104.152609
_cell_volume 568.230475
_symmetry_space_group_name_H-M "P -1"
_symmetry_group_IT_number 2
_symmetry_cell_setting 'triclinic'
loop_
_space_group_symop_operation_xyz
x,y,z
-x,-y,-z
loop_
_atom_site_type_symbol
_atom_site_label
_atom_site_fract_x
_atom_site_fract_y
_atom_site_fract_z
Si Si1 0.435442 0.029139 0.114435
Si Si2 0.841279 0.580290 0.374372
Si Si3 0.357475 0.870353 0.709619
Si Si4 0.130536 0.889983 0.253212
Si Si5 0.253521 0.317918 0.411293
Si Si6 0.555353 0.495235 0.249536
Si Si7 0.143629 0.422360 0.073699
O O1 0.529615 0.971596 0.267909
O O2 0.271591 0.903019 0.178747
O O3 0.449701 0.316924 0.965769
O O4 0.500000 0.000000 0.000000
O O5 0.860297 0.306732 0.528064
O O6 0.818050 0.646271 0.482598
O O7 0.702073 0.592898 0.281255
O O8 0.983588 0.766494 0.238831
O O9 0.439119 0.758371 0.672048
O O10 0.262117 0.039068 0.556985
O O11 0.260827 0.638711 0.900831
O O12 0.135044 0.158578 0.155206
O O13 0.417164 0.467463 0.337357
O O14 0.179799 0.395611 0.239457
O O15 0.000000 0.500000 0.000000
#
# Coordination Sequence:
#
# PCOD9067130 Si02
#       7
#     2   2   2   2   2   2   2
#     4  12  24  44  75 111 147 194 251 310 370 444
#     4  11  26  46  72 109 149 201 247 302 379 440
#     4  12  25  47  74 111 147 192 250 306 379 438
#     4  11  25  48  69 104 153 192 249 304 369 442
#     4  12  25  47  77 107 152 190 253 312 365 447
#     4  12  23  45  75 107 150 196 246 309 371 441
#     4  12  27  48  76 109 150 199 248 306 376 444
#
# _framework density 24.637891
#
# number of rings (size 3 to 8) (size 9 to 14) (size 15 to 20)
#    0.000    0.286    2.857    6.429    0.000    5.143 
#    0.000    0.000    0.000    0.000    0.000    0.000 
#    0.000    0.000    0.000    0.000    0.000    0.000 
#
# Total GULP energy -78498.560042 kJ/mol
# GULP energy per Si atom -5607.040003 kJ/mol
# Density = 2.458181 g / cm^3
# Si number density = 24.637891 Si / 1000 Ang^3
#
#
#
# Elastic Constant Matrix: (Units=GPa)
#
#
# Indices 1 2 3 4 5 6 
#
# 1 203.0338 66.2930 45.5541 14.4845 -1.5987 16.7238
# 2 66.2930 83.5095 21.2339 -4.6138 -2.5636 5.8267
# 3 45.5541 21.2339 120.8690 -15.7986 11.5530 14.1619
# 4 14.4845 -4.6138 -15.7986 35.7451 2.4234 7.7082
# 5 -1.5987 -2.5636 11.5530 2.4234 49.2862 -1.0793
# 6 16.7238 5.8267 14.1619 7.7082 -1.0793 35.0860
#
#
#
# Elastic Compliance Matrix: (Units=1/GPa)
#
#
# Indices 1 2 3 4 5 6 
#
# 1 0.007785 -0.005732 -0.002580 -0.004958 0.000790 -0.000604
# 2 -0.005732 0.016900 -0.000127 0.004637 0.000472 -0.001027
# 3 -0.002580 -0.000127 0.011084 0.007199 -0.003150 -0.004902
# 4 -0.004958 0.004637 0.007199 0.036022 -0.003583 -0.009336
# 5 0.000790 0.000472 -0.003150 -0.003583 0.021304 0.002259
# 6 -0.000604 -0.001027 -0.004902 -0.009336 0.002259 0.033059
#
#
# Mechanical properties :
#
#
# Convention : Reuss Voigt Hill
#
# Bulk Modulus (GPa) = 52.93499 74.84159 63.88829
# Shear Modulus (GPa) = 33.48309 42.31222 37.89765
#
# Velocity S-wave (km/s) = 3.69047 4.14860 3.92623
# Velocity P-wave (km/s) = 6.30010 7.30688 6.82209
#
# Compressibility (1/GPa) = 0.01889110
#
# Stress axis : x y z
#
# Youngs Moduli (GPa) = 128.44582 59.17307 90.21615
#
# Poissons Ratio (x) = 0.33917 0.23276
# Poissons Ratio (y) = 0.73623 0.01148
# Poissons Ratio (z) = 0.33140 0.00753
#
# Static dielectric constant tensor:
#      x y z
#    x 1.941490 0.008870 -0.007660 
#    y 0.008870 1.950230 -0.057370 
#    z -0.007660 -0.057370 1.985340 
# 
# From -- ./inp_files/380883.got.cif
#   From: 2010.05.17/outbox.cif.g08.bks.cpg/sg2_191_cif.got.tgz:380883.got - 2010.06.03 11:33:40.
