data_PCOD9067885
_publ_section_title
;
Structure prediction by ZEFSAII (Michael W. Deem and Ramdas Pophale) SiO2 
 PCOD9067885
Probable space group: P -1
;
_chemical_formula_sum "Si O2"
_cell_formula_units_Z 13
_cell_length_a 10.252426
_cell_length_b 21.761734
_cell_length_c 11.799292
_cell_angle_alpha 146.969062
_cell_angle_beta 125.448883
_cell_angle_gamma 30.159660
_cell_volume 611.755166
_symmetry_space_group_name_H-M "P -1"
_symmetry_group_IT_number 2
_symmetry_cell_setting 'triclinic'
loop_
_space_group_symop_operation_xyz
x,y,z
-x,-y,-z
loop_
_atom_site_type_symbol
_atom_site_label
_atom_site_fract_x
_atom_site_fract_y
_atom_site_fract_z
Si Si1 0.759980 0.044010 0.442842
Si Si2 0.791776 0.429502 0.656223
Si Si3 0.815749 0.836837 0.343792
Si Si4 0.109887 0.831902 0.874266
Si Si5 0.164069 0.149580 0.040697
Si Si6 0.047241 0.498039 0.780293
Si Si7 0.000000 0.500000 0.500000
O O1 0.412160 0.292753 0.632384
O O2 0.776076 0.971753 0.458856
O O3 0.000000 0.000000 0.500000
O O4 0.840234 0.909109 0.173357
O O5 0.432218 0.671239 0.845657
O O6 0.845037 0.298919 0.391078
O O7 0.916621 0.317317 0.667128
O O8 0.980598 0.424527 0.702739
O O9 0.500000 0.000000 0.500000
O O10 0.898687 0.687837 0.068350
O O11 0.898831 0.908310 0.985924
O O12 0.000000 0.000000 0.000000
O O13 0.953426 0.386567 0.311050
O O14 0.500000 0.000000 0.000000
O O15 0.915636 0.565268 0.692185
#
# Coordination Sequence:
#
# PCOD9067885 Si02
#       7
#     2   2   2   2   2   2   1
#     4  12  29  46  72 115 152 194 247 314 384 445
#     4  11  26  46  71 108 142 190 255 296 379 438
#     4  12  28  47  78 102 147 202 247 307 374 456
#     4  11  28  44  75 109 146 189 246 316 367 443
#     4  12  26  48  75 107 150 199 255 301 381 452
#     4  12  26  48  74 108 144 199 251 308 378 451
#     4  12  24  46  78 104 148 196 258 304 364 456
#
# _framework density 21.250330999999999
#
# number of rings (size 3 to 8) (size 9 to 14) (size 15 to 20)
#    0.000    0.308    6.154    0.462    8.615    1.846 
#    0.000    0.000    0.000    0.000    0.000    0.000 
#    0.000    0.000    0.000    0.000    0.000    0.000 
#
# Total GULP energy -72494.501647 kJ/mol
# GULP energy per Si atom -5576.500127 kJ/mol
# Density = 2.120196 g / cm^3
# Si number density = 21.250331 Si / 1000 Ang^3
#
#
#
# Elastic Constant Matrix: (Units=GPa)
#
#
# Indices 1 2 3 4 5 6 
#
# 1 156.2364 41.3988 21.4070 6.3781 -1.6274 1.8966
# 2 41.3988 105.1742 31.5343 -5.3006 -16.3019 -2.8361
# 3 21.4070 31.5343 87.0629 -7.4830 -11.9933 -10.3682
# 4 6.3781 -5.3006 -7.4830 33.1937 9.3143 -0.5796
# 5 -1.6274 -16.3019 -11.9933 9.3143 33.9596 -8.1265
# 6 1.8966 -2.8361 -10.3682 -0.5796 -8.1265 50.3309
#
#
#
# Elastic Compliance Matrix: (Units=1/GPa)
#
#
# Indices 1 2 3 4 5 6 
#
# 1 0.007394 -0.002842 -0.001211 -0.001841 -0.001147 -0.000895
# 2 -0.002842 0.012307 -0.002932 0.000512 0.004831 0.000982
# 3 -0.001211 -0.002932 0.013927 0.001915 0.003735 0.003374
# 4 -0.001841 0.000512 0.001915 0.033350 -0.008429 -0.000484
# 5 -0.001147 0.004831 0.003735 -0.008429 0.037008 0.006963
# 6 -0.000895 0.000982 0.003374 -0.000484 0.006963 0.021771
#
#
# Mechanical properties :
#
#
# Convention : Reuss Voigt Hill
#
# Bulk Modulus (GPa) = 50.87445 59.68375 55.27910
# Shear Modulus (GPa) = 34.18092 40.43906 37.30999
#
# Velocity S-wave (km/s) = 4.01495 4.36705 4.19470
# Velocity P-wave (km/s) = 6.74430 7.31951 7.03778
#
# Compressibility (1/GPa) = 0.01965623
#
# Stress axis : x y z
#
# Youngs Moduli (GPa) = 135.25165 81.25552 71.80342
#
# Poissons Ratio (x) = 0.23091 0.08699
# Poissons Ratio (y) = 0.38435 0.21056
# Poissons Ratio (z) = 0.16385 0.23827
#
# Static dielectric constant tensor:
#      x y z
#    x 1.758310 0.028180 0.032060 
#    y 0.028180 2.020970 0.255240 
#    z 0.032060 0.255240 1.956200 
# 
# From -- ./inp_files/72495.got.cif
#   From: 2010.05.17/outbox.cif.g08.bks.cpg/sg2_37_cif.got.tgz:72495.got - 2010.06.03 11:33:40.
