data_PCOD9067618
_publ_section_title
;
Structure prediction by ZEFSAII (Michael W. Deem and Ramdas Pophale) SiO2 
 PCOD9067618
Probable space group: P -1
;
_chemical_formula_sum "Si O2"
_cell_formula_units_Z 15
_cell_length_a 9.127369
_cell_length_b 17.857935
_cell_length_c 21.659899
_cell_angle_alpha 161.230446
_cell_angle_beta 37.156082
_cell_angle_gamma 134.404185
_cell_volume 658.176290
_symmetry_space_group_name_H-M "P -1"
_symmetry_group_IT_number 2
_symmetry_cell_setting 'triclinic'
loop_
_space_group_symop_operation_xyz
x,y,z
-x,-y,-z
loop_
_atom_site_type_symbol
_atom_site_label
_atom_site_fract_x
_atom_site_fract_y
_atom_site_fract_z
Si Si1 0.742123 0.818584 0.949272
Si Si2 0.819069 0.768093 0.262095
Si Si3 0.555151 0.763511 0.839666
Si Si4 0.324767 0.650825 0.622810
Si Si5 0.789799 0.467300 0.857349
Si Si6 0.299111 0.638118 0.333014
Si Si7 0.000000 0.000000 0.500000
Si Si8 0.011957 0.114595 0.836288
O O1 0.737327 0.779347 0.846901
O O2 0.616156 0.632863 0.879515
O O3 0.033094 0.744534 0.815690
O O4 0.608521 0.102487 0.225790
O O5 0.539126 0.741636 0.328276
O O6 0.850794 0.929048 0.434903
O O7 0.908093 0.864219 0.244442
O O8 0.000000 0.500000 0.000000
O O9 0.651451 0.526716 0.581261
O O10 0.284224 0.776460 0.970178
O O11 0.500000 0.000000 0.000000
O O12 0.500000 0.500000 0.500000
O O13 0.815922 0.385722 0.713862
O O14 0.961689 0.273516 0.695307
O O15 0.500000 0.500000 0.000000
O O16 0.850451 0.724803 0.044740
O O17 0.102929 0.823995 0.589143
#
# Coordination Sequence:
#
# PCOD9067618 Si02
#       8
#     2   2   2   2   2   2   1   2
#     4  11  27  47  79 113 144 199 246 313 387 444
#     4  12  23  46  70 106 148 196 251 306 364 449
#     4  12  26  48  77 107 149 197 252 310 380 451
#     4  11  25  51  79 108 150 189 254 317 373 451
#     4  12  25  45  69 105 144 198 248 304 368 440
#     4  12  26  46  72 108 157 191 251 312 376 454
#     4  12  24  42  76  98 142 196 246 298 366 426
#     4  12  26  43  74 106 150 198 250 309 379 441
#
# _framework density 22.790244999999999
#
# number of rings (size 3 to 8) (size 9 to 14) (size 15 to 20)
#    0.000    0.267    5.333    3.200    1.867    1.067 
#    4.800    0.000    0.000    0.000    0.000    0.000 
#    0.000    0.000    0.000    0.000    0.000    0.000 
#
# Total GULP energy -83747.620878 kJ/mol
# GULP energy per Si atom -5583.174725 kJ/mol
# Density = 2.273837 g / cm^3
# Si number density = 22.790245 Si / 1000 Ang^3
#
#
#
# Elastic Constant Matrix: (Units=GPa)
#
#
# Indices 1 2 3 4 5 6 
#
# 1 127.3219 24.2907 32.2495 10.9969 17.1729 -1.6111
# 2 24.2907 82.9455 23.3593 20.7771 -0.7736 -1.3213
# 3 32.2495 23.3593 127.6597 32.4370 14.4236 3.3299
# 4 10.9969 20.7771 32.4370 39.5465 9.9887 -6.8732
# 5 17.1729 -0.7736 14.4236 9.9887 49.8135 7.3126
# 6 -1.6111 -1.3213 3.3299 -6.8732 7.3126 31.4013
#
#
#
# Elastic Compliance Matrix: (Units=1/GPa)
#
#
# Indices 1 2 3 4 5 6 
#
# 1 0.009135 -0.002497 -0.001892 0.001400 -0.003157 0.001606
# 2 -0.002497 0.014875 -0.000376 -0.007920 0.003069 -0.001911
# 3 -0.001892 -0.000376 0.010640 -0.008455 -0.000295 -0.003023
# 4 0.001400 -0.007920 -0.008455 0.039909 -0.007802 0.011187
# 5 -0.003157 0.003069 -0.000295 -0.007802 0.023930 -0.007282
# 6 0.001606 -0.001911 -0.003023 0.011187 -0.007282 0.036313
#
#
# Mechanical properties :
#
#
# Convention : Reuss Voigt Hill
#
# Bulk Modulus (GPa) = 39.80538 55.30291 47.55414
# Shear Modulus (GPa) = 32.74310 41.35411 37.04860
#
# Velocity S-wave (km/s) = 3.79451 4.26438 4.03629
# Velocity P-wave (km/s) = 6.05819 6.96888 6.52943
#
# Compressibility (1/GPa) = 0.02512223
#
# Stress axis : x y z
#
# Youngs Moduli (GPa) = 109.47174 67.22602 93.98071
#
# Poissons Ratio (x) = 0.16785 0.17777
# Poissons Ratio (y) = 0.27333 0.03530
# Poissons Ratio (z) = 0.20708 0.02525
#
# Static dielectric constant tensor:
#      x y z
#    x 1.768320 -0.055030 0.009310 
#    y -0.055030 1.810910 0.079500 
#    z 0.009310 0.079500 1.872860 
# 
# From -- ./inp_files/591025.got.cif
#   From: 2010.05.17/outbox.cif.g08.bks.cpg/sg2_296_cif.got.tgz:591025.got - 2010.06.03 11:33:40.
