data_PCOD9067529
_publ_section_title
;
Structure prediction by ZEFSAII (Michael W. Deem and Ramdas Pophale) SiO2 
 PCOD9067529
Probable space group: P -1
;
_chemical_formula_sum "Si O2"
_cell_formula_units_Z 14
_cell_length_a 26.792798
_cell_length_b 21.578597
_cell_length_c 4.890620
_cell_angle_alpha 82.311727
_cell_angle_beta 99.149037
_cell_angle_gamma 168.700400
_cell_volume 543.380043
_symmetry_space_group_name_H-M "P -1"
_symmetry_group_IT_number 2
_symmetry_cell_setting 'triclinic'
loop_
_space_group_symop_operation_xyz
x,y,z
-x,-y,-z
loop_
_atom_site_type_symbol
_atom_site_label
_atom_site_fract_x
_atom_site_fract_y
_atom_site_fract_z
Si Si1 0.239877 0.662352 0.610192
Si Si2 0.000095 0.752091 0.282150
Si Si3 0.081898 0.262325 0.299820
Si Si4 0.296524 0.373916 0.102985
Si Si5 0.346829 0.358177 0.661166
Si Si6 0.037246 0.619402 0.960982
Si Si7 0.542901 0.785705 0.778738
O O1 0.226795 0.571805 0.660465
O O2 0.016371 0.417918 0.362427
O O3 0.500000 0.000000 0.500000
O O4 0.178529 0.614284 0.883938
O O5 0.921149 0.704659 0.006620
O O6 0.063694 0.867645 0.539320
O O7 0.231801 0.987796 0.258446
O O8 0.353351 0.579166 0.497971
O O9 0.915426 0.997506 0.303751
O O10 0.692873 0.025252 0.908033
O O11 0.443451 0.501997 0.952214
O O12 0.381152 0.545397 0.986696
O O13 0.322826 0.390503 0.433365
O O14 0.000000 0.000000 0.000000
O O15 0.500000 0.500000 0.500000
O O16 0.000000 0.500000 0.000000
#
# Coordination Sequence:
#
# PCOD9067529 Si02
#       7
#     2   2   2   2   2   2   2
#     4  11  25  50  76 107 150 190 240 314 386 439
#     4  11  26  48  71 111 146 195 252 303 370 455
#     4  12  26  45  77 107 147 202 251 303 374 437
#     4  12  25  45  70 104 148 193 244 306 366 437
#     4  12  25  45  71 106 146 192 256 304 365 439
#     4  11  26  49  76 112 144 193 250 306 376 451
#     4  11  27  49  77 105 157 196 251 307 380 442
#
# _framework density 25.764655999999999
#
# number of rings (size 3 to 8) (size 9 to 14) (size 15 to 20)
#    0.000    0.571    1.429    6.000    2.000    5.714 
#    0.000    0.000    0.000    0.000    0.000    0.000 
#    0.000    0.000    0.000    0.000    0.000    0.000 
#
# Total GULP energy -78565.471107 kJ/mol
# GULP energy per Si atom -5611.819365 kJ/mol
# Density = 2.570601 g / cm^3
# Si number density = 25.764656 Si / 1000 Ang^3
#
#
#
# Elastic Constant Matrix: (Units=GPa)
#
#
# Indices 1 2 3 4 5 6 
#
# 1 169.7268 46.0459 39.2039 -4.4311 -1.8813 -37.6665
# 2 46.0459 144.0960 10.1476 -8.0667 13.4672 -37.6766
# 3 39.2039 10.1476 143.5034 -11.7279 11.4819 -27.2692
# 4 -4.4311 -8.0667 -11.7279 34.7841 -13.3007 6.0100
# 5 -1.8813 13.4672 11.4819 -13.3007 42.9403 -0.9221
# 6 -37.6665 -37.6766 -27.2692 6.0100 -0.9221 57.5797
#
#
#
# Elastic Compliance Matrix: (Units=1/GPa)
#
#
# Indices 1 2 3 4 5 6 
#
# 1 0.007347 -0.001540 -0.001396 0.000045 0.001260 0.003152
# 2 -0.001540 0.009047 0.001052 0.000180 -0.003016 0.005344
# 3 -0.001396 0.001052 0.008221 0.001446 -0.002067 0.003485
# 4 0.000045 0.000180 0.001446 0.033495 0.009880 -0.002506
# 5 0.001260 -0.003016 -0.002067 0.009880 0.027844 -0.002713
# 6 0.003152 0.005344 0.003485 -0.002506 -0.002713 0.024794
#
#
# Mechanical properties :
#
#
# Convention : Reuss Voigt Hill
#
# Bulk Modulus (GPa) = 47.96886 72.01344 59.99115
# Shear Modulus (GPa) = 41.16402 51.18941 46.17672
#
# Velocity S-wave (km/s) = 4.00145 4.46220 4.23809
# Velocity P-wave (km/s) = 6.32513 7.38644 6.87629
#
# Compressibility (1/GPa) = 0.02084686
#
# Stress axis : x y z
#
# Youngs Moduli (GPa) = 136.11051 110.53350 121.63631
#
# Poissons Ratio (x) = 0.17026 0.16984
# Poissons Ratio (y) = 0.20966 -0.12802
# Poissons Ratio (z) = 0.19005 -0.11634
#
# Static dielectric constant tensor:
#      x y z
#    x 2.064540 0.080640 -0.045180 
#    y 0.080640 2.125940 -0.007920 
#    z -0.045180 -0.007920 1.975130 
# 
# From -- ./inp_files/119582.got.cif
#   From: 2010.05.17/outbox.cif.g08.bks.cpg/sg2_60_cif.got.tgz:119582.got - 2010.06.03 11:33:40.
