data_PCOD9067154
_publ_section_title
;
Structure prediction by ZEFSAII (Michael W. Deem and Ramdas Pophale) SiO2 
 PCOD9067154
Probable space group: P -1
;
_chemical_formula_sum "Si O2"
_cell_formula_units_Z 12
_cell_length_a 9.047094
_cell_length_b 14.402239
_cell_length_c 17.481525
_cell_angle_alpha 157.755845
_cell_angle_beta 42.584444
_cell_angle_gamma 139.810120
_cell_volume 552.451239
_symmetry_space_group_name_H-M "P -1"
_symmetry_group_IT_number 2
_symmetry_cell_setting 'triclinic'
loop_
_space_group_symop_operation_xyz
x,y,z
-x,-y,-z
loop_
_atom_site_type_symbol
_atom_site_label
_atom_site_fract_x
_atom_site_fract_y
_atom_site_fract_z
Si Si1 0.715394 0.650984 0.329335
Si Si2 0.053085 0.006255 0.364032
Si Si3 0.121573 0.140147 0.981398
Si Si4 0.764034 0.124103 0.966817
Si Si5 0.232304 0.704860 0.539680
Si Si6 0.726559 0.253938 0.611218
O O1 0.445896 0.596565 0.373795
O O2 0.868164 0.743012 0.265206
O O3 0.775233 0.877952 0.543406
O O4 0.775356 0.413270 0.160992
O O5 0.170192 0.986929 0.223419
O O6 0.897210 0.195058 0.561316
O O7 0.733678 0.552466 0.839679
O O8 0.000000 0.500000 0.500000
O O9 0.283533 0.971157 0.768584
O O10 0.000000 0.000000 0.000000
O O11 0.929800 0.110122 0.964277
O O12 0.500000 0.000000 0.000000
O O13 0.168448 0.760548 0.521925
O O14 0.500000 0.000000 0.500000
#
# Coordination Sequence:
#
# PCOD9067154 Si02
#       6
#     2   2   2   2   2   2
#     4  11  26  47  71 104 146 188 235 296 366 429
#     4  11  25  48  71 103 146 188 237 299 361 432
#     4  12  27  46  72 107 145 190 244 296 368 432
#     4  12  27  44  74 107 141 190 240 297 364 434
#     4  12  25  45  74 104 144 190 242 299 357 431
#     4  12  25  47  71 104 145 190 244 298 357 430
#
# _framework density 21.721374000000001
#
# number of rings (size 3 to 8) (size 9 to 14) (size 15 to 20)
#    0.000    0.333    6.667    1.500    2.333    1.333 
#    6.000    0.000    0.000    0.000    0.000    0.000 
#    0.000    0.000    0.000    0.000    0.000    0.000 
#
# Total GULP energy -66904.321763 kJ/mol
# GULP energy per Si atom -5575.360147 kJ/mol
# Density = 2.167194 g / cm^3
# Si number density = 21.721374 Si / 1000 Ang^3
#
#
#
# Elastic Constant Matrix: (Units=GPa)
#
#
# Indices 1 2 3 4 5 6 
#
# 1 103.0298 37.2715 12.8729 -8.2130 -7.8671 -2.6171
# 2 37.2715 142.1084 36.3263 12.7042 2.6731 -14.3211
# 3 12.8729 36.3263 111.1789 11.4874 -3.8428 -1.4538
# 4 -8.2130 12.7042 11.4874 34.4820 -5.6065 -1.1440
# 5 -7.8671 2.6731 -3.8428 -5.6065 36.6810 2.8545
# 6 -2.6171 -14.3211 -1.4538 -1.1440 2.8545 42.4812
#
#
#
# Elastic Compliance Matrix: (Units=1/GPa)
#
#
# Indices 1 2 3 4 5 6 
#
# 1 0.011665 -0.003457 -0.000605 0.004798 0.003468 -0.000571
# 2 -0.003457 0.009193 -0.002262 -0.003759 -0.002446 0.002872
# 3 -0.000605 -0.002262 0.010087 -0.002569 0.000744 -0.000574
# 4 0.004798 -0.003759 -0.002569 0.033370 0.006179 -0.000576
# 5 0.003468 -0.002446 0.000744 0.006179 0.029393 -0.002394
# 6 -0.000571 0.002872 -0.000574 -0.000576 -0.002394 0.024599
#
#
# Mechanical properties :
#
#
# Convention : Reuss Voigt Hill
#
# Bulk Modulus (GPa) = 54.64878 58.80650 56.72764
# Shear Modulus (GPa) = 36.48233 40.71860 38.60047
#
# Velocity S-wave (km/s) = 4.10269 4.33435 4.22011
# Velocity P-wave (km/s) = 6.90336 7.22362 7.06530
#
# Compressibility (1/GPa) = 0.01829867
#
# Stress axis : x y z
#
# Youngs Moduli (GPa) = 85.72881 108.77584 99.13456
#
# Poissons Ratio (x) = 0.37599 0.05993
# Poissons Ratio (y) = 0.29633 0.22426
# Poissons Ratio (z) = 0.05183 0.24607
#
# Static dielectric constant tensor:
#      x y z
#    x 1.771930 0.018280 0.045130 
#    y 0.018280 1.773850 0.047520 
#    z 0.045130 0.047520 1.787410 
# 
# From -- ./inp_files/560998.got.cif
#   From: 2010.05.17/outbox.cif.g08.bks.cpg/sg2_281_cif.got.tgz:560998.got - 2010.06.03 11:33:40.
