data_PCOD9067229
_publ_section_title
;
Structure prediction by ZEFSAII (Michael W. Deem and Ramdas Pophale) SiO2 
 PCOD9067229
Probable space group: P -1
;
_chemical_formula_sum "Si O2"
_cell_formula_units_Z 9
_cell_length_a 8.913776
_cell_length_b 7.688458
_cell_length_c 9.137512
_cell_angle_alpha 49.181191
_cell_angle_beta 99.645606
_cell_angle_gamma 69.245448
_cell_volume 365.922315
_symmetry_space_group_name_H-M "P -1"
_symmetry_group_IT_number 2
_symmetry_cell_setting 'triclinic'
loop_
_space_group_symop_operation_xyz
x,y,z
-x,-y,-z
loop_
_atom_site_type_symbol
_atom_site_label
_atom_site_fract_x
_atom_site_fract_y
_atom_site_fract_z
Si Si1 0.020187 0.644632 0.725505
Si Si2 0.459523 0.394305 0.898854
Si Si3 0.500000 0.500000 0.500000
Si Si4 0.859820 0.852581 0.292313
Si Si5 0.071163 0.097334 0.110628
O O1 0.246928 0.484065 0.828624
O O2 0.891229 0.885094 0.449486
O O3 0.948150 0.795978 0.785336
O O4 0.998277 0.389924 0.852767
O O5 0.470618 0.508429 0.679130
O O6 0.500000 0.500000 0.000000
O O7 0.632400 0.039240 0.123472
O O8 0.291524 0.819181 0.275537
O O9 0.000000 0.500000 0.500000
O O10 0.936328 0.999660 0.134799
#
# Coordination Sequence:
#
# PCOD9067229 Si02
#       5
#     2   2   1   2   2
#     4  11  25  52  73 107 159 197 252 319 367 463
#     4  12  26  50  79 110 152 204 253 310 386 448
#     4  12  26  44  80 110 152 194 256 314 368 460
#     4  12  26  46  77 109 151 200 250 316 379 445
#     4  11  25  48  74 109 154 198 249 313 380 444
#
# _framework density 24.595385
#
# number of rings (size 3 to 8) (size 9 to 14) (size 15 to 20)
#    0.000    0.444    4.444    3.333    3.111    5.333 
#    0.000    3.333    0.000    0.000    0.000    0.000 
#    0.000    0.000    0.000    0.000    0.000    0.000 
#
# Total GULP energy -50101.958513 kJ/mol
# GULP energy per Si atom -5566.884279 kJ/mol
# Density = 2.453940 g / cm^3
# Si number density = 24.595385 Si / 1000 Ang^3
#
#
#
# Elastic Constant Matrix: (Units=GPa)
#
#
# Indices 1 2 3 4 5 6 
#
# 1 81.6623 45.3500 33.6417 -6.1264 -12.5331 -9.1646
# 2 45.3500 150.9559 39.5410 1.8358 -2.6492 -19.9046
# 3 33.6417 39.5410 161.6986 8.4610 -2.0258 -18.7672
# 4 -6.1264 1.8358 8.4610 71.7642 -13.9539 2.3266
# 5 -12.5331 -2.6492 -2.0258 -13.9539 39.2514 -3.9314
# 6 -9.1646 -19.9046 -18.7672 2.3266 -3.9314 46.0880
#
#
#
# Elastic Compliance Matrix: (Units=1/GPa)
#
#
# Indices 1 2 3 4 5 6 
#
# 1 0.016876 -0.004238 -0.002451 0.003001 0.006133 0.000899
# 2 -0.004238 0.008439 -0.000875 -0.000716 -0.000842 0.002410
# 3 -0.002451 -0.000875 0.007205 -0.001240 -0.000703 0.002071
# 4 0.003001 -0.000716 -0.001240 0.015604 0.006347 -0.000464
# 5 0.006133 -0.000842 -0.000703 0.006347 0.029879 0.002798
# 6 0.000899 0.002410 0.002071 -0.000464 0.002798 0.024023
#
#
# Mechanical properties :
#
#
# Convention : Reuss Voigt Hill
#
# Bulk Modulus (GPa) = 57.49979 70.15358 63.82668
# Shear Modulus (GPa) = 40.66690 49.80631 45.23660
#
# Velocity S-wave (km/s) = 4.07066 4.50491 4.29328
# Velocity P-wave (km/s) = 6.74705 7.45949 7.11220
#
# Compressibility (1/GPa) = 0.01739137
#
# Stress axis : x y z
#
# Youngs Moduli (GPa) = 59.25530 118.50284 138.79924
#
# Poissons Ratio (x) = 0.50225 0.34013
# Poissons Ratio (y) = 0.25114 0.12147
# Poissons Ratio (z) = 0.14521 0.10371
#
# Static dielectric constant tensor:
#      x y z
#    x 1.941740 0.027680 -0.060780 
#    y 0.027680 2.183720 0.152480 
#    z -0.060780 0.152480 1.941560 
# 
# From -- ./inp_files/144059.got.cif
#   From: 2010.05.17/outbox.cif.g08.bks.cpg/sg2_73_cif.got.tgz:144059.got - 2010.06.03 11:33:40.
