data_PCOD9067823
_publ_section_title
;
Structure prediction by ZEFSAII (Michael W. Deem and Ramdas Pophale) SiO2 
 PCOD9067823
Probable space group: P -1
;
_chemical_formula_sum "Si O2"
_cell_formula_units_Z 16
_cell_length_a 20.557220
_cell_length_b 6.922342
_cell_length_c 6.998151
_cell_angle_alpha 138.515052
_cell_angle_beta 63.112753
_cell_angle_gamma 116.446283
_cell_volume 578.719710
_symmetry_space_group_name_H-M "P -1"
_symmetry_group_IT_number 2
_symmetry_cell_setting 'triclinic'
loop_
_space_group_symop_operation_xyz
x,y,z
-x,-y,-z
loop_
_atom_site_type_symbol
_atom_site_label
_atom_site_fract_x
_atom_site_fract_y
_atom_site_fract_z
Si Si1 0.005438 0.166886 0.811446
Si Si2 0.777031 0.538013 0.471163
Si Si3 0.235937 0.438801 0.005080
Si Si4 0.401840 0.404315 0.673291
Si Si5 0.167334 0.042283 0.549010
Si Si6 0.156593 0.034198 0.046031
Si Si7 0.517178 0.152068 0.832425
Si Si8 0.608254 0.318680 0.492041
O O1 0.083966 0.109725 0.740508
O O2 0.000000 0.000000 0.500000
O O3 0.000000 0.500000 0.000000
O O4 0.931813 0.998558 0.890111
O O5 0.771232 0.634289 0.302913
O O6 0.829553 0.299159 0.205580
O O7 0.692955 0.344527 0.454115
O O8 0.784521 0.631652 0.773803
O O9 0.324179 0.444685 0.899748
O O10 0.186568 0.094023 0.809667
O O11 0.199055 0.733771 0.262199
O O12 0.462013 0.677759 0.873536
O O13 0.391677 0.435124 0.485656
O O14 0.431865 0.104739 0.447373
O O15 0.170023 0.110220 0.341127
O O16 0.444164 0.633894 0.228592
O O17 0.434278 0.985825 0.773634
#
# Coordination Sequence:
#
# PCOD9067823 Si02
#       8
#     2   2   2   2   2   2   2   2
#     4  12  23  42  68  96 132 173 224 277 334 408
#     4  12  24  43  71  99 129 179 232 272 343 410
#     4  12  26  43  67 101 138 171 229 281 346 405
#     4  12  25  47  71 101 145 187 232 291 357 415
#     4  12  24  43  67  98 132 176 222 279 334 416
#     4  12  25  44  69 100 133 178 223 288 338 409
#     4  11  27  46  68 109 139 184 240 288 350 430
#     4  11  26  45  75 101 144 186 234 294 354 415
#
# _framework density 27.647235999999999
#
# number of rings (size 3 to 8) (size 9 to 14) (size 15 to 20)
#    0.000    0.250    3.750    5.250    0.000    5.000 
#    0.000    0.000    0.000    0.000    0.000    0.000 
#    0.000    0.000    0.000    0.000    0.000    0.000 
#
# Total GULP energy -89405.590370 kJ/mol
# GULP energy per Si atom -5587.849398 kJ/mol
# Density = 2.758431 g / cm^3
# Si number density = 27.647236 Si / 1000 Ang^3
#
#
#
# Elastic Constant Matrix: (Units=GPa)
#
#
# Indices 1 2 3 4 5 6 
#
# 1 151.7759 40.3173 58.5658 10.9705 5.1408 25.7637
# 2 40.3173 196.3296 28.8607 -8.5607 -24.8188 6.4326
# 3 58.5658 28.8607 205.6106 -5.2732 1.6088 15.6796
# 4 10.9705 -8.5607 -5.2732 48.4456 -8.5515 2.2232
# 5 5.1408 -24.8188 1.6088 -8.5515 49.2186 -11.8525
# 6 25.7637 6.4326 15.6796 2.2232 -11.8525 72.5628
#
#
#
# Elastic Compliance Matrix: (Units=1/GPa)
#
#
# Indices 1 2 3 4 5 6 
#
# 1 0.008678 -0.001894 -0.002038 -0.002918 -0.002994 -0.002872
# 2 -0.001894 0.006084 -0.000349 0.002107 0.003829 0.000769
# 3 -0.002038 -0.000349 0.005557 0.001012 -0.000087 -0.000491
# 4 -0.002918 0.002107 0.001012 0.022714 0.005480 0.000830
# 5 -0.002994 0.003829 -0.000087 0.005480 0.024623 0.004596
# 6 -0.002872 0.000769 -0.000491 0.000830 0.004596 0.015564
#
#
# Mechanical properties :
#
#
# Convention : Reuss Voigt Hill
#
# Bulk Modulus (GPa) = 85.05766 89.91154 87.48460
# Shear Modulus (GPa) = 52.24465 62.44355 57.34410
#
# Velocity S-wave (km/s) = 4.35177 4.75761 4.55921
# Velocity P-wave (km/s) = 7.48884 7.92284 7.70889
#
# Compressibility (1/GPa) = 0.01175673
#
# Stress axis : x y z
#
# Youngs Moduli (GPa) = 115.22981 164.35480 179.94342
#
# Poissons Ratio (x) = 0.31130 0.36680
# Poissons Ratio (y) = 0.21825 0.06283
# Poissons Ratio (z) = 0.23489 0.05738
#
# Static dielectric constant tensor:
#      x y z
#    x 2.359820 -0.326620 0.226960 
#    y -0.326620 2.545860 -0.328930 
#    z 0.226960 -0.328930 2.225370 
# 
# From -- ./inp_files/471103.got.cif
#   From: 2010.05.17/outbox.cif.g08.bks.cpg/sg2_236_cif.got.tgz:471103.got - 2010.06.03 11:33:40.
