data_PCOD9067944
_publ_section_title
;
Structure prediction by ZEFSAII (Michael W. Deem and Ramdas Pophale) SiO2 
 PCOD9067944
Probable space group: P -1
;
_chemical_formula_sum "Si O2"
_cell_formula_units_Z 10
_cell_length_a 15.142261
_cell_length_b 12.611587
_cell_length_c 7.578133
_cell_angle_alpha 66.783206
_cell_angle_beta 45.769520
_cell_angle_gamma 27.814791
_cell_volume 360.853618
_symmetry_space_group_name_H-M "P -1"
_symmetry_group_IT_number 2
_symmetry_cell_setting 'triclinic'
loop_
_space_group_symop_operation_xyz
x,y,z
-x,-y,-z
loop_
_atom_site_type_symbol
_atom_site_label
_atom_site_fract_x
_atom_site_fract_y
_atom_site_fract_z
Si Si1 0.516250 0.337312 0.271505
Si Si2 0.028643 0.849639 0.316180
Si Si3 0.555624 0.054856 0.249645
Si Si4 0.155402 0.334885 0.180109
Si Si5 0.697343 0.527426 0.130737
O O1 0.246071 0.615381 0.327108
O O2 0.381320 0.459705 0.578375
O O3 0.823436 0.155496 0.939126
O O4 0.615438 0.122293 0.218905
O O5 0.651572 0.176006 0.677690
O O6 0.062202 0.741463 0.165664
O O7 0.500000 0.000000 0.500000
O O8 0.842413 0.757519 0.924967
O O9 0.204001 0.371742 0.431431
O O10 0.196122 0.433420 0.010982
O O11 0.500000 0.000000 0.000000
#
# Coordination Sequence:
#
# PCOD9067944 Si02
#       5
#     2   2   2   2   2
#     4  11  26  46  74  98 146 180 234 287 349 410
#     4  11  27  46  69 108 133 186 234 288 341 419
#     4  12  25  44  68 102 136 181 229 280 353 412
#     4  12  25  44  70 101 139 181 232 288 343 418
#     4  12  25  46  72 101 142 179 235 284 354 407
#
# _framework density 27.712071000000002
#
# number of rings (size 3 to 8) (size 9 to 14) (size 15 to 20)
#    0.000    0.400    2.000    6.000    0.000    6.400 
#    0.000    0.000    0.000    0.000    0.000    0.000 
#    0.000    0.000    0.000    0.000    0.000    0.000 
#
# Total GULP energy -56208.389006 kJ/mol
# GULP energy per Si atom -5620.838901 kJ/mol
# Density = 2.764900 g / cm^3
# Si number density = 27.712071 Si / 1000 Ang^3
#
#
#
# Elastic Constant Matrix: (Units=GPa)
#
#
# Indices 1 2 3 4 5 6 
#
# 1 98.9141 50.4858 11.7163 2.6086 -14.9101 -4.9499
# 2 50.4858 105.6009 20.1095 -7.9885 -4.4055 11.4520
# 3 11.7163 20.1095 125.2185 17.4150 -2.8913 8.4696
# 4 2.6086 -7.9885 17.4150 49.0425 5.9500 -12.4057
# 5 -14.9101 -4.4055 -2.8913 5.9500 61.5155 3.5235
# 6 -4.9499 11.4520 8.4696 -12.4057 3.5235 44.1738
#
#
#
# Elastic Compliance Matrix: (Units=1/GPa)
#
#
# Indices 1 2 3 4 5 6 
#
# 1 0.014409 -0.007168 -0.000105 -0.001542 0.002962 0.002824
# 2 -0.007168 0.013722 -0.001679 0.002494 -0.000888 -0.003267
# 3 -0.000105 -0.001679 0.009047 -0.004231 0.000836 -0.002566
# 4 -0.001542 0.002494 -0.004231 0.024575 -0.003180 0.007147
# 5 0.002962 -0.000888 0.000836 -0.003180 0.017365 -0.001876
# 6 0.002824 -0.003267 -0.002566 0.007147 -0.001876 0.026450
#
#
# Mechanical properties :
#
#
# Convention : Reuss Voigt Hill
#
# Bulk Modulus (GPa) = 51.88622 54.92851 53.40737
# Shear Modulus (GPa) = 38.49177 47.44115 42.96646
#
# Velocity S-wave (km/s) = 3.73096 4.14204 3.94186
# Velocity P-wave (km/s) = 6.10934 6.53754 6.32707
#
# Compressibility (1/GPa) = 0.01927294
#
# Stress axis : x y z
#
# Youngs Moduli (GPa) = 69.40003 72.87408 110.53553
#
# Poissons Ratio (x) = 0.52236 0.01164
# Poissons Ratio (y) = 0.49746 0.18563
# Poissons Ratio (z) = 0.00731 0.12238
#
# Static dielectric constant tensor:
#      x y z
#    x 2.212590 -0.142380 -0.005970 
#    y -0.142380 2.212040 0.014220 
#    z -0.005970 0.014220 2.046740 
# 
# From -- ./inp_files/306894.got.cif
#   From: 2010.05.17/outbox.cif.g08.bks.cpg/sg2_154_cif.got.tgz:306894.got - 2010.06.03 11:33:40.
