data_PCOD9067045
_publ_section_title
;
Structure prediction by ZEFSAII (Michael W. Deem and Ramdas Pophale) SiO2 
 PCOD9067045
Probable space group: P -1
;
_chemical_formula_sum "Si O2"
_cell_formula_units_Z 13
_cell_length_a 5.396149
_cell_length_b 9.393901
_cell_length_c 18.332327
_cell_angle_alpha 37.855047
_cell_angle_beta 92.837977
_cell_angle_gamma 77.425285
_cell_volume 517.163314
_symmetry_space_group_name_H-M "P -1"
_symmetry_group_IT_number 2
_symmetry_cell_setting 'triclinic'
loop_
_space_group_symop_operation_xyz
x,y,z
-x,-y,-z
loop_
_atom_site_type_symbol
_atom_site_label
_atom_site_fract_x
_atom_site_fract_y
_atom_site_fract_z
Si Si1 0.500630 0.254934 0.061413
Si Si2 0.500000 0.500000 0.500000
Si Si3 0.783411 0.159466 0.371047
Si Si4 0.013222 0.472837 0.868100
Si Si5 0.858641 0.853917 0.136485
Si Si6 0.469549 0.590097 0.293959
Si Si7 0.497208 0.967331 0.703742
O O1 0.610666 0.047235 0.211217
O O2 0.686998 0.148177 0.036085
O O3 0.500000 0.500000 0.000000
O O4 0.195190 0.335747 0.995901
O O5 0.559331 0.511804 0.408951
O O6 0.400125 0.812868 0.379410
O O7 0.872623 0.342245 0.248035
O O8 0.528520 0.349551 0.338568
O O9 0.715728 0.979451 0.386962
O O10 0.000000 0.000000 0.500000
O O11 0.058749 0.246217 0.903545
O O12 0.721926 0.683088 0.804238
O O13 0.649120 0.731844 0.207731
O O14 0.144871 0.752395 0.223638
#
# Coordination Sequence:
#
# PCOD9067045 Si02
#       7
#     2   1   2   2   2   2   2
#     4  12  26  48  78 115 154 204 262 329 395 473
#     4  12  28  44  76 110 162 206 256 328 400 458
#     4  11  25  47  76 111 151 206 265 319 390 471
#     4  11  25  48  77 110 153 205 259 323 395 467
#     4  11  26  50  76 114 157 204 263 323 398 472
#     4  11  26  48  75 113 154 208 260 325 392 468
#     4  12  26  50  75 116 154 206 264 325 400 472
#
# _framework density 25.137131
#
# number of rings (size 3 to 8) (size 9 to 14) (size 15 to 20)
#    0.000    0.615    4.615    1.846    6.462    4.308 
#    0.000    3.077    0.000    0.000    0.000    0.000 
#    0.000    0.000    0.000    0.000    0.000    0.000 
#
# Total GULP energy -72525.073864 kJ/mol
# GULP energy per Si atom -5578.851836 kJ/mol
# Density = 2.507992 g / cm^3
# Si number density = 25.137131 Si / 1000 Ang^3
#
#
#
# Elastic Constant Matrix: (Units=GPa)
#
#
# Indices 1 2 3 4 5 6 
#
# 1 76.3157 25.9787 26.2413 1.8288 13.2801 -7.9128
# 2 25.9787 178.8214 38.6611 -3.8613 -6.0870 8.9357
# 3 26.2413 38.6611 80.2694 0.4920 4.5384 13.3119
# 4 1.8288 -3.8613 0.4920 54.5932 0.7954 2.2997
# 5 13.2801 -6.0870 4.5384 0.7954 28.9286 -2.8078
# 6 -7.9128 8.9357 13.3119 2.2997 -2.8078 25.9971
#
#
#
# Elastic Compliance Matrix: (Units=1/GPa)
#
#
# Indices 1 2 3 4 5 6 
#
# 1 0.017918 -0.002005 -0.005909 -0.000947 -0.006868 0.008511
# 2 -0.002005 0.006577 -0.002426 0.000577 0.002533 -0.001406
# 3 -0.005909 -0.002426 0.017301 0.000314 -0.001492 -0.010013
# 4 -0.000947 0.000577 0.000314 0.018487 -0.000225 -0.002307
# 5 -0.006868 0.002533 -0.001492 -0.000225 0.038688 0.002002
# 6 0.008511 -0.001406 -0.010013 -0.002307 0.002002 0.047087
#
#
# Mechanical properties :
#
#
# Convention : Reuss Voigt Hill
#
# Bulk Modulus (GPa) = 47.35713 57.46319 52.41016
# Shear Modulus (GPa) = 28.77229 38.20546 33.48888
#
# Velocity S-wave (km/s) = 3.38688 3.90280 3.65396
# Velocity P-wave (km/s) = 5.84594 6.57408 6.22068
#
# Compressibility (1/GPa) = 0.02111615
#
# Stress axis : x y z
#
# Youngs Moduli (GPa) = 55.80878 152.04905 57.79941
#
# Poissons Ratio (x) = 0.30487 0.34156
# Poissons Ratio (y) = 0.11190 0.14020
# Poissons Ratio (z) = 0.32979 0.36882
#
# Static dielectric constant tensor:
#      x y z
#    x 2.035610 0.037860 -0.061810 
#    y 0.037860 1.958860 -0.046270 
#    z -0.061810 -0.046270 2.039180 
# 
# From -- ./inp_files/59700.got.cif
#   From: 2010.05.17/outbox.cif.g08.bks.cpg/sg2_30_cif.got.tgz:59700.got - 2010.06.03 11:33:40.
