data_PCOD9067361
_publ_section_title
;
Structure prediction by ZEFSAII (Michael W. Deem and Ramdas Pophale) SiO2 
 PCOD9067361
Probable space group: P -1
;
_chemical_formula_sum "Si O2"
_cell_formula_units_Z 16
_cell_length_a 12.796266
_cell_length_b 9.685083
_cell_length_c 15.649557
_cell_angle_alpha 76.133549
_cell_angle_beta 152.300157
_cell_angle_gamma 112.678187
_cell_volume 808.122652
_symmetry_space_group_name_H-M "P -1"
_symmetry_group_IT_number 2
_symmetry_cell_setting 'triclinic'
loop_
_space_group_symop_operation_xyz
x,y,z
-x,-y,-z
loop_
_atom_site_type_symbol
_atom_site_label
_atom_site_fract_x
_atom_site_fract_y
_atom_site_fract_z
Si Si1 0.737152 0.471481 0.149761
Si Si2 0.327640 0.602586 0.079206
Si Si3 0.494487 0.568206 0.623148
Si Si4 0.047789 0.047888 0.762558
Si Si5 0.559662 0.163884 0.167928
Si Si6 0.130157 0.312062 0.277240
Si Si7 0.775837 0.254488 0.498618
Si Si8 0.744417 0.911955 0.281859
O O1 0.693457 0.303160 0.179012
O O2 0.972110 0.597324 0.343630
O O3 0.500000 0.500000 0.000000
O O4 0.750600 0.482049 0.055803
O O5 0.374588 0.501214 0.202523
O O6 0.583627 0.744576 0.226268
O O7 0.112179 0.662942 0.931637
O O8 0.265099 0.428808 0.434963
O O9 0.679529 0.645803 0.668947
O O10 0.403427 0.689180 0.585419
O O11 0.182952 0.095099 0.762067
O O12 0.843825 0.119453 0.609557
O O13 0.273937 0.127975 0.977583
O O14 0.941406 0.864426 0.721136
O O15 0.682475 0.204237 0.343125
O O16 0.587365 0.014727 0.169860
O O17 0.000000 0.000000 0.500000
#
# Coordination Sequence:
#
# PCOD9067361 Si02
#       8
#     2   2   2   2   2   2   2   2
#     4  12  23  40  63  97 140 177 207 265 335 411
#     4  12  23  44  70  98 134 174 225 275 331 397
#     4  11  27  45  72  98 127 179 233 282 327 385
#     4  12  24  44  67  99 138 175 218 269 338 403
#     4  12  24  40  64  98 140 177 213 266 337 404
#     4  11  25  49  71  95 129 178 234 282 326 385
#     4  12  26  42  64 100 138 175 221 272 336 395
#     4  12  23  39  66 103 133 172 214 268 335 402
#
# _framework density 19.798976
#
# number of rings (size 3 to 8) (size 9 to 14) (size 15 to 20)
#    0.000    0.250    6.250    3.375    1.750    0.500 
#    0.000    0.625    0.000    0.000    0.000    0.000 
#    0.000    0.000    0.000    0.000    0.000    0.000 
#
# Total GULP energy -89499.927872 kJ/mol
# GULP energy per Si atom -5593.745492 kJ/mol
# Density = 1.975391 g / cm^3
# Si number density = 19.798976 Si / 1000 Ang^3
#
#
#
# Elastic Constant Matrix: (Units=GPa)
#
#
# Indices 1 2 3 4 5 6 
#
# 1 67.8585 32.6120 14.7061 -10.0165 5.4361 -8.2297
# 2 32.6120 79.4282 18.7050 -16.2020 3.1651 -13.5417
# 3 14.7061 18.7050 106.7232 -4.1107 -3.7476 -1.0986
# 4 -10.0165 -16.2020 -4.1107 40.1873 -1.7412 5.5027
# 5 5.4361 3.1651 -3.7476 -1.7412 27.8093 1.6131
# 6 -8.2297 -13.5417 -1.0986 5.5027 1.6131 23.3403
#
#
#
# Elastic Compliance Matrix: (Units=1/GPa)
#
#
# Indices 1 2 3 4 5 6 
#
# 1 0.019020 -0.006574 -0.001500 0.001425 -0.003240 0.002709
# 2 -0.006574 0.017901 -0.002032 0.004358 -0.001161 0.007025
# 3 -0.001500 -0.002032 0.009991 0.000105 0.001959 -0.001398
# 4 0.001425 0.004358 0.000105 0.027542 0.001169 -0.003538
# 5 -0.003240 -0.001161 0.001959 0.001169 0.037327 -0.004579
# 6 0.002709 0.007025 -0.001398 -0.003538 -0.004579 0.048960
#
#
# Mechanical properties :
#
#
# Convention : Reuss Voigt Hill
#
# Bulk Modulus (GPa) = 37.45351 42.89511 40.17431
# Shear Modulus (GPa) = 26.33626 30.79983 28.56804
#
# Velocity S-wave (km/s) = 3.65112 3.94842 3.80268
# Velocity P-wave (km/s) = 6.06071 6.51913 6.29410
#
# Compressibility (1/GPa) = 0.02669977
#
# Stress axis : x y z
#
# Youngs Moduli (GPa) = 52.57755 55.86369 100.08745
#
# Poissons Ratio (x) = 0.36726 0.15009
# Poissons Ratio (y) = 0.34566 0.20338
# Poissons Ratio (z) = 0.07884 0.11352
#
# Static dielectric constant tensor:
#      x y z
#    x 1.672360 -0.026770 -0.002210 
#    y -0.026770 1.704410 -0.012540 
#    z -0.002210 -0.012540 1.737870 
# 
# From -- ./inp_files/272472.got.cif
#   From: 2010.05.17/outbox.cif.g08.bks.cpg/sg2_137_cif.got.tgz:272472.got - 2010.06.03 11:33:40.
