data_PCOD9067820
_publ_section_title
;
Structure prediction by ZEFSAII (Michael W. Deem and Ramdas Pophale) SiO2 
 PCOD9067820
Probable space group: P -1
;
_chemical_formula_sum "Si O2"
_cell_formula_units_Z 15
_cell_length_a 16.849583
_cell_length_b 8.870201
_cell_length_c 5.299001
_cell_angle_alpha 73.922184
_cell_angle_beta 68.994468
_cell_angle_gamma 110.130688
_cell_volume 617.560464
_symmetry_space_group_name_H-M "P -1"
_symmetry_group_IT_number 2
_symmetry_cell_setting 'triclinic'
loop_
_space_group_symop_operation_xyz
x,y,z
-x,-y,-z
loop_
_atom_site_type_symbol
_atom_site_label
_atom_site_fract_x
_atom_site_fract_y
_atom_site_fract_z
Si Si1 0.811850 0.768080 0.641244
Si Si2 0.000000 0.500000 0.000000
Si Si3 0.560397 0.208690 0.548586
Si Si4 0.683451 0.614146 0.355887
Si Si5 0.006264 0.187728 0.819573
Si Si6 0.547341 0.694235 0.732296
Si Si7 0.851430 0.144555 0.625653
Si Si8 0.361443 0.993100 0.165562
O O1 0.751944 0.687261 0.488930
O O2 0.906825 0.743590 0.519172
O O3 0.845020 0.979160 0.544089
O O4 0.747106 0.669298 0.005439
O O5 0.973075 0.654964 0.079426
O O6 0.913161 0.338166 0.337738
O O7 0.612327 0.400061 0.541028
O O8 0.533598 0.253752 0.284861
O O9 0.631223 0.129974 0.563894
O O10 0.455069 0.063414 0.846758
O O11 0.609563 0.694055 0.420675
O O12 0.906038 0.144972 0.817459
O O13 0.000000 0.000000 0.000000
O O14 0.621889 0.832475 0.782176
O O15 0.500000 0.500000 0.000000
O O16 0.741140 0.101726 0.811077
#
# Coordination Sequence:
#
# PCOD9067820 Si02
#       8
#     2   1   2   2   2   2   2   2
#     4  12  27  48  84 120 162 216 279 338 421 505
#     4  12  30  52  82 122 160 212 280 346 426 498
#     4  11  26  45  74 111 165 211 265 337 406 493
#     4  12  26  46  79 123 160 216 277 336 410 501
#     4  12  28  56  85 120 166 216 281 352 425 501
#     4  12  23  46  76 112 159 215 277 336 403 491
#     4  12  27  51  79 117 163 216 272 350 419 496
#     4  11  26  48  72 113 159 210 269 330 421 487
#
# _framework density 24.289118999999999
#
# number of rings (size 3 to 8) (size 9 to 14) (size 15 to 20)
#    0.000    0.267    4.000    4.000    3.733    1.067 
#    0.000    1.333    0.000    0.000    0.000    0.000 
#    0.000    0.000    0.000    0.000    0.000    0.000 
#
# Total GULP energy -83738.931298 kJ/mol
# GULP energy per Si atom -5582.595420 kJ/mol
# Density = 2.423384 g / cm^3
# Si number density = 24.289119 Si / 1000 Ang^3
#
#
#
# Elastic Constant Matrix: (Units=GPa)
#
#
# Indices 1 2 3 4 5 6 
#
# 1 147.0926 31.7507 57.3629 -11.9383 8.3937 -0.6013
# 2 31.7507 124.9155 45.4908 -13.0374 5.9301 -10.0444
# 3 57.3629 45.4908 133.4393 -5.2650 3.9064 -6.3198
# 4 -11.9383 -13.0374 -5.2650 39.6035 -4.8374 -4.9939
# 5 8.3937 5.9301 3.9064 -4.8374 29.9347 11.9383
# 6 -0.6013 -10.0444 -6.3198 -4.9939 11.9383 33.5170
#
#
#
# Elastic Compliance Matrix: (Units=1/GPa)
#
#
# Indices 1 2 3 4 5 6 
#
# 1 0.008456 -0.000689 -0.003279 0.001711 -0.001589 0.000148
# 2 -0.000689 0.009882 -0.002712 0.002858 -0.002437 0.003732
# 3 -0.003279 -0.002712 0.009867 -0.000478 -0.000320 0.001032
# 4 0.001711 0.002858 -0.000478 0.027393 0.001746 0.004257
# 5 -0.001589 -0.002437 -0.000320 0.001746 0.040656 -0.015040
# 6 0.000148 0.003732 0.001032 0.004257 -0.015040 0.037142
#
#
# Mechanical properties :
#
#
# Convention : Reuss Voigt Hill
#
# Bulk Modulus (GPa) = 67.36104 74.96181 71.16142
# Shear Modulus (GPa) = 32.95832 38.66725 35.81278
#
# Velocity S-wave (km/s) = 3.68763 3.99426 3.84401
# Velocity P-wave (km/s) = 6.77678 7.22506 7.00451
#
# Compressibility (1/GPa) = 0.01484538
#
# Stress axis : x y z
#
# Youngs Moduli (GPa) = 118.25717 101.19219 101.34289
#
# Poissons Ratio (x) = 0.06975 0.33231
# Poissons Ratio (y) = 0.08152 0.27482
# Poissons Ratio (z) = 0.38778 0.27441
#
# Static dielectric constant tensor:
#      x y z
#    x 1.954860 -0.020910 -0.003220 
#    y -0.020910 1.925140 0.035510 
#    z -0.003220 0.035510 1.993840 
# 
# From -- ./inp_files/106484.got.cif
#   From: 2010.05.17/outbox.cif.g08.bks.cpg/sg2_54_cif.got.tgz:106484.got - 2010.06.03 11:33:40.
