data_PCOD9067897
_publ_section_title
;
Structure prediction by ZEFSAII (Michael W. Deem and Ramdas Pophale) SiO2 
 PCOD9067897
Probable space group: P -1
;
_chemical_formula_sum "Si O2"
_cell_formula_units_Z 14
_cell_length_a 8.604399
_cell_length_b 11.291254
_cell_length_c 8.749700
_cell_angle_alpha 110.791907
_cell_angle_beta 71.423910
_cell_angle_gamma 62.448367
_cell_volume 572.741686
_symmetry_space_group_name_H-M "P -1"
_symmetry_group_IT_number 2
_symmetry_cell_setting 'triclinic'
loop_
_space_group_symop_operation_xyz
x,y,z
-x,-y,-z
loop_
_atom_site_type_symbol
_atom_site_label
_atom_site_fract_x
_atom_site_fract_y
_atom_site_fract_z
Si Si1 0.588740 0.917849 0.268568
Si Si2 0.427230 0.841281 0.812859
Si Si3 0.972741 0.386925 0.053384
Si Si4 0.151325 0.447636 0.285877
Si Si5 0.511876 0.386336 0.570503
Si Si6 0.874380 0.255122 0.646176
Si Si7 0.735830 0.092014 0.786829
O O1 0.485475 0.836874 0.202393
O O2 0.500000 0.000000 0.500000
O O3 0.515753 0.048908 0.216494
O O4 0.849144 0.798987 0.152482
O O5 0.611818 0.678719 0.777916
O O6 0.413607 0.772283 0.625925
O O7 0.252894 0.938181 0.047892
O O8 0.722083 0.497348 0.220791
O O9 0.090903 0.359381 0.162028
O O10 0.000000 0.500000 0.000000
O O11 0.108129 0.601807 0.283493
O O12 0.000000 0.500000 0.500000
O O13 0.500000 0.500000 0.500000
O O14 0.691740 0.325193 0.608827
O O15 0.793215 0.210374 0.792292
O O16 0.090040 0.083092 0.434408
#
# Coordination Sequence:
#
# PCOD9067897 Si02
#       7
#     2   2   2   2   2   2   2
#     4  12  27  48  74 107 148 187 247 305 359 435
#     4  12  25  43  75 104 139 190 244 295 360 423
#     4  12  27  46  75 107 141 192 243 296 366 431
#     4  12  24  45  75 105 139 189 240 296 352 435
#     4  12  26  48  69 108 148 188 237 302 363 436
#     4  11  26  48  71 101 156 187 241 296 369 429
#     4  11  26  46  72 106 142 197 239 302 362 430
#
# _framework density 24.443828
#
# number of rings (size 3 to 8) (size 9 to 14) (size 15 to 20)
#    0.000    0.286    4.286    3.857    6.000    2.286 
#    2.571    0.000    0.000    0.000    0.000    0.000 
#    0.000    0.000    0.000    0.000    0.000    0.000 
#
# Total GULP energy -78244.442367 kJ/mol
# GULP energy per Si atom -5588.888741 kJ/mol
# Density = 2.438819 g / cm^3
# Si number density = 24.443828 Si / 1000 Ang^3
#
#
#
# Elastic Constant Matrix: (Units=GPa)
#
#
# Indices 1 2 3 4 5 6 
#
# 1 70.5726 1.6620 16.5905 0.5756 -4.5991 -11.3889
# 2 1.6620 98.0143 12.6229 -15.3199 -10.1459 21.8025
# 3 16.5905 12.6229 115.4277 -27.5481 -4.3514 -5.1593
# 4 0.5756 -15.3199 -27.5481 37.6044 4.6756 -7.5282
# 5 -4.5991 -10.1459 -4.3514 4.6756 37.2867 -0.9800
# 6 -11.3889 21.8025 -5.1593 -7.5282 -0.9800 46.3427
#
#
#
# Elastic Compliance Matrix: (Units=1/GPa)
#
#
# Indices 1 2 3 4 5 6 
#
# 1 0.015460 -0.000887 -0.002316 -0.001765 0.001714 0.003708
# 2 -0.000887 0.012282 -0.000613 0.003141 0.002623 -0.005499
# 3 -0.002316 -0.000613 0.011182 0.008463 -0.000147 0.002336
# 4 -0.001765 0.003141 0.008463 0.035379 -0.002688 0.004721
# 5 0.001714 0.002623 -0.000147 -0.002688 0.028046 -0.000672
# 6 0.003708 -0.005499 0.002336 0.004721 -0.000672 0.026089
#
#
# Mechanical properties :
#
#
# Convention : Reuss Voigt Hill
#
# Bulk Modulus (GPa) = 31.95720 38.41838 35.18779
# Shear Modulus (GPa) = 34.12940 41.12271 37.62605
#
# Velocity S-wave (km/s) = 3.74068 4.10608 3.92763
# Velocity P-wave (km/s) = 5.63551 6.18312 5.91566
#
# Compressibility (1/GPa) = 0.03129185
#
# Stress axis : x y z
#
# Youngs Moduli (GPa) = 64.68430 81.41847 89.42898
#
# Poissons Ratio (x) = 0.07224 0.20712
# Poissons Ratio (y) = 0.05739 0.05480
# Poissons Ratio (z) = 0.14981 0.04989
#
# Static dielectric constant tensor:
#      x y z
#    x 1.986370 0.019400 -0.010210 
#    y 0.019400 1.898270 0.018120 
#    z -0.010210 0.018120 2.272480 
# 
# From -- ./inp_files/154150.got.cif
#   From: 2010.05.17/outbox.cif.g08.bks.cpg/sg2_78_cif.got.tgz:154150.got - 2010.06.03 11:33:40.
