data_PCOD9067007
_publ_section_title
;
Structure prediction by ZEFSAII (Michael W. Deem and Ramdas Pophale) SiO2 
 PCOD9067007
Probable space group: P -1
;
_chemical_formula_sum "Si O2"
_cell_formula_units_Z 16
_cell_length_a 14.521241
_cell_length_b 9.433225
_cell_length_c 13.647850
_cell_angle_alpha 91.987342
_cell_angle_beta 149.860793
_cell_angle_gamma 68.390483
_cell_volume 692.892350
_symmetry_space_group_name_H-M "P -1"
_symmetry_group_IT_number 2
_symmetry_cell_setting 'triclinic'
loop_
_space_group_symop_operation_xyz
x,y,z
-x,-y,-z
loop_
_atom_site_type_symbol
_atom_site_label
_atom_site_fract_x
_atom_site_fract_y
_atom_site_fract_z
Si Si1 0.217277 0.490693 0.238706
Si Si2 0.712779 0.959264 0.262340
Si Si3 0.119641 0.318676 0.886918
Si Si4 0.493868 0.686358 0.787558
Si Si5 0.039049 0.094688 0.700388
Si Si6 0.745561 0.213520 0.800818
Si Si7 0.141434 0.397613 0.526559
Si Si8 0.356154 0.701532 0.061615
O O1 0.103494 0.585550 0.242564
O O2 0.500142 0.292401 0.515563
O O3 0.226986 0.632271 0.191129
O O4 0.000000 0.500000 0.000000
O O5 0.933245 0.874854 0.386110
O O6 0.788339 0.804400 0.408928
O O7 0.600488 0.160463 0.209453
O O8 0.500000 0.000000 0.000000
O O9 0.026805 0.461189 0.713719
O O10 0.191981 0.128457 0.906135
O O11 0.347317 0.293610 0.135662
O O12 0.637066 0.470737 0.944946
O O13 0.238867 0.758546 0.512125
O O14 0.145215 0.884066 0.807297
O O15 0.691138 0.229677 0.867203
O O16 0.000000 0.000000 0.000000
O O17 0.388684 0.362990 0.743544
O O18 0.000000 0.500000 0.500000
#
# Coordination Sequence:
#
# PCOD9067007 Si02
#       8
#     2   2   2   2   2   2   2   2
#     4  11  25  47  75 106 146 185 243 306 371 438
#     4  12  23  44  64 101 146 195 239 291 347 429
#     4  12  24  46  73  99 147 193 230 297 366 427
#     4  12  26  44  68 102 143 187 243 294 351 424
#     4  12  25  46  68 102 145 189 245 288 356 425
#     4  11  25  48  76 108 144 187 241 310 376 434
#     4  12  22  43  73 100 146 193 235 286 355 428
#     4  12  25  45  73 106 142 189 242 294 361 430
#
# _framework density 23.091608999999998
#
# number of rings (size 3 to 8) (size 9 to 14) (size 15 to 20)
#    0.000    0.250    6.250    1.875    1.750    4.000 
#    0.000    0.000    0.000    0.000    0.000    0.000 
#    0.000    0.000    0.000    0.000    0.000    0.000 
#
# Total GULP energy -89507.453482 kJ/mol
# GULP energy per Si atom -5594.215843 kJ/mol
# Density = 2.303905 g / cm^3
# Si number density = 23.091609 Si / 1000 Ang^3
#
#
#
# Elastic Constant Matrix: (Units=GPa)
#
#
# Indices 1 2 3 4 5 6 
#
# 1 119.4829 14.1408 19.4392 -2.8375 16.4189 3.1389
# 2 14.1408 135.8249 25.0420 -5.4133 -1.3548 11.4159
# 3 19.4392 25.0420 68.3395 -1.0681 13.9488 7.3424
# 4 -2.8375 -5.4133 -1.0681 41.5672 0.9673 5.9034
# 5 16.4189 -1.3548 13.9488 0.9673 36.1312 2.2694
# 6 3.1389 11.4159 7.3424 5.9034 2.2694 36.5104
#
#
#
# Elastic Compliance Matrix: (Units=1/GPa)
#
#
# Indices 1 2 3 4 5 6 
#
# 1 0.009224 -0.000662 -0.001623 0.000605 -0.003598 -0.000134
# 2 -0.000662 0.008230 -0.002947 0.001225 0.001854 -0.002237
# 3 -0.001623 -0.002947 0.017652 0.000409 -0.006062 -0.002178
# 4 0.000605 0.001225 0.000409 0.024926 -0.000772 -0.004500
# 5 -0.003598 0.001854 -0.006062 -0.000772 0.031799 -0.000903
# 6 -0.000134 -0.002237 -0.002178 -0.004500 -0.000903 0.029322
#
#
# Mechanical properties :
#
#
# Convention : Reuss Voigt Hill
#
# Bulk Modulus (GPa) = 40.57914 48.98795 44.78355
# Shear Modulus (GPa) = 35.75770 40.51011 38.13390
#
# Velocity S-wave (km/s) = 3.93939 4.19301 4.06817
# Velocity P-wave (km/s) = 6.18894 6.68599 6.44226
#
# Compressibility (1/GPa) = 0.02464320
#
# Stress axis : x y z
#
# Youngs Moduli (GPa) = 108.41262 121.50766 56.65094
#
# Poissons Ratio (x) = 0.08039 0.09196
# Poissons Ratio (y) = 0.07172 0.16692
# Poissons Ratio (z) = 0.17598 0.35803
#
# Static dielectric constant tensor:
#      x y z
#    x 1.863610 -0.006080 0.028320 
#    y -0.006080 1.882820 0.075110 
#    z 0.028320 0.075110 2.023680 
# 
# From -- ./inp_files/529571.got.cif
#   From: 2010.05.17/outbox.cif.g08.bks.cpg/sg2_265_cif.got.tgz:529571.got - 2010.06.03 11:33:40.
