data_PCOD9067962
_publ_section_title
;
Structure prediction by ZEFSAII (Michael W. Deem and Ramdas Pophale) SiO2 
 PCOD9067962
Probable space group: P -1
;
_chemical_formula_sum "Si O2"
_cell_formula_units_Z 14
_cell_length_a 10.324803
_cell_length_b 8.158958
_cell_length_c 12.365232
_cell_angle_alpha 103.842781
_cell_angle_beta 60.408749
_cell_angle_gamma 57.680829
_cell_volume 557.780940
_symmetry_space_group_name_H-M "P -1"
_symmetry_group_IT_number 2
_symmetry_cell_setting 'triclinic'
loop_
_space_group_symop_operation_xyz
x,y,z
-x,-y,-z
loop_
_atom_site_type_symbol
_atom_site_label
_atom_site_fract_x
_atom_site_fract_y
_atom_site_fract_z
Si Si1 0.063706 0.012468 0.201628
Si Si2 0.832892 0.656826 0.258911
Si Si3 0.374230 0.515147 0.653327
Si Si4 0.826260 0.808441 0.651966
Si Si5 0.487536 0.601901 0.826002
Si Si6 0.323169 0.094153 0.869150
Si Si7 0.013200 0.187404 0.621927
O O1 0.953219 0.993284 0.336808
O O2 0.104830 0.160792 0.260203
O O3 0.305554 0.721880 0.015146
O O4 0.888908 0.180335 0.200120
O O5 0.664809 0.651181 0.364543
O O6 0.717613 0.850091 0.233386
O O7 0.893928 0.729933 0.341043
O O8 0.083478 0.366725 0.066582
O O9 0.500000 0.500000 0.500000
O O10 0.485349 0.461061 0.713682
O O11 0.000000 0.500000 0.500000
O O12 0.864370 0.915382 0.560743
O O13 0.555126 0.994303 0.792445
O O14 0.737683 0.430469 0.744580
O O15 0.385119 0.852949 0.844052
#
# Coordination Sequence:
#
# PCOD9067962 Si02
#       7
#     2   2   2   2   2   2   2
#     4  12  27  47  73 106 149 195 248 295 369 440
#     4  11  27  48  76 107 144 194 246 303 365 443
#     4  12  28  46  73 108 148 188 240 305 371 432
#     4  12  26  46  75 110 150 192 243 311 368 428
#     4  12  26  48  75 105 150 195 243 305 364 439
#     4  11  26  46  76 104 149 187 252 294 372 432
#     4  12  27  46  75 108 147 192 247 301 371 428
#
# _framework density 25.099460000000001
#
# number of rings (size 3 to 8) (size 9 to 14) (size 15 to 20)
#    0.000    0.286    2.857    4.714   10.000    1.714 
#    0.000    0.000    0.000    0.000    0.000    0.000 
#    0.000    0.000    0.000    0.000    0.000    0.000 
#
# Total GULP energy -78541.308412 kJ/mol
# GULP energy per Si atom -5610.093458 kJ/mol
# Density = 2.504233 g / cm^3
# Si number density = 25.099460 Si / 1000 Ang^3
#
#
#
# Elastic Constant Matrix: (Units=GPa)
#
#
# Indices 1 2 3 4 5 6 
#
# 1 132.3672 33.5147 45.6470 -10.0627 3.6793 4.1558
# 2 33.5147 129.4047 12.2823 -2.4361 -8.7453 -22.8423
# 3 45.6470 12.2823 114.0393 -9.7166 -12.3348 1.3857
# 4 -10.0627 -2.4361 -9.7166 38.4654 -4.0405 -7.0337
# 5 3.6793 -8.7453 -12.3348 -4.0405 43.4419 -3.7150
# 6 4.1558 -22.8423 1.3857 -7.0337 -3.7150 27.7439
#
#
#
# Elastic Compliance Matrix: (Units=1/GPa)
#
#
# Indices 1 2 3 4 5 6 
#
# 1 0.009917 -0.003125 -0.003864 0.000356 -0.002889 -0.004162
# 2 -0.003125 0.010571 0.000573 0.002243 0.003636 0.010198
# 3 -0.003864 0.000573 0.010867 0.002484 0.003901 0.001660
# 4 0.000356 0.002243 0.002484 0.029119 0.004663 0.009677
# 5 -0.002889 0.003636 0.003901 0.004663 0.026215 0.007924
# 6 -0.004162 0.010198 0.001660 0.009677 0.007924 0.048495
#
#
# Mechanical properties :
#
#
# Convention : Reuss Voigt Hill
#
# Bulk Modulus (GPa) = 53.98955 62.07768 58.03362
# Shear Modulus (GPa) = 32.42737 40.88806 36.65772
#
# Velocity S-wave (km/s) = 3.59828 4.04052 3.82579
# Velocity P-wave (km/s) = 6.23060 6.82305 6.53355
#
# Compressibility (1/GPa) = 0.01852210
#
# Stress axis : x y z
#
# Youngs Moduli (GPa) = 100.84167 94.60073 92.01776
#
# Poissons Ratio (x) = 0.29560 0.35559
# Poissons Ratio (y) = 0.31510 -0.05270
# Poissons Ratio (z) = 0.38969 -0.05418
#
# Static dielectric constant tensor:
#      x y z
#    x 1.955960 0.030300 -0.003270 
#    y 0.030300 1.988470 0.022420 
#    z -0.003270 0.022420 1.975230 
# 
# From -- ./inp_files/185726.got.cif
#   From: 2010.05.17/outbox.cif.g08.bks.cpg/sg2_93_cif.got.tgz:185726.got - 2010.06.03 11:33:40.
