data_PCOD9067948
_publ_section_title
;
Structure prediction by ZEFSAII (Michael W. Deem and Ramdas Pophale) SiO2 
 PCOD9067948
Probable space group: P -1
;
_chemical_formula_sum "Si O2"
_cell_formula_units_Z 14
_cell_length_a 19.668508
_cell_length_b 9.558696
_cell_length_c 5.117899
_cell_angle_alpha 96.589260
_cell_angle_beta 86.391518
_cell_angle_gamma 145.952256
_cell_volume 534.262582
_symmetry_space_group_name_H-M "P -1"
_symmetry_group_IT_number 2
_symmetry_cell_setting 'triclinic'
loop_
_space_group_symop_operation_xyz
x,y,z
-x,-y,-z
loop_
_atom_site_type_symbol
_atom_site_label
_atom_site_fract_x
_atom_site_fract_y
_atom_site_fract_z
Si Si1 0.955233 0.193084 0.822244
Si Si2 0.405984 0.496295 0.258616
Si Si3 0.180064 0.306430 0.171479
Si Si4 0.427227 0.016568 0.957089
Si Si5 0.202920 0.527249 0.701266
Si Si6 0.882087 0.213640 0.363048
Si Si7 0.356935 0.108873 0.363055
O O1 0.892775 0.099733 0.534853
O O2 0.099321 0.456849 0.808671
O O3 0.928261 0.990531 0.885615
O O4 0.901689 0.204527 0.057390
O O5 0.292981 0.408530 0.282254
O O6 0.361247 0.258594 0.215010
O O7 0.510054 0.676119 0.492287
O O8 0.481020 0.697692 0.051221
O O9 0.156354 0.383008 0.411551
O O10 0.212392 0.427962 0.910015
O O11 0.337537 0.820330 0.703101
O O12 0.500000 0.000000 0.000000
O O13 0.337594 0.931955 0.172082
O O14 0.000000 0.500000 0.500000
O O15 0.751396 0.053032 0.437078
#
# Coordination Sequence:
#
# PCOD9067948 Si02
#       7
#     2   2   2   2   2   2   2
#     4  12  26  48  75 108 150 197 252 308 372 448
#     4  11  26  46  75 105 153 196 259 296 382 445
#     4  12  25  48  75 109 153 197 251 303 378 452
#     4  12  26  46  75 110 153 194 249 316 380 444
#     4  12  27  45  77 111 152 194 247 315 376 439
#     4  12  27  47  75 109 150 196 252 310 370 444
#     4  11  27  47  75 108 149 206 246 312 373 456
#
# _framework density 26.204345
#
# number of rings (size 3 to 8) (size 9 to 14) (size 15 to 20)
#    0.000    0.286    2.857    5.143    6.000    2.286 
#    0.000    0.000    0.000    0.000    0.000    0.000 
#    0.000    0.000    0.000    0.000    0.000    0.000 
#
# Total GULP energy -78386.990261 kJ/mol
# GULP energy per Si atom -5599.070733 kJ/mol
# Density = 2.614470 g / cm^3
# Si number density = 26.204345 Si / 1000 Ang^3
#
#
#
# Elastic Constant Matrix: (Units=GPa)
#
#
# Indices 1 2 3 4 5 6 
#
# 1 122.8975 15.3777 21.1051 -11.0541 5.0232 -1.2959
# 2 15.3777 116.1715 22.7399 -9.7989 -7.9061 3.8335
# 3 21.1051 22.7399 103.7163 -4.9960 -15.7771 -11.6515
# 4 -11.0541 -9.7989 -4.9960 40.3095 -4.5243 8.6057
# 5 5.0232 -7.9061 -15.7771 -4.5243 47.5271 2.3612
# 6 -1.2959 3.8335 -11.6515 8.6057 2.3612 40.5795
#
#
#
# Elastic Compliance Matrix: (Units=1/GPa)
#
#
# Indices 1 2 3 4 5 6 
#
# 1 0.008766 -0.000724 -0.001806 0.001950 -0.001436 -0.000500
# 2 -0.000724 0.009428 -0.001821 0.002457 0.001375 -0.002038
# 3 -0.001806 -0.001821 0.011300 0.000191 0.003503 0.003115
# 4 0.001950 0.002457 0.000191 0.027639 0.003203 -0.006163
# 5 -0.001436 0.001375 0.003503 0.003203 0.022948 -0.001185
# 6 -0.000500 -0.002038 0.003115 -0.006163 -0.001185 0.027090
#
#
# Mechanical properties :
#
#
# Convention : Reuss Voigt Hill
#
# Bulk Modulus (GPa) = 48.09198 51.24785 49.66992
# Shear Modulus (GPa) = 40.71519 44.58740 42.65130
#
# Velocity S-wave (km/s) = 3.94605 4.12943 4.03878
# Velocity P-wave (km/s) = 6.25734 6.50659 6.38318
#
# Compressibility (1/GPa) = 0.02079349
#
# Stress axis : x y z
#
# Youngs Moduli (GPa) = 114.07277 106.06282 88.49255
#
# Poissons Ratio (x) = 0.07675 0.15981
# Poissons Ratio (y) = 0.08255 0.16117
# Poissons Ratio (z) = 0.20600 0.19317
#
# Static dielectric constant tensor:
#      x y z
#    x 2.103780 -0.054630 0.039160 
#    y -0.054630 2.126580 -0.094730 
#    z 0.039160 -0.094730 2.074960 
# 
# From -- ./inp_files/72583.got.cif
#   From: 2010.05.17/outbox.cif.g08.bks.cpg/sg2_37_cif.got.tgz:72583.got - 2010.06.03 11:33:40.
