data_PCOD9067289
_publ_section_title
;
Structure prediction by ZEFSAII (Michael W. Deem and Ramdas Pophale) SiO2 
 PCOD9067289
Probable space group: P -1
;
_chemical_formula_sum "Si O2"
_cell_formula_units_Z 13
_cell_length_a 8.491698
_cell_length_b 11.996574
_cell_length_c 8.814716
_cell_angle_alpha 37.520468
_cell_angle_beta 74.351938
_cell_angle_gamma 78.693539
_cell_volume 526.387136
_symmetry_space_group_name_H-M "P -1"
_symmetry_group_IT_number 2
_symmetry_cell_setting 'triclinic'
loop_
_space_group_symop_operation_xyz
x,y,z
-x,-y,-z
loop_
_atom_site_type_symbol
_atom_site_label
_atom_site_fract_x
_atom_site_fract_y
_atom_site_fract_z
Si Si1 0.145668 0.886162 0.007886
Si Si2 0.533054 0.509593 0.301712
Si Si3 0.396345 0.167984 0.529672
Si Si4 0.941679 0.996520 0.686998
Si Si5 0.363638 0.135776 0.233470
Si Si6 0.000000 0.500000 0.500000
Si Si7 0.083570 0.572836 0.741367
O O1 0.300069 0.025578 0.819474
O O2 0.082556 0.895482 0.844187
O O3 0.133153 0.677081 0.284910
O O4 0.000000 0.000000 0.000000
O O5 0.500000 0.500000 0.500000
O O6 0.426234 0.356196 0.406206
O O7 0.724656 0.475670 0.255744
O O8 0.506292 0.709586 0.022597
O O9 0.315452 0.190189 0.359813
O O10 0.563491 0.065839 0.560091
O O11 0.920862 0.206280 0.510057
O O12 0.771980 0.881129 0.845248
O O13 0.000000 0.000000 0.500000
O O14 0.001229 0.504870 0.306085
O O15 0.000000 0.500000 0.000000
#
# Coordination Sequence:
#
# PCOD9067289 Si02
#       7
#     2   2   2   2   2   1   2
#     4  12  27  44  73 107 152 196 252 322 380 454
#     4  12  29  47  76 114 154 202 255 319 393 464
#     4  11  27  48  73 109 148 202 255 314 386 468
#     4  12  23  49  75 109 148 199 261 318 384 457
#     4  11  25  48  77 103 149 200 255 314 383 463
#     4  12  28  48  76 118 150 196 268 318 388 460
#     4  12  28  50  81 114 159 207 263 325 387 472
#
# _framework density 24.696652
#
# number of rings (size 3 to 8) (size 9 to 14) (size 15 to 20)
#    0.000    0.308    4.615    3.231    6.462    0.615 
#    0.000    0.000    0.000    0.000    0.000    0.000 
#    0.000    0.000    0.000    0.000    0.000    0.000 
#
# Total GULP energy -72408.044876 kJ/mol
# GULP energy per Si atom -5569.849606 kJ/mol
# Density = 2.464044 g / cm^3
# Si number density = 24.696652 Si / 1000 Ang^3
#
#
#
# Elastic Constant Matrix: (Units=GPa)
#
#
# Indices 1 2 3 4 5 6 
#
# 1 47.6400 15.2054 7.2132 -4.4349 -15.6765 9.8606
# 2 15.2054 124.3289 52.3567 0.8086 -13.6545 33.2555
# 3 7.2132 52.3567 164.9090 -13.5726 -24.1562 17.4023
# 4 -4.4349 0.8086 -13.5726 66.1161 6.8625 -6.9470
# 5 -15.6765 -13.6545 -24.1562 6.8625 42.4332 -2.8843
# 6 9.8606 33.2555 17.4023 -6.9470 -2.8843 40.9452
#
#
#
# Elastic Compliance Matrix: (Units=1/GPa)
#
#
# Indices 1 2 3 4 5 6 
#
# 1 0.025296 -0.001307 0.001205 0.000500 0.009203 -0.004809
# 2 -0.001307 0.011736 -0.002731 -0.001812 0.001470 -0.008260
# 3 0.001205 -0.002731 0.007600 0.001208 0.003640 -0.000841
# 4 0.000500 -0.001812 0.001208 0.016001 -0.002067 0.003407
# 5 0.009203 0.001470 0.003640 -0.002067 0.029627 -0.003221
# 6 -0.004809 -0.008260 -0.000841 0.003407 -0.003221 0.032998
#
#
# Mechanical properties :
#
#
# Convention : Reuss Voigt Hill
#
# Bulk Modulus (GPa) = 25.66380 54.04763 39.85572
# Shear Modulus (GPa) = 35.23294 47.37240 41.30267
#
# Velocity S-wave (km/s) = 3.78117 4.38444 4.09393
# Velocity P-wave (km/s) = 5.42929 6.89661 6.20647
#
# Compressibility (1/GPa) = 0.03896538
#
# Stress axis : x y z
#
# Youngs Moduli (GPa) = 39.53215 85.20932 131.58485
#
# Poissons Ratio (x) = 0.11140 -0.15861
# Poissons Ratio (y) = 0.05169 0.35935
# Poissons Ratio (z) = -0.04765 0.23270
#
# Static dielectric constant tensor:
#      x y z
#    x 0.881870 -0.477040 0.317120 
#    y -0.477040 1.798550 0.157470 
#    z 0.317120 0.157470 1.847060 
# 
# From -- ./inp_files/173749.got.cif
#   From: 2010.05.17/outbox.cif.g08.bks.cpg/sg2_87_cif.got.tgz:173749.got - 2010.06.03 11:33:40.
