data_PCOD9067299
_publ_section_title
;
Structure prediction by ZEFSAII (Michael W. Deem and Ramdas Pophale) SiO2 
 PCOD9067299
Probable space group: P -1
;
_chemical_formula_sum "Si O2"
_cell_formula_units_Z 13
_cell_length_a 13.769308
_cell_length_b 8.240387
_cell_length_c 5.705927
_cell_angle_alpha 121.386465
_cell_angle_beta 93.139883
_cell_angle_gamma 63.002300
_cell_volume 478.207726
_symmetry_space_group_name_H-M "P -1"
_symmetry_group_IT_number 2
_symmetry_cell_setting 'triclinic'
loop_
_space_group_symop_operation_xyz
x,y,z
-x,-y,-z
loop_
_atom_site_type_symbol
_atom_site_label
_atom_site_fract_x
_atom_site_fract_y
_atom_site_fract_z
Si Si1 0.121086 0.330003 0.286123
Si Si2 0.694059 0.649743 0.353822
Si Si3 0.887854 0.995209 0.248242
Si Si4 0.672199 0.066852 0.472186
Si Si5 0.505869 0.768771 0.777364
Si Si6 0.500000 0.500000 0.000000
Si Si7 0.131352 0.645500 0.194312
O O1 0.222450 0.321140 0.437306
O O2 0.123645 0.435283 0.115618
O O3 0.000000 0.500000 0.500000
O O4 0.132164 0.094897 0.064208
O O5 0.591893 0.651980 0.480004
O O6 0.646535 0.870832 0.363436
O O7 0.768238 0.443691 0.043953
O O8 0.016825 0.827381 0.198593
O O9 0.803113 0.981784 0.412654
O O10 0.860122 0.241498 0.478683
O O11 0.615703 0.169401 0.291646
O O12 0.607078 0.253400 0.790989
O O13 0.544085 0.601872 0.869419
O O14 0.500000 0.000000 0.000000
#
# Coordination Sequence:
#
# PCOD9067299 Si02
#       7
#     2   2   2   2   2   1   2
#     4  12  24  46  76 116 161 210 261 327 403 484
#     4  12  26  48  84 114 161 215 267 334 409 483
#     4  11  25  48  77 110 162 207 270 324 407 484
#     4  12  27  49  79 111 159 213 259 334 403 481
#     4  12  28  52  79 114 158 212 269 334 409 475
#     4  12  30  50  74 122 154 206 274 336 390 492
#     4  11  26  49  73 119 158 210 267 335 401 488
#
# _framework density 27.184839
#
# number of rings (size 3 to 8) (size 9 to 14) (size 15 to 20)
#    0.000    0.308    4.615    3.231    4.308    0.615 
#    2.769    0.000    0.000    0.000    0.000    0.000 
#    0.000    0.000    0.000    0.000    0.000    0.000 
#
# Total GULP energy -72695.972891 kJ/mol
# GULP energy per Si atom -5591.997915 kJ/mol
# Density = 2.712297 g / cm^3
# Si number density = 27.184839 Si / 1000 Ang^3
#
#
#
# Elastic Constant Matrix: (Units=GPa)
#
#
# Indices 1 2 3 4 5 6 
#
# 1 98.1063 39.8446 42.5329 10.0915 -18.1558 -3.6705
# 2 39.8446 108.2769 44.3633 9.1258 -6.6005 11.7370
# 3 42.5329 44.3633 157.9307 46.6642 -26.1488 -11.9337
# 4 10.0915 9.1258 46.6642 49.6819 2.1043 -1.2782
# 5 -18.1558 -6.6005 -26.1488 2.1043 64.3459 -0.7969
# 6 -3.6705 11.7370 -11.9337 -1.2782 -0.7969 40.8789
#
#
#
# Elastic Compliance Matrix: (Units=1/GPa)
#
#
# Indices 1 2 3 4 5 6 
#
# 1 0.013231 -0.004195 -0.001679 -0.000402 0.002658 0.001942
# 2 -0.004195 0.012529 -0.003543 0.001812 -0.001459 -0.004980
# 3 -0.001679 -0.003543 0.011818 -0.010188 0.004349 0.004083
# 4 -0.000402 0.001812 -0.010188 0.029591 -0.005069 -0.002704
# 5 0.002658 -0.001459 0.004349 -0.005069 0.018101 0.002122
# 6 0.001942 -0.004980 0.004083 -0.002704 0.002122 0.027215
#
#
# Mechanical properties :
#
#
# Convention : Reuss Voigt Hill
#
# Bulk Modulus (GPa) = 53.35303 68.64394 60.99849
# Shear Modulus (GPa) = 36.34578 46.81955 41.58266
#
# Velocity S-wave (km/s) = 3.66045 4.15452 3.91529
# Velocity P-wave (km/s) = 6.12649 6.95119 6.55183
#
# Compressibility (1/GPa) = 0.01874308
#
# Stress axis : x y z
#
# Youngs Moduli (GPa) = 75.58167 79.81343 84.61594
#
# Poissons Ratio (x) = 0.33484 0.14208
# Poissons Ratio (y) = 0.31709 0.29980
# Poissons Ratio (z) = 0.12691 0.28278
#
# Static dielectric constant tensor:
#      x y z
#    x 2.422410 -0.003590 0.469220 
#    y -0.003590 2.058670 -0.038400 
#    z 0.469220 -0.038400 2.636060 
# 
# From -- ./inp_files/89462.got.cif
#   From: 2010.05.17/outbox.cif.g08.bks.cpg/sg2_45_cif.got.tgz:89462.got - 2010.06.03 11:33:40.
