data_PCOD9067386
_publ_section_title
;
Structure prediction by ZEFSAII (Michael W. Deem and Ramdas Pophale) SiO2 
 PCOD9067386
Probable space group: P -1
;
_chemical_formula_sum "Si O2"
_cell_formula_units_Z 14
_cell_length_a 9.577240
_cell_length_b 12.161315
_cell_length_c 19.218010
_cell_angle_alpha 144.666348
_cell_angle_beta 147.276834
_cell_angle_gamma 35.411832
_cell_volume 637.766129
_symmetry_space_group_name_H-M "P -1"
_symmetry_group_IT_number 2
_symmetry_cell_setting 'triclinic'
loop_
_space_group_symop_operation_xyz
x,y,z
-x,-y,-z
loop_
_atom_site_type_symbol
_atom_site_label
_atom_site_fract_x
_atom_site_fract_y
_atom_site_fract_z
Si Si1 0.803384 0.493530 0.142179
Si Si2 0.669424 0.390574 0.783502
Si Si3 0.638103 0.883717 0.811165
Si Si4 0.233988 0.301233 0.909545
Si Si5 0.318618 0.898000 0.550535
Si Si6 0.399605 0.575635 0.623103
Si Si7 0.237256 0.251264 0.601213
O O1 0.876708 0.603342 0.163544
O O2 0.803357 0.612102 0.274489
O O3 0.030905 0.256331 0.120215
O O4 0.500000 0.500000 0.000000
O O5 0.501441 0.541600 0.727881
O O6 0.985543 0.255419 0.817978
O O7 0.487894 0.270141 0.672455
O O8 0.710209 0.528574 0.934148
O O9 0.522499 0.937091 0.712085
O O10 0.492770 0.738113 0.706593
O O11 0.518802 0.095995 0.913632
O O12 0.444398 0.651055 0.464440
O O13 0.313098 0.018446 0.539494
O O14 0.000000 0.000000 0.500000
O O15 0.062272 0.655470 0.515486
#
# Coordination Sequence:
#
# PCOD9067386 Si02
#       7
#     2   2   2   2   2   2   2
#     4  12  24  47  73 103 140 182 243 301 338 409
#     4  11  26  49  68 102 150 187 231 286 352 430
#     4  12  24  44  76 106 135 186 243 288 352 416
#     4  11  25  49  73  99 142 193 233 289 352 414
#     4  12  23  41  72 105 140 182 231 290 354 407
#     4  12  25  44  69 104 145 185 229 284 356 430
#     4  12  25  45  73 107 141 181 236 295 350 415
#
# _framework density 21.951622
#
# number of rings (size 3 to 8) (size 9 to 14) (size 15 to 20)
#    0.000    0.286    7.143    2.571    0.000    1.714 
#    5.143    0.000    0.000    0.000    0.000    0.000 
#    0.000    0.000    0.000    0.000    0.000    0.000 
#
# Total GULP energy -78440.305043 kJ/mol
# GULP energy per Si atom -5602.878932 kJ/mol
# Density = 2.190166 g / cm^3
# Si number density = 21.951622 Si / 1000 Ang^3
#
#
#
# Elastic Constant Matrix: (Units=GPa)
#
#
# Indices 1 2 3 4 5 6 
#
# 1 94.3257 19.3081 8.9644 -8.3281 8.9874 -2.2383
# 2 19.3081 111.5832 2.3869 -11.6426 5.9570 -12.0481
# 3 8.9644 2.3869 43.8949 -23.4871 0.2766 -10.2960
# 4 -8.3281 -11.6426 -23.4871 39.8385 -4.8207 3.3386
# 5 8.9874 5.9570 0.2766 -4.8207 43.6440 -5.0378
# 6 -2.2383 -12.0481 -10.2960 3.3386 -5.0378 30.1994
#
#
#
# Elastic Compliance Matrix: (Units=1/GPa)
#
#
# Indices 1 2 3 4 5 6 
#
# 1 0.011417 -0.001897 -0.002312 0.000298 -0.002171 -0.001094
# 2 -0.001897 0.010124 0.003000 0.003949 -0.000058 0.004475
# 3 -0.002312 0.003000 0.037690 0.022046 0.003653 0.012047
# 4 0.000298 0.003949 0.022046 0.039370 0.004240 0.005469
# 5 -0.002171 -0.000058 0.003653 0.004240 0.024350 0.004655
# 6 -0.001094 0.004475 0.012047 0.005469 0.004655 0.039097
#
#
# Mechanical properties :
#
#
# Convention : Reuss Voigt Hill
#
# Bulk Modulus (GPa) = 17.60161 34.56918 26.08539
# Shear Modulus (GPa) = 27.26223 37.34599 32.30411
#
# Velocity S-wave (km/s) = 3.52792 4.12914 3.84031
# Velocity P-wave (km/s) = 4.96293 6.20606 5.61898
#
# Compressibility (1/GPa) = 0.05681299
#
# Stress axis : x y z
#
# Youngs Moduli (GPa) = 87.59007 98.77210 26.53224
#
# Poissons Ratio (x) = 0.18739 0.06134
# Poissons Ratio (y) = 0.16618 -0.07959
# Poissons Ratio (z) = 0.20248 -0.29630
#
# Static dielectric constant tensor:
#      x y z
#    x 1.818080 -0.007450 0.015010 
#    y -0.007450 1.765660 0.019050 
#    z 0.015010 0.019050 1.807360 
# 
# From -- ./inp_files/427913.got.cif
#   From: 2010.05.17/outbox.cif.g08.bks.cpg/sg2_214_cif.got.tgz:427913.got - 2010.06.03 11:33:40.
