data_PCOD9067810
_publ_section_title
;
Structure prediction by ZEFSAII (Michael W. Deem and Ramdas Pophale) SiO2 
 PCOD9067810
Probable space group: P -1
;
_chemical_formula_sum "Si O2"
_cell_formula_units_Z 16
_cell_length_a 11.323104
_cell_length_b 7.642434
_cell_length_c 17.885475
_cell_angle_alpha 46.276815
_cell_angle_beta 42.166024
_cell_angle_gamma 73.629881
_cell_volume 660.716077
_symmetry_space_group_name_H-M "P -1"
_symmetry_group_IT_number 2
_symmetry_cell_setting 'triclinic'
loop_
_space_group_symop_operation_xyz
x,y,z
-x,-y,-z
loop_
_atom_site_type_symbol
_atom_site_label
_atom_site_fract_x
_atom_site_fract_y
_atom_site_fract_z
Si Si1 0.209814 0.235459 0.801474
Si Si2 0.842311 0.349908 0.187210
Si Si3 0.503143 0.312404 0.273468
Si Si4 0.925660 0.965351 0.369838
Si Si5 0.672072 0.802626 0.847739
Si Si6 0.662073 0.925914 0.981168
Si Si7 0.564864 0.083487 0.701187
Si Si8 0.914353 0.631304 0.332788
O O1 0.216064 0.483830 0.773515
O O2 0.394658 0.175584 0.746464
O O3 0.185842 0.269741 0.714031
O O4 0.000000 0.000000 0.000000
O O5 0.632552 0.191978 0.290012
O O6 0.920157 0.183965 0.249544
O O7 0.000000 0.500000 0.000000
O O8 0.595260 0.642747 0.141005
O O9 0.282858 0.174872 0.448068
O O10 0.500586 0.208114 0.221805
O O11 0.099441 0.097466 0.312533
O O12 0.910630 0.724541 0.392227
O O13 0.604922 0.021215 0.784959
O O14 0.500000 0.500000 0.000000
O O15 0.724426 0.840747 0.899181
O O16 0.500000 0.000000 0.000000
O O17 0.847757 0.198368 0.847566
O O18 0.770446 0.306211 0.500632
#
# Coordination Sequence:
#
# PCOD9067810 Si02
#       8
#     2   2   2   2   2   2   2   2
#     4  12  26  44  76 109 142 189 238 303 361 431
#     4  12  25  46  76 107 147 185 241 297 366 431
#     4  12  25  47  72 109 143 195 239 304 362 423
#     4  11  26  45  74 104 149 189 244 297 362 428
#     4  11  26  48  71 105 145 196 240 296 362 435
#     4  11  27  45  73 101 148 190 244 297 359 433
#     4  12  27  46  74 107 149 186 247 297 360 436
#     4  11  26  47  70 109 142 189 240 298 362 423
#
# _framework density 24.216149999999999
#
# number of rings (size 3 to 8) (size 9 to 14) (size 15 to 20)
#    0.000    0.500    1.250    6.750    8.750    2.500 
#    0.000    0.000    0.000    0.000    0.000    0.000 
#    0.000    0.000    0.000    0.000    0.000    0.000 
#
# Total GULP energy -89288.116914 kJ/mol
# GULP energy per Si atom -5580.507307 kJ/mol
# Density = 2.416103 g / cm^3
# Si number density = 24.216150 Si / 1000 Ang^3
#
#
#
# Elastic Constant Matrix: (Units=GPa)
#
#
# Indices 1 2 3 4 5 6 
#
# 1 138.5581 9.4838 48.2974 -5.6005 -20.0467 -27.8851
# 2 9.4838 61.4323 19.5421 -3.3027 -13.6513 -8.6715
# 3 48.2974 19.5421 98.1059 -9.9714 -26.4014 -22.1821
# 4 -5.6005 -3.3027 -9.9714 31.4268 -7.1451 0.6887
# 5 -20.0467 -13.6513 -26.4014 -7.1451 36.5726 4.7405
# 6 -27.8851 -8.6715 -22.1821 0.6887 4.7405 47.6249
#
#
#
# Elastic Compliance Matrix: (Units=1/GPa)
#
#
# Indices 1 2 3 4 5 6 
#
# 1 0.009510 0.000815 -0.002933 0.001482 0.003169 0.004014
# 2 0.000815 0.018603 -0.001446 0.003094 0.006629 0.002486
# 3 -0.002933 -0.001446 0.016471 0.006836 0.010489 0.004548
# 4 0.001482 0.003094 0.006836 0.037684 0.013917 0.002685
# 5 0.003169 0.006629 0.010489 0.013917 0.041374 0.003628
# 6 0.004014 0.002486 0.004548 0.002685 0.003628 0.025518
#
#
# Mechanical properties :
#
#
# Convention : Reuss Voigt Hill
#
# Bulk Modulus (GPa) = 26.69873 50.30478 38.50175
# Shear Modulus (GPa) = 29.62549 37.84305 33.73427
#
# Velocity S-wave (km/s) = 3.50148 3.95741 3.73641
# Velocity P-wave (km/s) = 5.23414 6.45754 5.87776
#
# Compressibility (1/GPa) = 0.03745497
#
# Stress axis : x y z
#
# Youngs Moduli (GPa) = 105.15282 53.75582 60.71300
#
# Poissons Ratio (x) = -0.04383 0.17808
# Poissons Ratio (y) = -0.08574 0.08782
# Poissons Ratio (z) = 0.30843 0.07776
#
# Static dielectric constant tensor:
#      x y z
#    x 1.847790 -0.100600 -0.040890 
#    y -0.100600 1.875080 0.193970 
#    z -0.040890 0.193970 2.225600 
# 
# From -- ./inp_files/593955.got.cif
#   From: 2010.05.17/outbox.cif.g08.bks.cpg/sg2_297_cif.got.tgz:593955.got - 2010.06.03 11:33:40.
