data_PCOD9067612
_publ_section_title
;
Structure prediction by ZEFSAII (Michael W. Deem and Ramdas Pophale) SiO2 
 PCOD9067612
Probable space group: P -1
;
_chemical_formula_sum "Si O2"
_cell_formula_units_Z 12
_cell_length_a 18.764474
_cell_length_b 12.515334
_cell_length_c 4.920012
_cell_angle_alpha 102.509133
_cell_angle_beta 87.230437
_cell_angle_gamma 154.132239
_cell_volume 462.086388
_symmetry_space_group_name_H-M "P -1"
_symmetry_group_IT_number 2
_symmetry_cell_setting 'triclinic'
loop_
_space_group_symop_operation_xyz
x,y,z
-x,-y,-z
loop_
_atom_site_type_symbol
_atom_site_label
_atom_site_fract_x
_atom_site_fract_y
_atom_site_fract_z
Si Si1 0.168060 0.717419 0.773849
Si Si2 0.481388 0.846189 0.354953
Si Si3 0.723404 0.528282 0.311741
Si Si4 0.693084 0.727294 0.581190
Si Si5 0.963486 0.264609 0.880259
Si Si6 0.956400 0.061781 0.160882
O O1 0.337745 0.943445 0.686611
O O2 0.000000 0.500000 0.500000
O O3 0.124417 0.547618 0.860410
O O4 0.158219 0.808531 0.020047
O O5 0.659905 0.382774 0.971886
O O6 0.500000 0.000000 0.500000
O O7 0.417300 0.699141 0.558995
O O8 0.720577 0.655446 0.367600
O O9 0.915357 0.763041 0.503449
O O10 0.500000 0.500000 0.500000
O O11 0.825247 0.001941 0.582747
O O12 0.762213 0.803275 0.917541
O O13 0.024784 0.268436 0.107821
O O14 0.000000 0.000000 0.000000
#
# Coordination Sequence:
#
# PCOD9067612 Si02
#       6
#     2   2   2   2   2   2
#     4  11  26  46  76 111 159 213 265 326 401 475
#     4  12  30  49  80 112 159 211 275 326 398 479
#     4  11  25  51  76 116 161 205 264 333 406 476
#     4   9  19  42  82 115 154 203 267 332 400 472
#     4   9  22  46  76 114 160 206 266 322 406 474
#     4   8  19  42  74 116 156 202 252 325 404 472
#
# _framework density 25.969168
#
# number of rings (size 3 to 8) (size 9 to 14) (size 15 to 20)
#    1.000    1.000    0.000    1.500    9.333    1.333 
#    3.000    9.167    0.000    0.000    0.000    0.000 
#    0.000    0.000    0.000    0.000    0.000    0.000 
#
# Total GULP energy -67149.309913 kJ/mol
# GULP energy per Si atom -5595.775826 kJ/mol
# Density = 2.591006 g / cm^3
# Si number density = 25.969168 Si / 1000 Ang^3
#
#
#
# Elastic Constant Matrix: (Units=GPa)
#
#
# Indices 1 2 3 4 5 6 
#
# 1 148.6280 65.0324 44.0687 26.0934 1.8411 7.2509
# 2 65.0324 117.8851 5.6201 0.3676 -22.5755 7.8909
# 3 44.0687 5.6201 110.7898 22.6894 -10.5122 -20.3331
# 4 26.0934 0.3676 22.6894 46.8390 -9.4022 0.9628
# 5 1.8411 -22.5755 -10.5122 -9.4022 45.8729 3.8954
# 6 7.2509 7.8909 -20.3331 0.9628 3.8954 69.1024
#
#
#
# Elastic Compliance Matrix: (Units=1/GPa)
#
#
# Indices 1 2 3 4 5 6 
#
# 1 0.012704 -0.007967 -0.004210 -0.006271 -0.006578 -0.001204
# 2 -0.007967 0.014555 0.002092 0.005151 0.009085 -0.000794
# 3 -0.004210 0.002092 0.012176 -0.003031 0.003057 0.003656
# 4 -0.006271 0.005151 -0.003031 0.027901 0.007952 -0.001659
# 5 -0.006578 0.009085 0.003057 0.007952 0.028966 -0.001191
# 6 -0.001204 -0.000794 0.003656 -0.001659 -0.001191 0.015854
#
#
# Mechanical properties :
#
#
# Convention : Reuss Voigt Hill
#
# Bulk Modulus (GPa) = 51.90615 67.41615 59.66115
# Shear Modulus (GPa) = 36.03660 49.86829 42.95245
#
# Velocity S-wave (km/s) = 3.72918 4.38686 4.07133
# Velocity P-wave (km/s) = 6.21075 7.18859 6.71749
#
# Compressibility (1/GPa) = 0.01926554
#
# Stress axis : x y z
#
# Youngs Moduli (GPa) = 78.71808 68.70399 82.12752
#
# Poissons Ratio (x) = 0.54737 0.34574
# Poissons Ratio (y) = 0.62715 -0.17182
# Poissons Ratio (z) = 0.33138 -0.14373
#
# Static dielectric constant tensor:
#      x y z
#    x 2.023990 -0.015130 -0.119230 
#    y -0.015130 0.767690 0.447280 
#    z -0.119230 0.447280 2.064280 
# 
# From -- ./inp_files/109250.got.cif
#   From: 2010.05.17/outbox.cif.g08.bks.cpg/sg2_55_cif.got.tgz:109250.got - 2010.06.03 11:33:40.
