data_PCOD9067543
_publ_section_title
;
Structure prediction by ZEFSAII (Michael W. Deem and Ramdas Pophale) SiO2 
 PCOD9067543
Probable space group: P -1
;
_chemical_formula_sum "Si O2"
_cell_formula_units_Z 11
_cell_length_a 5.209876
_cell_length_b 14.887113
_cell_length_c 9.365543
_cell_angle_alpha 138.159554
_cell_angle_beta 83.344990
_cell_angle_gamma 74.432110
_cell_volume 406.497169
_symmetry_space_group_name_H-M "P -1"
_symmetry_group_IT_number 2
_symmetry_cell_setting 'triclinic'
loop_
_space_group_symop_operation_xyz
x,y,z
-x,-y,-z
loop_
_atom_site_type_symbol
_atom_site_label
_atom_site_fract_x
_atom_site_fract_y
_atom_site_fract_z
Si Si1 0.857194 0.395088 0.879927
Si Si2 0.386409 0.344671 0.377577
Si Si3 0.884204 0.189907 0.401447
Si Si4 0.234981 0.998504 0.601787
Si Si5 0.500000 0.000000 0.000000
Si Si6 0.864712 0.318849 0.112617
O O1 0.000128 0.273175 0.597659
O O2 0.500000 0.500000 0.000000
O O3 0.888534 0.320640 0.943304
O O4 0.000000 0.500000 0.000000
O O5 0.647942 0.303351 0.431792
O O6 0.554278 0.338257 0.212283
O O7 0.130745 0.531075 0.648213
O O8 0.336468 0.199553 0.225903
O O9 0.694885 0.147041 0.472520
O O10 0.182703 0.035067 0.135469
O O11 0.500000 0.000000 0.500000
O O12 0.000000 0.000000 0.500000
O O13 0.127662 0.134099 0.893752
#
# Coordination Sequence:
#
# PCOD9067543 Si02
#       6
#     2   2   2   2   1   2
#     4  12  27  50  80 114 157 204 266 329 397 470
#     4  11  26  50  76 113 157 211 262 333 392 478
#     4  12  27  48  80 113 157 216 262 329 405 475
#     4  12  29  48  80 117 160 204 264 330 395 471
#     4  12  26  48  76 112 162 204 270 316 416 458
#     4  11  25  50  77 115 157 205 271 325 396 469
#
# _framework density 27.060455999999999
#
# number of rings (size 3 to 8) (size 9 to 14) (size 15 to 20)
#    0.000    0.364    5.455    1.636    5.091    0.000 
#    6.545    2.727    0.000    0.000    0.000    0.000 
#    0.000    0.000    0.000    0.000    0.000    0.000 
#
# Total GULP energy -61396.379194 kJ/mol
# GULP energy per Si atom -5581.489018 kJ/mol
# Density = 2.699886 g / cm^3
# Si number density = 27.060456 Si / 1000 Ang^3
#
#
#
# Elastic Constant Matrix: (Units=GPa)
#
#
# Indices 1 2 3 4 5 6 
#
# 1 155.2178 34.3781 60.1280 -6.7717 9.4592 29.6959
# 2 34.3781 89.8959 30.3811 0.4955 17.0106 41.6604
# 3 60.1280 30.3811 198.1410 14.8382 9.7510 16.9625
# 4 -6.7717 0.4955 14.8382 62.4078 12.5287 6.1715
# 5 9.4592 17.0106 9.7510 12.5287 47.8923 -4.0781
# 6 29.6959 41.6604 16.9625 6.1715 -4.0781 36.8205
#
#
#
# Elastic Compliance Matrix: (Units=1/GPa)
#
#
# Indices 1 2 3 4 5 6 
#
# 1 0.009169 0.003149 -0.002380 0.003475 -0.004284 -0.010918
# 2 0.003149 0.034567 -0.002218 0.008667 -0.018473 -0.044127
# 3 -0.002380 -0.002218 0.006048 -0.002030 0.000733 0.002064
# 4 0.003475 0.008667 -0.002030 0.020442 -0.010080 -0.016216
# 5 -0.004284 -0.018473 0.000733 -0.010080 0.033278 0.029393
# 6 -0.010918 -0.044127 0.002064 -0.016216 0.029393 0.090914
#
#
# Mechanical properties :
#
#
# Convention : Reuss Voigt Hill
#
# Bulk Modulus (GPa) = 21.32815 77.00323 49.16569
# Shear Modulus (GPa) = 23.48037 50.64863 37.06450
#
# Velocity S-wave (km/s) = 2.94887 4.33099 3.70495
# Velocity P-wave (km/s) = 4.41511 7.31627 6.04239
#
# Compressibility (1/GPa) = 0.04688639
#
# Stress axis : x y z
#
# Youngs Moduli (GPa) = 109.06878 28.92959 165.33116
#
# Poissons Ratio (x) = -0.09111 0.39348
# Poissons Ratio (y) = -0.34351 0.36674
# Poissons Ratio (z) = 0.25958 0.06417
#
# Static dielectric constant tensor:
#      x y z
#    x 2.151590 -0.328040 0.052290 
#    y -0.328040 3.343760 0.312520 
#    z 0.052290 0.312520 2.261300 
# 
# From -- ./inp_files/134712.got.cif
#   From: 2010.05.17/outbox.cif.g08.bks.cpg/sg2_68_cif.got.tgz:134712.got - 2010.06.03 11:33:40.
