data_PCOD9067568
_publ_section_title
;
Structure prediction by ZEFSAII (Michael W. Deem and Ramdas Pophale) SiO2 
 PCOD9067568
Probable space group: P -1
;
_chemical_formula_sum "Si O2"
_cell_formula_units_Z 16
_cell_length_a 18.459232
_cell_length_b 23.667740
_cell_length_c 5.272502
_cell_angle_alpha 75.140486
_cell_angle_beta 81.851561
_cell_angle_gamma 18.256170
_cell_volume 656.870270
_symmetry_space_group_name_H-M "P -1"
_symmetry_group_IT_number 2
_symmetry_cell_setting 'triclinic'
loop_
_space_group_symop_operation_xyz
x,y,z
-x,-y,-z
loop_
_atom_site_type_symbol
_atom_site_label
_atom_site_fract_x
_atom_site_fract_y
_atom_site_fract_z
Si Si1 0.659442 0.439021 0.511790
Si Si2 0.480674 0.351592 0.923009
Si Si3 0.872095 0.121677 0.179081
Si Si4 0.541952 0.204098 0.382777
Si Si5 0.582030 0.972822 0.236907
Si Si6 0.262376 0.330404 0.025753
Si Si7 0.042966 0.807474 0.865281
Si Si8 0.148750 0.535744 0.565215
O O1 0.500000 0.500000 0.500000
O O2 0.492101 0.624467 0.356059
O O3 0.819081 0.316807 0.315353
O O4 0.848174 0.304058 0.806241
O O5 0.219071 0.522559 0.785616
O O6 0.594283 0.310434 0.111141
O O7 0.628555 0.179422 0.131302
O O8 0.891127 0.175887 0.126465
O O9 0.000000 0.000000 0.500000
O O10 0.000000 0.000000 0.000000
O O11 0.389320 0.266646 0.273124
O O12 0.348696 0.391956 0.412063
O O13 0.757915 0.021790 0.676829
O O14 0.451645 0.134910 0.090959
O O15 0.500000 0.000000 0.500000
O O16 0.875097 0.754019 0.359366
O O17 0.500000 0.000000 0.000000
O O18 0.202067 0.428399 0.747349
O O19 0.000000 0.500000 0.000000
#
# Coordination Sequence:
#
# PCOD9067568 Si02
#       8
#     2   2   2   2   2   2   2   2
#     4  12  28  47  72 108 154 201 258 326 389 453
#     4  11  27  44  71 104 153 195 255 314 386 447
#     4  12  24  42  74 102 141 196 258 314 374 452
#     4  11  27  47  77 109 153 202 260 320 387 464
#     4  12  28  50  82 116 153 200 255 313 387 466
#     4  11  25  50  79 114 154 201 256 317 383 465
#     4  12  27  46  74 110 147 199 260 315 393 452
#     4  11  27  48  77 113 156 204 257 318 389 463
#
# _framework density 24.357931000000001
#
# number of rings (size 3 to 8) (size 9 to 14) (size 15 to 20)
#    0.000    0.500    3.750    2.625   10.500    1.000 
#    0.000    0.000    0.000    0.000    0.000    0.000 
#    0.000    0.000    0.000    0.000    0.000    0.000 
#
# Total GULP energy -89341.505395 kJ/mol
# GULP energy per Si atom -5583.844087 kJ/mol
# Density = 2.430249 g / cm^3
# Si number density = 24.357931 Si / 1000 Ang^3
#
#
#
# Elastic Constant Matrix: (Units=GPa)
#
#
# Indices 1 2 3 4 5 6 
#
# 1 150.2227 39.5518 58.7929 -15.8238 16.9472 -3.5214
# 2 39.5518 138.3530 73.3897 -21.8461 21.4754 4.0938
# 3 58.7929 73.3897 221.9827 -29.5396 28.0576 -3.1722
# 4 -15.8238 -21.8461 -29.5396 60.4787 -5.8244 10.1182
# 5 16.9472 21.4754 28.0576 -5.8244 57.0014 -8.5414
# 6 -3.5214 4.0938 -3.1722 10.1182 -8.5414 34.5185
#
#
#
# Elastic Compliance Matrix: (Units=1/GPa)
#
#
# Indices 1 2 3 4 5 6 
#
# 1 0.007727 -0.001188 -0.001420 0.000745 -0.001026 0.000326
# 2 -0.001188 0.009581 -0.002301 0.002256 -0.002298 -0.002699
# 3 -0.001420 -0.002301 0.006052 0.001634 -0.001550 -0.000178
# 4 0.000745 0.002256 0.001634 0.019251 -0.000790 -0.005880
# 5 -0.001026 -0.002298 -0.001550 -0.000790 0.020183 0.005251
# 6 0.000326 -0.002699 -0.000178 -0.005880 0.005251 0.032330
#
#
# Mechanical properties :
#
#
# Convention : Reuss Voigt Hill
#
# Bulk Modulus (GPa) = 73.84458 94.89192 84.36825
# Shear Modulus (GPa) = 45.68018 52.98801 49.33409
#
# Velocity S-wave (km/s) = 4.33525 4.66917 4.50531
# Velocity P-wave (km/s) = 7.44590 8.25288 7.85976
#
# Compressibility (1/GPa) = 0.01354196
#
# Stress axis : x y z
#
# Youngs Moduli (GPa) = 129.40967 104.37522 165.22305
#
# Poissons Ratio (x) = 0.12405 0.23465
# Poissons Ratio (y) = 0.15380 0.38012
# Poissons Ratio (z) = 0.18379 0.24013
#
# Static dielectric constant tensor:
#      x y z
#    x 1.886090 -0.010430 0.008770 
#    y -0.010430 2.083560 0.090770 
#    z 0.008770 0.090770 1.975210 
# 
# From -- ./inp_files/112787.got.cif
#   From: 2010.05.17/outbox.cif.g08.bks.cpg/sg2_57_cif.got.tgz:112787.got - 2010.06.03 11:33:40.
