data_PCOD9067335
_publ_section_title
;
Structure prediction by ZEFSAII (Michael W. Deem and Ramdas Pophale) SiO2 
 PCOD9067335
Probable space group: P -1
;
_chemical_formula_sum "Si O2"
_cell_formula_units_Z 11
_cell_length_a 6.122999
_cell_length_b 15.653375
_cell_length_c 4.838073
_cell_angle_alpha 96.983640
_cell_angle_beta 101.831149
_cell_angle_gamma 57.333966
_cell_volume 382.037288
_symmetry_space_group_name_H-M "P -1"
_symmetry_group_IT_number 2
_symmetry_cell_setting 'triclinic'
loop_
_space_group_symop_operation_xyz
x,y,z
-x,-y,-z
loop_
_atom_site_type_symbol
_atom_site_label
_atom_site_fract_x
_atom_site_fract_y
_atom_site_fract_z
Si Si1 0.187124 0.323305 0.705431
Si Si2 0.254298 0.055688 0.161520
Si Si3 0.000000 0.500000 0.500000
Si Si4 0.732613 0.125950 0.698119
Si Si5 0.895743 0.241445 0.416155
Si Si6 0.589549 0.563928 0.880290
O O1 0.466709 0.222403 0.783486
O O2 0.108359 0.375515 0.400978
O O3 0.975752 0.292382 0.698529
O O4 0.220528 0.417455 0.856917
O O5 0.174192 0.163269 0.312925
O O6 0.292453 0.971621 0.362109
O O7 0.990528 0.089251 0.933476
O O8 0.500000 0.000000 0.000000
O O9 0.751795 0.509732 0.626408
O O10 0.791017 0.171041 0.464333
O O11 0.664134 0.329613 0.218757
O O12 0.500000 0.500000 0.000000
#
# Coordination Sequence:
#
# PCOD9067335 Si02
#       6
#     2   2   1   2   2   2
#     4  12  27  48  82 121 157 215 281 335 414 498
#     4  11  26  48  81 119 161 216 272 336 412 497
#     4  12  28  52  84 120 158 224 276 336 424 488
#     4  11  25  48  79 116 163 207 275 333 409 496
#     4  12  27  51  82 113 167 216 267 346 418 484
#     4  12  29  54  85 119 170 216 282 348 411 498
#
# _framework density 28.793005000000001
#
# number of rings (size 3 to 8) (size 9 to 14) (size 15 to 20)
#    0.000    0.364    3.636    3.273    2.545   11.636 
#    0.000    0.909    4.000    0.000    0.000    0.000 
#    0.000    0.000    0.000    0.000    0.000    0.000 
#
# Total GULP energy -61489.188679 kJ/mol
# GULP energy per Si atom -5589.926244 kJ/mol
# Density = 2.872747 g / cm^3
# Si number density = 28.793005 Si / 1000 Ang^3
#
#
#
# Elastic Constant Matrix: (Units=GPa)
#
#
# Indices 1 2 3 4 5 6 
#
# 1 171.1268 103.5524 74.5011 -9.0726 -7.4670 -6.7671
# 2 103.5524 260.6369 60.0191 -36.7280 -10.4755 -5.7056
# 3 74.5011 60.0191 105.0013 -8.2780 -6.8507 4.5669
# 4 -9.0726 -36.7280 -8.2780 61.0433 4.5157 5.4993
# 5 -7.4670 -10.4755 -6.8507 4.5157 60.2970 -11.0302
# 6 -6.7671 -5.7056 4.5669 5.4993 -11.0302 50.8068
#
#
#
# Elastic Compliance Matrix: (Units=1/GPa)
#
#
# Indices 1 2 3 4 5 6 
#
# 1 0.010019 -0.002781 -0.005653 -0.001149 0.000525 0.001769
# 2 -0.002781 0.005573 -0.000977 0.002773 0.000326 0.000114
# 3 -0.005653 -0.000977 0.014260 0.000677 0.000306 -0.002151
# 4 -0.001149 0.002773 0.000677 0.018267 -0.001349 -0.002173
# 5 0.000525 0.000326 0.000306 -0.001349 0.017581 0.004042
# 6 0.001769 0.000114 -0.002151 -0.002173 0.004042 0.021237
#
#
# Mechanical properties :
#
#
# Convention : Reuss Voigt Hill
#
# Bulk Modulus (GPa) = 90.66009 112.54556 101.60282
# Shear Modulus (GPa) = 45.68871 54.34224 50.01547
#
# Velocity S-wave (km/s) = 3.98779 4.34907 4.17234
# Velocity P-wave (km/s) = 7.26350 8.02445 7.65344
#
# Compressibility (1/GPa) = 0.01103021
#
# Stress axis : x y z
#
# Youngs Moduli (GPa) = 99.80684 179.43179 70.12690
#
# Poissons Ratio (x) = 0.49903 0.39639
# Poissons Ratio (y) = 0.27758 0.06854
# Poissons Ratio (z) = 0.56416 0.17538
#
# Static dielectric constant tensor:
#      x y z
#    x 2.199330 0.349080 -0.854150 
#    y 0.349080 1.326370 2.880340 
#    z -0.854150 2.880340 -5.488070 
# 
# From -- ./inp_files/4104.got.cif
#   From: 2010.05.17/outbox.cif.g08.bks.cpg/sg2_3_cif.got.tgz:4104.got - 2010.06.03 11:33:40.
