data_PCOD9067505
_publ_section_title
;
Structure prediction by ZEFSAII (Michael W. Deem and Ramdas Pophale) SiO2 
 PCOD9067505
Probable space group: P -1
;
_chemical_formula_sum "Si O2"
_cell_formula_units_Z 14
_cell_length_a 10.979806
_cell_length_b 11.085204
_cell_length_c 11.148368
_cell_angle_alpha 102.710954
_cell_angle_beta 100.158081
_cell_angle_gamma 25.902533
_cell_volume 577.485125
_symmetry_space_group_name_H-M "P -1"
_symmetry_group_IT_number 2
_symmetry_cell_setting 'triclinic'
loop_
_space_group_symop_operation_xyz
x,y,z
-x,-y,-z
loop_
_atom_site_type_symbol
_atom_site_label
_atom_site_fract_x
_atom_site_fract_y
_atom_site_fract_z
Si Si1 0.974743 0.787231 0.033838
Si Si2 0.593457 0.792653 0.905004
Si Si3 0.845383 0.878612 0.750550
Si Si4 0.445722 0.642703 0.629340
Si Si5 0.772616 0.603425 0.635895
Si Si6 0.295171 0.275400 0.616027
Si Si7 0.868747 0.146143 0.760706
O O1 0.181856 0.492468 0.048556
O O2 0.690203 0.030085 0.112536
O O3 0.089655 0.817747 0.099325
O O4 0.899232 0.836641 0.893165
O O5 0.701708 0.727326 0.778299
O O6 0.500000 0.000000 0.000000
O O7 0.078340 0.584017 0.666249
O O8 0.861792 0.005521 0.738623
O O9 0.550954 0.086133 0.702143
O O10 0.500000 0.500000 0.500000
O O11 0.631165 0.596875 0.622421
O O12 0.119686 0.955552 0.669919
O O13 0.580241 0.456655 0.727447
O O14 0.106615 0.324116 0.625211
O O15 0.655907 0.766017 0.527963
#
# Coordination Sequence:
#
# PCOD9067505 Si02
#       7
#     2   2   2   2   2   2   2
#     4  12  25  47  72 110 147 198 248 310 370 438
#     4  12  26  46  76 108 150 195 249 307 375 443
#     4  12  26  48  72 111 152 194 260 290 378 447
#     4  12  25  44  75 108 149 195 245 310 370 442
#     4  11  25  50  74 107 151 188 260 299 381 441
#     4  11  28  46  74 106 147 203 238 319 363 446
#     4  12  24  46  72 109 147 197 248 305 373 432
#
# _framework density 24.24305
#
# number of rings (size 3 to 8) (size 9 to 14) (size 15 to 20)
#    0.000    0.286    2.857    5.571    0.000    8.000 
#    0.000    4.286    0.000    0.000    0.000    0.000 
#    0.000    0.000    0.000    0.000    0.000    0.000 
#
# Total GULP energy -78452.472868 kJ/mol
# GULP energy per Si atom -5603.748062 kJ/mol
# Density = 2.418787 g / cm^3
# Si number density = 24.243050 Si / 1000 Ang^3
#
#
#
# Elastic Constant Matrix: (Units=GPa)
#
#
# Indices 1 2 3 4 5 6 
#
# 1 138.7685 30.7532 37.4948 -8.5109 10.8192 2.3482
# 2 30.7532 128.7496 18.2398 -17.6726 -3.2767 -10.1949
# 3 37.4948 18.2398 150.2384 -0.9012 15.9507 -10.6801
# 4 -8.5109 -17.6726 -0.9012 30.8380 -15.6995 -1.5767
# 5 10.8192 -3.2767 15.9507 -15.6995 33.2880 -0.9385
# 6 2.3482 -10.1949 -10.6801 -1.5767 -0.9385 28.8237
#
#
#
# Elastic Compliance Matrix: (Units=1/GPa)
#
#
# Indices 1 2 3 4 5 6 
#
# 1 0.008316 -0.001971 -0.001757 -0.000092 -0.002158 -0.002101
# 2 -0.001971 0.010045 -0.001061 0.008595 0.006304 0.003996
# 3 -0.001757 -0.001061 0.007874 -0.003147 -0.004724 0.002359
# 4 -0.000092 0.008595 -0.003147 0.051076 0.026629 0.005542
# 5 -0.002158 0.006304 -0.004724 0.026629 0.046287 0.003619
# 6 -0.002101 0.003996 0.002359 0.005542 0.003619 0.037573
#
#
# Mechanical properties :
#
#
# Convention : Reuss Voigt Hill
#
# Bulk Modulus (GPa) = 60.03965 65.63688 62.83827
# Shear Modulus (GPa) = 28.36042 40.67454 34.51748
#
# Velocity S-wave (km/s) = 3.42400 4.10052 3.77743
# Velocity P-wave (km/s) = 6.36012 7.03934 6.70833
#
# Compressibility (1/GPa) = 0.01665566
#
# Stress axis : x y z
#
# Youngs Moduli (GPa) = 120.25053 99.55321 127.00344
#
# Poissons Ratio (x) = 0.19625 0.22313
# Poissons Ratio (y) = 0.23705 0.13478
# Poissons Ratio (z) = 0.21127 0.10565
#
# Static dielectric constant tensor:
#      x y z
#    x 1.956480 0.005270 0.043430 
#    y 0.005270 1.950730 0.020430 
#    z 0.043430 0.020430 1.936360 
# 
# From -- ./inp_files/433871.got.cif
#   From: 2010.05.17/outbox.cif.g08.bks.cpg/sg2_217_cif.got.tgz:433871.got - 2010.06.03 11:33:40.
