data_PCOD9067369
_publ_section_title
;
Structure prediction by ZEFSAII (Michael W. Deem and Ramdas Pophale) SiO2 
 PCOD9067369
Probable space group: P -1
;
_chemical_formula_sum "Si O2"
_cell_formula_units_Z 12
_cell_length_a 12.132555
_cell_length_b 8.538296
_cell_length_c 10.949962
_cell_angle_alpha 43.610670
_cell_angle_beta 61.044062
_cell_angle_gamma 38.282538
_cell_volume 475.224491
_symmetry_space_group_name_H-M "P -1"
_symmetry_group_IT_number 2
_symmetry_cell_setting 'triclinic'
loop_
_space_group_symop_operation_xyz
x,y,z
-x,-y,-z
loop_
_atom_site_type_symbol
_atom_site_label
_atom_site_fract_x
_atom_site_fract_y
_atom_site_fract_z
Si Si1 0.413369 0.378202 0.658053
Si Si2 0.728799 0.948169 0.899984
Si Si3 0.292098 0.736145 0.019430
Si Si4 0.948524 0.229134 0.263622
Si Si5 0.123406 0.120456 0.640560
Si Si6 0.620653 0.878139 0.623609
O O1 0.500000 0.500000 0.500000
O O2 0.195517 0.643337 0.625214
O O3 0.520200 0.210420 0.823710
O O4 0.492070 0.085606 0.690986
O O5 0.856470 0.907823 0.754757
O O6 0.824260 0.581027 0.065059
O O7 0.745910 0.062793 0.953496
O O8 0.184576 0.964214 0.830333
O O9 0.500000 0.500000 0.000000
O O10 0.268137 0.498402 0.197505
O O11 0.965560 0.980930 0.316212
O O12 0.276598 0.021404 0.522487
O O13 0.000000 0.500000 0.500000
O O14 0.500000 0.000000 0.500000
#
# Coordination Sequence:
#
# PCOD9067369 Si02
#       6
#     2   2   2   2   2   2
#     4  12  24  46  75 108 148 195 252 316 375 455
#     4  11  26  47  76 110 148 199 255 311 384 455
#     4  12  24  47  79 107 154 203 254 315 379 458
#     4  11  25  49  72 107 149 197 250 308 382 449
#     4  12  27  47  74 114 153 196 256 316 382 456
#     4  12  25  47  76 112 147 199 257 309 386 456
#
# _framework density 25.251223
#
# number of rings (size 3 to 8) (size 9 to 14) (size 15 to 20)
#    0.000    0.333    3.333    5.500    0.000    6.000 
#    0.000    0.000    0.000    0.000    0.000    0.000 
#    0.000    0.000    0.000    0.000    0.000    0.000 
#
# Total GULP energy -67164.939323 kJ/mol
# GULP energy per Si atom -5597.078277 kJ/mol
# Density = 2.519375 g / cm^3
# Si number density = 25.251223 Si / 1000 Ang^3
#
#
#
# Elastic Constant Matrix: (Units=GPa)
#
#
# Indices 1 2 3 4 5 6 
#
# 1 70.0278 26.6819 33.4096 2.1632 -6.7625 7.1581
# 2 26.6819 123.6083 14.7797 -1.7882 -1.8965 6.1136
# 3 33.4096 14.7797 191.7631 -3.9119 -11.7228 13.0931
# 4 2.1632 -1.7882 -3.9119 39.8680 -0.0413 -17.6054
# 5 -6.7625 -1.8965 -11.7228 -0.0413 52.9411 5.3895
# 6 7.1581 6.1136 13.0931 -17.6054 5.3895 58.3272
#
#
#
# Elastic Compliance Matrix: (Units=1/GPa)
#
#
# Indices 1 2 3 4 5 6 
#
# 1 0.017197 -0.003314 -0.002543 -0.002222 0.001719 -0.002022
# 2 -0.003314 0.008837 -0.000075 0.000404 -0.000085 -0.000373
# 3 -0.002543 -0.000075 0.005802 0.000263 0.001059 -0.001001
# 4 -0.002222 0.000404 0.000263 0.029268 -0.001116 0.009109
# 5 0.001719 -0.000085 0.001059 -0.001116 0.019603 -0.002588
# 6 -0.002022 -0.000373 -0.001001 0.009109 -0.002588 0.020645
#
#
# Mechanical properties :
#
#
# Convention : Reuss Voigt Hill
#
# Bulk Modulus (GPa) = 50.06882 59.46018 54.76450
# Shear Modulus (GPa) = 41.71027 50.92914 46.31970
#
# Velocity S-wave (km/s) = 4.06866 4.49586 4.28758
# Velocity P-wave (km/s) = 6.47636 7.10978 6.80045
#
# Compressibility (1/GPa) = 0.01997251
#
# Stress axis : x y z
#
# Youngs Moduli (GPa) = 58.14886 113.15569 172.35213
#
# Poissons Ratio (x) = 0.37498 0.43828
# Poissons Ratio (y) = 0.19270 0.01297
# Poissons Ratio (z) = 0.14787 0.00852
#
# Static dielectric constant tensor:
#      x y z
#    x 1.921350 -0.064950 -0.036430 
#    y -0.064950 2.114060 0.113740 
#    z -0.036430 0.113740 2.151200 
# 
# From -- ./inp_files/253434.got.cif
#   From: 2010.05.17/outbox.cif.g08.bks.cpg/sg2_127_cif.got.tgz:253434.got - 2010.06.03 11:33:40.
