data_PCOD9067169
_publ_section_title
;
Structure prediction by ZEFSAII (Michael W. Deem and Ramdas Pophale) SiO2 
 PCOD9067169
Probable space group: P -1
;
_chemical_formula_sum "Si O2"
_cell_formula_units_Z 16
_cell_length_a 12.018283
_cell_length_b 19.329189
_cell_length_c 6.840804
_cell_angle_alpha 117.574375
_cell_angle_beta 132.946281
_cell_angle_gamma 39.183776
_cell_volume 727.607078
_symmetry_space_group_name_H-M "P -1"
_symmetry_group_IT_number 2
_symmetry_cell_setting 'triclinic'
loop_
_space_group_symop_operation_xyz
x,y,z
-x,-y,-z
loop_
_atom_site_type_symbol
_atom_site_label
_atom_site_fract_x
_atom_site_fract_y
_atom_site_fract_z
Si Si1 0.649202 0.340180 0.450610
Si Si2 0.203344 0.965984 0.810761
Si Si3 0.407420 0.495884 0.692430
Si Si4 0.985251 0.592220 0.519052
Si Si5 0.382877 0.292284 0.076265
Si Si6 0.739335 0.755873 0.779178
Si Si7 0.865401 0.864827 0.297153
Si Si8 0.354484 0.984507 0.400607
O O1 0.595110 0.378373 0.660203
O O2 0.650743 0.416750 0.421123
O O3 0.452277 0.354486 0.184008
O O4 0.879747 0.218036 0.536276
O O5 0.403083 0.836555 0.852449
O O6 0.249157 0.030713 0.841610
O O7 0.208793 0.989823 0.076448
O O8 0.000000 0.000000 0.500000
O O9 0.195357 0.530920 0.560741
O O10 0.500000 0.500000 0.000000
O O11 0.926215 0.670506 0.732730
O O12 0.000000 0.500000 0.500000
O O13 0.788770 0.672460 0.239683
O O14 0.299245 0.306468 0.214236
O O15 0.521956 0.864334 0.551313
O O16 0.804692 0.801118 0.065988
O O17 0.794933 0.915202 0.493663
O O18 0.500000 0.000000 0.500000
#
# Coordination Sequence:
#
# PCOD9067169 Si02
#       8
#     2   2   2   2   2   2   2   2
#     4  11  26  45  70 102 140 190 241 303 370 443
#     4  12  25  47  69 108 152 193 243 308 374 446
#     4  11  25  48  72 100 140 185 248 307 368 435
#     4  12  27  47  76 112 144 195 251 309 374 441
#     4  12  25  46  71 104 151 189 246 305 372 441
#     4  12  25  43  74 108 148 193 247 309 371 442
#     4  12  25  44  73 108 145 196 244 298 380 444
#     4  12  25  43  73 108 149 194 251 303 365 460
#
# _framework density 21.989889999999999
#
# number of rings (size 3 to 8) (size 9 to 14) (size 15 to 20)
#    0.000    0.250    5.000    4.125    1.750    5.500 
#    2.250    0.000    0.000    0.000    0.000    0.000 
#    0.000    0.000    0.000    0.000    0.000    0.000 
#
# Total GULP energy -89458.685103 kJ/mol
# GULP energy per Si atom -5591.167819 kJ/mol
# Density = 2.193984 g / cm^3
# Si number density = 21.989890 Si / 1000 Ang^3
#
#
#
# Elastic Constant Matrix: (Units=GPa)
#
#
# Indices 1 2 3 4 5 6 
#
# 1 150.6344 41.4790 33.8507 9.4442 -7.0205 -16.4392
# 2 41.4790 62.1352 3.9592 10.5062 -16.2614 -25.7216
# 3 33.8507 3.9592 101.5268 6.8441 -12.1796 -27.3170
# 4 9.4442 10.5062 6.8441 39.5540 -8.0968 -9.7463
# 5 -7.0205 -16.2614 -12.1796 -8.0968 33.0814 9.8895
# 6 -16.4392 -25.7216 -27.3170 -9.7463 9.8895 43.9580
#
#
#
# Elastic Compliance Matrix: (Units=1/GPa)
#
#
# Indices 1 2 3 4 5 6 
#
# 1 0.009222 -0.007706 -0.003847 -0.000757 -0.002520 -0.003052
# 2 -0.007706 0.030861 0.007329 -0.001211 0.010848 0.017022
# 3 -0.003847 0.007329 0.014293 0.000127 0.004893 0.010659
# 4 -0.000757 -0.001211 0.000127 0.027779 0.004847 0.004156
# 5 -0.002520 0.010848 0.004893 0.004847 0.037704 0.001038
# 6 -0.003052 0.017022 0.010659 0.004156 0.001038 0.038880
#
#
# Mechanical properties :
#
#
# Convention : Reuss Voigt Hill
#
# Bulk Modulus (GPa) = 21.77311 52.54155 37.15733
# Shear Modulus (GPa) = 27.39817 38.98586 33.19202
#
# Velocity S-wave (km/s) = 3.53362 4.21515 3.88934
# Velocity P-wave (km/s) = 5.15476 6.90184 6.09126
#
# Compressibility (1/GPa) = 0.04592821
#
# Stress axis : x y z
#
# Youngs Moduli (GPa) = 108.43804 32.40334 69.96583
#
# Poissons Ratio (x) = 0.24969 0.26913
# Poissons Ratio (y) = 0.83559 -0.51275
# Poissons Ratio (z) = 0.41711 -0.23747
#
# Static dielectric constant tensor:
#      x y z
#    x 1.740890 0.133940 0.049920 
#    y 0.133940 1.354810 -0.059920 
#    z 0.049920 -0.059920 1.810610 
# 
# From -- ./inp_files/83487.got.cif
#   From: 2010.05.17/outbox.cif.g08.bks.cpg/sg2_42_cif.got.tgz:83487.got - 2010.06.03 11:33:40.
