data_PCOD9067308
_publ_section_title
;
Structure prediction by ZEFSAII (Michael W. Deem and Ramdas Pophale) SiO2 
 PCOD9067308
Probable space group: P -1
;
_chemical_formula_sum "Si O2"
_cell_formula_units_Z 13
_cell_length_a 5.200342
_cell_length_b 9.327107
_cell_length_c 10.694351
_cell_angle_alpha 103.138644
_cell_angle_beta 93.285891
_cell_angle_gamma 106.092039
_cell_volume 481.319255
_symmetry_space_group_name_H-M "P -1"
_symmetry_group_IT_number 2
_symmetry_cell_setting 'triclinic'
loop_
_space_group_symop_operation_xyz
x,y,z
-x,-y,-z
loop_
_atom_site_type_symbol
_atom_site_label
_atom_site_fract_x
_atom_site_fract_y
_atom_site_fract_z
Si Si1 0.000000 0.500000 0.500000
Si Si2 0.417609 0.498989 0.852683
Si Si3 0.434382 0.051420 0.874635
Si Si4 0.286672 0.248086 0.507490
Si Si5 0.968071 0.938162 0.315544
Si Si6 0.203530 0.692712 0.215124
Si Si7 0.655593 0.278275 0.302717
O O1 0.836768 0.612039 0.449448
O O2 0.959914 0.387034 0.349943
O O3 0.595244 0.405205 0.767544
O O4 0.465655 0.654698 0.804705
O O5 0.098501 0.414146 0.832447
O O6 0.500000 0.500000 0.000000
O O7 0.416302 0.903221 0.756313
O O8 0.153726 0.080865 0.831351
O O9 0.661390 0.209613 0.883024
O O10 0.500000 0.000000 0.000000
O O11 0.268377 0.141949 0.608953
O O12 0.567321 0.310261 0.450352
O O13 0.104017 0.114840 0.385232
O O14 0.166556 0.834971 0.323986
#
# Coordination Sequence:
#
# PCOD9067308 Si02
#       7
#     1   2   2   2   2   2   2
#     4  12  26  46  70 108 160 202 260 326 398 468
#     4  12  29  51  80 118 161 214 265 334 402 480
#     4  12  27  51  82 117 159 209 270 331 394 482
#     4  11  26  46  75 113 155 208 266 333 391 484
#     4  11  25  48  77 116 156 206 265 328 404 468
#     4  12  26  51  80 114 160 209 265 325 405 473
#     4  12  28  48  78 117 158 212 271 331 405 473
#
# _framework density 27.009097000000001
#
# number of rings (size 3 to 8) (size 9 to 14) (size 15 to 20)
#    0.000    0.308    4.615    2.769    4.308    4.923 
#    0.000    0.000    0.000    0.000    0.000    0.000 
#    0.000    0.000    0.000    0.000    0.000    0.000 
#
# Total GULP energy -72469.948787 kJ/mol
# GULP energy per Si atom -5574.611445 kJ/mol
# Density = 2.694762 g / cm^3
# Si number density = 27.009097 Si / 1000 Ang^3
#
#
#
# Elastic Constant Matrix: (Units=GPa)
#
#
# Indices 1 2 3 4 5 6 
#
# 1 105.6262 32.7211 -2.1536 -3.4118 17.1551 -19.0259
# 2 32.7211 124.7791 -16.4388 -12.2630 -4.0617 -22.1463
# 3 -2.1536 -16.4388 75.0556 -16.1556 20.6542 -6.5189
# 4 -3.4118 -12.2630 -16.1556 54.5718 -6.6725 0.3535
# 5 17.1551 -4.0617 20.6542 -6.6725 35.3363 -0.2185
# 6 -19.0259 -22.1463 -6.5189 0.3535 -0.2185 40.4615
#
#
#
# Elastic Compliance Matrix: (Units=1/GPa)
#
#
# Indices 1 2 3 4 5 6 
#
# 1 0.012346 -0.002308 0.002366 -0.000009 -0.007614 0.004882
# 2 -0.002308 0.010240 0.002957 0.003146 0.001194 0.004975
# 3 0.002366 0.002957 0.018530 0.004957 -0.010669 0.005616
# 4 -0.000009 0.003146 0.004957 0.020652 0.001383 0.002343
# 5 -0.007614 0.001194 -0.010669 0.001383 0.038602 -0.004449
# 6 0.004882 0.004975 0.005616 0.002343 -0.004449 0.030594
#
#
# Mechanical properties :
#
#
# Convention : Reuss Voigt Hill
#
# Bulk Modulus (GPa) = 21.21039 37.07979 29.14509
# Shear Modulus (GPa) = 35.54936 45.49608 40.52272
#
# Velocity S-wave (km/s) = 3.63188 4.10869 3.87762
# Velocity P-wave (km/s) = 5.04555 6.02219 5.55537
#
# Compressibility (1/GPa) = 0.04714670
#
# Stress axis : x y z
#
# Youngs Moduli (GPa) = 80.99597 97.65610 53.96738
#
# Poissons Ratio (x) = 0.22539 -0.12769
# Poissons Ratio (y) = 0.18694 -0.15960
# Poissons Ratio (z) = -0.19164 -0.28880
#
# Static dielectric constant tensor:
#      x y z
#    x 1.113200 -0.845090 -0.104140 
#    y -0.845090 1.320280 -0.020000 
#    z -0.104140 -0.020000 2.206000 
# 
# From -- ./inp_files/229015.got.cif
#   From: 2010.05.17/outbox.cif.g08.bks.cpg/sg2_115_cif.got.tgz:229015.got - 2010.06.03 11:33:40.
