data_PCOD9067571
_publ_section_title
;
Structure prediction by ZEFSAII (Michael W. Deem and Ramdas Pophale) SiO2 
 PCOD9067571
Probable space group: P -1
;
_chemical_formula_sum "Si O2"
_cell_formula_units_Z 10
_cell_length_a 11.392562
_cell_length_b 15.052258
_cell_length_c 6.522488
_cell_angle_alpha 48.044391
_cell_angle_beta 53.065121
_cell_angle_gamma 27.099785
_cell_volume 378.859323
_symmetry_space_group_name_H-M "P -1"
_symmetry_group_IT_number 2
_symmetry_cell_setting 'triclinic'
loop_
_space_group_symop_operation_xyz
x,y,z
-x,-y,-z
loop_
_atom_site_type_symbol
_atom_site_label
_atom_site_fract_x
_atom_site_fract_y
_atom_site_fract_z
Si Si1 0.874664 0.668363 0.543049
Si Si2 0.411599 0.668592 0.066332
Si Si3 0.374936 0.920277 0.926247
Si Si4 0.872829 0.346373 0.381897
Si Si5 0.759439 0.090458 0.510395
O O1 0.613877 0.790720 0.728001
O O2 0.000000 0.500000 0.500000
O O3 0.043876 0.592106 0.679729
O O4 0.801330 0.845226 0.246670
O O5 0.694638 0.482981 0.158387
O O6 0.288677 0.628551 0.332401
O O7 0.255789 0.880456 0.014073
O O8 0.387276 0.720152 0.776820
O O9 0.419684 0.846377 0.224040
O O10 0.121443 0.103259 0.432425
O O11 0.000000 0.000000 0.500000
#
# Coordination Sequence:
#
# PCOD9067571 Si02
#       5
#     2   2   2   2   2
#     4  11  27  54  82 112 163 216 261 322 396 472
#     4  11  25  50  79 121 154 201 269 326 384 475
#     4  11  26  51  78 119 153 209 269 320 390 478
#     4  11  25  50  81 119 159 207 266 319 400 464
#     4  12  24  47  85 117 162 201 256 340 395 454
#
# _framework density 26.395021
#
# number of rings (size 3 to 8) (size 9 to 14) (size 15 to 20)
#    0.000    0.800    4.000    1.800    2.800    4.000 
#    0.000    1.000    0.000    0.000    0.000    0.000 
#    0.000    0.000    0.000    0.000    0.000    0.000 
#
# Total GULP energy -56085.704500 kJ/mol
# GULP energy per Si atom -5608.570450 kJ/mol
# Density = 2.633494 g / cm^3
# Si number density = 26.395021 Si / 1000 Ang^3
#
#
#
# Elastic Constant Matrix: (Units=GPa)
#
#
# Indices 1 2 3 4 5 6 
#
# 1 147.2440 63.4379 34.3620 -2.0517 7.4026 10.0961
# 2 63.4379 149.2379 48.3097 5.1995 11.6926 27.7258
# 3 34.3620 48.3097 207.8529 -12.1721 24.7677 -11.1848
# 4 -2.0517 5.1995 -12.1721 43.0999 4.9029 7.6827
# 5 7.4026 11.6926 24.7677 4.9029 46.1833 -11.8274
# 6 10.0961 27.7258 -11.1848 7.6827 -11.8274 43.3290
#
#
#
# Elastic Compliance Matrix: (Units=1/GPa)
#
#
# Indices 1 2 3 4 5 6 
#
# 1 0.008405 -0.003371 -0.000534 0.000721 -0.000324 -0.000155
# 2 -0.003371 0.010275 -0.001895 -0.000375 -0.002791 -0.006974
# 3 -0.000534 -0.001895 0.005814 0.001760 -0.002250 0.001912
# 4 0.000721 -0.000375 0.001760 0.025299 -0.005015 -0.005328
# 5 -0.000324 -0.002791 -0.002250 -0.005015 0.026563 0.009420
# 6 -0.000155 -0.006974 0.001912 -0.005328 0.009420 0.031587
#
#
# Mechanical properties :
#
#
# Convention : Reuss Voigt Hill
#
# Bulk Modulus (GPa) = 77.55802 88.50600 83.03201
# Shear Modulus (GPa) = 40.37440 50.40413 45.38926
#
# Velocity S-wave (km/s) = 3.91528 4.37465 4.15132
# Velocity P-wave (km/s) = 7.06304 7.68901 7.38266
#
# Compressibility (1/GPa) = 0.01289357
#
# Stress axis : x y z
#
# Youngs Moduli (GPa) = 118.97223 97.32825 172.00167
#
# Poissons Ratio (x) = 0.32810 0.09178
# Poissons Ratio (y) = 0.40106 0.32601
# Poissons Ratio (z) = 0.06348 0.18448
#
# Static dielectric constant tensor:
#      x y z
#    x 2.087090 -0.001920 0.052430 
#    y -0.001920 2.115430 -0.017750 
#    z 0.052430 -0.017750 2.077470 
# 
# From -- ./inp_files/76937.got.cif
#   From: 2010.05.17/outbox.cif.g08.bks.cpg/sg2_39_cif.got.tgz:76937.got - 2010.06.03 11:33:40.
