data_PCOD9067454
_publ_section_title
;
Structure prediction by ZEFSAII (Michael W. Deem and Ramdas Pophale) SiO2 
 PCOD9067454
Probable space group: P -1
;
_chemical_formula_sum "Si O2"
_cell_formula_units_Z 14
_cell_length_a 5.136077
_cell_length_b 16.503596
_cell_length_c 11.438220
_cell_angle_alpha 42.855979
_cell_angle_beta 112.800381
_cell_angle_gamma 122.781581
_cell_volume 554.347137
_symmetry_space_group_name_H-M "P -1"
_symmetry_group_IT_number 2
_symmetry_cell_setting 'triclinic'
loop_
_space_group_symop_operation_xyz
x,y,z
-x,-y,-z
loop_
_atom_site_type_symbol
_atom_site_label
_atom_site_fract_x
_atom_site_fract_y
_atom_site_fract_z
Si Si1 0.512498 0.921704 0.198514
Si Si2 0.842929 0.609422 0.977084
Si Si3 0.342222 0.615638 0.450096
Si Si4 0.449509 0.760329 0.772614
Si Si5 0.164319 0.783619 0.480599
Si Si6 0.243658 0.501203 0.318127
Si Si7 0.061550 0.983308 0.392354
O O1 0.460717 0.770883 0.323104
O O2 0.243799 0.891563 0.280003
O O3 0.816938 0.000135 0.244404
O O4 0.500000 0.000000 0.000000
O O5 0.723078 0.713598 0.898697
O O6 0.109464 0.670278 0.858838
O O7 0.500000 0.500000 0.000000
O O8 0.039589 0.557002 0.150715
O O9 0.431270 0.603411 0.341877
O O10 0.506508 0.549496 0.637223
O O11 0.000000 0.500000 0.500000
O O12 0.428789 0.765015 0.622933
O O13 0.591391 0.908691 0.685903
O O14 0.996725 0.645545 0.534674
O O15 0.027631 0.840254 0.500352
O O16 0.000000 0.000000 0.500000
#
# Coordination Sequence:
#
# PCOD9067454 Si02
#       7
#     2   2   2   2   2   2   2
#     4  12  29  48  79 119 164 217 284 359 412 502
#     4  12  28  48  79 123 164 207 276 360 417 504
#     4  11  25  49  78 110 158 219 281 337 425 502
#     4  12  28  46  79 120 164 217 269 340 433 504
#     4  12  25  49  80 113 163 214 283 339 427 508
#     4  11  26  46  79 113 156 217 279 343 426 502
#     4  12  27  51  81 114 162 222 280 339 425 518
#
# _framework density 25.254935
#
# number of rings (size 3 to 8) (size 9 to 14) (size 15 to 20)
#    0.000    0.286    5.714    1.714    6.000    0.571 
#    0.000    0.000    0.000    0.000    0.000    0.000 
#    0.000    0.000    0.000    0.000    0.000    0.000 
#
# Total GULP energy -77968.774780 kJ/mol
# GULP energy per Si atom -5569.198199 kJ/mol
# Density = 2.519745 g / cm^3
# Si number density = 25.254935 Si / 1000 Ang^3
#
#
#
# Elastic Constant Matrix: (Units=GPa)
#
#
# Indices 1 2 3 4 5 6 
#
# 1 114.9426 48.9727 67.1960 -1.8157 5.4289 9.4679
# 2 48.9727 197.5638 54.5126 1.6949 0.6643 3.6449
# 3 67.1960 54.5126 177.9159 24.6094 10.8232 12.0395
# 4 -1.8157 1.6949 24.6094 36.4564 3.4015 8.6021
# 5 5.4289 0.6643 10.8232 3.4015 45.6236 1.7366
# 6 9.4679 3.6449 12.0395 8.6021 1.7366 54.1099
#
#
#
# Elastic Compliance Matrix: (Units=1/GPa)
#
#
# Indices 1 2 3 4 5 6 
#
# 1 0.012366 -0.001814 -0.004548 0.004224 -0.000617 -0.001681
# 2 -0.001814 0.005831 -0.001185 0.000375 0.000380 0.000116
# 3 -0.004548 -0.001185 0.008578 -0.005849 -0.001038 -0.000070
# 4 0.004224 0.000375 -0.005849 0.032793 -0.001389 -0.004632
# 5 -0.000617 0.000380 -0.001038 -0.001389 0.022343 -0.000183
# 6 -0.001681 0.000116 -0.000070 -0.004632 -0.000183 0.019525
#
#
# Mechanical properties :
#
#
# Convention : Reuss Voigt Hill
#
# Bulk Modulus (GPa) = 85.59151 92.42056 89.00603
# Shear Modulus (GPa) = 41.52036 48.55406 45.03721
#
# Velocity S-wave (km/s) = 4.05909 4.38945 4.22750
# Velocity P-wave (km/s) = 7.47883 7.89710 7.69081
#
# Compressibility (1/GPa) = 0.01168340
#
# Stress axis : x y z
#
# Youngs Moduli (GPa) = 80.86935 171.48422 116.57718
#
# Poissons Ratio (x) = 0.31100 0.53015
# Poissons Ratio (y) = 0.14666 0.13810
# Poissons Ratio (z) = 0.36776 0.20315
#
# Static dielectric constant tensor:
#      x y z
#    x 2.584180 0.061040 -0.080460 
#    y 0.061040 2.013180 -0.009950 
#    z -0.080460 -0.009950 2.175560 
# 
# From -- ./inp_files/369298.got.cif
#   From: 2010.05.17/outbox.cif.g08.bks.cpg/sg2_185_cif.got.tgz:369298.got - 2010.06.03 11:33:40.
