data_PCOD9067145
_publ_section_title
;
Structure prediction by ZEFSAII (Michael W. Deem and Ramdas Pophale) SiO2 
 PCOD9067145
Probable space group: P -1
;
_chemical_formula_sum "Si O2"
_cell_formula_units_Z 14
_cell_length_a 20.142756
_cell_length_b 8.687326
_cell_length_c 16.423554
_cell_angle_alpha 134.776844
_cell_angle_beta 17.844984
_cell_angle_gamma 132.702648
_cell_volume 624.765196
_symmetry_space_group_name_H-M "P -1"
_symmetry_group_IT_number 2
_symmetry_cell_setting 'triclinic'
loop_
_space_group_symop_operation_xyz
x,y,z
-x,-y,-z
loop_
_atom_site_type_symbol
_atom_site_label
_atom_site_fract_x
_atom_site_fract_y
_atom_site_fract_z
Si Si1 0.113018 0.323535 0.242502
Si Si2 0.574067 0.265070 0.303767
Si Si3 0.848078 0.312529 0.153122
Si Si4 0.852701 0.025294 0.797679
Si Si5 0.702105 0.867371 0.739513
Si Si6 0.586008 0.393702 0.648292
Si Si7 0.820822 0.048875 0.356004
O O1 0.000000 0.500000 0.500000
O O2 0.931246 0.205596 0.353559
O O3 0.209768 0.152379 0.128806
O O4 0.323506 0.387766 0.964492
O O5 0.500000 0.500000 0.500000
O O6 0.697290 0.198958 0.217640
O O7 0.378199 0.110821 0.443954
O O8 0.750155 0.253238 0.022952
O O9 0.686013 0.402959 0.443875
O O10 0.000000 0.500000 0.000000
O O11 0.998918 0.125753 0.943380
O O12 0.107457 0.061610 0.517232
O O13 0.778359 0.937963 0.765726
O O14 0.660360 0.613012 0.688810
O O15 0.500000 0.000000 0.000000
O O16 0.708876 0.196058 0.473704
#
# Coordination Sequence:
#
# PCOD9067145 Si02
#       7
#     2   2   2   2   2   2   2
#     4  12  27  48  76 107 153 199 252 309 378 447
#     4  12  26  45  78 109 146 199 246 305 374 449
#     4  12  26  49  77 112 148 197 250 307 377 450
#     4  11  25  48  70 111 146 191 260 302 374 452
#     4  11  27  45  76 109 150 198 249 317 374 445
#     4  12  28  47  76 114 150 196 253 311 381 442
#     4  12  26  48  76 110 151 196 247 318 374 447
#
# _framework density 22.40842
#
# number of rings (size 3 to 8) (size 9 to 14) (size 15 to 20)
#    0.000    0.286    4.286    3.000    6.000    5.714 
#    0.000    0.000    0.000    0.000    0.000    0.000 
#    0.000    0.000    0.000    0.000    0.000    0.000 
#
# Total GULP energy -78207.329155 kJ/mol
# GULP energy per Si atom -5586.237797 kJ/mol
# Density = 2.235742 g / cm^3
# Si number density = 22.408420 Si / 1000 Ang^3
#
#
#
# Elastic Constant Matrix: (Units=GPa)
#
#
# Indices 1 2 3 4 5 6 
#
# 1 53.7996 36.3950 47.6175 -14.5865 5.6120 20.2834
# 2 36.3950 102.4719 69.4893 14.7360 9.2083 16.4486
# 3 47.6175 69.4893 192.0847 3.2800 13.5256 23.7410
# 4 -14.5865 14.7360 3.2800 39.9292 4.4731 -2.9857
# 5 5.6120 9.2083 13.5256 4.4731 38.9683 0.5766
# 6 20.2834 16.4486 23.7410 -2.9857 0.5766 38.2356
#
#
#
# Elastic Compliance Matrix: (Units=1/GPa)
#
#
# Indices 1 2 3 4 5 6 
#
# 1 0.040669 -0.011995 -0.004313 0.019123 -0.003540 -0.012190
# 2 -0.011995 0.017791 -0.003260 -0.010674 -0.000118 -0.000098
# 3 -0.004313 -0.003260 0.007694 -0.000961 -0.001152 -0.001144
# 4 0.019123 -0.010674 -0.000961 0.036347 -0.004040 -0.002057
# 5 -0.003540 -0.000118 -0.001152 -0.004040 0.027035 0.001921
# 6 -0.012190 -0.000098 -0.001144 -0.002057 0.001921 0.033183
#
#
# Mechanical properties :
#
#
# Convention : Reuss Voigt Hill
#
# Bulk Modulus (GPa) = 37.01263 72.81773 54.91518
# Shear Modulus (GPa) = 23.71241 36.41692 30.06466
#
# Velocity S-wave (km/s) = 3.25652 4.03568 3.66685
# Velocity P-wave (km/s) = 5.54013 7.36762 6.51824
#
# Compressibility (1/GPa) = 0.02701780
#
# Stress axis : x y z
#
# Youngs Moduli (GPa) = 24.58870 56.20838 129.97951
#
# Poissons Ratio (x) = 0.67421 0.56063
# Poissons Ratio (y) = 0.29494 0.42372
# Poissons Ratio (z) = 0.10606 0.18323
#
# Static dielectric constant tensor:
#      x y z
#    x 1.807240 -0.024730 0.014420 
#    y -0.024730 1.836190 0.007570 
#    z 0.014420 0.007570 1.912860 
# 
# From -- ./inp_files/138702.got.cif
#   From: 2010.05.17/outbox.cif.g08.bks.cpg/sg2_70_cif.got.tgz:138702.got - 2010.06.03 11:33:40.
