data_PCOD9067165
_publ_section_title
;
Structure prediction by ZEFSAII (Michael W. Deem and Ramdas Pophale) SiO2 
 PCOD9067165
Probable space group: P -1
;
_chemical_formula_sum "Si O2"
_cell_formula_units_Z 14
_cell_length_a 11.272966
_cell_length_b 9.253460
_cell_length_c 8.408031
_cell_angle_alpha 102.534270
_cell_angle_beta 41.498354
_cell_angle_gamma 94.533484
_cell_volume 562.550156
_symmetry_space_group_name_H-M "P -1"
_symmetry_group_IT_number 2
_symmetry_cell_setting 'triclinic'
loop_
_space_group_symop_operation_xyz
x,y,z
-x,-y,-z
loop_
_atom_site_type_symbol
_atom_site_label
_atom_site_fract_x
_atom_site_fract_y
_atom_site_fract_z
Si Si1 0.098312 0.436356 0.542378
Si Si2 0.770001 0.896937 0.634670
Si Si3 0.270727 0.662964 0.774945
Si Si4 0.906914 0.873513 0.149533
Si Si5 0.369645 0.807019 0.037621
Si Si6 0.406958 0.632429 0.289738
Si Si7 0.766532 0.611095 0.084415
O O1 0.108510 0.258547 0.487130
O O2 0.293661 0.492312 0.370123
O O3 0.000000 0.500000 0.500000
O O4 0.962013 0.522124 0.827309
O O5 0.808364 0.934007 0.422616
O O6 0.774854 0.042345 0.772861
O O7 0.567789 0.856391 0.842947
O O8 0.350784 0.707418 0.536185
O O9 0.294192 0.483066 0.727837
O O10 0.347202 0.719124 0.876808
O O11 0.066979 0.743106 0.999985
O O12 0.778727 0.783405 0.149585
O O13 0.000000 0.000000 0.000000
O O14 0.357611 0.721708 0.197809
O O15 0.622417 0.598633 0.085984
#
# Coordination Sequence:
#
# PCOD9067165 Si02
#       7
#     2   2   2   2   2   2   2
#     4  12  25  45  78 114 155 201 253 317 384 457
#     4  11  25  48  71 109 158 199 252 320 384 455
#     4  12  24  48  77 109 155 201 251 321 385 452
#     4  12  26  46  77 114 151 205 262 316 387 459
#     4  11  27  49  75 112 155 204 254 316 389 456
#     4  12  26  48  81 116 152 198 264 313 383 467
#     4  12  25  48  76 113 156 199 257 322 384 455
#
# _framework density 24.886671
#
# number of rings (size 3 to 8) (size 9 to 14) (size 15 to 20)
#    0.000    0.286    2.857    6.000    0.000    5.714 
#    0.000    5.000    0.000    0.000    0.000    0.000 
#    0.000    0.000    0.000    0.000    0.000    0.000 
#
# Total GULP energy -78389.646447 kJ/mol
# GULP energy per Si atom -5599.260461 kJ/mol
# Density = 2.483003 g / cm^3
# Si number density = 24.886671 Si / 1000 Ang^3
#
#
#
# Elastic Constant Matrix: (Units=GPa)
#
#
# Indices 1 2 3 4 5 6 
#
# 1 122.7118 51.9388 27.9094 -6.6130 19.5574 9.9919
# 2 51.9388 149.0431 55.7933 -8.7518 24.6965 13.6075
# 3 27.9094 55.7933 134.3042 -3.0272 35.9586 7.7238
# 4 -6.6130 -8.7518 -3.0272 45.4183 -2.0133 2.4420
# 5 19.5574 24.6965 35.9586 -2.0133 53.4616 -6.1049
# 6 9.9919 13.6075 7.7238 2.4420 -6.1049 31.5568
#
#
#
# Elastic Compliance Matrix: (Units=1/GPa)
#
#
# Indices 1 2 3 4 5 6 
#
# 1 0.009997 -0.002737 -0.000078 0.000945 -0.002595 -0.002541
# 2 -0.002737 0.009285 -0.002600 0.001295 -0.001828 -0.002955
# 3 -0.000078 -0.002600 0.010290 0.000045 -0.005979 -0.002533
# 4 0.000945 0.001295 0.000045 0.022533 -0.000433 -0.002696
# 5 -0.002595 -0.001828 -0.005979 -0.000433 0.025420 0.008024
# 6 -0.002541 -0.002955 -0.002533 -0.002696 0.008024 0.036148
#
#
# Mechanical properties :
#
#
# Convention : Reuss Voigt Hill
#
# Bulk Modulus (GPa) = 53.35922 75.26023 64.30973
# Shear Modulus (GPa) = 38.24071 44.11520 41.17795
#
# Velocity S-wave (km/s) = 3.92419 4.21484 4.07211
# Velocity P-wave (km/s) = 6.48227 7.34802 6.92868
#
# Compressibility (1/GPa) = 0.01874090
#
# Stress axis : x y z
#
# Youngs Moduli (GPa) = 100.03240 107.69745 97.18619
#
# Poissons Ratio (x) = 0.29477 0.00761
# Poissons Ratio (y) = 0.27379 0.25269
# Poissons Ratio (z) = 0.00783 0.28002
#
# Static dielectric constant tensor:
#      x y z
#    x 1.967230 0.029570 0.004230 
#    y 0.029570 1.986680 0.008140 
#    z 0.004230 0.008140 2.075650 
# 
# From -- ./inp_files/244314.got.cif
#   From: 2010.05.17/outbox.cif.g08.bks.cpg/sg2_123_cif.got.tgz:244314.got - 2010.06.03 11:33:40.
