data_PCOD9067009
_publ_section_title
;
Structure prediction by ZEFSAII (Michael W. Deem and Ramdas Pophale) SiO2 
 PCOD9067009
Probable space group: P -1
;
_chemical_formula_sum "Si O2"
_cell_formula_units_Z 12
_cell_length_a 7.687313
_cell_length_b 9.272672
_cell_length_c 9.306256
_cell_angle_alpha 52.328538
_cell_angle_beta 111.153642
_cell_angle_gamma 96.746257
_cell_volume 484.896198
_symmetry_space_group_name_H-M "P -1"
_symmetry_group_IT_number 2
_symmetry_cell_setting 'triclinic'
loop_
_space_group_symop_operation_xyz
x,y,z
-x,-y,-z
loop_
_atom_site_type_symbol
_atom_site_label
_atom_site_fract_x
_atom_site_fract_y
_atom_site_fract_z
Si Si1 0.398121 0.828639 0.134593
Si Si2 0.126956 0.784418 0.337437
Si Si3 0.705508 0.994227 0.503525
Si Si4 0.043615 0.393082 0.225852
Si Si5 0.774577 0.605365 0.435415
Si Si6 0.354716 0.674361 0.906982
O O1 0.218991 0.857707 0.173257
O O2 0.571407 0.711855 0.340778
O O3 0.354571 0.700972 0.063000
O O4 0.500000 0.000000 0.000000
O O5 0.164025 0.923266 0.389972
O O6 0.242743 0.584526 0.533598
O O7 0.910441 0.736796 0.318203
O O8 0.647729 0.115698 0.272001
O O9 0.500000 0.000000 0.500000
O O10 0.811759 0.791842 0.633648
O O11 0.119571 0.477821 0.338452
O O12 0.164144 0.647281 0.786717
O O13 0.000000 0.500000 0.000000
O O14 0.500000 0.500000 0.000000
#
# Coordination Sequence:
#
# PCOD9067009 Si02
#       6
#     2   2   2   2   2   2
#     4  12  27  46  74 112 152 195 250 314 386 460
#     4  11  25  47  75 106 148 200 249 306 390 447
#     4  12  25  48  77 109 153 198 250 318 381 455
#     4  12  26  47  76 110 147 200 259 312 381 455
#     4  11  25  49  76 104 155 201 251 315 383 456
#     4  12  26  47  73 110 150 194 252 308 375 459
#
# _framework density 24.747565000000002
#
# number of rings (size 3 to 8) (size 9 to 14) (size 15 to 20)
#    0.000    0.333    1.667    7.000    4.667    0.667 
#    3.000    0.000    0.000    0.000    0.000    0.000 
#    0.000    0.000    0.000    0.000    0.000    0.000 
#
# Total GULP energy -66921.310414 kJ/mol
# GULP energy per Si atom -5576.775868 kJ/mol
# Density = 2.469124 g / cm^3
# Si number density = 24.747565 Si / 1000 Ang^3
#
#
#
# Elastic Constant Matrix: (Units=GPa)
#
#
# Indices 1 2 3 4 5 6 
#
# 1 106.4918 -0.6017 50.9513 -2.5191 3.6479 -18.5371
# 2 -0.6017 92.4676 23.3618 16.6063 -7.4517 -16.6485
# 3 50.9513 23.3618 139.7444 18.2802 -10.1383 -10.1539
# 4 -2.5191 16.6063 18.2802 45.1858 -7.5246 -0.5567
# 5 3.6479 -7.4517 -10.1383 -7.5246 53.8487 -4.5950
# 6 -18.5371 -16.6485 -10.1539 -0.5567 -4.5950 30.4197
#
#
#
# Elastic Compliance Matrix: (Units=1/GPa)
#
#
# Indices 1 2 3 4 5 6 
#
# 1 0.013136 0.002307 -0.004912 0.001867 -0.000588 0.007573
# 2 0.002307 0.013620 -0.001906 -0.003742 0.001563 0.008392
# 3 -0.004912 -0.001906 0.009751 -0.003295 0.001391 -0.000631
# 4 0.001867 -0.003742 -0.003295 0.025289 0.002165 -0.001221
# 5 -0.000588 0.001563 0.001391 0.002165 0.019731 0.003981
# 6 0.007573 0.008392 -0.000631 -0.001221 0.003981 0.042450
#
#
# Mechanical properties :
#
#
# Convention : Reuss Voigt Hill
#
# Bulk Modulus (GPa) = 36.38014 54.01406 45.19710
# Shear Modulus (GPa) = 35.17192 43.55699 39.36446
#
# Velocity S-wave (km/s) = 3.77401 4.19985 3.99261
# Velocity P-wave (km/s) = 5.80717 6.73734 6.28947
#
# Compressibility (1/GPa) = 0.02748752
#
# Stress axis : x y z
#
# Youngs Moduli (GPa) = 76.12596 73.42152 102.54994
#
# Poissons Ratio (x) = -0.16941 0.50370
# Poissons Ratio (y) = -0.17565 0.19541
# Poissons Ratio (z) = 0.37392 0.13991
#
# Static dielectric constant tensor:
#      x y z
#    x 2.084300 0.088110 -0.161240 
#    y 0.088110 1.969770 0.043240 
#    z -0.161240 0.043240 1.921740 
# 
# From -- ./inp_files/148778.got.cif
#   From: 2010.05.17/outbox.cif.g08.bks.cpg/sg2_75_cif.got.tgz:148778.got - 2010.06.03 11:33:40.
