data_PCOD9067615
_publ_section_title
;
Structure prediction by ZEFSAII (Michael W. Deem and Ramdas Pophale) SiO2 
 PCOD9067615
Probable space group: P -1
;
_chemical_formula_sum "Si O2"
_cell_formula_units_Z 15
_cell_length_a 9.171007
_cell_length_b 19.203096
_cell_length_c 23.209975
_cell_angle_alpha 162.877365
_cell_angle_beta 34.283714
_cell_angle_gamma 138.806478
_cell_volume 660.667679
_symmetry_space_group_name_H-M "P -1"
_symmetry_group_IT_number 2
_symmetry_cell_setting 'triclinic'
loop_
_space_group_symop_operation_xyz
x,y,z
-x,-y,-z
loop_
_atom_site_type_symbol
_atom_site_label
_atom_site_fract_x
_atom_site_fract_y
_atom_site_fract_z
Si Si1 0.727211 0.811609 0.936774
Si Si2 0.842489 0.772489 0.254761
Si Si3 0.541240 0.761353 0.837314
Si Si4 0.338211 0.653672 0.622739
Si Si5 0.575621 0.679339 0.069337
Si Si6 0.312067 0.599690 0.300315
Si Si7 0.000000 0.000000 0.500000
Si Si8 0.026151 0.084221 0.802573
O O1 0.742088 0.773152 0.832991
O O2 0.591024 0.617284 0.857993
O O3 0.025813 0.746227 0.812790
O O4 0.582205 0.091088 0.214663
O O5 0.536688 0.751348 0.337053
O O6 0.894503 0.941143 0.423132
O O7 0.926163 0.848603 0.225430
O O8 0.000000 0.500000 0.000000
O O9 0.624292 0.522674 0.583437
O O10 0.260178 0.778021 0.973400
O O11 0.500000 0.000000 0.000000
O O12 0.500000 0.500000 0.500000
O O13 0.760059 0.836702 0.163060
O O14 0.301288 0.836820 0.258413
O O15 0.500000 0.500000 0.000000
O O16 0.732833 0.519038 0.839481
O O17 0.064321 0.793018 0.560351
#
# Coordination Sequence:
#
# PCOD9067615 Si02
#       8
#     2   2   2   2   2   2   1   2
#     4  11  27  47  77 112 145 198 245 314 382 448
#     4  12  23  46  69 105 149 198 250 307 364 450
#     4  12  26  48  79 109 147 200 252 312 385 444
#     4  11  25  51  78 106 150 190 253 316 374 448
#     4  12  25  45  70 104 144 202 248 303 366 443
#     4  12  25  44  72 107 153 190 251 308 374 449
#     4  12  24  42  74  98 142 200 248 296 374 426
#     4  12  27  45  74 108 152 201 254 307 378 443
#
# _framework density 22.704305999999999
#
# number of rings (size 3 to 8) (size 9 to 14) (size 15 to 20)
#    0.000    0.267    5.333    3.200    1.867    1.067 
#    4.800    0.000    0.000    0.000    0.000    0.000 
#    0.000    0.000    0.000    0.000    0.000    0.000 
#
# Total GULP energy -83738.570624 kJ/mol
# GULP energy per Si atom -5582.571375 kJ/mol
# Density = 2.265263 g / cm^3
# Si number density = 22.704306 Si / 1000 Ang^3
#
#
#
# Elastic Constant Matrix: (Units=GPa)
#
#
# Indices 1 2 3 4 5 6 
#
# 1 125.0925 25.6626 45.8060 9.7349 16.1837 -13.2183
# 2 25.6626 84.6929 19.7950 15.3543 0.1641 -16.4925
# 3 45.8060 19.7950 147.2829 13.4168 16.5546 -4.8614
# 4 9.7349 15.3543 13.4168 34.2480 -1.3971 -9.4537
# 5 16.1837 0.1641 16.5546 -1.3971 57.7128 -9.1105
# 6 -13.2183 -16.4925 -4.8614 -9.4537 -9.1105 30.2049
#
#
#
# Elastic Compliance Matrix: (Units=1/GPa)
#
#
# Indices 1 2 3 4 5 6 
#
# 1 0.009773 -0.001868 -0.002488 -0.000422 -0.001682 0.002217
# 2 -0.001868 0.014511 -0.001005 -0.003784 0.001668 0.006263
# 3 -0.002488 -0.001005 0.008096 -0.002571 -0.001957 -0.001730
# 4 -0.000422 -0.003784 -0.002571 0.034673 0.003148 0.009137
# 5 -0.001682 0.001668 -0.001957 0.003148 0.019493 0.006725
# 6 0.002217 0.006263 -0.001730 0.009137 0.006725 0.042107
#
#
# Mechanical properties :
#
#
# Convention : Reuss Voigt Hill
#
# Bulk Modulus (GPa) = 46.17498 59.95505 53.06502
# Shear Modulus (GPa) = 34.10788 42.15344 38.13066
#
# Velocity S-wave (km/s) = 3.88011 4.31353 4.10255
# Velocity P-wave (km/s) = 6.36045 7.16052 6.77231
#
# Compressibility (1/GPa) = 0.02165675
#
# Stress axis : x y z
#
# Youngs Moduli (GPa) = 102.32252 68.91448 123.52509
#
# Poissons Ratio (x) = 0.12875 0.30729
# Poissons Ratio (y) = 0.19117 0.12418
# Poissons Ratio (z) = 0.25454 0.06928
#
# Static dielectric constant tensor:
#      x y z
#    x 1.831610 0.071020 -0.030520 
#    y 0.071020 1.851470 -0.000100 
#    z -0.030520 -0.000100 1.867310 
# 
# From -- ./inp_files/591024.got.cif
#   From: 2010.05.17/outbox.cif.g08.bks.cpg/sg2_296_cif.got.tgz:591024.got - 2010.06.03 11:33:40.
