data_PCOD9067163
_publ_section_title
;
Structure prediction by ZEFSAII (Michael W. Deem and Ramdas Pophale) SiO2 
 PCOD9067163
Probable space group: P -1
;
_chemical_formula_sum "Si O2"
_cell_formula_units_Z 14
_cell_length_a 5.075728
_cell_length_b 12.814092
_cell_length_c 10.970787
_cell_angle_alpha 50.907965
_cell_angle_beta 90.895256
_cell_angle_gamma 82.979425
_cell_volume 545.663406
_symmetry_space_group_name_H-M "P -1"
_symmetry_group_IT_number 2
_symmetry_cell_setting 'triclinic'
loop_
_space_group_symop_operation_xyz
x,y,z
-x,-y,-z
loop_
_atom_site_type_symbol
_atom_site_label
_atom_site_fract_x
_atom_site_fract_y
_atom_site_fract_z
Si Si1 0.055357 0.272655 0.198856
Si Si2 0.670918 0.582120 0.530021
Si Si3 0.984212 0.013198 0.666157
Si Si4 0.834873 0.639507 0.233820
Si Si5 0.303700 0.486141 0.895007
Si Si6 0.457455 0.168617 0.480250
Si Si7 0.766639 0.953337 0.959025
O O1 0.937861 0.148477 0.232624
O O2 0.323184 0.214630 0.316138
O O3 0.864298 0.363345 0.226093
O O4 0.118479 0.380258 0.020102
O O5 0.500000 0.500000 0.500000
O O6 0.794726 0.661521 0.362536
O O7 0.532887 0.697513 0.536122
O O8 0.899680 0.476253 0.678133
O O9 0.749828 0.081317 0.523534
O O10 0.801105 0.024448 0.778245
O O11 0.240293 0.086672 0.603286
O O12 0.624316 0.573711 0.195372
O O13 0.825051 0.790034 0.070475
O O14 0.500000 0.500000 0.000000
O O15 0.500000 0.000000 0.000000
O O16 0.000000 0.000000 0.000000
#
# Coordination Sequence:
#
# PCOD9067163 Si02
#       7
#     2   2   2   2   2   2   2
#     4  11  26  47  70 112 145 198 247 308 371 446
#     4  11  27  44  76 106 145 197 249 310 370 440
#     4  12  27  48  75 108 149 198 249 301 377 441
#     4  11  25  48  71 108 144 194 250 308 372 439
#     4  11  26  45  77 105 149 195 249 310 374 444
#     4  12  28  48  76 110 151 197 249 307 369 447
#     4  12  27  48  74 108 150 194 246 307 369 447
#
# _framework density 25.656842999999999
#
# number of rings (size 3 to 8) (size 9 to 14) (size 15 to 20)
#    0.000    0.571    2.857    3.429   14.000    1.143 
#    0.000    0.000    0.000    0.000    0.000    0.000 
#    0.000    0.000    0.000    0.000    0.000    0.000 
#
# Total GULP energy -78312.784570 kJ/mol
# GULP energy per Si atom -5593.770326 kJ/mol
# Density = 2.559845 g / cm^3
# Si number density = 25.656843 Si / 1000 Ang^3
#
#
#
# Elastic Constant Matrix: (Units=GPa)
#
#
# Indices 1 2 3 4 5 6 
#
# 1 112.3605 34.6943 22.9182 -6.8697 -12.4920 11.9213
# 2 34.6943 156.4147 14.5577 -17.8916 -6.7279 11.4464
# 3 22.9182 14.5577 90.0543 -9.1911 -9.7705 1.2761
# 4 -6.8697 -17.8916 -9.1911 52.1772 2.7597 -6.8587
# 5 -12.4920 -6.7279 -9.7705 2.7597 44.9225 10.5465
# 6 11.9213 11.4464 1.2761 -6.8587 10.5465 36.9906
#
#
#
# Elastic Compliance Matrix: (Units=1/GPa)
#
#
# Indices 1 2 3 4 5 6 
#
# 1 0.010594 -0.001779 -0.002040 -0.000230 0.003125 -0.003727
# 2 -0.001779 0.007186 -0.000413 0.001924 0.000722 -0.001485
# 3 -0.002040 -0.000413 0.012057 0.001634 0.001859 0.000142
# 4 -0.000230 0.001924 0.001634 0.020651 -0.001557 0.003695
# 5 0.003125 0.000722 0.001859 -0.001557 0.025839 -0.008950
# 6 -0.003727 -0.001485 0.000142 0.003695 -0.008950 0.031927
#
#
# Mechanical properties :
#
#
# Convention : Reuss Voigt Hill
#
# Bulk Modulus (GPa) = 46.78949 55.90776 51.34862
# Shear Modulus (GPa) = 40.37378 45.92869 43.15123
#
# Velocity S-wave (km/s) = 3.97117 4.23556 4.10550
# Velocity P-wave (km/s) = 6.26923 6.76446 6.52155
#
# Compressibility (1/GPa) = 0.02137232
#
# Stress axis : x y z
#
# Youngs Moduli (GPa) = 94.39117 139.15671 82.94018
#
# Poissons Ratio (x) = 0.24758 0.16921
# Poissons Ratio (y) = 0.16794 0.03427
# Poissons Ratio (z) = 0.19257 0.05749
#
# Static dielectric constant tensor:
#      x y z
#    x 2.050380 0.022460 0.009680 
#    y 0.022460 1.953850 -0.018360 
#    z 0.009680 -0.018360 1.916220 
# 
# From -- ./inp_files/64350.got.cif
#   From: 2010.05.17/outbox.cif.g08.bks.cpg/sg2_33_cif.got.tgz:64350.got - 2010.06.03 11:33:40.
