data_PCOD9067738
_publ_section_title
;
Structure prediction by ZEFSAII (Michael W. Deem and Ramdas Pophale) SiO2 
 PCOD9067738
Probable space group: P -1
;
_chemical_formula_sum "Si O2"
_cell_formula_units_Z 10
_cell_length_a 9.945373
_cell_length_b 7.991575
_cell_length_c 4.936071
_cell_angle_alpha 88.800060
_cell_angle_beta 72.350466
_cell_angle_gamma 101.718865
_cell_volume 364.621275
_symmetry_space_group_name_H-M "P -1"
_symmetry_group_IT_number 2
_symmetry_cell_setting 'triclinic'
loop_
_space_group_symop_operation_xyz
x,y,z
-x,-y,-z
loop_
_atom_site_type_symbol
_atom_site_label
_atom_site_fract_x
_atom_site_fract_y
_atom_site_fract_z
Si Si1 0.279964 0.321723 0.247774
Si Si2 0.344692 0.907751 0.485084
Si Si3 0.961172 0.609645 0.269463
Si Si4 0.815363 0.032623 0.927856
Si Si5 0.416918 0.606048 0.742960
O O1 0.199343 0.366279 0.561544
O O2 0.317980 0.487043 0.024816
O O3 0.439434 0.282879 0.197191
O O4 0.178533 0.155756 0.175687
O O5 0.692009 0.083882 0.806659
O O6 0.332605 0.717080 0.611594
O O7 0.500000 0.000000 0.500000
O O8 0.230744 0.982557 0.730525
O O9 0.054269 0.804517 0.189847
O O10 0.000000 0.500000 0.500000
O O11 0.000000 0.500000 0.000000
O O12 0.500000 0.500000 0.500000
#
# Coordination Sequence:
#
# PCOD9067738 Si02
#       5
#     2   2   2   2   2
#     4  11  27  48  74 113 151 199 251 310 375 447
#     4  12  25  46  74 114 152 193 248 305 379 444
#     4  12  29  51  76 108 150 202 255 312 372 445
#     4  12  27  48  78 110 150 199 250 308 374 451
#     4  11  26  44  76 111 156 194 247 310 379 447
#
# _framework density 27.425720999999999
#
# number of rings (size 3 to 8) (size 9 to 14) (size 15 to 20)
#    0.000    0.400    2.000    4.800   14.000    0.000 
#    0.000    4.000    0.000    0.000    0.000    0.000 
#    0.000    0.000    0.000    0.000    0.000    0.000 
#
# Total GULP energy -56112.714214 kJ/mol
# GULP energy per Si atom -5611.271421 kJ/mol
# Density = 2.736330 g / cm^3
# Si number density = 27.425721 Si / 1000 Ang^3
#
#
#
# Elastic Constant Matrix: (Units=GPa)
#
#
# Indices 1 2 3 4 5 6 
#
# 1 137.2994 48.1723 42.2522 3.4877 -22.6016 31.4975
# 2 48.1723 142.4899 38.5261 15.1873 -9.8129 25.7730
# 3 42.2522 38.5261 153.0581 11.7789 -18.5859 10.4715
# 4 3.4877 15.1873 11.7789 51.5956 -7.4465 11.5514
# 5 -22.6016 -9.8129 -18.5859 -7.4465 48.0953 -8.9526
# 6 31.4975 25.7730 10.4715 11.5514 -8.9526 66.3033
#
#
#
# Elastic Compliance Matrix: (Units=1/GPa)
#
#
# Indices 1 2 3 4 5 6 
#
# 1 0.009827 -0.002210 -0.001665 0.001580 0.003136 -0.003398
# 2 -0.002210 0.008619 -0.001351 -0.001726 -0.000412 -0.001842
# 3 -0.001665 -0.001351 0.007599 -0.001086 0.001813 0.000550
# 4 0.001580 -0.001726 -0.001086 0.021136 0.002641 -0.003233
# 5 0.003136 -0.000412 0.001813 0.002641 0.023495 0.001097
# 6 -0.003398 -0.001842 0.000550 -0.003233 0.001097 0.018037
#
#
# Mechanical properties :
#
#
# Convention : Reuss Voigt Hill
#
# Bulk Modulus (GPa) = 64.12536 76.74984 70.43760
# Shear Modulus (GPa) = 47.91040 53.45862 50.68451
#
# Velocity S-wave (km/s) = 4.18415 4.41978 4.30358
# Velocity P-wave (km/s) = 6.83922 7.35468 7.10163
#
# Compressibility (1/GPa) = 0.01559445
#
# Stress axis : x y z
#
# Youngs Moduli (GPa) = 101.76491 116.02094 131.59440
#
# Poissons Ratio (x) = 0.25638 0.21907
# Poissons Ratio (y) = 0.22488 0.17774
# Poissons Ratio (z) = 0.16941 0.15670
#
# Static dielectric constant tensor:
#      x y z
#    x 2.285500 0.016320 0.046690 
#    y 0.016320 2.170500 0.009660 
#    z 0.046690 0.009660 2.065520 
# 
# From -- ./inp_files/59671.got.cif
#   From: 2010.05.17/outbox.cif.g08.bks.cpg/sg2_30_cif.got.tgz:59671.got - 2010.06.03 11:33:40.
