data_PCOD9067412
_publ_section_title
;
Structure prediction by ZEFSAII (Michael W. Deem and Ramdas Pophale) SiO2 
 PCOD9067412
Probable space group: P -1
;
_chemical_formula_sum "Si O2"
_cell_formula_units_Z 14
_cell_length_a 16.151983
_cell_length_b 5.015180
_cell_length_c 15.203020
_cell_angle_alpha 100.603693
_cell_angle_beta 27.756071
_cell_angle_gamma 89.639194
_cell_volume 523.841897
_symmetry_space_group_name_H-M "P -1"
_symmetry_group_IT_number 2
_symmetry_cell_setting 'triclinic'
loop_
_space_group_symop_operation_xyz
x,y,z
-x,-y,-z
loop_
_atom_site_type_symbol
_atom_site_label
_atom_site_fract_x
_atom_site_fract_y
_atom_site_fract_z
Si Si1 0.727236 0.927318 0.118264
Si Si2 0.498696 0.546275 0.133405
Si Si3 0.200257 0.965432 0.125369
Si Si4 0.676229 0.530719 0.464862
Si Si5 0.770699 0.639492 0.735831
Si Si6 0.209943 0.998469 0.536611
Si Si7 0.174071 0.588055 0.872998
O O1 0.525118 0.196321 0.328782
O O2 0.869517 0.090653 0.026531
O O3 0.725645 0.666513 0.165805
O O4 0.784187 0.835922 0.958546
O O5 0.338640 0.410559 0.249600
O O6 0.376055 0.872623 0.299573
O O7 0.634313 0.343447 0.067103
O O8 0.651614 0.534328 0.913665
O O9 0.249757 0.058016 0.180172
O O10 0.987928 0.971206 0.321396
O O11 0.718717 0.256262 0.472492
O O12 0.711867 0.426799 0.325028
O O13 0.813864 0.695127 0.379447
O O14 0.000000 0.500000 0.500000
O O15 0.000000 0.500000 0.000000
#
# Coordination Sequence:
#
# PCOD9067412 Si02
#       7
#     2   2   2   2   2   2   2
#     4  12  25  43  74 104 147 199 245 307 375 440
#     4  11  26  48  74 109 152 199 250 316 379 458
#     4  12  26  45  76 104 153 193 253 309 381 448
#     4  12  25  47  72 107 153 193 257 306 375 443
#     4  11  25  49  75 109 150 197 252 313 386 454
#     4  12  26  46  76 112 148 205 247 313 373 451
#     4  12  25  45  69 108 147 195 251 305 370 447
#
# _framework density 26.725622999999999
#
# number of rings (size 3 to 8) (size 9 to 14) (size 15 to 20)
#    0.000    0.286    2.857    6.000    4.000    0.571 
#    0.000    0.000    0.000    0.000    0.000    0.000 
#    0.000    0.000    0.000    0.000    0.000    0.000 
#
# Total GULP energy -78394.973248 kJ/mol
# GULP energy per Si atom -5599.640946 kJ/mol
# Density = 2.666479 g / cm^3
# Si number density = 26.725623 Si / 1000 Ang^3
#
#
#
# Elastic Constant Matrix: (Units=GPa)
#
#
# Indices 1 2 3 4 5 6 
#
# 1 81.5151 40.1349 30.3763 -0.0540 -14.2434 24.8945
# 2 40.1349 123.5222 6.9596 -8.6480 3.0274 8.6437
# 3 30.3763 6.9596 131.0655 1.7179 -19.6468 -1.5562
# 4 -0.0540 -8.6480 1.7179 32.4529 7.9178 -2.2751
# 5 -14.2434 3.0274 -19.6468 7.9178 53.6840 -2.3491
# 6 24.8945 8.6437 -1.5562 -2.2751 -2.3491 48.9901
#
#
#
# Elastic Compliance Matrix: (Units=1/GPa)
#
#
# Indices 1 2 3 4 5 6 
#
# 1 0.020249 -0.006041 -0.003786 -0.003094 0.004378 -0.009278
# 2 -0.006041 0.010237 0.000460 0.003385 -0.002453 0.001317
# 3 -0.003786 0.000460 0.008884 -0.000793 0.002435 0.002205
# 4 -0.003094 0.003385 -0.000793 0.033404 -0.006132 0.002207
# 5 0.004378 -0.002453 0.002435 -0.006132 0.021681 -0.000960
# 6 -0.009278 0.001317 0.002205 0.002207 -0.000960 0.025021
#
#
# Mechanical properties :
#
#
# Convention : Reuss Voigt Hill
#
# Bulk Modulus (GPa) = 48.45436 54.56048 51.50742
# Shear Modulus (GPa) = 34.46193 44.26754 39.36474
#
# Velocity S-wave (km/s) = 3.59482 4.07427 3.84203
# Velocity P-wave (km/s) = 5.94978 6.52627 6.24469
#
# Compressibility (1/GPa) = 0.02063798
#
# Stress axis : x y z
#
# Youngs Moduli (GPa) = 49.38548 97.68078 112.55922
#
# Poissons Ratio (x) = 0.59006 0.42610
# Poissons Ratio (y) = 0.29832 -0.05177
# Poissons Ratio (z) = 0.18695 -0.04493
#
# Static dielectric constant tensor:
#      x y z
#    x 2.179550 0.066310 -0.017360 
#    y 0.066310 2.090450 -0.047800 
#    z -0.017360 -0.047800 2.137430 
# 
# From -- ./inp_files/322165.got.cif
#   From: 2010.05.17/outbox.cif.g08.bks.cpg/sg2_162_cif.got.tgz:322165.got - 2010.06.03 11:33:40.
