data_PCOD9067919
_publ_section_title
;
Structure prediction by ZEFSAII (Michael W. Deem and Ramdas Pophale) SiO2 
 PCOD9067919
Probable space group: P -1
;
_chemical_formula_sum "Si O2"
_cell_formula_units_Z 12
_cell_length_a 11.713177
_cell_length_b 12.402563
_cell_length_c 14.448154
_cell_angle_alpha 21.129814
_cell_angle_beta 54.915850
_cell_angle_gamma 65.511526
_cell_volume 564.078855
_symmetry_space_group_name_H-M "P -1"
_symmetry_group_IT_number 2
_symmetry_cell_setting 'triclinic'
loop_
_space_group_symop_operation_xyz
x,y,z
-x,-y,-z
loop_
_atom_site_type_symbol
_atom_site_label
_atom_site_fract_x
_atom_site_fract_y
_atom_site_fract_z
Si Si1 0.056890 0.269237 0.597763
Si Si2 0.550555 0.199825 0.720219
Si Si3 0.082400 0.485807 0.697175
Si Si4 0.951518 0.616731 0.837536
Si Si5 0.398593 0.666887 0.054725
Si Si6 0.378697 0.651797 0.863741
O O1 0.242052 0.412345 0.382204
O O2 0.000000 0.500000 0.500000
O O3 0.981465 0.305180 0.506332
O O4 0.990579 0.910601 0.963529
O O5 0.500000 0.500000 0.500000
O O6 0.734504 0.356692 0.513664
O O7 0.500000 0.000000 0.000000
O O8 0.475153 0.965986 0.852725
O O9 0.030397 0.514242 0.800724
O O10 0.771596 0.440633 0.050877
O O11 0.000000 0.000000 0.500000
O O12 0.000000 0.500000 0.000000
O O13 0.538446 0.578511 0.024775
O O14 0.338686 0.683533 0.964729
O O15 0.500000 0.000000 0.500000
#
# Coordination Sequence:
#
# PCOD9067919 Si02
#       6
#     2   2   2   2   2   2
#     4  12  25  46  73 103 140 187 236 295 351 421
#     4  12  28  48  72 105 145 193 243 295 359 426
#     4  12  25  46  69 103 140 182 239 286 353 425
#     4  12  27  46  73 105 144 187 236 292 359 428
#     4  11  26  46  73 108 147 189 241 301 361 431
#     4  11  26  46  74 108 146 191 239 299 367 430
#
# _framework density 21.273620999999999
#
# number of rings (size 3 to 8) (size 9 to 14) (size 15 to 20)
#    0.000    0.333    1.667    6.500    9.333    0.000 
#    0.000    0.000    0.000    0.000    0.000    0.000 
#    0.000    0.000    0.000    0.000    0.000    0.000 
#
# Total GULP energy -66969.838880 kJ/mol
# GULP energy per Si atom -5580.819907 kJ/mol
# Density = 2.122520 g / cm^3
# Si number density = 21.273621 Si / 1000 Ang^3
#
#
#
# Elastic Constant Matrix: (Units=GPa)
#
#
# Indices 1 2 3 4 5 6 
#
# 1 158.6796 11.0303 41.9439 -1.0580 -20.2270 -0.3659
# 2 11.0303 152.5013 68.5447 16.1105 3.7286 27.5823
# 3 41.9439 68.5447 165.8319 19.5573 -11.0758 8.6232
# 4 -1.0580 16.1105 19.5573 57.8915 -3.8048 -2.1991
# 5 -20.2270 3.7286 -11.0758 -3.8048 52.1728 15.0950
# 6 -0.3659 27.5823 8.6232 -2.1991 15.0950 47.1912
#
#
#
# Elastic Compliance Matrix: (Units=1/GPa)
#
#
# Indices 1 2 3 4 5 6 
#
# 1 0.007090 0.000240 -0.001789 0.000815 0.002568 -0.000542
# 2 0.000240 0.009088 -0.003386 -0.001562 -0.000012 -0.004760
# 3 -0.001789 -0.003386 0.008167 -0.001773 0.001146 0.000024
# 4 0.000815 -0.001562 -0.001773 0.018449 0.000869 0.001825
# 5 0.002568 -0.000012 0.001146 0.000869 0.022603 -0.007372
# 6 -0.000542 -0.004760 0.000024 0.001825 -0.007372 0.026407
#
#
# Mechanical properties :
#
#
# Convention : Reuss Voigt Hill
#
# Bulk Modulus (GPa) = 69.08484 80.00562 74.54523
# Shear Modulus (GPa) = 46.94887 55.15071 51.04979
#
# Velocity S-wave (km/s) = 4.70287 5.09713 4.90396
# Velocity P-wave (km/s) = 7.87618 8.50474 8.19648
#
# Compressibility (1/GPa) = 0.01447496
#
# Stress axis : x y z
#
# Youngs Moduli (GPa) = 141.04950 110.03140 122.44674
#
# Poissons Ratio (x) = -0.02646 0.21906
# Poissons Ratio (y) = -0.03392 0.41465
# Poissons Ratio (z) = 0.25234 0.37261
#
# Static dielectric constant tensor:
#      x y z
#    x 1.889540 0.025320 0.200790 
#    y 0.025320 1.856320 0.059880 
#    z 0.200790 0.059880 2.105470 
# 
# From -- ./inp_files/22503.got.cif
#   From: 2010.05.17/outbox.cif.g08.bks.cpg/sg2_12_cif.got.tgz:22503.got - 2010.06.03 11:33:40.
