data_PCOD9067791
_publ_section_title
;
Structure prediction by ZEFSAII (Michael W. Deem and Ramdas Pophale) SiO2 
 PCOD9067791
Probable space group: P -1
;
_chemical_formula_sum "Si O2"
_cell_formula_units_Z 14
_cell_length_a 5.110746
_cell_length_b 10.398570
_cell_length_c 11.734372
_cell_angle_alpha 102.661806
_cell_angle_beta 100.762647
_cell_angle_gamma 88.069239
_cell_volume 597.730741
_symmetry_space_group_name_H-M "P -1"
_symmetry_group_IT_number 2
_symmetry_cell_setting 'triclinic'
loop_
_space_group_symop_operation_xyz
x,y,z
-x,-y,-z
loop_
_atom_site_type_symbol
_atom_site_label
_atom_site_fract_x
_atom_site_fract_y
_atom_site_fract_z
Si Si1 0.530545 0.053607 0.711827
Si Si2 0.448867 0.663233 0.894689
Si Si3 0.083431 0.651378 0.541410
Si Si4 0.980404 0.201222 0.669309
Si Si5 0.636888 0.744096 0.682337
Si Si6 0.153837 0.414895 0.900650
Si Si7 0.739220 0.084409 0.981935
O O1 0.230290 0.104948 0.690762
O O2 0.669299 0.104728 0.848893
O O3 0.708731 0.117564 0.639403
O O4 0.560804 0.896926 0.691009
O O5 0.610601 0.698105 0.801772
O O6 0.311305 0.520229 0.855299
O O7 0.638118 0.665022 0.021233
O O8 0.240246 0.778434 0.923680
O O9 0.997833 0.728225 0.436255
O O10 0.922147 0.715200 0.645574
O O11 0.000000 0.500000 0.500000
O O12 0.399812 0.665162 0.584515
O O13 0.990163 0.316112 0.788574
O O14 0.000000 0.500000 0.000000
O O15 0.500000 0.000000 0.000000
O O16 0.000000 0.000000 0.000000
#
# Coordination Sequence:
#
# PCOD9067791 Si02
#       7
#     2   2   2   2   2   2   2
#     4  12  26  46  74 111 142 189 241 297 372 421
#     4  11  26  45  72 111 147 190 247 299 365 438
#     4  12  29  52  75 105 143 193 245 297 361 426
#     4  12  27  49  75 103 149 188 242 303 357 433
#     4  12  28  47  77 107 144 190 244 298 358 434
#     4  11  26  45  74 107 146 195 240 302 366 432
#     4  12  25  43  71 108 153 191 232 298 363 435
#
# _framework density 23.421916
#
# number of rings (size 3 to 8) (size 9 to 14) (size 15 to 20)
#    0.000    0.286    2.857    4.714   10.000    3.429 
#    0.000    0.000    0.000    0.000    0.000    0.000 
#    0.000    0.000    0.000    0.000    0.000    0.000 
#
# Total GULP energy -78520.710755 kJ/mol
# GULP energy per Si atom -5608.622197 kJ/mol
# Density = 2.336861 g / cm^3
# Si number density = 23.421916 Si / 1000 Ang^3
#
#
#
# Elastic Constant Matrix: (Units=GPa)
#
#
# Indices 1 2 3 4 5 6 
#
# 1 85.7016 17.7487 5.8719 -1.6246 -11.4740 -5.0024
# 2 17.7487 116.9932 48.6837 -11.9088 -21.2501 14.6276
# 3 5.8719 48.6837 55.9548 -6.3916 -12.8975 10.2910
# 4 -1.6246 -11.9088 -6.3916 31.7348 6.7084 -3.9474
# 5 -11.4740 -21.2501 -12.8975 6.7084 37.1875 1.0426
# 6 -5.0024 14.6276 10.2910 -3.9474 1.0426 51.3502
#
#
#
# Elastic Compliance Matrix: (Units=1/GPa)
#
#
# Indices 1 2 3 4 5 6 
#
# 1 0.012496 -0.001852 0.000684 -0.000376 0.003059 0.001517
# 2 -0.001852 0.014529 -0.011005 0.002131 0.003586 -0.002023
# 3 0.000684 -0.011005 0.028815 0.000563 0.003888 -0.002609
# 4 -0.000376 0.002131 0.000563 0.033666 -0.004830 0.001930
# 5 0.003059 0.003586 0.003888 -0.004830 0.032175 -0.002527
# 6 0.001517 -0.002023 -0.002609 0.001930 -0.002527 0.020921
#
#
# Mechanical properties :
#
#
# Convention : Reuss Voigt Hill
#
# Bulk Modulus (GPa) = 31.75290 44.80647 38.27969
# Shear Modulus (GPa) = 28.17765 36.47752 32.32758
#
# Velocity S-wave (km/s) = 3.47226 3.95068 3.71917
# Velocity P-wave (km/s) = 5.44626 6.32315 5.90102
#
# Compressibility (1/GPa) = 0.03149319
#
# Stress axis : x y z
#
# Youngs Moduli (GPa) = 80.02417 68.82759 34.70469
#
# Poissons Ratio (x) = 0.12750 -0.02373
# Poissons Ratio (y) = 0.14824 0.38191
# Poissons Ratio (z) = -0.05471 0.75741
#
# Static dielectric constant tensor:
#      x y z
#    x 1.875370 0.010790 -0.013670 
#    y 0.010790 1.864050 0.012040 
#    z -0.013670 0.012040 1.884300 
# 
# From -- ./inp_files/94589.got.cif
#   From: 2010.05.17/outbox.cif.g08.bks.cpg/sg2_48_cif.got.tgz:94589.got - 2010.06.03 11:33:40.
