data_PCOD9067107
_publ_section_title
;
Structure prediction by ZEFSAII (Michael W. Deem and Ramdas Pophale) SiO2 
 PCOD9067107
Probable space group: P -1
;
_chemical_formula_sum "Si O2"
_cell_formula_units_Z 16
_cell_length_a 10.583501
_cell_length_b 7.818747
_cell_length_c 12.243424
_cell_angle_alpha 77.079703
_cell_angle_beta 76.765675
_cell_angle_gamma 38.852151
_cell_volume 616.971233
_symmetry_space_group_name_H-M "P -1"
_symmetry_group_IT_number 2
_symmetry_cell_setting 'triclinic'
loop_
_space_group_symop_operation_xyz
x,y,z
-x,-y,-z
loop_
_atom_site_type_symbol
_atom_site_label
_atom_site_fract_x
_atom_site_fract_y
_atom_site_fract_z
Si Si1 0.356862 0.258922 0.409225
Si Si2 0.646983 0.452732 0.061520
Si Si3 0.077537 0.251219 0.363927
Si Si4 0.763528 0.840206 0.290820
Si Si5 0.989399 0.687312 0.044354
Si Si6 0.096083 0.950545 0.727837
Si Si7 0.734122 0.304042 0.494935
Si Si8 0.240295 0.932028 0.162296
O O1 0.195677 0.287107 0.394010
O O2 0.272632 0.524054 0.444120
O O3 0.500000 0.000000 0.500000
O O4 0.523549 0.119447 0.300452
O O5 0.787087 0.209562 0.158549
O O6 0.477405 0.711717 0.137755
O O7 0.500000 0.500000 0.000000
O O8 0.794471 0.438268 0.974148
O O9 0.154570 0.153434 0.237767
O O10 0.851276 0.566178 0.355554
O O11 0.147287 0.993178 0.441892
O O12 0.871214 0.762783 0.165604
O O13 0.856399 0.901222 0.334937
O O14 0.851928 0.949067 0.956177
O O15 0.000000 0.500000 0.000000
O O16 0.185540 0.748635 0.637435
O O17 0.863162 0.142801 0.767934
O O18 0.500000 0.500000 0.500000
#
# Coordination Sequence:
#
# PCOD9067107 Si02
#       8
#     2   2   2   2   2   2   2   2
#     4  12  29  50  79 109 160 201 261 327 387 459
#     4  11  25  47  79 114 150 203 267 316 395 479
#     4  12  29  48  76 114 152 205 267 310 393 470
#     4  12  27  49  76 115 152 204 260 318 393 466
#     4  11  25  48  72 112 162 198 252 335 395 458
#     4  11  26  48  79 110 161 202 259 325 396 456
#     4  12  25  53  75 113 156 210 253 328 392 459
#     4  11  26  47  77 112 150 206 257 322 393 476
#
# _framework density 25.933136999999999
#
# number of rings (size 3 to 8) (size 9 to 14) (size 15 to 20)
#    0.000    0.500    3.750    2.250    5.250    7.000 
#    0.000    0.000    0.000    0.000    0.000    0.000 
#    0.000    0.000    0.000    0.000    0.000    0.000 
#
# Total GULP energy -89479.535044 kJ/mol
# GULP energy per Si atom -5592.470940 kJ/mol
# Density = 2.587411 g / cm^3
# Si number density = 25.933137 Si / 1000 Ang^3
#
#
#
# Elastic Constant Matrix: (Units=GPa)
#
#
# Indices 1 2 3 4 5 6 
#
# 1 162.2999 51.0807 65.1779 2.9137 5.1480 26.0714
# 2 51.0807 128.0720 72.8028 10.5849 0.3654 30.2270
# 3 65.1779 72.8028 165.1677 14.7725 -2.5832 -7.1333
# 4 2.9137 10.5849 14.7725 47.7963 -2.3424 9.2926
# 5 5.1480 0.3654 -2.5832 -2.3424 51.7951 2.9930
# 6 26.0714 30.2270 -7.1333 9.2926 2.9930 38.7866
#
#
#
# Elastic Compliance Matrix: (Units=1/GPa)
#
#
# Indices 1 2 3 4 5 6 
#
# 1 0.008927 0.000495 -0.004269 0.002123 -0.000566 -0.007636
# 2 0.000495 0.015056 -0.007578 0.001696 0.000346 -0.013893
# 3 -0.004269 -0.007578 0.011962 -0.004069 0.000201 0.011935
# 4 0.002123 0.001696 -0.004069 0.023525 0.001171 -0.009223
# 5 -0.000566 0.000346 0.000201 0.001171 0.019518 -0.001639
# 6 -0.007636 -0.013893 0.011935 -0.009223 -0.001639 0.046273
#
#
# Mechanical properties :
#
#
# Convention : Reuss Voigt Hill
#
# Bulk Modulus (GPa) = 75.52822 92.62915 84.07868
# Shear Modulus (GPa) = 32.81273 45.44080 39.12677
#
# Velocity S-wave (km/s) = 3.56094 4.19050 3.88848
# Velocity P-wave (km/s) = 6.78929 7.69479 7.25618
#
# Compressibility (1/GPa) = 0.01324008
#
# Stress axis : x y z
#
# Youngs Moduli (GPa) = 112.02451 66.41723 83.59829
#
# Poissons Ratio (x) = -0.03287 0.35690
# Poissons Ratio (y) = -0.05544 0.63352
# Poissons Ratio (z) = 0.47826 0.50332
#
# Static dielectric constant tensor:
#      x y z
#    x 2.174250 0.084530 -0.026220 
#    y 0.084530 2.179110 0.047670 
#    z -0.026220 0.047670 2.126150 
# 
# From -- ./inp_files/52524.got.cif
#   From: 2010.05.17/outbox.cif.g08.bks.cpg/sg2_27_cif.got.tgz:52524.got - 2010.06.03 11:33:40.
