data_PCOD9067793
_publ_section_title
;
Structure prediction by ZEFSAII (Michael W. Deem and Ramdas Pophale) SiO2 
 PCOD9067793
Probable space group: P -1
;
_chemical_formula_sum "Si O2"
_cell_formula_units_Z 12
_cell_length_a 16.341035
_cell_length_b 5.008625
_cell_length_c 9.236175
_cell_angle_alpha 84.060717
_cell_angle_beta 138.443727
_cell_angle_gamma 85.250948
_cell_volume 483.838872
_symmetry_space_group_name_H-M "P -1"
_symmetry_group_IT_number 2
_symmetry_cell_setting 'triclinic'
loop_
_space_group_symop_operation_xyz
x,y,z
-x,-y,-z
loop_
_atom_site_type_symbol
_atom_site_label
_atom_site_fract_x
_atom_site_fract_y
_atom_site_fract_z
Si Si1 0.352357 0.073514 0.906274
Si Si2 0.390165 0.259699 0.401880
Si Si3 0.053802 0.801642 0.215152
Si Si4 0.438797 0.486525 0.178717
Si Si5 0.925578 0.799552 0.334729
Si Si6 0.774608 0.807101 0.559177
O O1 0.217971 0.155453 0.806924
O O2 0.324895 0.189762 0.702319
O O3 0.392278 0.746088 0.998534
O O4 0.449988 0.217149 0.110943
O O5 0.345607 0.446817 0.190595
O O6 0.446261 0.447693 0.579838
O O7 0.288546 0.155605 0.368454
O O8 0.119893 0.483829 0.285249
O O9 0.945216 0.821370 0.188957
O O10 0.162950 0.941651 0.412358
O O11 0.000000 0.000000 0.000000
O O12 0.500000 0.000000 0.500000
O O13 0.000000 0.500000 0.500000
O O14 0.000000 0.000000 0.500000
#
# Coordination Sequence:
#
# PCOD9067793 Si02
#       6
#     2   2   2   2   2   2
#     4  12  24  45  72 107 134 187 229 287 348 416
#     4  11  27  51  70 104 142 183 235 296 353 416
#     4  12  27  46  68 108 143 188 230 285 346 419
#     4  11  26  45  73 101 136 183 235 284 354 412
#     4  12  23  45  70 101 146 181 226 282 346 412
#     4  12  28  46  72 103 146 181 236 292 347 413
#
# _framework density 24.801642000000001
#
# number of rings (size 3 to 8) (size 9 to 14) (size 15 to 20)
#    0.000    0.333    5.000    2.500    9.333    1.333 
#    0.000    0.000    0.000    0.000    0.000    0.000 
#    0.000    0.000    0.000    0.000    0.000    0.000 
#
# Total GULP energy -67226.919959 kJ/mol
# GULP energy per Si atom -5602.243330 kJ/mol
# Density = 2.474519 g / cm^3
# Si number density = 24.801642 Si / 1000 Ang^3
#
#
#
# Elastic Constant Matrix: (Units=GPa)
#
#
# Indices 1 2 3 4 5 6 
#
# 1 177.8920 31.5817 15.9572 -16.3201 -13.4154 4.4859
# 2 31.5817 144.6244 14.2708 -1.7123 1.2360 -5.6020
# 3 15.9572 14.2708 94.2001 -2.1002 -27.0300 2.1983
# 4 -16.3201 -1.7123 -2.1002 47.8430 17.3347 -6.7404
# 5 -13.4154 1.2360 -27.0300 17.3347 38.7647 -9.7088
# 6 4.4859 -5.6020 2.1983 -6.7404 -9.7088 33.4690
#
#
#
# Elastic Compliance Matrix: (Units=1/GPa)
#
#
# Indices 1 2 3 4 5 6 
#
# 1 0.006129 -0.001292 -0.000515 0.001609 0.000985 -0.000394
# 2 -0.001292 0.007395 -0.001368 0.000494 -0.001571 0.001145
# 3 -0.000515 -0.001368 0.014170 -0.003645 0.011774 0.001591
# 4 0.001609 0.000494 -0.003645 0.026385 -0.013416 0.001528
# 5 0.000985 -0.001571 0.011774 -0.013416 0.042517 0.008463
# 6 -0.000394 0.001145 0.001591 0.001528 0.008463 0.032781
#
#
# Mechanical properties :
#
#
# Convention : Reuss Voigt Hill
#
# Bulk Modulus (GPa) = 46.85044 60.03732 53.44388
# Shear Modulus (GPa) = 35.00382 47.67578 41.33980
#
# Velocity S-wave (km/s) = 3.76087 4.38914 4.08710
# Velocity P-wave (km/s) = 6.14735 7.06722 6.62328
#
# Compressibility (1/GPa) = 0.02134452
#
# Stress axis : x y z
#
# Youngs Moduli (GPa) = 163.16316 135.22201 70.56989
#
# Poissons Ratio (x) = 0.17473 0.03633
# Poissons Ratio (y) = 0.21084 0.09654
# Poissons Ratio (z) = 0.08399 0.18498
#
# Static dielectric constant tensor:
#      x y z
#    x 1.976960 0.024140 -0.005750 
#    y 0.024140 1.918310 0.035560 
#    z -0.005750 0.035560 1.970260 
# 
# From -- ./inp_files/323622.got.cif
#   From: 2010.05.17/outbox.cif.g08.bks.cpg/sg2_162_cif.got.tgz:323622.got - 2010.06.03 11:33:40.
