data_PCOD9067778
_publ_section_title
;
Structure prediction by ZEFSAII (Michael W. Deem and Ramdas Pophale) SiO2 
 PCOD9067778
Probable space group: P -1
;
_chemical_formula_sum "Si O2"
_cell_formula_units_Z 16
_cell_length_a 8.509167
_cell_length_b 8.884443
_cell_length_c 13.296419
_cell_angle_alpha 96.269030
_cell_angle_beta 130.379540
_cell_angle_gamma 79.542957
_cell_volume 752.964962
_symmetry_space_group_name_H-M "P -1"
_symmetry_group_IT_number 2
_symmetry_cell_setting 'triclinic'
loop_
_space_group_symop_operation_xyz
x,y,z
-x,-y,-z
loop_
_atom_site_type_symbol
_atom_site_label
_atom_site_fract_x
_atom_site_fract_y
_atom_site_fract_z
Si Si1 0.838986 0.903512 0.618669
Si Si2 0.970987 0.423479 0.801404
Si Si3 0.427747 0.889643 0.108512
Si Si4 0.167476 0.086398 0.853411
Si Si5 0.375171 0.543664 0.053809
Si Si6 0.880771 0.549830 0.556422
Si Si7 0.502847 0.078184 0.348022
Si Si8 0.516109 0.573185 0.695808
O O1 0.873433 0.729969 0.582855
O O2 0.695038 0.909879 0.658798
O O3 0.706826 0.012293 0.491057
O O4 0.051736 0.965852 0.736976
O O5 0.983219 0.464345 0.691303
O O6 0.746310 0.500483 0.751233
O O7 0.009308 0.241002 0.816633
O O8 0.151118 0.490416 0.941934
O O9 0.637581 0.871841 0.126725
O O10 0.355955 0.724853 0.076000
O O11 0.474134 0.961682 0.238787
O O12 0.258377 0.007632 0.987576
O O13 0.494584 0.460884 0.192600
O O14 0.500000 0.500000 0.000000
O O15 0.650490 0.506144 0.441622
O O16 0.000000 0.500000 0.500000
O O17 0.518874 0.246233 0.325557
#
# Coordination Sequence:
#
# PCOD9067778 Si02
#       8
#     2   2   2   2   2   2   2   2
#     4  11  26  47  71 103 142 184 230 288 354 418
#     4  12  25  47  71 104 142 187 237 289 349 419
#     4  11  26  46  71 102 140 185 233 290 353 414
#     4  11  26  45  72 102 141 183 234 289 351 418
#     4  12  25  47  71 103 142 184 239 291 348 414
#     4  12  27  46  73 105 141 186 236 289 352 420
#     4  11  26  46  71 103 141 185 230 289 353 419
#     4  12  27  47  72 104 143 186 238 291 351 417
#
# _framework density 21.249327999999998
#
# number of rings (size 3 to 8) (size 9 to 14) (size 15 to 20)
#    0.000    0.500    2.500    4.500   10.500    1.000 
#    0.000    0.000    0.000    0.000    0.000    0.000 
#    0.000    0.000    0.000    0.000    0.000    0.000 
#
# Total GULP energy -89679.464333 kJ/mol
# GULP energy per Si atom -5604.966521 kJ/mol
# Density = 2.120096 g / cm^3
# Si number density = 21.249328 Si / 1000 Ang^3
#
#
#
# Elastic Constant Matrix: (Units=GPa)
#
#
# Indices 1 2 3 4 5 6 
#
# 1 19.3588 32.4118 13.8379 0.7064 -11.1197 -6.4575
# 2 32.4118 312.4825 102.6092 19.3388 -30.3087 -61.8582
# 3 13.8379 102.6092 129.6096 9.3857 -13.1782 -7.4050
# 4 0.7064 19.3388 9.3857 47.8575 9.9513 -6.1840
# 5 -11.1197 -30.3087 -13.1782 9.9513 47.6590 12.7940
# 6 -6.4575 -61.8582 -7.4050 -6.1840 12.7940 58.7106
#
#
#
# Elastic Compliance Matrix: (Units=1/GPa)
#
#
# Indices 1 2 3 4 5 6 
#
# 1 0.069093 -0.005591 -0.001642 -0.001273 0.012756 -0.001412
# 2 -0.005591 0.006196 -0.003895 -0.001060 0.000377 0.005228
# 3 -0.001642 -0.003895 0.011013 -0.001270 0.001342 -0.003321
# 4 -0.001273 -0.001060 -0.001270 0.023351 -0.006881 0.002542
# 5 0.012756 0.000377 0.001342 -0.006881 0.027267 -0.004697
# 6 -0.001412 0.005228 -0.003321 0.002542 -0.004697 0.023258
#
#
# Mechanical properties :
#
#
# Convention : Reuss Voigt Hill
#
# Bulk Modulus (GPa) = 15.61364 84.35209 49.98286
# Shear Modulus (GPa) = 24.53604 51.68489 38.11047
#
# Velocity S-wave (km/s) = 3.40174 4.93719 4.23956
# Velocity P-wave (km/s) = 4.77419 8.50198 6.89480
#
# Compressibility (1/GPa) = 0.06404656
#
# Stress axis : x y z
#
# Youngs Moduli (GPa) = 14.47329 161.39189 90.80392
#
# Poissons Ratio (x) = 0.90231 0.14911
# Poissons Ratio (y) = 0.08092 0.35364
# Poissons Ratio (z) = 0.02377 0.62856
#
# Static dielectric constant tensor:
#      x y z
#    x 1.767610 0.004100 -0.003580 
#    y 0.004100 1.716330 -0.014610 
#    z -0.003580 -0.014610 1.726060 
# 
# From -- ./inp_files/188472.got.cif
#   From: 2010.05.17/outbox.cif.g08.bks.cpg/sg2_95_cif.got.tgz:188472.got - 2010.06.03 11:33:40.
