data_PCOD9067012
_publ_section_title
;
Structure prediction by ZEFSAII (Michael W. Deem and Ramdas Pophale) SiO2 
 PCOD9067012
Probable space group: P -1
;
_chemical_formula_sum "Si O2"
_cell_formula_units_Z 14
_cell_length_a 11.104345
_cell_length_b 5.565477
_cell_length_c 10.985215
_cell_angle_alpha 87.011969
_cell_angle_beta 52.080722
_cell_angle_gamma 82.326668
_cell_volume 530.381632
_symmetry_space_group_name_H-M "P -1"
_symmetry_group_IT_number 2
_symmetry_cell_setting 'triclinic'
loop_
_space_group_symop_operation_xyz
x,y,z
-x,-y,-z
loop_
_atom_site_type_symbol
_atom_site_label
_atom_site_fract_x
_atom_site_fract_y
_atom_site_fract_z
Si Si1 0.375867 0.925369 0.984371
Si Si2 0.017097 0.261236 0.917461
Si Si3 0.342486 0.047266 0.729064
Si Si4 0.867674 0.922801 0.498439
Si Si5 0.629096 0.609316 0.716136
Si Si6 0.860352 0.315285 0.769053
Si Si7 0.344663 0.726865 0.525388
O O1 0.463395 0.670180 0.881325
O O2 0.335490 0.060847 0.879380
O O3 0.220823 0.929034 0.158773
O O4 0.500000 0.000000 0.000000
O O5 0.194782 0.216030 0.763601
O O6 0.889674 0.342394 0.892248
O O7 0.000000 0.500000 0.000000
O O8 0.000000 0.000000 0.000000
O O9 0.500986 0.147850 0.597205
O O10 0.334176 0.782338 0.677066
O O11 0.707408 0.854828 0.647554
O O12 0.967977 0.687731 0.386719
O O13 0.815021 0.128667 0.428163
O O14 0.000000 0.000000 0.500000
O O15 0.742119 0.460751 0.746759
O O16 0.631252 0.493556 0.582457
#
# Coordination Sequence:
#
# PCOD9067012 Si02
#       7
#     2   2   2   2   2   2   2
#     4  12  26  47  76 109 155 200 258 321 395 472
#     4  12  29  49  76 112 158 209 255 323 400 471
#     4  11  25  50  75 108 154 203 259 328 385 472
#     4  12  24  47  71 111 150 193 255 322 389 466
#     4  12  27  47  78 110 147 209 257 322 392 474
#     4  12  26  45  75 113 149 198 256 323 398 462
#     4  11  25  47  75 107 148 200 266 316 388 469
#
# _framework density 26.396089
#
# number of rings (size 3 to 8) (size 9 to 14) (size 15 to 20)
#    0.000    0.286    5.714    2.571    4.000    2.857 
#    0.000    0.000    0.000    0.000    0.000    0.000 
#    0.000    0.000    0.000    0.000    0.000    0.000 
#
# Total GULP energy -77983.423887 kJ/mol
# GULP energy per Si atom -5570.244563 kJ/mol
# Density = 2.633601 g / cm^3
# Si number density = 26.396089 Si / 1000 Ang^3
#
#
#
# Elastic Constant Matrix: (Units=GPa)
#
#
# Indices 1 2 3 4 5 6 
#
# 1 185.4994 37.7889 39.1441 18.4806 11.7826 12.6751
# 2 37.7889 52.8702 23.3276 24.5484 24.4148 13.4062
# 3 39.1441 23.3276 92.8126 13.8627 1.4405 6.1998
# 4 18.4806 24.5484 13.8627 37.1261 5.4488 0.6027
# 5 11.7826 24.4148 1.4405 5.4488 62.6868 15.7482
# 6 12.6751 13.4062 6.1998 0.6027 15.7482 55.0235
#
#
#
# Elastic Compliance Matrix: (Units=1/GPa)
#
#
# Indices 1 2 3 4 5 6 
#
# 1 0.006583 -0.004036 -0.001734 -0.000026 0.000497 -0.000480
# 2 -0.004036 0.040369 -0.004795 -0.021080 -0.011828 -0.004749
# 3 -0.001734 -0.004795 0.012870 -0.001074 0.002110 -0.000475
# 4 -0.000026 -0.021080 -0.001074 0.040675 0.003765 0.003740
# 5 0.000497 -0.011828 0.002110 0.003765 0.020973 -0.003514
# 6 -0.000480 -0.004749 -0.000475 0.003740 -0.003514 0.020460
#
#
# Mechanical properties :
#
#
# Convention : Reuss Voigt Hill
#
# Bulk Modulus (GPa) = 25.84458 59.07814 42.46136
# Shear Modulus (GPa) = 28.41635 46.36206 37.38920
#
# Velocity S-wave (km/s) = 3.28462 4.19549 3.76768
# Velocity P-wave (km/s) = 4.91907 6.77492 5.92017
#
# Compressibility (1/GPa) = 0.03869284
#
# Stress axis : x y z
#
# Youngs Moduli (GPa) = 151.91462 24.77168 77.69944
#
# Poissons Ratio (x) = 0.09998 0.13470
# Poissons Ratio (y) = 0.61312 0.37255
# Poissons Ratio (z) = 0.26337 0.11877
#
# Static dielectric constant tensor:
#      x y z
#    x 3.457110 1.560380 1.355780 
#    y 1.560380 3.991720 1.518030 
#    z 1.355780 1.518030 3.475770 
# 
# From -- ./inp_files/370354.got.cif
#   From: 2010.05.17/outbox.cif.g08.bks.cpg/sg2_186_cif.got.tgz:370354.got - 2010.06.03 11:33:40.
