data_PCOD9067506
_publ_section_title
;
Structure prediction by ZEFSAII (Michael W. Deem and Ramdas Pophale) SiO2 
 PCOD9067506
Probable space group: P -1
;
_chemical_formula_sum "Si O2"
_cell_formula_units_Z 14
_cell_length_a 4.997411
_cell_length_b 16.332058
_cell_length_c 9.394894
_cell_angle_alpha 115.841656
_cell_angle_beta 128.651469
_cell_angle_gamma 84.452949
_cell_volume 521.864376
_symmetry_space_group_name_H-M "P -1"
_symmetry_group_IT_number 2
_symmetry_cell_setting 'triclinic'
loop_
_space_group_symop_operation_xyz
x,y,z
-x,-y,-z
loop_
_atom_site_type_symbol
_atom_site_label
_atom_site_fract_x
_atom_site_fract_y
_atom_site_fract_z
Si Si1 0.725099 0.330873 0.475698
Si Si2 0.818455 0.069828 0.303402
Si Si3 0.141737 0.224895 0.731607
Si Si4 0.133190 0.141550 0.165935
Si Si5 0.771134 0.368587 0.192759
Si Si6 0.245753 0.484530 0.200770
Si Si7 0.814850 0.084237 0.724369
O O1 0.368764 0.247113 0.302681
O O2 0.850699 0.346707 0.366009
O O3 0.664850 0.422588 0.602834
O O4 0.013364 0.296668 0.640547
O O5 0.433055 0.082139 0.222688
O O6 0.103648 0.131795 0.553898
O O7 0.926374 0.120019 0.227080
O O8 0.858312 0.964751 0.231372
O O9 0.856637 0.179990 0.723662
O O10 0.491933 0.278108 0.967986
O O11 0.868665 0.112182 0.926055
O O12 0.570605 0.452026 0.214484
O O13 0.050606 0.404380 0.186863
O O14 0.000000 0.500000 0.000000
O O15 0.500000 0.000000 0.500000
#
# Coordination Sequence:
#
# PCOD9067506 Si02
#       7
#     2   2   2   2   2   2   2
#     4  11  25  50  74 110 153 193 250 299 378 440
#     4  11  26  46  76 105 153 196 257 305 380 443
#     4  11  26  47  75 112 149 197 250 311 368 444
#     4  11  26  48  76 111 148 205 246 315 374 453
#     4  12  27  50  74 111 151 197 243 305 376 439
#     4  12  27  47  82 109 151 193 247 305 368 447
#     4  12  25  49  75 112 153 197 257 317 375 445
#
# _framework density 26.826896000000001
#
# number of rings (size 3 to 8) (size 9 to 14) (size 15 to 20)
#    0.000    0.571    2.857    4.286    2.000    6.857 
#    0.000    0.000    0.000    0.000    0.000    0.000 
#    0.000    0.000    0.000    0.000    0.000    0.000 
#
# Total GULP energy -78608.275115 kJ/mol
# GULP energy per Si atom -5614.876794 kJ/mol
# Density = 2.676584 g / cm^3
# Si number density = 26.826896 Si / 1000 Ang^3
#
#
#
# Elastic Constant Matrix: (Units=GPa)
#
#
# Indices 1 2 3 4 5 6 
#
# 1 84.4058 4.2727 38.1120 -3.2382 -6.2323 10.6450
# 2 4.2727 103.5695 40.6707 -17.1577 -4.5929 8.9139
# 3 38.1120 40.6707 214.8286 0.3663 -24.5738 35.9299
# 4 -3.2382 -17.1577 0.3663 48.4733 10.9606 -9.7158
# 5 -6.2323 -4.5929 -24.5738 10.9606 41.7975 2.3206
# 6 10.6450 8.9139 35.9299 -9.7158 2.3206 45.4484
#
#
#
# Elastic Compliance Matrix: (Units=1/GPa)
#
#
# Indices 1 2 3 4 5 6 
#
# 1 0.013020 0.000546 -0.002106 0.000650 0.000670 -0.001387
# 2 0.000546 0.011238 -0.002501 0.004476 -0.001365 0.000671
# 3 -0.002106 -0.002501 0.006947 -0.003217 0.004641 -0.005433
# 4 0.000650 0.004476 -0.003217 0.025683 -0.008450 0.007435
# 5 0.000670 -0.001365 0.004641 -0.008450 0.029200 -0.006855
# 6 -0.001387 0.000671 -0.005433 0.007435 -0.006855 0.028431
#
#
# Mechanical properties :
#
#
# Convention : Reuss Voigt Hill
#
# Bulk Modulus (GPa) = 43.31759 63.21275 53.26517
# Shear Modulus (GPa) = 38.36338 48.46040 43.41189
#
# Velocity S-wave (km/s) = 3.78568 4.25480 4.02708
# Velocity P-wave (km/s) = 5.94059 6.91029 6.44371
#
# Compressibility (1/GPa) = 0.02308531
#
# Stress axis : x y z
#
# Youngs Moduli (GPa) = 76.80466 88.98359 143.95167
#
# Poissons Ratio (x) = -0.04863 0.30312
# Poissons Ratio (y) = -0.04197 0.35996
# Poissons Ratio (z) = 0.16173 0.22251
#
# Static dielectric constant tensor:
#      x y z
#    x 2.140520 -0.053660 0.040760 
#    y -0.053660 2.104370 -0.035030 
#    z 0.040760 -0.035030 2.046820 
# 
# From -- ./inp_files/138016.got.cif
#   From: 2010.05.17/outbox.cif.g08.bks.cpg/sg2_70_cif.got.tgz:138016.got - 2010.06.03 11:33:40.
