data_PCOD9067472
_publ_section_title
;
Structure prediction by ZEFSAII (Michael W. Deem and Ramdas Pophale) SiO2 
 PCOD9067472
Probable space group: P -1
;
_chemical_formula_sum "Si O2"
_cell_formula_units_Z 13
_cell_length_a 7.879025
_cell_length_b 10.270573
_cell_length_c 11.576778
_cell_angle_alpha 127.793504
_cell_angle_beta 123.618596
_cell_angle_gamma 94.045095
_cell_volume 482.318553
_symmetry_space_group_name_H-M "P -1"
_symmetry_group_IT_number 2
_symmetry_cell_setting 'triclinic'
loop_
_space_group_symop_operation_xyz
x,y,z
-x,-y,-z
loop_
_atom_site_type_symbol
_atom_site_label
_atom_site_fract_x
_atom_site_fract_y
_atom_site_fract_z
Si Si1 0.069979 0.794501 0.398799
Si Si2 0.224489 0.745707 0.190013
Si Si3 0.584520 0.738432 0.149955
Si Si4 0.174448 0.562166 0.488272
Si Si5 0.136841 0.050823 0.203340
Si Si6 0.409813 0.144259 0.027936
Si Si7 0.500000 0.500000 0.500000
O O1 0.233836 0.839874 0.369634
O O2 0.118954 0.677268 0.443985
O O3 0.759888 0.661701 0.185588
O O4 0.185292 0.008238 0.623665
O O5 0.425364 0.725216 0.191255
O O6 0.186272 0.884554 0.166368
O O7 0.000000 0.500000 0.000000
O O8 0.472847 0.716762 0.968032
O O9 0.194491 0.409650 0.338799
O O10 0.000000 0.500000 0.500000
O O11 0.468699 0.695137 0.728380
O O12 0.401186 0.291958 0.437079
O O13 0.900183 0.994603 0.164935
O O14 0.000000 0.000000 0.000000
O O15 0.500000 0.000000 0.000000
#
# Coordination Sequence:
#
# PCOD9067472 Si02
#       7
#     2   2   2   2   2   2   1
#     4  11  26  49  74 115 156 210 269 328 399 483
#     4  12  29  50  80 117 160 212 267 332 405 486
#     4  11  25  49  80 108 157 210 261 335 400 474
#     4  12  28  46  77 119 160 211 274 330 405 484
#     4  12  26  52  77 120 160 206 277 329 406 480
#     4  12  23  48  79 115 161 208 270 337 398 487
#     4  12  28  48  84 114 160 212 264 340 398 476
#
# _framework density 26.953139
#
# number of rings (size 3 to 8) (size 9 to 14) (size 15 to 20)
#    0.000    0.308    4.615    3.231    4.308    3.077 
#    0.000    0.000    0.000    0.000    0.000    0.000 
#    0.000    0.000    0.000    0.000    0.000    0.000 
#
# Total GULP energy -72473.194928 kJ/mol
# GULP energy per Si atom -5574.861148 kJ/mol
# Density = 2.689179 g / cm^3
# Si number density = 26.953139 Si / 1000 Ang^3
#
#
#
# Elastic Constant Matrix: (Units=GPa)
#
#
# Indices 1 2 3 4 5 6 
#
# 1 202.2713 51.5939 9.5797 -19.8610 27.4544 21.0279
# 2 51.5939 173.4832 13.9022 -15.4456 -5.9923 -0.1748
# 3 9.5797 13.9022 78.7468 -6.9553 -5.9678 15.4879
# 4 -19.8610 -15.4456 -6.9553 49.1284 6.4925 -7.5716
# 5 27.4544 -5.9923 -5.9678 6.4925 41.3158 -4.2085
# 6 21.0279 -0.1748 15.4879 -7.5716 -4.2085 60.5135
#
#
#
# Elastic Compliance Matrix: (Units=1/GPa)
#
#
# Indices 1 2 3 4 5 6 
#
# 1 0.006651 -0.001935 -0.000201 0.002398 -0.005344 -0.002337
# 2 -0.001935 0.006581 -0.000912 0.001070 0.002063 0.001202
# 3 -0.000201 -0.000912 0.013711 0.000876 0.001516 -0.003227
# 4 0.002398 0.001070 0.000876 0.022632 -0.004721 0.001449
# 5 -0.005344 0.002063 0.001516 -0.004721 0.029313 0.002923
# 6 -0.002337 0.001202 -0.003227 0.001449 0.002923 0.018551
#
#
# Mechanical properties :
#
#
# Convention : Reuss Voigt Hill
#
# Bulk Modulus (GPa) = 47.97041 67.18366 57.57704
# Shear Modulus (GPa) = 45.25566 55.48656 50.37111
#
# Velocity S-wave (km/s) = 4.10207 4.54214 4.32770
# Velocity P-wave (km/s) = 6.34604 7.24487 6.81030
#
# Compressibility (1/GPa) = 0.02084618
#
# Stress axis : x y z
#
# Youngs Moduli (GPa) = 150.35947 151.96146 72.93264
#
# Poissons Ratio (x) = 0.29409 0.01466
# Poissons Ratio (y) = 0.29099 0.06651
# Poissons Ratio (z) = 0.03022 0.13858
#
# Static dielectric constant tensor:
#      x y z
#    x 2.031530 -0.033870 0.218730 
#    y -0.033870 2.234590 0.015740 
#    z 0.218730 0.015740 2.194560 
# 
# From -- ./inp_files/380484.got.cif
#   From: 2010.05.17/outbox.cif.g08.bks.cpg/sg2_191_cif.got.tgz:380484.got - 2010.06.03 11:33:40.
