data_PCOD9067420
_publ_section_title
;
Structure prediction by ZEFSAII (Michael W. Deem and Ramdas Pophale) SiO2 
 PCOD9067420
Probable space group: P -1
;
_chemical_formula_sum "Si O2"
_cell_formula_units_Z 14
_cell_length_a 5.845115
_cell_length_b 9.353875
_cell_length_c 11.811989
_cell_angle_alpha 80.559580
_cell_angle_beta 103.222536
_cell_angle_gamma 111.746316
_cell_volume 581.702436
_symmetry_space_group_name_H-M "P -1"
_symmetry_group_IT_number 2
_symmetry_cell_setting 'triclinic'
loop_
_space_group_symop_operation_xyz
x,y,z
-x,-y,-z
loop_
_atom_site_type_symbol
_atom_site_label
_atom_site_fract_x
_atom_site_fract_y
_atom_site_fract_z
Si Si1 0.530764 0.865045 0.759006
Si Si2 0.985868 0.177893 0.792964
Si Si3 0.292163 0.019813 0.562341
Si Si4 0.736595 0.680618 0.416067
Si Si5 0.139647 0.570865 0.119936
Si Si6 0.433587 0.155483 0.978955
Si Si7 0.694556 0.627085 0.665049
O O1 0.291807 0.900971 0.678684
O O2 0.627177 0.767928 0.692055
O O3 0.519976 0.792182 0.891563
O O4 0.729633 0.036651 0.774284
O O5 0.069629 0.231900 0.668579
O O6 0.163268 0.114735 0.897632
O O7 0.991153 0.330725 0.837969
O O8 0.500000 0.000000 0.500000
O O9 0.406786 0.198602 0.592066
O O10 0.000000 0.000000 0.500000
O O11 0.829240 0.656830 0.554330
O O12 0.560872 0.516499 0.371217
O O13 0.400180 0.701574 0.096780
O O14 0.164920 0.436520 0.217814
O O15 0.000000 0.500000 0.000000
O O16 0.500000 0.000000 0.000000
#
# Coordination Sequence:
#
# PCOD9067420 Si02
#       7
#     2   2   2   2   2   2   2
#     4  12  26  47  83 112 154 203 273 322 403 478
#     4  12  26  50  79 113 154 213 261 336 391 494
#     4  12  26  51  78 115 155 210 269 333 396 484
#     4  11  25  49  76 105 163 198 266 323 403 469
#     4  12  28  48  75 114 160 201 266 328 407 479
#     4  12  26  48  77 111 154 204 264 331 397 477
#     4  11  26  48  73 114 153 205 260 326 407 471
#
# _framework density 24.067288000000001
#
# number of rings (size 3 to 8) (size 9 to 14) (size 15 to 20)
#    0.000    0.286    4.286    3.857    4.000    2.857 
#    0.000    0.000    0.000    0.000    0.000    0.000 
#    0.000    0.000    0.000    0.000    0.000    0.000 
#
# Total GULP energy -78345.989629 kJ/mol
# GULP energy per Si atom -5596.142116 kJ/mol
# Density = 2.401251 g / cm^3
# Si number density = 24.067288 Si / 1000 Ang^3
#
#
#
# Elastic Constant Matrix: (Units=GPa)
#
#
# Indices 1 2 3 4 5 6 
#
# 1 85.7304 23.9164 57.5903 -0.3800 17.5133 -14.1987
# 2 23.9164 117.9729 37.2454 11.0082 15.7227 -29.4649
# 3 57.5903 37.2454 204.7910 -15.7723 7.3561 -21.1384
# 4 -0.3800 11.0082 -15.7723 54.5474 -5.3308 -4.9344
# 5 17.5133 15.7227 7.3561 -5.3308 58.8206 -1.1376
# 6 -14.1987 -29.4649 -21.1384 -4.9344 -1.1376 33.2497
#
#
#
# Elastic Compliance Matrix: (Units=1/GPa)
#
#
# Indices 1 2 3 4 5 6 
#
# 1 0.015870 -0.000426 -0.003944 -0.001023 -0.004141 0.003599
# 2 -0.000426 0.011791 -0.001147 -0.002173 -0.002902 0.009116
# 3 -0.003944 -0.001147 0.006538 0.002350 0.000912 0.001836
# 4 -0.001023 -0.002173 0.002350 0.019877 0.002435 0.002164
# 5 -0.004141 -0.002902 0.000912 0.002435 0.019063 -0.002747
# 6 0.003599 0.009116 0.001836 0.002164 -0.002747 0.041086
#
#
# Mechanical properties :
#
#
# Convention : Reuss Voigt Hill
#
# Bulk Modulus (GPa) = 43.16597 71.77762 57.47180
# Shear Modulus (GPa) = 37.59906 48.63969 43.11937
#
# Velocity S-wave (km/s) = 3.95682 4.50042 4.23734
# Velocity P-wave (km/s) = 6.23295 7.54278 6.91893
#
# Compressibility (1/GPa) = 0.02316640
#
# Stress axis : x y z
#
# Youngs Moduli (GPa) = 63.01103 84.80726 152.94049
#
# Poissons Ratio (x) = 0.03612 0.60321
# Poissons Ratio (y) = 0.02684 0.17540
# Poissons Ratio (z) = 0.24852 0.09726
#
# Static dielectric constant tensor:
#      x y z
#    x 1.973920 0.011650 0.006750 
#    y 0.011650 1.947920 -0.049880 
#    z 0.006750 -0.049880 2.063850 
# 
# From -- ./inp_files/229547.got.cif
#   From: 2010.05.17/outbox.cif.g08.bks.cpg/sg2_115_cif.got.tgz:229547.got - 2010.06.03 11:33:40.
