data_PCOD9067005
_publ_section_title
;
Structure prediction by ZEFSAII (Michael W. Deem and Ramdas Pophale) SiO2 
 PCOD9067005
Probable space group: P -1
;
_chemical_formula_sum "Si O2"
_cell_formula_units_Z 14
_cell_length_a 7.697510
_cell_length_b 11.499195
_cell_length_c 16.877469
_cell_angle_alpha 32.930820
_cell_angle_beta 128.456457
_cell_angle_gamma 137.794252
_cell_volume 545.584332
_symmetry_space_group_name_H-M "P -1"
_symmetry_group_IT_number 2
_symmetry_cell_setting 'triclinic'
loop_
_space_group_symop_operation_xyz
x,y,z
-x,-y,-z
loop_
_atom_site_type_symbol
_atom_site_label
_atom_site_fract_x
_atom_site_fract_y
_atom_site_fract_z
Si Si1 0.623109 0.417708 0.940677
Si Si2 0.315541 0.746879 0.481081
Si Si3 0.095943 0.879218 0.532857
Si Si4 0.781747 0.958498 0.848891
Si Si5 0.282338 0.319398 0.602699
Si Si6 0.135801 0.840884 0.922630
Si Si7 0.881780 0.552169 0.247136
O O1 0.392644 0.469583 0.829535
O O2 0.890824 0.661095 0.899955
O O3 0.501733 0.242759 0.084710
O O4 0.684133 0.280218 0.965956
O O5 0.291829 0.524843 0.547370
O O6 0.152448 0.599247 0.595107
O O7 0.598306 0.936302 0.485977
O O8 0.236106 0.910500 0.311277
O O9 0.045817 0.606106 0.699725
O O10 0.949048 0.856495 0.422754
O O11 0.000000 0.000000 0.500000
O O12 0.979367 0.860107 0.943128
O O13 0.905021 0.167536 0.832206
O O14 0.500000 0.500000 0.500000
O O15 0.305222 0.119396 0.776739
#
# Coordination Sequence:
#
# PCOD9067005 Si02
#       7
#     2   2   2   2   2   2   2
#     4  11  27  48  72 109 155 203 255 304 380 464
#     4  12  24  47  78 109 150 194 250 318 382 448
#     4  12  26  41  72 112 148 193 244 313 379 447
#     4  12  24  48  79 107 152 204 250 314 382 449
#     4  12  23  46  74 115 152 194 256 315 384 449
#     4  11  25  47  75 104 151 205 253 310 374 458
#     4  12  25  48  71 112 155 192 255 318 379 451
#
# _framework density 25.66056
#
# number of rings (size 3 to 8) (size 9 to 14) (size 15 to 20)
#    0.000    0.286    4.286    5.143    0.000    0.571 
#    5.143    0.000    0.000    0.000    0.000    0.000 
#    0.000    0.000    0.000    0.000    0.000    0.000 
#
# Total GULP energy -78318.918316 kJ/mol
# GULP energy per Si atom -5594.208451 kJ/mol
# Density = 2.560216 g / cm^3
# Si number density = 25.660560 Si / 1000 Ang^3
#
#
#
# Elastic Constant Matrix: (Units=GPa)
#
#
# Indices 1 2 3 4 5 6 
#
# 1 122.3164 14.1551 29.6976 -19.8658 21.9061 -21.5466
# 2 14.1551 116.4597 26.8071 -9.4393 13.1225 -2.4802
# 3 29.6976 26.8071 93.1597 -18.5516 9.9269 -7.0868
# 4 -19.8658 -9.4393 -18.5516 38.4848 -5.2501 1.1431
# 5 21.9061 13.1225 9.9269 -5.2501 48.3772 -19.1346
# 6 -21.5466 -2.4802 -7.0868 1.1431 -19.1346 42.2160
#
#
#
# Elastic Compliance Matrix: (Units=1/GPa)
#
#
# Indices 1 2 3 4 5 6 
#
# 1 0.010397 -0.000151 -0.001944 0.003961 -0.002332 0.003807
# 2 -0.000151 0.009449 -0.002334 0.000828 -0.002316 -0.000986
# 3 -0.001944 -0.002334 0.013047 0.004642 -0.000353 0.000775
# 4 0.003961 0.000828 0.004642 0.030582 0.001398 0.002655
# 5 -0.002332 -0.002316 -0.000353 0.001398 0.026826 0.010735
# 6 0.003807 -0.000986 0.000775 0.002655 0.010735 0.030497
#
#
# Mechanical properties :
#
#
# Convention : Reuss Voigt Hill
#
# Bulk Modulus (GPa) = 41.60779 52.58395 47.09587
# Shear Modulus (GPa) = 36.31966 43.23400 39.77683
#
# Velocity S-wave (km/s) = 3.76625 4.10914 3.94142
# Velocity P-wave (km/s) = 5.92981 6.56125 6.25350
#
# Compressibility (1/GPa) = 0.02403396
#
# Stress axis : x y z
#
# Youngs Moduli (GPa) = 96.18520 105.82681 76.64836
#
# Poissons Ratio (x) = 0.01601 0.14899
# Poissons Ratio (y) = 0.01455 0.17892
# Poissons Ratio (z) = 0.18696 0.24703
#
# Static dielectric constant tensor:
#      x y z
#    x 2.076080 0.034660 0.087440 
#    y 0.034660 1.937190 -0.003670 
#    z 0.087440 -0.003670 2.098260 
# 
# From -- ./inp_files/559604.got.cif
#   From: 2010.05.17/outbox.cif.g08.bks.cpg/sg2_280_cif.got.tgz:559604.got - 2010.06.03 11:33:40.
