data_PCOD9067886
_publ_section_title
;
Structure prediction by ZEFSAII (Michael W. Deem and Ramdas Pophale) SiO2 
 PCOD9067886
Probable space group: P -1
;
_chemical_formula_sum "Si O2"
_cell_formula_units_Z 12
_cell_length_a 4.887021
_cell_length_b 8.294899
_cell_length_c 14.717125
_cell_angle_alpha 126.846576
_cell_angle_beta 79.095181
_cell_angle_gamma 91.470460
_cell_volume 465.864878
_symmetry_space_group_name_H-M "P -1"
_symmetry_group_IT_number 2
_symmetry_cell_setting 'triclinic'
loop_
_space_group_symop_operation_xyz
x,y,z
-x,-y,-z
loop_
_atom_site_type_symbol
_atom_site_label
_atom_site_fract_x
_atom_site_fract_y
_atom_site_fract_z
Si Si1 0.679892 0.736767 0.162049
Si Si2 0.328628 0.941617 0.579341
Si Si3 0.851553 0.662616 0.492534
Si Si4 0.819798 0.309437 0.243785
Si Si5 0.321058 0.040129 0.172151
Si Si6 0.851875 0.294507 0.036142
O O1 0.906237 0.725626 0.062175
O O2 0.756351 0.858943 0.287505
O O3 0.410094 0.870336 0.184243
O O4 0.652407 0.503570 0.106036
O O5 0.068729 0.827651 0.525171
O O6 0.545222 0.783035 0.570721
O O7 0.500000 0.000000 0.500000
O O8 0.000000 0.500000 0.500000
O O9 0.798423 0.529964 0.362323
O O10 0.535958 0.207635 0.213182
O O11 0.017891 0.161061 0.245873
O O12 0.963029 0.303882 0.134160
O O13 0.301811 0.902866 0.037927
#
# Coordination Sequence:
#
# PCOD9067886 Si02
#       6
#     2   2   2   2   2   2
#     4  11  26  47  73 104 145 188 236 295 358 428
#     4  12  27  50  76 106 145 192 244 298 359 428
#     4  12  26  50  75 110 143 192 243 300 357 428
#     4  12  26  45  76 104 146 184 239 295 356 424
#     4  12  24  47  69 109 141 189 232 293 357 428
#     4  11  26  46  71 108 143 187 236 294 361 424
#
# _framework density 25.758545000000002
#
# number of rings (size 3 to 8) (size 9 to 14) (size 15 to 20)
#    0.000    0.333    1.667    6.500    4.667    0.000 
#    3.000    0.000    0.000    0.000    0.000    0.000 
#    0.000    0.000    0.000    0.000    0.000    0.000 
#
# Total GULP energy -67286.737520 kJ/mol
# GULP energy per Si atom -5607.228127 kJ/mol
# Density = 2.569992 g / cm^3
# Si number density = 25.758545 Si / 1000 Ang^3
#
#
#
# Elastic Constant Matrix: (Units=GPa)
#
#
# Indices 1 2 3 4 5 6 
#
# 1 114.7915 8.5254 45.7811 17.5203 9.9741 10.9382
# 2 8.5254 59.5628 43.3954 3.5941 -15.2108 -4.9861
# 3 45.7811 43.3954 225.8528 29.6315 -6.1909 14.2530
# 4 17.5203 3.5941 29.6315 46.5172 1.2286 -1.7079
# 5 9.9741 -15.2108 -6.1909 1.2286 22.4874 5.0158
# 6 10.9382 -4.9861 14.2530 -1.7079 5.0158 42.2815
#
#
#
# Elastic Compliance Matrix: (Units=1/GPa)
#
#
# Indices 1 2 3 4 5 6 
#
# 1 0.010543 -0.001934 -0.001434 -0.002824 -0.005802 -0.001898
# 2 -0.001934 0.024215 -0.004191 0.001232 0.015348 0.002998
# 3 -0.001434 -0.004191 0.006081 -0.003099 0.000162 -0.002317
# 4 -0.002824 0.001232 -0.003099 0.024571 -0.000780 0.003006
# 5 -0.005802 0.015348 0.000162 -0.000780 0.058336 -0.003695
# 6 -0.001898 0.002998 -0.002317 0.003006 -0.003695 0.025836
#
#
# Mechanical properties :
#
#
# Convention : Reuss Voigt Hill
#
# Bulk Modulus (GPa) = 38.87917 66.17898 52.52907
# Shear Modulus (GPa) = 28.85607 42.42423 35.64015
#
# Velocity S-wave (km/s) = 3.35065 4.06272 3.72375
# Velocity P-wave (km/s) = 5.48594 6.91053 6.23903
#
# Compressibility (1/GPa) = 0.02572072
#
# Stress axis : x y z
#
# Youngs Moduli (GPa) = 94.84853 41.29668 164.45161
#
# Poissons Ratio (x) = 0.07988 0.23585
# Poissons Ratio (y) = 0.18346 0.68916
# Poissons Ratio (z) = 0.13603 0.17306
#
# Static dielectric constant tensor:
#      x y z
#    x 2.025760 -0.026970 0.013420 
#    y -0.026970 2.043800 -0.043080 
#    z 0.013420 -0.043080 2.019840 
# 
# From -- ./inp_files/478758.got.cif
#   From: 2010.05.17/outbox.cif.g08.bks.cpg/sg2_240_cif.got.tgz:478758.got - 2010.06.03 11:33:40.
