data_PCOD9067211
_publ_section_title
;
Structure prediction by ZEFSAII (Michael W. Deem and Ramdas Pophale) SiO2 
 PCOD9067211
Probable space group: P -1
;
_chemical_formula_sum "Si O2"
_cell_formula_units_Z 15
_cell_length_a 23.539991
_cell_length_b 13.040378
_cell_length_c 9.892149
_cell_angle_alpha 144.886254
_cell_angle_beta 32.239543
_cell_angle_gamma 153.925712
_cell_volume 689.669094
_symmetry_space_group_name_H-M "P -1"
_symmetry_group_IT_number 2
_symmetry_cell_setting 'triclinic'
loop_
_space_group_symop_operation_xyz
x,y,z
-x,-y,-z
loop_
_atom_site_type_symbol
_atom_site_label
_atom_site_fract_x
_atom_site_fract_y
_atom_site_fract_z
Si Si1 0.582219 0.893750 0.090010
Si Si2 0.436005 0.426626 0.702458
Si Si3 0.074746 0.721996 0.187232
Si Si4 0.185990 0.389696 0.762249
Si Si5 0.101178 0.663194 0.350316
Si Si6 0.000000 0.000000 0.500000
Si Si7 0.486860 0.780953 0.464776
Si Si8 0.835388 0.872666 0.219822
O O1 0.548306 0.807039 0.221088
O O2 0.510012 0.999626 0.303349
O O3 0.521580 0.668443 0.877313
O O4 0.753540 0.111408 0.969804
O O5 0.500000 0.500000 0.500000
O O6 0.444199 0.251403 0.583844
O O7 0.270346 0.296891 0.872206
O O8 0.011535 0.620517 0.353492
O O9 0.050687 0.893409 0.374209
O O10 0.000000 0.500000 0.000000
O O11 0.046727 0.193779 0.741510
O O12 0.319194 0.536976 0.549482
O O13 0.207494 0.271578 0.710361
O O14 0.182715 0.576724 0.046322
O O15 0.000000 0.500000 0.500000
O O16 0.183976 0.936258 0.517920
O O17 0.000000 0.000000 0.000000
#
# Coordination Sequence:
#
# PCOD9067211 Si02
#       8
#     2   2   2   2   2   1   2   2
#     4  11  26  48  73 109 147 190 254 306 362 446
#     4  12  26  46  76 105 146 200 244 304 375 438
#     4  12  24  45  74 108 148 190 244 304 371 434
#     4  12  24  45  72 104 148 195 244 309 368 439
#     4  12  25  45  71 106 149 189 237 301 369 444
#     4  12  24  40  76 104 142 194 240 298 376 432
#     4  11  25  48  74 101 145 195 248 304 367 436
#     4  12  27  47  70 108 150 192 245 304 371 447
#
# _framework density 21.749562000000001
#
# number of rings (size 3 to 8) (size 9 to 14) (size 15 to 20)
#    0.000    0.267    6.667    2.000    0.000    4.800 
#    4.800    0.000    0.000    0.000    0.000    0.000 
#    0.000    0.000    0.000    0.000    0.000    0.000 
#
# Total GULP energy -83578.515039 kJ/mol
# GULP energy per Si atom -5571.901003 kJ/mol
# Density = 2.170006 g / cm^3
# Si number density = 21.749562 Si / 1000 Ang^3
#
#
#
# Elastic Constant Matrix: (Units=GPa)
#
#
# Indices 1 2 3 4 5 6 
#
# 1 178.7220 57.7179 56.6347 -3.5942 -0.7146 -22.5454
# 2 57.7179 94.3307 54.7705 3.8497 2.6161 -11.5101
# 3 56.6347 54.7705 97.7718 12.1580 6.5156 -10.4272
# 4 -3.5942 3.8497 12.1580 35.0013 -7.1827 10.0997
# 5 -0.7146 2.6161 6.5156 -7.1827 35.1505 2.2580
# 6 -22.5454 -11.5101 -10.4272 10.0997 2.2580 44.3758
#
#
#
# Elastic Compliance Matrix: (Units=1/GPa)
#
#
# Indices 1 2 3 4 5 6 
#
# 1 0.007764 -0.002887 -0.002964 0.001796 0.001159 0.002032
# 2 -0.002887 0.016997 -0.007775 0.000252 0.000101 0.001052
# 3 -0.002964 -0.007775 0.017767 -0.007258 -0.004420 0.002529
# 4 0.001796 0.000252 -0.007258 0.035856 0.009291 -0.009361
# 5 0.001159 0.000101 -0.004420 0.009291 0.031449 -0.004139
# 6 0.002032 0.001052 0.002529 -0.009361 -0.004139 0.026775
#
#
# Mechanical properties :
#
#
# Convention : Reuss Voigt Hill
#
# Bulk Modulus (GPa) = 65.46189 78.78564 72.12376
# Shear Modulus (GPa) = 29.59418 36.35229 32.97323
#
# Velocity S-wave (km/s) = 3.69274 4.09272 3.89786
# Velocity P-wave (km/s) = 6.95307 7.65744 7.31374
#
# Compressibility (1/GPa) = 0.01527606
#
# Stress axis : x y z
#
# Youngs Moduli (GPa) = 128.80138 58.83295 56.28428
#
# Poissons Ratio (x) = 0.16986 0.16681
# Poissons Ratio (y) = 0.37187 0.43761
# Poissons Ratio (z) = 0.38174 0.45743
#
# Static dielectric constant tensor:
#      x y z
#    x 1.780970 0.016680 -0.028020 
#    y 0.016680 1.868390 0.008510 
#    z -0.028020 0.008510 1.854650 
# 
# From -- ./inp_files/345681.got.cif
#   From: 2010.05.17/outbox.cif.g08.bks.cpg/sg2_173_cif.got.tgz:345681.got - 2010.06.03 11:33:40.
