data_PCOD9067039
_publ_section_title
;
Structure prediction by ZEFSAII (Michael W. Deem and Ramdas Pophale) SiO2 
 PCOD9067039
Probable space group: P -1
;
_chemical_formula_sum "Si O2"
_cell_formula_units_Z 16
_cell_length_a 17.776133
_cell_length_b 10.104847
_cell_length_c 16.587451
_cell_angle_alpha 33.366055
_cell_angle_beta 156.300984
_cell_angle_gamma 144.360183
_cell_volume 642.960908
_symmetry_space_group_name_H-M "P -1"
_symmetry_group_IT_number 2
_symmetry_cell_setting 'triclinic'
loop_
_space_group_symop_operation_xyz
x,y,z
-x,-y,-z
loop_
_atom_site_type_symbol
_atom_site_label
_atom_site_fract_x
_atom_site_fract_y
_atom_site_fract_z
Si Si1 0.590573 0.393131 0.356826
Si Si2 0.229505 0.065779 0.688470
Si Si3 0.891538 0.700753 0.198721
Si Si4 0.772978 0.464728 0.785933
Si Si5 0.215994 0.525261 0.960624
Si Si6 0.308003 0.665710 0.688640
Si Si7 0.167746 0.781222 0.188738
Si Si8 0.584050 0.870269 0.336165
O O1 0.570674 0.330142 0.275493
O O2 0.710266 0.226141 0.606984
O O3 0.699128 0.681135 0.322256
O O4 0.389559 0.387241 0.205372
O O5 0.286406 0.814323 0.899551
O O6 0.309579 0.111260 0.653744
O O7 0.000000 0.000000 0.500000
O O8 0.854922 0.510638 0.184169
O O9 0.106046 0.721783 0.431259
O O10 0.752991 0.591441 0.192392
O O11 0.863259 0.957981 0.004365
O O12 0.729553 0.339905 0.718963
O O13 0.702101 0.717675 0.586235
O O14 0.634261 0.283053 0.802018
O O15 0.000000 0.500000 0.000000
O O16 0.038396 0.395973 0.906060
O O17 0.403066 0.868295 0.743186
#
# Coordination Sequence:
#
# PCOD9067039 Si02
#       8
#     2   2   2   2   2   2   2   2
#     4  12  28  46  82 111 150 205 260 323 390 456
#     4  12  23  51  78 111 155 202 255 326 382 466
#     4  11  25  47  76 107 159 205 256 319 388 463
#     4  11  26  48  77 109 151 204 253 319 390 459
#     4  12  26  47  78 111 152 203 263 318 390 463
#     4  11  25  50  78 112 153 208 258 320 388 461
#     4  12  26  50  72 114 156 202 256 325 391 455
#     4  11  25  48  77 109 154 198 262 310 383 469
#
# _framework density 24.884871
#
# number of rings (size 3 to 8) (size 9 to 14) (size 15 to 20)
#    0.000    0.500    5.000    1.500    5.250    3.000 
#    4.500    0.000    0.000    0.000    0.000    0.000 
#    0.000    0.000    0.000    0.000    0.000    0.000 
#
# Total GULP energy -89766.918792 kJ/mol
# GULP energy per Si atom -5610.432425 kJ/mol
# Density = 2.482823 g / cm^3
# Si number density = 24.884871 Si / 1000 Ang^3
#
#
#
# Elastic Constant Matrix: (Units=GPa)
#
#
# Indices 1 2 3 4 5 6 
#
# 1 145.7057 30.0623 25.0009 -3.8105 4.7181 23.8170
# 2 30.0623 99.8993 45.7011 -13.5128 -6.7555 19.7307
# 3 25.0009 45.7011 132.2528 -1.1234 -0.9341 25.9700
# 4 -3.8105 -13.5128 -1.1234 48.6414 8.8639 3.6276
# 5 4.7181 -6.7555 -0.9341 8.8639 41.3544 2.5910
# 6 23.8170 19.7307 25.9700 3.6276 2.5910 45.3000
#
#
#
# Elastic Compliance Matrix: (Units=1/GPa)
#
#
# Indices 1 2 3 4 5 6 
#
# 1 0.007819 -0.001564 -0.000303 0.000610 -0.001082 -0.003243
# 2 -0.001564 0.013380 -0.003639 0.003437 0.001752 -0.003294
# 3 -0.000303 -0.003639 0.009602 -0.000537 0.000005 -0.003717
# 4 0.000610 0.003437 -0.000537 0.022536 -0.004158 -0.003077
# 5 -0.001082 0.001752 0.000005 -0.004158 0.025565 -0.001326
# 6 -0.003243 -0.003294 -0.003717 -0.003077 -0.001326 0.027668
#
#
# Mechanical properties :
#
#
# Convention : Reuss Voigt Hill
#
# Bulk Modulus (GPa) = 50.53985 64.37626 57.45806
# Shear Modulus (GPa) = 40.26454 45.53207 42.89831
#
# Velocity S-wave (km/s) = 4.02684 4.28215 4.15646
# Velocity P-wave (km/s) = 6.47875 7.09753 6.79518
#
# Compressibility (1/GPa) = 0.01978636
#
# Stress axis : x y z
#
# Youngs Moduli (GPa) = 127.89381 74.74020 104.14924
#
# Poissons Ratio (x) = 0.11693 0.03158
# Poissons Ratio (y) = 0.20008 0.37903
# Poissons Ratio (z) = 0.03878 0.27200
#
# Static dielectric constant tensor:
#      x y z
#    x 1.922960 -0.010020 -0.010030 
#    y -0.010020 1.963800 0.019510 
#    z -0.010030 0.019510 1.986980 
# 
# From -- ./inp_files/601383.got.cif
#   From: 2010.05.17/outbox.cif.g08.bks.cpg/sg2_301_cif.got.tgz:601383.got - 2010.06.03 11:33:40.
