data_PCOD9067733
_publ_section_title
;
Structure prediction by ZEFSAII (Michael W. Deem and Ramdas Pophale) SiO2 
 PCOD9067733
Probable space group: P -1
;
_chemical_formula_sum "Si O2"
_cell_formula_units_Z 11
_cell_length_a 12.733230
_cell_length_b 10.732561
_cell_length_c 8.526826
_cell_angle_alpha 84.848878
_cell_angle_beta 58.380033
_cell_angle_gamma 135.447704
_cell_volume 439.366128
_symmetry_space_group_name_H-M "P -1"
_symmetry_group_IT_number 2
_symmetry_cell_setting 'triclinic'
loop_
_space_group_symop_operation_xyz
x,y,z
-x,-y,-z
loop_
_atom_site_type_symbol
_atom_site_label
_atom_site_fract_x
_atom_site_fract_y
_atom_site_fract_z
Si Si1 0.423352 0.333963 0.856342
Si Si2 0.424410 0.061350 0.359353
Si Si3 0.000000 0.000000 0.000000
Si Si4 0.740449 0.844516 0.663394
Si Si5 0.221759 0.476157 0.704044
Si Si6 0.041721 0.550412 0.272645
O O1 0.569586 0.600713 0.710390
O O2 0.555705 0.372920 0.612590
O O3 0.442430 0.300792 0.019456
O O4 0.111388 0.073066 0.078908
O O5 0.228697 0.994160 0.455020
O O6 0.604839 0.281120 0.336600
O O7 0.204272 0.750681 0.587383
O O8 0.657257 0.227673 0.034943
O O9 0.905792 0.762706 0.087558
O O10 0.000000 0.000000 0.500000
O O11 0.999520 0.350814 0.786685
O O12 0.000000 0.500000 0.500000
#
# Coordination Sequence:
#
# PCOD9067733 Si02
#       6
#     2   2   1   2   2   2
#     4  11  26  44  74 111 153 203 254 331 390 467
#     4  12  29  51  79 114 157 209 264 322 398 473
#     4  12  26  44  78 112 158 196 262 328 396 456
#     4  11  26  46  74 112 157 209 259 323 391 467
#     4  12  28  48  77 114 156 205 263 324 401 464
#     4  12  30  53  81 112 155 211 264 327 391 484
#
# _framework density 25.036068
#
# number of rings (size 3 to 8) (size 9 to 14) (size 15 to 20)
#    0.000    0.364    1.818    4.364   17.818    0.000 
#    0.000    0.000    0.000    0.000    0.000    0.000 
#    0.000    0.000    0.000    0.000    0.000    0.000 
#
# Total GULP energy -61300.618823 kJ/mol
# GULP energy per Si atom -5572.783529 kJ/mol
# Density = 2.497908 g / cm^3
# Si number density = 25.036068 Si / 1000 Ang^3
#
#
#
# Elastic Constant Matrix: (Units=GPa)
#
#
# Indices 1 2 3 4 5 6 
#
# 1 155.0310 26.6591 48.9239 11.6569 -108.8801 -64.9433
# 2 26.6591 100.0667 25.1179 -3.5413 -38.8482 -16.9753
# 3 48.9239 25.1179 -11.8463 1.8398 313.3101 145.9464
# 4 11.6569 -3.5413 1.8398 46.2581 52.5797 25.7002
# 5 -108.8801 -38.8482 313.3101 52.5797-1057.0217 -517.3010
# 6 -64.9433 -16.9753 145.9464 25.7002 -517.3010 -208.1030
#
#
#
# Elastic Compliance Matrix: (Units=1/GPa)
#
#
# Indices 1 2 3 4 5 6 
#
# 1 0.006598 -0.001978 -0.000695 -0.000815 -0.001677 0.001682
# 2 -0.001978 0.010864 -0.002009 0.002185 -0.000031 -0.001330
# 3 -0.000695 -0.002009 0.014138 -0.005175 0.002990 0.002225
# 4 -0.000815 0.002185 -0.005175 0.022654 0.000155 -0.001142
# 5 -0.001677 -0.000031 0.002990 0.000155 0.005409 -0.010803
# 6 0.001682 -0.001330 0.002225 -0.001142 -0.010803 0.023051
#
#
# Mechanical properties :
#
#
# Convention : Reuss Voigt Hill
#
# Bulk Modulus (GPa) = 44.97006 49.40590 47.18798
# Shear Modulus (GPa) = 50.25631 -234.26996 -92.00683
#
# Velocity S-wave (km/s) = 4.48521 -9.68381 -6.06873
# Velocity P-wave (km/s) = 6.69507 10.25954 5.49701
#
# Compressibility (1/GPa) = 0.02223702
#
# Stress axis : x y z
#
# Youngs Moduli (GPa) = 151.55869 92.04759 70.72936
#
# Poissons Ratio (x) = 0.18205 0.04918
# Poissons Ratio (y) = 0.29975 0.14207
# Poissons Ratio (z) = 0.10538 0.18489
#
# Static dielectric constant tensor:
#      x y z
#    x 1.780540 0.012860 0.011270 
#    y 0.012860 1.968690 0.001120 
#    z 0.011270 0.001120 2.056640 
# 
# From -- ./inp_files/17393.got.cif
#   From: 2010.05.17/outbox.cif.g08.bks.cpg/sg2_9_cif.got.tgz:17393.got - 2010.06.03 11:33:40.
