data_PCOD9067018
_publ_section_title
;
Structure prediction by ZEFSAII (Michael W. Deem and Ramdas Pophale) SiO2 
 PCOD9067018
Probable space group: P -1
;
_chemical_formula_sum "Si O2"
_cell_formula_units_Z 12
_cell_length_a 10.010793
_cell_length_b 9.130332
_cell_length_c 7.035302
_cell_angle_alpha 124.544115
_cell_angle_beta 96.071183
_cell_angle_gamma 106.991368
_cell_volume 475.515035
_symmetry_space_group_name_H-M "P -1"
_symmetry_group_IT_number 2
_symmetry_cell_setting 'triclinic'
loop_
_space_group_symop_operation_xyz
x,y,z
-x,-y,-z
loop_
_atom_site_type_symbol
_atom_site_label
_atom_site_fract_x
_atom_site_fract_y
_atom_site_fract_z
Si Si1 0.635075 0.274692 0.060497
Si Si2 0.566288 0.167968 0.407164
Si Si3 0.836409 0.083962 0.489001
Si Si4 0.651744 0.684010 0.330249
Si Si5 0.044796 0.665282 0.969194
Si Si6 0.927532 0.796603 0.723206
O O1 0.590346 0.246016 0.253103
O O2 0.612288 0.459070 0.111891
O O3 0.806735 0.319156 0.098163
O O4 0.542007 0.065243 0.793673
O O5 0.484123 0.274069 0.588152
O O6 0.718521 0.176520 0.519733
O O7 0.743911 0.846742 0.304194
O O8 0.086495 0.856886 0.250061
O O9 0.957616 0.173635 0.409463
O O10 0.766464 0.732455 0.561899
O O11 0.000000 0.500000 0.000000
O O12 0.929051 0.643818 0.771183
O O13 0.000000 0.000000 0.000000
#
# Coordination Sequence:
#
# PCOD9067018 Si02
#       6
#     2   2   2   2   2   2
#     4  11  25  47  75 109 148 200 249 303 376 435
#     4  11  25  51  73 107 159 194 244 313 368 442
#     4  12  26  49  76 107 157 196 245 311 371 441
#     4  12  26  46  77 114 146 199 255 299 372 446
#     4  12  27  48  76 111 147 198 251 304 377 437
#     4  12  26  48  75 109 153 195 246 313 366 440
#
# _framework density 25.235795
#
# number of rings (size 3 to 8) (size 9 to 14) (size 15 to 20)
#    0.000    0.333    5.000    2.500    7.000    2.000 
#    0.000    0.000    0.000    0.000    0.000    0.000 
#    0.000    0.000    0.000    0.000    0.000    0.000 
#
# Total GULP energy -67341.923222 kJ/mol
# GULP energy per Si atom -5611.826935 kJ/mol
# Density = 2.517836 g / cm^3
# Si number density = 25.235795 Si / 1000 Ang^3
#
#
#
# Elastic Constant Matrix: (Units=GPa)
#
#
# Indices 1 2 3 4 5 6 
#
# 1 128.7529 35.5144 45.9483 -22.9458 2.3758 -19.4077
# 2 35.5144 149.5306 43.9058 -0.9838 -3.9774 -10.0076
# 3 45.9483 43.9058 120.8582 -2.3585 -7.5272 -4.9799
# 4 -22.9458 -0.9838 -2.3585 50.0325 3.2556 7.3487
# 5 2.3758 -3.9774 -7.5272 3.2556 27.4821 -10.9304
# 6 -19.4077 -10.0076 -4.9799 7.3487 -10.9304 37.7648
#
#
#
# Elastic Compliance Matrix: (Units=1/GPa)
#
#
# Indices 1 2 3 4 5 6 
#
# 1 0.010656 -0.001292 -0.003426 0.004258 -0.001151 0.003521
# 2 -0.001292 0.007784 -0.002196 -0.000883 0.001414 0.001690
# 3 -0.003426 -0.002196 0.010551 -0.001351 0.003113 0.000213
# 4 0.004258 -0.000883 -0.001351 0.022813 -0.005229 -0.004177
# 5 -0.001151 0.001414 0.003113 -0.005229 0.043673 0.013852
# 6 0.003521 0.001690 0.000213 -0.004177 0.013852 0.033587
#
#
# Mechanical properties :
#
#
# Convention : Reuss Voigt Hill
#
# Bulk Modulus (GPa) = 65.94715 72.20875 69.07795
# Shear Modulus (GPa) = 33.79626 41.30743 37.55185
#
# Velocity S-wave (km/s) = 3.66350 4.05020 3.86170
# Velocity P-wave (km/s) = 6.63959 7.10970 6.87866
#
# Compressibility (1/GPa) = 0.01516366
#
# Stress axis : x y z
#
# Youngs Moduli (GPa) = 93.83947 128.46459 94.78146
#
# Poissons Ratio (x) = 0.16599 0.32468
# Poissons Ratio (y) = 0.12125 0.20816
# Poissons Ratio (z) = 0.32145 0.28213
#
# Static dielectric constant tensor:
#      x y z
#    x 1.941510 -0.029460 0.049030 
#    y -0.029460 2.044790 0.074850 
#    z 0.049030 0.074850 2.062600 
# 
# From -- ./inp_files/160175.got.cif
#   From: 2010.05.17/outbox.cif.g08.bks.cpg/sg2_81_cif.got.tgz:160175.got - 2010.06.03 11:33:40.
