data_PCOD9067895
_publ_section_title
;
Structure prediction by ZEFSAII (Michael W. Deem and Ramdas Pophale) SiO2 
 PCOD9067895
Probable space group: P -1
;
_chemical_formula_sum "Si O2"
_cell_formula_units_Z 16
_cell_length_a 16.993312
_cell_length_b 12.274778
_cell_length_c 4.959164
_cell_angle_alpha 105.785643
_cell_angle_beta 92.045502
_cell_angle_gamma 41.313816
_cell_volume 633.580355
_symmetry_space_group_name_H-M "P -1"
_symmetry_group_IT_number 2
_symmetry_cell_setting 'triclinic'
loop_
_space_group_symop_operation_xyz
x,y,z
-x,-y,-z
loop_
_atom_site_type_symbol
_atom_site_label
_atom_site_fract_x
_atom_site_fract_y
_atom_site_fract_z
Si Si1 0.027919 0.302264 0.668640
Si Si2 0.185458 0.556482 0.592374
Si Si3 0.203436 0.911330 0.597019
Si Si4 0.520812 0.363360 0.741535
Si Si5 0.862005 0.156762 0.967456
Si Si6 0.557060 0.002176 0.255653
Si Si7 0.820219 0.656917 0.240905
Si Si8 0.426932 0.359027 0.249801
O O1 0.114990 0.308164 0.581452
O O2 0.951298 0.316869 0.449610
O O3 0.110475 0.120459 0.715694
O O4 0.923804 0.479573 0.954543
O O5 0.181855 0.666125 0.869249
O O6 0.227549 0.390386 0.607395
O O7 0.285549 0.476485 0.323745
O O8 0.335904 0.802544 0.430526
O O9 0.209873 0.851511 0.854111
O O10 0.152706 0.870937 0.356928
O O11 0.441657 0.448763 0.513748
O O12 0.500000 0.500000 0.000000
O O13 0.475732 0.321843 0.931222
O O14 0.000000 0.000000 0.000000
O O15 0.704679 0.831092 0.177037
O O16 0.500000 0.000000 0.500000
O O17 0.510883 0.179043 0.308868
O O18 0.500000 0.000000 0.000000
#
# Coordination Sequence:
#
# PCOD9067895 Si02
#       8
#     2   2   2   2   2   2   2   2
#     4  11  26  46  72 105 149 196 244 298 376 438
#     4  12  25  44  74 105 150 184 251 303 368 443
#     4  12  26  49  74 107 151 192 245 306 367 445
#     4  12  26  49  73 108 147 191 246 299 372 438
#     4  12  25  44  75 111 145 192 241 301 367 434
#     4  12  25  48  74 107 145 186 249 306 365 433
#     4  11  26  47  72 107 147 197 242 306 368 447
#     4  12  26  45  76 106 141 194 241 307 367 428
#
# _framework density 25.253309000000002
#
# number of rings (size 3 to 8) (size 9 to 14) (size 15 to 20)
#    0.000    0.250    2.500    6.375    3.500    0.000 
#    2.250    0.000    0.000    0.000    0.000    0.000 
#    0.000    0.000    0.000    0.000    0.000    0.000 
#
# Total GULP energy -89733.026960 kJ/mol
# GULP energy per Si atom -5608.314185 kJ/mol
# Density = 2.519583 g / cm^3
# Si number density = 25.253309 Si / 1000 Ang^3
#
#
#
# Elastic Constant Matrix: (Units=GPa)
#
#
# Indices 1 2 3 4 5 6 
#
# 1 127.6874 34.1456 33.4613 5.3352 -3.0861 -2.7490
# 2 34.1456 123.3392 15.9486 17.5076 -10.1983 -0.8904
# 3 33.4613 15.9486 98.5429 -12.7030 -10.6513 0.9433
# 4 5.3352 17.5076 -12.7030 44.0746 -0.8977 -2.7079
# 5 -3.0861 -10.1983 -10.6513 -0.8977 42.4651 2.7441
# 6 -2.7490 -0.8904 0.9433 -2.7079 2.7441 51.8857
#
#
#
# Elastic Compliance Matrix: (Units=1/GPa)
#
#
# Indices 1 2 3 4 5 6 
#
# 1 0.009213 -0.002045 -0.003020 -0.001157 -0.000635 0.000481
# 2 -0.002045 0.009513 -0.001145 -0.003838 0.001782 -0.000219
# 3 -0.003020 -0.001145 0.012216 0.004377 0.002682 -0.000315
# 4 -0.001157 -0.003838 0.004377 0.025694 0.000564 0.001104
# 5 -0.000635 0.001782 0.002682 0.000564 0.024701 -0.001329
# 6 0.000481 -0.000219 -0.000315 0.001104 -0.001329 0.019429
#
#
# Mechanical properties :
#
#
# Convention : Reuss Voigt Hill
#
# Bulk Modulus (GPa) = 53.99143 57.40892 55.70018
# Shear Modulus (GPa) = 41.89041 45.41936 43.65488
#
# Velocity S-wave (km/s) = 4.07727 4.24553 4.16225
# Velocity P-wave (km/s) = 6.60241 6.84217 6.72336
#
# Compressibility (1/GPa) = 0.01852146
#
# Stress axis : x y z
#
# Youngs Moduli (GPa) = 108.54028 105.12460 81.86155
#
# Poissons Ratio (x) = 0.21497 0.24720
# Poissons Ratio (y) = 0.22196 0.09376
# Poissons Ratio (z) = 0.32777 0.12040
#
# Static dielectric constant tensor:
#      x y z
#    x 1.208670 -0.579550 -0.611480 
#    y -0.579550 1.534310 -0.432760 
#    z -0.611480 -0.432760 1.500080 
# 
# From -- ./inp_files/95317.got.cif
#   From: 2010.05.17/outbox.cif.g08.bks.cpg/sg2_48_cif.got.tgz:95317.got - 2010.06.03 11:33:40.
