data_PCOD9067256
_publ_section_title
;
Structure prediction by ZEFSAII (Michael W. Deem and Ramdas Pophale) SiO2 
 PCOD9067256
Probable space group: P -1
;
_chemical_formula_sum "Si O2"
_cell_formula_units_Z 14
_cell_length_a 12.408212
_cell_length_b 10.143575
_cell_length_c 9.094216
_cell_angle_alpha 43.527829
_cell_angle_beta 89.711644
_cell_angle_gamma 61.243040
_cell_volume 568.122326
_symmetry_space_group_name_H-M "P -1"
_symmetry_group_IT_number 2
_symmetry_cell_setting 'triclinic'
loop_
_space_group_symop_operation_xyz
x,y,z
-x,-y,-z
loop_
_atom_site_type_symbol
_atom_site_label
_atom_site_fract_x
_atom_site_fract_y
_atom_site_fract_z
Si Si1 0.243766 0.191717 0.667072
Si Si2 0.864475 0.983211 0.397561
Si Si3 0.318045 0.434578 0.112588
Si Si4 0.003837 0.298319 0.079195
Si Si5 0.735570 0.088254 0.825974
Si Si6 0.095722 0.758867 0.311812
Si Si7 0.470031 0.936328 0.329157
O O1 0.193084 0.152120 0.549073
O O2 0.135657 0.494117 0.479600
O O3 0.402617 0.099432 0.723872
O O4 0.743106 0.999037 0.062875
O O5 0.928093 0.910702 0.619496
O O6 0.995612 0.870713 0.369367
O O7 0.721711 0.300309 0.142442
O O8 0.450617 0.251481 0.375946
O O9 0.351328 0.242055 0.138548
O O10 0.159455 0.567334 0.074839
O O11 0.116642 0.168501 0.050224
O O12 0.000000 0.500000 0.000000
O O13 0.753932 0.294433 0.638564
O O14 0.601795 0.144232 0.699760
O O15 0.000000 0.000000 0.000000
#
# Coordination Sequence:
#
# PCOD9067256 Si02
#       7
#     2   2   2   2   2   2   2
#     4  12  28  48  72 110 158 196 246 300 375 454
#     4  12  26  46  79 115 143 196 253 315 369 434
#     4  11  25  48  75 112 148 192 250 306 376 434
#     4  12  24  45  79 109 145 189 255 316 366 427
#     4  12  27  48  76 112 143 202 246 305 375 432
#     4  12  26  46  77 111 151 191 253 314 369 433
#     4  11  27  49  74 108 159 198 238 308 373 456
#
# _framework density 24.642579000000001
#
# number of rings (size 3 to 8) (size 9 to 14) (size 15 to 20)
#    0.000    0.286    4.286    3.857    4.000    1.143 
#    2.571    0.000    0.000    0.000    0.000    0.000 
#    0.000    0.000    0.000    0.000    0.000    0.000 
#
# Total GULP energy -78417.352660 kJ/mol
# GULP energy per Si atom -5601.239476 kJ/mol
# Density = 2.458649 g / cm^3
# Si number density = 24.642579 Si / 1000 Ang^3
#
#
#
# Elastic Constant Matrix: (Units=GPa)
#
#
# Indices 1 2 3 4 5 6 
#
# 1 144.9061 18.8326 26.1760 0.4292 13.5230 23.7524
# 2 18.8326 50.5088 29.1792 -6.9722 6.1387 10.4548
# 3 26.1760 29.1792 81.8233 -14.5865 -8.3408 14.0217
# 4 0.4292 -6.9722 -14.5865 43.8709 10.0310 -1.6213
# 5 13.5230 6.1387 -8.3408 10.0310 33.4959 -5.6592
# 6 23.7524 10.4548 14.0217 -1.6213 -5.6592 58.9666
#
#
#
# Elastic Compliance Matrix: (Units=1/GPa)
#
#
# Indices 1 2 3 4 5 6 
#
# 1 0.008320 -0.000564 -0.002387 -0.000085 -0.004349 -0.003104
# 2 -0.000564 0.027603 -0.009448 0.003112 -0.008650 -0.003165
# 3 -0.002387 -0.009448 0.017656 0.002976 0.006049 -0.000899
# 4 -0.000085 0.003112 0.002976 0.026016 -0.007798 -0.001258
# 5 -0.004349 -0.008650 0.006049 -0.007798 0.037928 0.005273
# 6 -0.003104 -0.003165 -0.000899 -0.001258 0.005273 0.019455
#
#
# Mechanical properties :
#
#
# Convention : Reuss Voigt Hill
#
# Bulk Modulus (GPa) = 34.74543 47.29043 41.01793
# Shear Modulus (GPa) = 29.17674 40.80336 34.99005
#
# Velocity S-wave (km/s) = 3.44466 4.07358 3.77225
# Velocity P-wave (km/s) = 5.47277 6.43098 5.97113
#
# Compressibility (1/GPa) = 0.02878077
#
# Stress axis : x y z
#
# Youngs Moduli (GPa) = 120.18629 36.22817 56.63934
#
# Poissons Ratio (x) = 0.02043 0.13522
# Poissons Ratio (y) = 0.06777 0.53512
# Poissons Ratio (z) = 0.28692 0.34228
#
# Static dielectric constant tensor:
#      x y z
#    x 2.014060 0.016580 -0.044030 
#    y 0.016580 1.938940 0.027260 
#    z -0.044030 0.027260 2.081580 
# 
# From -- ./inp_files/427413.got.cif
#   From: 2010.05.17/outbox.cif.g08.bks.cpg/sg2_214_cif.got.tgz:427413.got - 2010.06.03 11:33:40.
