data_PCOD9067579
_publ_section_title
;
Structure prediction by ZEFSAII (Michael W. Deem and Ramdas Pophale) SiO2 
 PCOD9067579
Probable space group: P -1
;
_chemical_formula_sum "Si O2"
_cell_formula_units_Z 15
_cell_length_a 5.125701
_cell_length_b 10.878928
_cell_length_c 11.552509
_cell_angle_alpha 114.072308
_cell_angle_beta 79.350271
_cell_angle_gamma 108.033792
_cell_volume 558.001287
_symmetry_space_group_name_H-M "P -1"
_symmetry_group_IT_number 2
_symmetry_cell_setting 'triclinic'
loop_
_space_group_symop_operation_xyz
x,y,z
-x,-y,-z
loop_
_atom_site_type_symbol
_atom_site_label
_atom_site_fract_x
_atom_site_fract_y
_atom_site_fract_z
Si Si1 0.224811 0.093255 0.102505
Si Si2 0.263405 0.312169 0.016230
Si Si3 0.000000 0.000000 0.500000
Si Si4 0.094403 0.609217 0.358249
Si Si5 0.345784 0.194166 0.718586
Si Si6 0.012330 0.695466 0.645254
Si Si7 0.469372 0.067930 0.296130
Si Si8 0.814668 0.451131 0.109595
O O1 0.377843 0.020680 0.154100
O O2 0.116533 0.192858 0.238772
O O3 0.381343 0.202999 0.039206
O O4 0.000000 0.000000 0.000000
O O5 0.261740 0.264415 0.866484
O O6 0.507438 0.440768 0.088047
O O7 0.964399 0.327778 0.083931
O O8 0.887015 0.856391 0.376658
O O9 0.770621 0.940010 0.596246
O O10 0.374485 0.711110 0.324338
O O11 0.988300 0.679987 0.503276
O O12 0.112794 0.459022 0.352687
O O13 0.886101 0.557579 0.250091
O O14 0.384158 0.043358 0.701711
O O15 0.335746 0.774362 0.666860
O O16 0.000000 0.500000 0.000000
#
# Coordination Sequence:
#
# PCOD9067579 Si02
#       8
#     2   2   1   2   2   2   2   2
#     4  12  28  48  80 114 163 221 279 339 420 504
#     4  12  28  51  80 120 161 222 278 345 416 501
#     4  12  26  48  76 116 158 214 276 340 424 498
#     4  11  25  50  81 115 161 215 274 351 421 497
#     4  12  28  49  83 117 163 215 280 353 420 502
#     4  11  25  52  76 113 159 214 274 340 425 499
#     4  12  27  49  76 117 158 213 276 346 414 509
#     4  12  26  50  78 116 166 210 277 340 422 497
#
# _framework density 26.881658999999999
#
# number of rings (size 3 to 8) (size 9 to 14) (size 15 to 20)
#    0.000    0.267    4.000    4.000    5.600    1.067 
#    2.400    2.000    0.000    0.000    0.000    0.000 
#    0.000    0.000    0.000    0.000    0.000    0.000 
#
# Total GULP energy -83649.599607 kJ/mol
# GULP energy per Si atom -5576.639974 kJ/mol
# Density = 2.682048 g / cm^3
# Si number density = 26.881659 Si / 1000 Ang^3
#
#
#
# Elastic Constant Matrix: (Units=GPa)
#
#
# Indices 1 2 3 4 5 6 
#
# 1 89.5618 36.7693 40.8470 16.8719 8.3576 5.3356
# 2 36.7693 67.2605 15.3118 4.8293 -49.1015 39.9790
# 3 40.8470 15.3118 238.4258 18.0410 -1.6003 8.5590
# 4 16.8719 4.8293 18.0410 48.7991 -5.3086 10.0618
# 5 8.3576 -49.1015 -1.6003 -5.3086 -25.5288 62.7902
# 6 5.3356 39.9790 8.5590 10.0618 62.7902 2.3025
#
#
#
# Elastic Compliance Matrix: (Units=1/GPa)
#
#
# Indices 1 2 3 4 5 6 
#
# 1 0.013960 -0.003330 -0.001809 -0.002805 0.001777 -0.004022
# 2 -0.003330 0.009465 -0.000159 -0.001460 -0.005686 0.005405
# 3 -0.001809 -0.000159 0.004593 -0.001091 -0.000198 0.000060
# 4 -0.002805 -0.001460 -0.001091 0.021741 -0.002173 0.000159
# 5 0.001777 -0.005686 -0.000198 -0.002173 0.003389 0.012432
# 6 -0.004022 0.005405 0.000060 0.000159 0.012432 0.009832
#
#
# Mechanical properties :
#
#
# Convention : Reuss Voigt Hill
#
# Bulk Modulus (GPa) = 57.39795 64.56717 60.98256
# Shear Modulus (GPa) = 62.98585 25.26923 44.12754
#
# Velocity S-wave (km/s) = 4.84579 3.06930 4.05600
# Velocity P-wave (km/s) = 7.25998 6.05243 6.68353
#
# Compressibility (1/GPa) = 0.01742222
#
# Stress axis : x y z
#
# Youngs Moduli (GPa) = 71.63412 105.65310 217.70414
#
# Poissons Ratio (x) = 0.35179 0.39386
# Poissons Ratio (y) = 0.23852 0.03465
# Poissons Ratio (z) = 0.12960 0.01682
#
# Static dielectric constant tensor:
#      x y z
#    x 2.515430 0.109980 0.184720 
#    y 0.109980 2.908690 0.403990 
#    z 0.184720 0.403990 2.248670 
# 
# From -- ./inp_files/365229.got.cif
#   From: 2010.05.17/outbox.cif.g08.bks.cpg/sg2_183_cif.got.tgz:365229.got - 2010.06.03 11:33:40.
