data_PCOD9067938
_publ_section_title
;
Structure prediction by ZEFSAII (Michael W. Deem and Ramdas Pophale) SiO2 
 PCOD9067938
Probable space group: P -1
;
_chemical_formula_sum "Si O2"
_cell_formula_units_Z 16
_cell_length_a 8.825736
_cell_length_b 12.375125
_cell_length_c 8.069890
_cell_angle_alpha 77.227510
_cell_angle_beta 86.812061
_cell_angle_gamma 52.467673
_cell_volume 678.083598
_symmetry_space_group_name_H-M "P -1"
_symmetry_group_IT_number 2
_symmetry_cell_setting 'triclinic'
loop_
_space_group_symop_operation_xyz
x,y,z
-x,-y,-z
loop_
_atom_site_type_symbol
_atom_site_label
_atom_site_fract_x
_atom_site_fract_y
_atom_site_fract_z
Si Si1 0.235378 0.598196 0.223289
Si Si2 0.540941 0.854159 0.082355
Si Si3 0.792287 0.147803 0.494389
Si Si4 0.007981 0.369140 0.505490
Si Si5 0.776158 0.575479 0.969358
Si Si6 0.569054 0.851587 0.476423
Si Si7 0.328487 0.565151 0.715874
Si Si8 0.816433 0.144647 0.891648
O O1 0.036691 0.681353 0.310284
O O2 0.255518 0.465553 0.193347
O O3 0.446890 0.526319 0.310012
O O4 0.206231 0.722714 0.074376
O O5 0.592663 0.826568 0.283732
O O6 0.355446 0.861789 0.062059
O O7 0.685385 0.729287 0.990152
O O8 0.500000 0.000000 0.000000
O O9 0.605912 0.153981 0.470247
O O10 0.758636 0.272161 0.343554
O O11 0.804244 0.168169 0.684431
O O12 0.000000 0.000000 0.500000
O O13 0.811259 0.434819 0.400170
O O14 0.000000 0.500000 0.500000
O O15 0.208760 0.256276 0.441966
O O16 0.694167 0.507169 0.102801
O O17 0.000000 0.500000 0.000000
O O18 0.500000 0.000000 0.500000
O O19 0.000000 0.000000 0.000000
#
# Coordination Sequence:
#
# PCOD9067938 Si02
#       8
#     2   2   2   2   2   2   2   2
#     4  12  26  47  77 109 150 201 253 310 380 451
#     4  11  27  48  73 102 149 194 249 311 373 452
#     4  11  26  46  74 111 148 197 250 312 374 448
#     4  12  25  43  74 108 145 189 240 313 371 439
#     4  12  28  48  73 111 151 199 253 309 385 448
#     4  11  26  48  69 107 147 189 246 302 381 442
#     4  12  25  46  74 106 150 193 257 310 372 449
#     4  11  27  46  74 107 147 196 252 306 377 451
#
# _framework density 23.595911999999998
#
# number of rings (size 3 to 8) (size 9 to 14) (size 15 to 20)
#    0.000    0.500    2.500    4.500    7.000    4.000 
#    0.000    0.000    0.000    0.000    0.000    0.000 
#    0.000    0.000    0.000    0.000    0.000    0.000 
#
# Total GULP energy -89301.998021 kJ/mol
# GULP energy per Si atom -5581.374876 kJ/mol
# Density = 2.354221 g / cm^3
# Si number density = 23.595912 Si / 1000 Ang^3
#
#
#
# Elastic Constant Matrix: (Units=GPa)
#
#
# Indices 1 2 3 4 5 6 
#
# 1 196.4717 78.4719 22.8399 4.7091 -0.8234 -6.4745
# 2 78.4719 196.1619 14.3420 -5.9064 -4.5265 -1.8480
# 3 22.8399 14.3420 28.5162 -4.7891 -6.6053 -0.5509
# 4 4.7091 -5.9064 -4.7891 34.9161 6.6504 0.0907
# 5 -0.8234 -4.5265 -6.6053 6.6504 41.6686 -4.6840
# 6 -6.4745 -1.8480 -0.5509 0.0907 -4.6840 59.3249
#
#
#
# Elastic Compliance Matrix: (Units=1/GPa)
#
#
# Indices 1 2 3 4 5 6 
#
# 1 0.006627 -0.002381 -0.004519 -0.001825 -0.000489 0.000571
# 2 -0.002381 0.006160 -0.000928 0.001183 0.000280 -0.000056
# 3 -0.004519 -0.000928 0.041301 0.005053 0.005584 0.000295
# 4 -0.001825 0.001183 0.005053 0.030549 -0.004036 -0.000481
# 5 -0.000489 0.000280 0.005584 -0.004036 0.025779 0.002049
# 6 0.000571 -0.000056 0.000295 -0.000481 0.002049 0.017082
#
#
# Mechanical properties :
#
#
# Convention : Reuss Voigt Hill
#
# Bulk Modulus (GPa) = 26.02027 72.49526 49.25777
# Shear Modulus (GPa) = 32.05827 47.54832 39.80329
#
# Velocity S-wave (km/s) = 3.68997 4.49387 4.11161
# Velocity P-wave (km/s) = 5.40425 7.59716 6.59252
#
# Compressibility (1/GPa) = 0.03843157
#
# Stress axis : x y z
#
# Youngs Moduli (GPa) = 150.90382 162.34054 24.21220
#
# Poissons Ratio (x) = 0.38660 0.10940
# Poissons Ratio (y) = 0.35936 0.02248
# Poissons Ratio (z) = 0.68187 0.15070
#
# Static dielectric constant tensor:
#      x y z
#    x 1.769880 0.112860 -0.160210 
#    y 0.112860 1.732390 0.287750 
#    z -0.160210 0.287750 2.074330 
# 
# From -- ./inp_files/186718.got.cif
#   From: 2010.05.17/outbox.cif.g08.bks.cpg/sg2_94_cif.got.tgz:186718.got - 2010.06.03 11:33:40.
