data_PCOD9067991
_publ_section_title
;
Structure prediction by ZEFSAII (Michael W. Deem and Ramdas Pophale) SiO2 
 PCOD9067991
Probable space group: P -1
;
_chemical_formula_sum "Si O2"
_cell_formula_units_Z 16
_cell_length_a 8.227939
_cell_length_b 9.142164
_cell_length_c 11.312550
_cell_angle_alpha 82.971666
_cell_angle_beta 57.444911
_cell_angle_gamma 87.019938
_cell_volume 711.751165
_symmetry_space_group_name_H-M "P -1"
_symmetry_group_IT_number 2
_symmetry_cell_setting 'triclinic'
loop_
_space_group_symop_operation_xyz
x,y,z
-x,-y,-z
loop_
_atom_site_type_symbol
_atom_site_label
_atom_site_fract_x
_atom_site_fract_y
_atom_site_fract_z
Si Si1 0.314605 0.204538 0.311273
Si Si2 0.657054 0.877530 0.424772
Si Si3 0.007617 0.109070 0.875307
Si Si4 0.339273 0.573940 0.847003
Si Si5 0.652726 0.070775 0.843069
Si Si6 0.987136 0.444546 0.866538
Si Si7 0.032198 0.586841 0.597319
Si Si8 0.561487 0.312512 0.660702
O O1 0.278520 0.179904 0.467311
O O2 0.528685 0.279665 0.208285
O O3 0.146956 0.308471 0.319894
O O4 0.298540 0.054984 0.258759
O O5 0.571725 0.750701 0.385622
O O6 0.825996 0.944124 0.271992
O O7 0.500000 0.000000 0.500000
O O8 0.824788 0.116819 0.859021
O O9 0.038934 0.276210 0.893711
O O10 0.000000 0.000000 0.000000
O O11 0.476097 0.460201 0.736661
O O12 0.136035 0.563468 0.855292
O O13 0.238415 0.531721 0.015765
O O14 0.578939 0.202405 0.776160
O O15 0.500000 0.000000 0.000000
O O16 0.030600 0.466312 0.711310
O O17 0.000000 0.500000 0.500000
O O18 0.234031 0.668832 0.486943
#
# Coordination Sequence:
#
# PCOD9067991 Si02
#       8
#     2   2   2   2   2   2   2   2
#     4  12  27  46  74 110 146 193 241 304 362 434
#     4  12  26  46  74 107 146 188 244 295 365 427
#     4  12  28  49  77 104 149 193 243 301 362 434
#     4  11  26  46  78 102 145 185 249 294 368 423
#     4  12  28  47  74 109 150 190 245 298 369 429
#     4  11  26  48  72 107 142 191 244 300 360 434
#     4  12  26  44  70 105 146 187 238 299 367 425
#     4  12  25  48  76 107 144 193 242 304 360 432
#
# _framework density 22.479766000000001
#
# number of rings (size 3 to 8) (size 9 to 14) (size 15 to 20)
#    0.000    0.250    3.750    4.500    5.250    3.500 
#    0.000    0.000    0.000    0.000    0.000    0.000 
#    0.000    0.000    0.000    0.000    0.000    0.000 
#
# Total GULP energy -89447.180089 kJ/mol
# GULP energy per Si atom -5590.448756 kJ/mol
# Density = 2.242860 g / cm^3
# Si number density = 22.479766 Si / 1000 Ang^3
#
#
#
# Elastic Constant Matrix: (Units=GPa)
#
#
# Indices 1 2 3 4 5 6 
#
# 1 48.2563 6.6215 25.1193 1.4271 6.5935 6.9515
# 2 6.6215 57.7764 2.2910 8.6595 12.4786 -5.0002
# 3 25.1193 2.2910 155.9547 -12.3602 6.4253 -4.7425
# 4 1.4271 8.6595 -12.3602 35.2646 -5.2007 4.7480
# 5 6.5935 12.4786 6.4253 -5.2007 47.8209 1.3769
# 6 6.9515 -5.0002 -4.7425 4.7480 1.3769 32.4031
#
#
#
# Elastic Compliance Matrix: (Units=1/GPa)
#
#
# Indices 1 2 3 4 5 6 
#
# 1 0.024376 -0.002484 -0.004087 -0.001326 -0.002137 -0.005926
# 2 -0.002484 0.020210 -0.000017 -0.006368 -0.005760 0.004827
# 3 -0.004087 -0.000017 0.007325 0.002495 -0.000191 0.001589
# 4 -0.001326 -0.006368 0.002495 0.032324 0.005177 -0.005289
# 5 -0.002137 -0.005760 -0.000191 0.005177 0.023361 -0.002210
# 6 -0.005926 0.004827 0.001589 -0.005289 -0.002210 0.033979
#
#
# Mechanical properties :
#
#
# Convention : Reuss Voigt Hill
#
# Bulk Modulus (GPa) = 25.81746 36.67233 31.24490
# Shear Modulus (GPa) = 29.82182 38.29475 34.05828
#
# Velocity S-wave (km/s) = 3.64621 4.13185 3.89660
# Velocity P-wave (km/s) = 5.40705 6.25394 5.84585
#
# Compressibility (1/GPa) = 0.03873347
#
# Stress axis : x y z
#
# Youngs Moduli (GPa) = 41.02423 49.48119 136.52734
#
# Poissons Ratio (x) = 0.12291 0.55798
# Poissons Ratio (y) = 0.10190 0.00237
# Poissons Ratio (z) = 0.16766 0.00086
#
# Static dielectric constant tensor:
#      x y z
#    x 1.982040 0.078810 0.009310 
#    y 0.078810 1.866300 0.017780 
#    z 0.009310 0.017780 1.577380 
# 
# From -- ./inp_files/381890.got.cif
#   From: 2010.05.17/outbox.cif.g08.bks.cpg/sg2_191_cif.got.tgz:381890.got - 2010.06.03 11:33:40.
