data_PCOD9067160
_publ_section_title
;
Structure prediction by ZEFSAII (Michael W. Deem and Ramdas Pophale) SiO2 
 PCOD9067160
Probable space group: P -1
;
_chemical_formula_sum "Si O2"
_cell_formula_units_Z 11
_cell_length_a 5.966363
_cell_length_b 14.511270
_cell_length_c 6.458763
_cell_angle_alpha 78.252512
_cell_angle_beta 105.790265
_cell_angle_gamma 64.975564
_cell_volume 453.844306
_symmetry_space_group_name_H-M "P -1"
_symmetry_group_IT_number 2
_symmetry_cell_setting 'triclinic'
loop_
_space_group_symop_operation_xyz
x,y,z
-x,-y,-z
loop_
_atom_site_type_symbol
_atom_site_label
_atom_site_fract_x
_atom_site_fract_y
_atom_site_fract_z
Si Si1 0.362094 0.137697 0.746608
Si Si2 0.033637 0.874226 0.650353
Si Si3 0.286750 0.497259 0.119967
Si Si4 0.458851 0.736186 0.507581
Si Si5 0.055080 0.736032 0.085957
Si Si6 0.000000 0.000000 0.000000
O O1 0.203800 0.093447 0.590529
O O2 0.326392 0.240809 0.554830
O O3 0.227848 0.192760 0.904987
O O4 0.671707 0.050299 0.897563
O O5 0.312004 0.819600 0.618481
O O6 0.049844 0.775938 0.836892
O O7 0.003026 0.959328 0.776060
O O8 0.448281 0.384101 0.336229
O O9 0.183179 0.607092 0.176223
O O10 0.500000 0.500000 0.000000
O O11 0.000000 0.500000 0.000000
O O12 0.238468 0.767678 0.256280
#
# Coordination Sequence:
#
# PCOD9067160 Si02
#       6
#     2   2   2   2   2   1
#     4  11  27  46  74 106 146 197 248 317 364 462
#     4  11  25  48  71 106 146 191 250 310 373 453
#     4  12  27  45  80 113 153 204 247 309 388 461
#     4  11  25  48  74 107 148 194 250 303 377 455
#     4  11  25  48  74 106 152 192 249 306 384 444
#     4  12  26  48  74 102 148 196 248 310 394 428
#
# _framework density 24.237389
#
# number of rings (size 3 to 8) (size 9 to 14) (size 15 to 20)
#    0.000    0.727    3.636    2.182   10.182    2.182 
#    0.000    0.000    0.000    0.000    0.000    0.000 
#    0.000    0.000    0.000    0.000    0.000    0.000 
#
# Total GULP energy -61257.729612 kJ/mol
# GULP energy per Si atom -5568.884510 kJ/mol
# Density = 2.418222 g / cm^3
# Si number density = 24.237389 Si / 1000 Ang^3
#
#
#
# Elastic Constant Matrix: (Units=GPa)
#
#
# Indices 1 2 3 4 5 6 
#
# 1 87.7879 35.0826 23.3294 -9.9916 5.6332 6.4605
# 2 35.0826 109.4779 32.2202 26.9527 -10.9864 -11.2271
# 3 23.3294 32.2202 86.0145 -1.3667 11.8976 -1.6105
# 4 -9.9916 26.9527 -1.3667 51.7406 17.6220 0.7022
# 5 5.6332 -10.9864 11.8976 17.6220 40.8056 -10.2809
# 6 6.4605 -11.2271 -1.6105 0.7022 -10.2809 37.3437
#
#
#
# Elastic Compliance Matrix: (Units=1/GPa)
#
#
# Indices 1 2 3 4 5 6 
#
# 1 0.021868 -0.016521 0.003185 0.020209 -0.020834 -0.014728
# 2 -0.016521 0.031088 -0.011819 -0.031211 0.032955 0.021354
# 3 0.003185 -0.011819 0.017503 0.012908 -0.016337 -0.008090
# 4 0.020209 -0.031211 0.012908 0.055688 -0.045532 -0.025905
# 5 -0.020834 0.032955 -0.016337 -0.045532 0.068904 0.032633
# 6 -0.014728 0.021354 -0.008090 -0.025905 0.032633 0.044869
#
#
# Mechanical properties :
#
#
# Convention : Reuss Voigt Hill
#
# Bulk Modulus (GPa) = 49.63310 51.61609 50.62459
# Shear Modulus (GPa) = 16.83808 38.82119 27.82964
#
# Velocity S-wave (km/s) = 2.63860 4.00647 3.39220
# Velocity P-wave (km/s) = 5.45943 6.53795 6.02288
#
# Compressibility (1/GPa) = 0.02014784
#
# Stress axis : x y z
#
# Youngs Moduli (GPa) = 45.72895 32.16691 57.13369
#
# Poissons Ratio (x) = 0.53144 -0.18195
# Poissons Ratio (y) = 0.75550 0.67525
# Poissons Ratio (z) = -0.14563 0.38017
#
# Static dielectric constant tensor:
#      x y z
#    x 1.996290 0.073840 -0.038580 
#    y 0.073840 2.013460 -0.114310 
#    z -0.038580 -0.114310 1.942140 
# 
# From -- ./inp_files/2227.got.cif
#   From: 2010.05.17/outbox.cif.g08.bks.cpg/sg2_2_cif.got.tgz:2227.got - 2010.06.03 11:33:40.
