data_PCOD9067872
_publ_section_title
;
Structure prediction by ZEFSAII (Michael W. Deem and Ramdas Pophale) SiO2 
 PCOD9067872
Probable space group: P -1
;
_chemical_formula_sum "Si O2"
_cell_formula_units_Z 14
_cell_length_a 24.105409
_cell_length_b 15.043598
_cell_length_c 5.687406
_cell_angle_alpha 67.535593
_cell_angle_beta 68.489128
_cell_angle_gamma 18.936970
_cell_volume 618.433248
_symmetry_space_group_name_H-M "P -1"
_symmetry_group_IT_number 2
_symmetry_cell_setting 'triclinic'
loop_
_space_group_symop_operation_xyz
x,y,z
-x,-y,-z
loop_
_atom_site_type_symbol
_atom_site_label
_atom_site_fract_x
_atom_site_fract_y
_atom_site_fract_z
Si Si1 0.173053 0.695623 0.149898
Si Si2 0.274360 0.746600 0.122630
Si Si3 0.939814 0.303003 0.343671
Si Si4 0.383515 0.271392 0.875538
Si Si5 0.153388 0.339098 0.859643
Si Si6 0.329524 0.031069 0.393226
Si Si7 0.393741 0.717239 0.639467
O O1 0.239775 0.687890 0.189413
O O2 0.108192 0.700980 0.382206
O O3 0.327801 0.421624 0.028938
O O4 0.000000 0.000000 0.000000
O O5 0.467192 0.463089 0.198706
O O6 0.262059 0.839923 0.829925
O O7 0.132893 0.995339 0.273829
O O8 0.799836 0.487321 0.176849
O O9 0.910827 0.456480 0.298413
O O10 0.491507 0.182124 0.637730
O O11 0.500000 0.000000 0.000000
O O12 0.238019 0.179343 0.640636
O O13 0.258869 0.182590 0.102143
O O14 0.000000 0.500000 0.000000
O O15 0.328004 0.919414 0.452424
O O16 0.500000 0.500000 0.500000
#
# Coordination Sequence:
#
# PCOD9067872 Si02
#       7
#     2   2   2   2   2   2   2
#     4  12  27  45  76 108 151 196 252 315 385 458
#     4  11  26  46  70 110 144 196 251 314 384 456
#     4  12  27  46  75 104 152 192 256 313 381 457
#     4  12  26  47  73 109 150 200 249 315 383 450
#     4  12  29  51  77 109 152 203 253 314 379 461
#     4  12  28  48  78 110 151 197 256 312 385 454
#     4  11  27  45  75 103 148 195 252 317 383 453
#
# _framework density 22.637853
#
# number of rings (size 3 to 8) (size 9 to 14) (size 15 to 20)
#    0.000    0.286    2.857    4.286   14.000    1.143 
#    0.000    0.000    0.000    0.000    0.000    0.000 
#    0.000    0.000    0.000    0.000    0.000    0.000 
#
# Total GULP energy -78207.165648 kJ/mol
# GULP energy per Si atom -5586.226118 kJ/mol
# Density = 2.258633 g / cm^3
# Si number density = 22.637853 Si / 1000 Ang^3
#
#
#
# Elastic Constant Matrix: (Units=GPa)
#
#
# Indices 1 2 3 4 5 6 
#
# 1 106.7270 18.6859 45.3364 -0.3875 -34.4633 30.0518
# 2 18.6859 81.4551 47.2068 10.6828 -13.7225 30.5478
# 3 45.3364 47.2068 131.0699 16.1997 -37.5162 28.3555
# 4 -0.3875 10.6828 16.1997 56.0737 -2.4470 0.3789
# 5 -34.4633 -13.7225 -37.5162 -2.4470 50.8987 -3.8891
# 6 30.0518 30.5478 28.3555 0.3789 -3.8891 55.7270
#
#
#
# Elastic Compliance Matrix: (Units=1/GPa)
#
#
# Indices 1 2 3 4 5 6 
#
# 1 0.014656 0.001775 -0.001734 0.000689 0.008592 -0.007399
# 2 0.001775 0.018301 -0.004522 -0.002021 0.002053 -0.008531
# 3 -0.001734 -0.004522 0.012592 -0.002484 0.006576 -0.002518
# 4 0.000689 -0.002021 -0.002484 0.018891 -0.000863 0.001811
# 5 0.008592 0.002053 0.006576 -0.000863 0.030290 -0.006985
# 6 -0.007399 -0.008531 -0.002518 0.001811 -0.006985 0.027392
#
#
# Mechanical properties :
#
#
# Convention : Reuss Voigt Hill
#
# Bulk Modulus (GPa) = 27.33294 60.19001 43.76147
# Shear Modulus (GPa) = 34.89697 46.40809 40.65253
#
# Velocity S-wave (km/s) = 3.93049 4.53263 4.24226
# Velocity P-wave (km/s) = 5.71827 7.35112 6.58549
#
# Compressibility (1/GPa) = 0.03658590
#
# Stress axis : x y z
#
# Youngs Moduli (GPa) = 68.23283 54.64329 79.41605
#
# Poissons Ratio (x) = -0.09697 0.13769
# Poissons Ratio (y) = -0.12109 0.35912
# Poissons Ratio (z) = 0.11830 0.24710
#
# Static dielectric constant tensor:
#      x y z
#    x 1.864580 -0.041380 0.068190 
#    y -0.041380 1.804850 -0.066050 
#    z 0.068190 -0.066050 1.905790 
# 
# From -- ./inp_files/100523.got.cif
#   From: 2010.05.17/outbox.cif.g08.bks.cpg/sg2_51_cif.got.tgz:100523.got - 2010.06.03 11:33:40.
