data_PCOD9067772
_publ_section_title
;
Structure prediction by ZEFSAII (Michael W. Deem and Ramdas Pophale) SiO2 
 PCOD9067772
Probable space group: P -1
;
_chemical_formula_sum "Si O2"
_cell_formula_units_Z 14
_cell_length_a 6.445008
_cell_length_b 11.489710
_cell_length_c 8.625305
_cell_angle_alpha 100.309033
_cell_angle_beta 88.164015
_cell_angle_gamma 92.452472
_cell_volume 627.635202
_symmetry_space_group_name_H-M "P -1"
_symmetry_group_IT_number 2
_symmetry_cell_setting 'triclinic'
loop_
_space_group_symop_operation_xyz
x,y,z
-x,-y,-z
loop_
_atom_site_type_symbol
_atom_site_label
_atom_site_fract_x
_atom_site_fract_y
_atom_site_fract_z
Si Si1 0.241241 0.246973 0.860891
Si Si2 0.668314 0.489054 0.128316
Si Si3 0.907055 0.095961 0.639374
Si Si4 0.402060 0.389113 0.380174
Si Si5 0.990216 0.674368 0.810645
Si Si6 0.320407 0.815627 0.619422
Si Si7 0.474847 0.961643 0.169014
O O1 0.277417 0.373609 0.808134
O O2 0.445396 0.170934 0.850211
O O3 0.079964 0.171412 0.743635
O O4 0.147249 0.263143 0.040329
O O5 0.531855 0.408777 0.226941
O O6 0.883256 0.420709 0.114769
O O7 0.500000 0.500000 0.000000
O O8 0.776869 0.176684 0.546256
O O9 0.755601 0.036446 0.756916
O O10 0.000000 0.000000 0.500000
O O11 0.500000 0.500000 0.500000
O O12 0.163235 0.384770 0.330632
O O13 0.478635 0.265439 0.414060
O O14 0.151181 0.759489 0.731457
O O15 0.389590 0.945366 0.709081
O O16 0.500000 0.000000 0.000000
#
# Coordination Sequence:
#
# PCOD9067772 Si02
#       7
#     2   2   2   2   2   2   2
#     4  12  27  44  77 103 145 191 246 302 369 436
#     4  11  26  45  71 109 144 190 247 303 365 435
#     4  12  29  47  73 110 147 193 242 304 372 436
#     4  11  27  43  73 102 148 193 241 308 366 430
#     4  11  26  47  72 107 145 195 245 303 366 442
#     4  11  27  46  71 104 150 185 250 301 368 438
#     4  12  28  47  76 106 145 192 246 303 366 437
#
# _framework density 22.305951
#
# number of rings (size 3 to 8) (size 9 to 14) (size 15 to 20)
#    0.000    0.571    2.857    2.571   14.000    2.286 
#    0.000    0.000    0.000    0.000    0.000    0.000 
#    0.000    0.000    0.000    0.000    0.000    0.000 
#
# Total GULP energy -78221.381506 kJ/mol
# GULP energy per Si atom -5587.241536 kJ/mol
# Density = 2.225518 g / cm^3
# Si number density = 22.305951 Si / 1000 Ang^3
#
#
#
# Elastic Constant Matrix: (Units=GPa)
#
#
# Indices 1 2 3 4 5 6 
#
# 1 102.6198 31.9466 28.2237 14.0678 5.8389 -0.4028
# 2 31.9466 85.4268 8.4672 11.6988 -3.6204 -4.9524
# 3 28.2237 8.4672 81.6740 4.7553 17.8084 -13.4597
# 4 14.0678 11.6988 4.7553 41.3047 8.5825 6.2473
# 5 5.8389 -3.6204 17.8084 8.5825 37.8625 -0.3833
# 6 -0.4028 -4.9524 -13.4597 6.2473 -0.3833 44.9749
#
#
#
# Elastic Compliance Matrix: (Units=1/GPa)
#
#
# Indices 1 2 3 4 5 6 
#
# 1 0.012394 -0.003965 -0.003943 -0.002494 0.000118 -0.001158
# 2 -0.003965 0.013910 -0.000165 -0.003452 0.002821 0.001950
# 3 -0.003943 -0.000165 0.015866 0.000300 -0.006892 0.004594
# 4 -0.002494 -0.003452 0.000300 0.027992 -0.006475 -0.004256
# 5 0.000118 0.002821 -0.006892 -0.006475 0.031366 -0.000584
# 6 -0.001158 0.001950 0.004594 -0.004256 -0.000584 0.024400
#
#
# Mechanical properties :
#
#
# Convention : Reuss Voigt Hill
#
# Bulk Modulus (GPa) = 38.42528 45.22176 41.82352
# Shear Modulus (GPa) = 33.16773 38.23396 35.70085
#
# Velocity S-wave (km/s) = 3.86028 4.14462 4.00497
# Velocity P-wave (km/s) = 6.09367 6.57429 6.33854
#
# Compressibility (1/GPa) = 0.02602453
#
# Stress axis : x y z
#
# Youngs Moduli (GPa) = 80.68336 71.88933 63.02836
#
# Poissons Ratio (x) = 0.28503 0.24854
# Poissons Ratio (y) = 0.31989 0.01038
# Poissons Ratio (z) = 0.31816 0.01184
#
# Static dielectric constant tensor:
#      x y z
#    x 2.068420 -0.077390 0.135260 
#    y -0.077390 1.864920 0.021500 
#    z 0.135260 0.021500 1.936670 
# 
# From -- ./inp_files/53500.got.cif
#   From: 2010.05.17/outbox.cif.g08.bks.cpg/sg2_27_cif.got.tgz:53500.got - 2010.06.03 11:33:40.
