data_PCOD9067321
_publ_section_title
;
Structure prediction by ZEFSAII (Michael W. Deem and Ramdas Pophale) SiO2 
 PCOD9067321
Probable space group: P -1
;
_chemical_formula_sum "Si O2"
_cell_formula_units_Z 12
_cell_length_a 8.556892
_cell_length_b 11.184393
_cell_length_c 8.140091
_cell_angle_alpha 53.644939
_cell_angle_beta 72.679736
_cell_angle_gamma 43.303061
_cell_volume 417.517397
_symmetry_space_group_name_H-M "P -1"
_symmetry_group_IT_number 2
_symmetry_cell_setting 'triclinic'
loop_
_space_group_symop_operation_xyz
x,y,z
-x,-y,-z
loop_
_atom_site_type_symbol
_atom_site_label
_atom_site_fract_x
_atom_site_fract_y
_atom_site_fract_z
Si Si1 0.628802 0.889986 0.319782
Si Si2 0.588606 0.595410 0.737620
Si Si3 0.298123 0.290006 0.894081
Si Si4 0.268075 0.771296 0.246315
Si Si5 0.982504 0.766968 0.580575
Si Si6 0.897677 0.211854 0.141484
O O1 0.598953 0.745902 0.523246
O O2 0.742725 0.789386 0.186465
O O3 0.786589 0.875491 0.413094
O O4 0.397649 0.134030 0.145182
O O5 0.662737 0.406449 0.754691
O O6 0.333305 0.731679 0.782947
O O7 0.784736 0.443048 0.940348
O O8 0.514854 0.257194 0.801964
O O9 0.940682 0.872472 0.681136
O O10 0.082540 0.539785 0.771938
O O11 0.192781 0.726755 0.466594
O O12 0.047300 0.029476 0.107162
#
# Coordination Sequence:
#
# PCOD9067321 Si02
#       6
#     2   2   2   2   2   2
#     4  11  27  46  82 114 157 208 257 321 405 459
#     4  11  25  51  81 112 161 207 257 329 387 466
#     4  11  25  48  78 117 151 208 263 317 392 470
#     4  12  25  48  84 109 154 212 263 315 386 473
#     4  12  25  48  79 118 155 203 264 325 388 465
#     4  11  27  47  79 121 151 204 273 316 386 471
#
# _framework density 28.741315
#
# number of rings (size 3 to 8) (size 9 to 14) (size 15 to 20)
#    0.000    0.667    3.333    3.000    4.667    2.000 
#    0.000    5.833    0.000    0.000    0.000    0.000 
#    0.000    0.000    0.000    0.000    0.000    0.000 
#
# Total GULP energy -67334.815157 kJ/mol
# GULP energy per Si atom -5611.234596 kJ/mol
# Density = 2.867590 g / cm^3
# Si number density = 28.741315 Si / 1000 Ang^3
#
#
#
# Elastic Constant Matrix: (Units=GPa)
#
#
# Indices 1 2 3 4 5 6 
#
# 1 151.8965 84.6786 98.9578 3.3395 -10.0410 14.6615
# 2 84.6786 166.6247 46.0019 -12.5098 16.0867 14.4978
# 3 98.9578 46.0019 202.1717 -44.0353 10.4825 9.0012
# 4 3.3395 -12.5098 -44.0353 61.1982 17.9316 -1.4181
# 5 -10.0410 16.0867 10.4825 17.9316 67.0203 6.8588
# 6 14.6615 14.4978 9.0012 -1.4181 6.8588 53.3171
#
#
#
# Elastic Compliance Matrix: (Units=1/GPa)
#
#
# Indices 1 2 3 4 5 6 
#
# 1 0.020873 -0.009314 -0.011827 -0.015008 0.011545 -0.003095
# 2 -0.009314 0.010820 0.004106 0.007630 -0.006675 -0.000012
# 3 -0.011827 0.004106 0.013114 0.013459 -0.008551 0.001380
# 4 -0.015008 0.007630 0.013459 0.032937 -0.015265 0.002620
# 5 0.011545 -0.006675 -0.008551 -0.015265 0.024024 -0.003413
# 6 -0.003095 -0.000012 0.001380 0.002620 -0.003413 0.019886
#
#
# Mechanical properties :
#
#
# Convention : Reuss Voigt Hill
#
# Bulk Modulus (GPa) = 93.14583 108.88550 101.01567
# Shear Modulus (GPa) = 31.38671 55.71076 43.54874
#
# Velocity S-wave (km/s) = 3.30819 4.40745 3.89678
# Velocity P-wave (km/s) = 6.86082 7.99173 7.44777
#
# Compressibility (1/GPa) = 0.01073585
#
# Stress axis : x y z
#
# Youngs Moduli (GPa) = 47.90911 92.42222 76.25194
#
# Poissons Ratio (x) = 0.86086 0.90183
# Poissons Ratio (y) = 0.44625 -0.31307
# Poissons Ratio (z) = 0.56662 -0.37946
#
# Static dielectric constant tensor:
#      x y z
#    x 2.201860 -0.035400 0.051010 
#    y -0.035400 2.185140 -0.002490 
#    z 0.051010 -0.002490 2.293170 
# 
# From -- ./inp_files/176195.got.cif
#   From: 2010.05.17/outbox.cif.g08.bks.cpg/sg2_89_cif.got.tgz:176195.got - 2010.06.03 11:33:40.
