data_PCOD9067761
_publ_section_title
;
Structure prediction by ZEFSAII (Michael W. Deem and Ramdas Pophale) SiO2 
 PCOD9067761
Probable space group: P -1
;
_chemical_formula_sum "Si O2"
_cell_formula_units_Z 15
_cell_length_a 8.659757
_cell_length_b 12.172540
_cell_length_c 20.803245
_cell_angle_alpha 145.302280
_cell_angle_beta 138.441285
_cell_angle_gamma 35.900744
_cell_volume 709.387290
_symmetry_space_group_name_H-M "P -1"
_symmetry_group_IT_number 2
_symmetry_cell_setting 'triclinic'
loop_
_space_group_symop_operation_xyz
x,y,z
-x,-y,-z
loop_
_atom_site_type_symbol
_atom_site_label
_atom_site_fract_x
_atom_site_fract_y
_atom_site_fract_z
Si Si1 0.294463 0.772571 0.483880
Si Si2 0.533381 0.720511 0.669629
Si Si3 0.652573 0.774897 0.480973
Si Si4 0.500000 0.500000 0.000000
Si Si5 0.203377 0.588264 0.088788
Si Si6 0.809512 0.985798 0.880486
Si Si7 0.915302 0.109653 0.288911
Si Si8 0.273696 0.639087 0.767673
O O1 0.476744 0.763160 0.596642
O O2 0.290000 0.543149 0.383937
O O3 0.451845 0.759016 0.461350
O O4 0.000000 0.000000 0.500000
O O5 0.667138 0.857654 0.802596
O O6 0.238884 0.826352 0.660973
O O7 0.753988 0.568995 0.364369
O O8 0.884649 0.792494 0.599167
O O9 0.500000 0.000000 0.500000
O O10 0.295686 0.562125 0.030808
O O11 0.401846 0.765991 0.089600
O O12 0.477787 0.447124 0.147901
O O13 0.068573 0.847236 0.194422
O O14 0.000000 0.500000 0.000000
O O15 0.003384 0.828323 0.808736
O O16 0.000000 0.000000 0.000000
O O17 0.693952 0.246196 0.230692
#
# Coordination Sequence:
#
# PCOD9067761 Si02
#       8
#     2   2   2   1   2   2   2   2
#     4  11  26  45  70 108 147 189 241 305 366 448
#     4  11  27  45  72 107 145 192 243 302 375 442
#     4  12  25  46  75 108 149 194 242 299 381 449
#     4  12  26  52  72 108 144 200 250 314 374 436
#     4  12  28  49  76 108 148 194 255 311 373 449
#     4  12  27  47  74 104 145 192 249 305 373 446
#     4  12  25  46  75 106 146 193 241 306 368 449
#     4  12  26  46  73 106 143 193 240 303 377 443
#
# _framework density 21.145008000000001
#
# number of rings (size 3 to 8) (size 9 to 14) (size 15 to 20)
#    0.000    0.267    5.333    2.800    5.600    2.667 
#    0.000    0.000    0.000    0.000    0.000    0.000 
#    0.000    0.000    0.000    0.000    0.000    0.000 
#
# Total GULP energy -83647.452412 kJ/mol
# GULP energy per Si atom -5576.496827 kJ/mol
# Density = 2.109688 g / cm^3
# Si number density = 21.145008 Si / 1000 Ang^3
#
#
#
# Elastic Constant Matrix: (Units=GPa)
#
#
# Indices 1 2 3 4 5 6 
#
# 1 81.4685 21.2060 40.5196 11.2925 -9.7177 1.7978
# 2 21.2060 104.3510 46.7870 33.8248 4.6289 -4.6256
# 3 40.5196 46.7870 122.8082 31.3697 12.2529 -16.1731
# 4 11.2925 33.8248 31.3697 35.1001 -8.8068 -12.6982
# 5 -9.7177 4.6289 12.2529 -8.8068 42.1737 7.0123
# 6 1.7978 -4.6256 -16.1731 -12.6982 7.0123 33.7802
#
#
#
# Elastic Compliance Matrix: (Units=1/GPa)
#
#
# Indices 1 2 3 4 5 6 
#
# 1 0.016822 -0.001633 -0.006950 0.002395 0.007421 -0.005087
# 2 -0.001633 0.015669 -0.001462 -0.015601 -0.004360 -0.003427
# 3 -0.006950 -0.001462 0.015206 -0.010201 -0.008897 0.005462
# 4 0.002395 -0.015601 -0.010201 0.060253 0.015777 0.012226
# 5 0.007421 -0.004360 -0.008897 0.015777 0.032799 -0.006129
# 6 -0.005087 -0.003427 0.005462 0.012226 -0.006129 0.037888
#
#
# Mechanical properties :
#
#
# Convention : Reuss Voigt Hill
#
# Bulk Modulus (GPa) = 36.22388 58.40588 47.31488
# Shear Modulus (GPa) = 24.04677 35.55179 29.79928
#
# Velocity S-wave (km/s) = 3.37594 4.10485 3.75811
# Velocity P-wave (km/s) = 5.68897 7.08152 6.42310
#
# Compressibility (1/GPa) = 0.02760610
#
# Stress axis : x y z
#
# Youngs Moduli (GPa) = 59.44615 63.82046 65.76538
#
# Poissons Ratio (x) = 0.10424 0.45707
# Poissons Ratio (y) = 0.09710 0.09613
# Poissons Ratio (z) = 0.41315 0.09329
#
# Static dielectric constant tensor:
#      x y z
#    x 1.739840 0.001630 -0.029170 
#    y 0.001630 1.768370 -0.029040 
#    z -0.029170 -0.029040 1.758010 
# 
# From -- ./inp_files/589290.got.cif
#   From: 2010.05.17/outbox.cif.g08.bks.cpg/sg2_295_cif.got.tgz:589290.got - 2010.06.03 11:33:40.
