data_PCOD9067473
_publ_section_title
;
Structure prediction by ZEFSAII (Michael W. Deem and Ramdas Pophale) SiO2 
 PCOD9067473
Probable space group: P -1
;
_chemical_formula_sum "Si O2"
_cell_formula_units_Z 10
_cell_length_a 10.921348
_cell_length_b 9.283147
_cell_length_c 6.895854
_cell_angle_alpha 105.298449
_cell_angle_beta 122.911861
_cell_angle_gamma 42.490626
_cell_volume 384.739964
_symmetry_space_group_name_H-M "P -1"
_symmetry_group_IT_number 2
_symmetry_cell_setting 'triclinic'
loop_
_space_group_symop_operation_xyz
x,y,z
-x,-y,-z
loop_
_atom_site_type_symbol
_atom_site_label
_atom_site_fract_x
_atom_site_fract_y
_atom_site_fract_z
Si Si1 0.076216 0.539636 0.295641
Si Si2 0.231648 0.464509 0.841815
Si Si3 0.467784 0.858860 0.511993
Si Si4 0.697317 0.039894 0.176681
Si Si5 0.224786 0.808753 0.018880
O O1 0.156740 0.522042 0.574518
O O2 0.294461 0.373566 0.304494
O O3 0.970371 0.456426 0.194975
O O4 0.878687 0.793912 0.163403
O O5 0.449152 0.203785 0.956873
O O6 0.283770 0.591597 0.000190
O O7 0.313440 0.968368 0.604087
O O8 0.380005 0.805950 0.263597
O O9 0.500000 0.000000 0.500000
O O10 0.768526 0.144000 0.182567
O O11 0.000000 0.000000 0.000000
#
# Coordination Sequence:
#
# PCOD9067473 Si02
#       5
#     2   2   2   2   2
#     4  11  25  49  80 110 151 199 258 308 371 458
#     4  11  25  51  75 113 156 196 253 316 373 454
#     4  12  28  50  79 116 152 196 262 311 372 462
#     4  12  28  49  82 110 152 206 249 311 386 442
#     4  12  28  51  77 113 159 198 252 318 377 448
#
# _framework density 25.991579999999999
#
# number of rings (size 3 to 8) (size 9 to 14) (size 15 to 20)
#    0.000    0.400    2.000    6.000    5.600    4.800 
#    0.000    0.000    0.000    0.000    0.000    0.000 
#    0.000    0.000    0.000    0.000    0.000    0.000 
#
# Total GULP energy -56081.598338 kJ/mol
# GULP energy per Si atom -5608.159834 kJ/mol
# Density = 2.593242 g / cm^3
# Si number density = 25.991580 Si / 1000 Ang^3
#
#
#
# Elastic Constant Matrix: (Units=GPa)
#
#
# Indices 1 2 3 4 5 6 
#
# 1 164.1931 65.9252 23.8522 -1.9493 13.8510 3.2894
# 2 65.9252 166.1021 58.6158 -10.8721 16.7774 2.1403
# 3 23.8522 58.6158 128.1030 8.2665 16.4177 12.8187
# 4 -1.9493 -10.8721 8.2665 51.2955 -4.4707 17.6192
# 5 13.8510 16.7774 16.4177 -4.4707 44.6120 0.1294
# 6 3.2894 2.1403 12.8187 17.6192 0.1294 56.9815
#
#
#
# Elastic Compliance Matrix: (Units=1/GPa)
#
#
# Indices 1 2 3 4 5 6 
#
# 1 0.007322 -0.002853 0.000156 -0.000386 -0.001296 -0.000228
# 2 -0.002853 0.008595 -0.003427 0.002214 -0.000863 -0.000070
# 3 0.000156 -0.003427 0.009962 -0.002045 -0.002626 -0.001483
# 4 -0.000386 0.002214 -0.002045 0.022766 0.002340 -0.006645
# 5 -0.001296 -0.000863 -0.002626 0.002340 0.024344 -0.000081
# 6 -0.000228 -0.000070 -0.001483 -0.006645 -0.000081 0.019954
#
#
# Mechanical properties :
#
#
# Convention : Reuss Voigt Hill
#
# Bulk Modulus (GPa) = 73.35631 83.90940 78.63285
# Shear Modulus (GPa) = 45.56438 51.24481 48.40459
#
# Velocity S-wave (km/s) = 4.19148 4.44508 4.32014
# Velocity P-wave (km/s) = 7.19090 7.66149 7.42992
#
# Compressibility (1/GPa) = 0.01363209
#
# Stress axis : x y z
#
# Youngs Moduli (GPa) = 136.56651 116.34754 100.37907
#
# Poissons Ratio (x) = 0.33189 -0.01563
# Poissons Ratio (y) = 0.38957 0.34398
# Poissons Ratio (z) = -0.02126 0.39871
#
# Static dielectric constant tensor:
#      x y z
#    x 2.035410 0.004160 -0.071900 
#    y 0.004160 2.013840 0.006640 
#    z -0.071900 0.006640 2.074900 
# 
# From -- ./inp_files/146090.got.cif
#   From: 2010.05.17/outbox.cif.g08.bks.cpg/sg2_74_cif.got.tgz:146090.got - 2010.06.03 11:33:40.
