data_PCOD9067678
_publ_section_title
;
Structure prediction by ZEFSAII (Michael W. Deem and Ramdas Pophale) SiO2 
 PCOD9067678
Probable space group: P -1
;
_chemical_formula_sum "Si O2"
_cell_formula_units_Z 12
_cell_length_a 18.876936
_cell_length_b 5.023877
_cell_length_c 13.414566
_cell_angle_alpha 90.927484
_cell_angle_beta 28.765844
_cell_angle_gamma 106.233089
_cell_volume 510.630560
_symmetry_space_group_name_H-M "P -1"
_symmetry_group_IT_number 2
_symmetry_cell_setting 'triclinic'
loop_
_space_group_symop_operation_xyz
x,y,z
-x,-y,-z
loop_
_atom_site_type_symbol
_atom_site_label
_atom_site_fract_x
_atom_site_fract_y
_atom_site_fract_z
Si Si1 0.171020 0.816706 0.027033
Si Si2 0.929862 0.636738 0.003571
Si Si3 0.486173 0.967173 0.279080
Si Si4 0.178882 0.242168 0.578506
Si Si5 0.655167 0.766577 0.376982
Si Si6 0.455111 0.208007 0.123827
O O1 0.127835 0.476543 0.041864
O O2 0.981665 0.763301 0.278137
O O3 0.338772 0.003269 0.892993
O O4 0.227439 0.964424 0.847409
O O5 0.761920 0.601958 0.260986
O O6 0.090883 0.995546 0.778530
O O7 0.000000 0.500000 0.000000
O O8 0.336399 0.610305 0.418416
O O9 0.413862 0.099283 0.453475
O O10 0.547259 0.220122 0.114613
O O11 0.264100 0.104005 0.401360
O O12 0.500000 0.500000 0.500000
O O13 0.500000 0.500000 0.000000
O O14 0.500000 0.000000 0.000000
#
# Coordination Sequence:
#
# PCOD9067678 Si02
#       6
#     2   2   2   2   2   2
#     4  11  27  45  71 120 158 205 262 308 395 487
#     4  11  27  44  70 116 165 212 260 311 389 478
#     4  12  27  49  83 111 160 213 262 330 394 464
#     4  11  28  50  80 109 161 202 267 330 398 462
#     4  11  26  43  72 113 163 209 260 308 384 484
#     4  12  28  53  86 117 149 205 273 340 410 463
#
# _framework density 23.500354999999999
#
# number of rings (size 3 to 8) (size 9 to 14) (size 15 to 20)
#    0.000    0.667    3.333    1.500    9.333    3.333 
#    0.000    1.667    0.000    0.000    0.000    0.000 
#    0.000    0.000    0.000    0.000    0.000    0.000 
#
# Total GULP energy -66854.045365 kJ/mol
# GULP energy per Si atom -5571.170447 kJ/mol
# Density = 2.344687 g / cm^3
# Si number density = 23.500355 Si / 1000 Ang^3
#
#
#
# Elastic Constant Matrix: (Units=GPa)
#
#
# Indices 1 2 3 4 5 6 
#
# 1 158.0630 43.3245 86.7427 -0.5462 -21.4951 -19.5533
# 2 43.3245 107.4651 62.0605 18.3742 -7.9009 0.5685
# 3 86.7427 62.0605 143.8041 38.3260 -32.5532 14.3679
# 4 -0.5462 18.3742 38.3260 51.3348 -3.4335 0.4262
# 5 -21.4951 -7.9009 -32.5532 -3.4335 57.1225 -7.5030
# 6 -19.5533 0.5685 14.3679 0.4262 -7.5030 38.9000
#
#
#
# Elastic Compliance Matrix: (Units=1/GPa)
#
#
# Indices 1 2 3 4 5 6 
#
# 1 0.014824 -0.000507 -0.012301 0.009466 0.000646 0.012023
# 2 -0.000507 0.012643 -0.005449 -0.000568 -0.001410 0.001307
# 3 -0.012301 -0.005449 0.023279 -0.015100 0.005198 -0.013533
# 4 0.009466 -0.000568 -0.015100 0.030844 -0.002004 0.009620
# 5 0.000646 -0.001410 0.005198 -0.002004 0.020717 0.002443
# 6 0.012023 0.001307 -0.013533 0.009620 0.002443 0.037096
#
#
# Mechanical properties :
#
#
# Convention : Reuss Voigt Hill
#
# Bulk Modulus (GPa) = 70.26351 88.17640 79.21996
# Shear Modulus (GPa) = 27.67624 43.95177 35.81400
#
# Velocity S-wave (km/s) = 3.43548 4.32934 3.90805
# Velocity P-wave (km/s) = 6.76021 7.91162 7.35847
#
# Compressibility (1/GPa) = 0.01423214
#
# Stress axis : x y z
#
# Youngs Moduli (GPa) = 67.45739 79.09573 42.95783
#
# Poissons Ratio (x) = 0.04012 0.52842
# Poissons Ratio (y) = 0.03422 0.23406
# Poissons Ratio (z) = 0.82979 0.43096
#
# Static dielectric constant tensor:
#      x y z
#    x 2.016890 0.026110 -0.054390 
#    y 0.026110 1.913290 0.096260 
#    z -0.054390 0.096260 1.856310 
# 
# From -- ./inp_files/31676.got.cif
#   From: 2010.05.17/outbox.cif.g08.bks.cpg/sg2_16_cif.got.tgz:31676.got - 2010.06.03 11:33:40.
