data_PCOD9067725
_publ_section_title
;
Structure prediction by ZEFSAII (Michael W. Deem and Ramdas Pophale) SiO2 
 PCOD9067725
Probable space group: P -1
;
_chemical_formula_sum "Si O2"
_cell_formula_units_Z 16
_cell_length_a 12.079134
_cell_length_b 9.225986
_cell_length_c 14.571979
_cell_angle_alpha 84.627546
_cell_angle_beta 30.011143
_cell_angle_gamma 72.864700
_cell_volume 730.534750
_symmetry_space_group_name_H-M "P -1"
_symmetry_group_IT_number 2
_symmetry_cell_setting 'triclinic'
loop_
_space_group_symop_operation_xyz
x,y,z
-x,-y,-z
loop_
_atom_site_type_symbol
_atom_site_label
_atom_site_fract_x
_atom_site_fract_y
_atom_site_fract_z
Si Si1 0.029968 0.322640 0.019489
Si Si2 0.761165 0.247175 0.478855
Si Si3 0.479281 0.370197 0.390830
Si Si4 0.221237 0.254263 0.095730
Si Si5 0.713113 0.062999 0.684368
Si Si6 0.253843 0.483217 0.200449
Si Si7 0.562411 0.838010 0.410315
Si Si8 0.261527 0.266648 0.380402
O O1 0.129328 0.282359 0.054647
O O2 0.768656 0.316596 0.198970
O O3 0.226349 0.202267 0.814188
O O4 0.000000 0.500000 0.000000
O O5 0.643771 0.436536 0.532360
O O6 0.659639 0.215558 0.648250
O O7 0.675942 0.155228 0.471031
O O8 0.050709 0.186995 0.274391
O O9 0.374183 0.305685 0.553896
O O10 0.415570 0.302109 0.347510
O O11 0.177467 0.419419 0.167294
O O12 0.506897 0.135973 0.904845
O O13 0.672138 0.919364 0.673383
O O14 0.000000 0.000000 0.500000
O O15 0.292150 0.351831 0.260448
O O16 0.024946 0.643433 0.389901
O O17 0.500000 0.500000 0.000000
O O18 0.500000 0.000000 0.500000
#
# Coordination Sequence:
#
# PCOD9067725 Si02
#       8
#     2   2   2   2   2   2   2   2
#     4  12  25  43  74 107 140 192 238 285 364 437
#     4  12  24  46  72 103 145 190 236 294 358 428
#     4  12  25  45  78 106 147 189 237 297 356 435
#     4  12  25  45  73 104 141 189 243 289 357 438
#     4  12  27  46  73 102 146 191 240 301 359 414
#     4  11  26  44  74 102 140 190 242 295 356 418
#     4  12  26  44  71 109 147 186 235 294 361 423
#     4  11  27  47  68 109 144 181 243 302 350 419
#
# _framework density 21.901764
#
# number of rings (size 3 to 8) (size 9 to 14) (size 15 to 20)
#    0.000    0.250    5.000    3.375    5.250    4.500 
#    0.000    0.000    0.000    0.000    0.000    0.000 
#    0.000    0.000    0.000    0.000    0.000    0.000 
#
# Total GULP energy -89566.053828 kJ/mol
# GULP energy per Si atom -5597.878364 kJ/mol
# Density = 2.185191 g / cm^3
# Si number density = 21.901764 Si / 1000 Ang^3
#
#
#
# Elastic Constant Matrix: (Units=GPa)
#
#
# Indices 1 2 3 4 5 6 
#
# 1 64.6715 -5.5654 22.6685 -16.2765 -3.7767 11.8503
# 2 -5.5654 59.3078 31.1315 -7.8515 5.4212 5.1980
# 3 22.6685 31.1315 157.1523 -15.3443 -3.4924 7.3456
# 4 -16.2765 -7.8515 -15.3443 30.2789 5.7523 3.5408
# 5 -3.7767 5.4212 -3.4924 5.7523 39.4456 -2.6821
# 6 11.8503 5.1980 7.3456 3.5408 -2.6821 37.6159
#
#
#
# Elastic Compliance Matrix: (Units=1/GPa)
#
#
# Indices 1 2 3 4 5 6 
#
# 1 0.021708 0.006070 -0.002685 0.013160 -0.001490 -0.008498
# 2 0.006070 0.021559 -0.004207 0.008138 -0.004291 -0.005142
# 3 -0.002685 -0.004207 0.007730 0.001245 0.000814 -0.000142
# 4 0.013160 0.008138 0.001245 0.045387 -0.007067 -0.010290
# 5 -0.001490 -0.004291 0.000814 -0.007067 0.027139 0.003504
# 6 -0.008498 -0.005142 -0.000142 -0.010290 0.003504 0.031218
#
#
# Mechanical properties :
#
#
# Convention : Reuss Voigt Hill
#
# Bulk Modulus (GPa) = 20.26188 41.95564 31.10876
# Shear Modulus (GPa) = 28.92892 36.99455 32.96173
#
# Velocity S-wave (km/s) = 3.63829 4.11434 3.88362
# Velocity P-wave (km/s) = 5.18853 6.46284 5.86042
#
# Compressibility (1/GPa) = 0.04935375
#
# Stress axis : x y z
#
# Youngs Moduli (GPa) = 46.06528 46.38416 129.36353
#
# Poissons Ratio (x) = -0.28153 0.34730
# Poissons Ratio (y) = -0.27959 0.54420
# Poissons Ratio (z) = 0.12367 0.19513
#
# Static dielectric constant tensor:
#      x y z
#    x 1.833560 -0.037200 -0.018480 
#    y -0.037200 1.765720 0.006230 
#    z -0.018480 0.006230 1.783980 
# 
# From -- ./inp_files/515602.got.cif
#   From: 2010.05.17/outbox.cif.g08.bks.cpg/sg2_258_cif.got.tgz:515602.got - 2010.06.03 11:33:40.
