data_PCOD9067853
_publ_section_title
;
Structure prediction by ZEFSAII (Michael W. Deem and Ramdas Pophale) SiO2 
 PCOD9067853
Probable space group: P -1
;
_chemical_formula_sum "Si O2"
_cell_formula_units_Z 12
_cell_length_a 6.761012
_cell_length_b 14.741818
_cell_length_c 9.592696
_cell_angle_alpha 60.979493
_cell_angle_beta 74.304998
_cell_angle_gamma 119.403126
_cell_volume 542.189814
_symmetry_space_group_name_H-M "P -1"
_symmetry_group_IT_number 2
_symmetry_cell_setting 'triclinic'
loop_
_space_group_symop_operation_xyz
x,y,z
-x,-y,-z
loop_
_atom_site_type_symbol
_atom_site_label
_atom_site_fract_x
_atom_site_fract_y
_atom_site_fract_z
Si Si1 0.615830 0.609870 0.591631
Si Si2 0.609128 0.943660 0.428856
Si Si3 0.353954 0.605021 0.375058
Si Si4 0.317910 0.927668 0.231949
Si Si5 0.316548 0.166167 0.090527
Si Si6 0.359749 0.642457 0.846624
O O1 0.432158 0.613233 0.514774
O O2 0.565259 0.472760 0.660069
O O3 0.971858 0.766280 0.390575
O O4 0.513145 0.601760 0.771642
O O5 0.467992 0.907347 0.330108
O O6 0.491885 0.793776 0.631455
O O7 0.500000 0.000000 0.500000
O O8 0.974347 0.077245 0.247149
O O9 0.000000 0.500000 0.500000
O O10 0.564559 0.767666 0.137244
O O11 0.320990 0.044962 0.206205
O O12 0.500000 0.000000 0.000000
O O13 0.542674 0.307112 0.049883
O O14 0.000000 0.500000 0.000000
#
# Coordination Sequence:
#
# PCOD9067853 Si02
#       6
#     2   2   2   2   2   2
#     4  11  26  46  68 105 139 181 235 284 343 417
#     4  12  26  47  72 100 143 184 228 290 345 407
#     4  11  26  46  71 101 145 182 228 288 348 409
#     4  12  26  44  74 103 138 182 234 282 349 412
#     4  12  26  47  70 105 140 179 235 290 339 414
#     4  12  27  46  72 103 140 184 235 284 349 410
#
# _framework density 22.132470000000001
#
# number of rings (size 3 to 8) (size 9 to 14) (size 15 to 20)
#    0.000    0.333    3.333    4.500    9.333    4.667 
#    0.000    0.000    0.000    0.000    0.000    0.000 
#    0.000    0.000    0.000    0.000    0.000    0.000 
#
# Total GULP energy -67255.896637 kJ/mol
# GULP energy per Si atom -5604.658053 kJ/mol
# Density = 2.208210 g / cm^3
# Si number density = 22.132470 Si / 1000 Ang^3
#
#
#
# Elastic Constant Matrix: (Units=GPa)
#
#
# Indices 1 2 3 4 5 6 
#
# 1 87.4224 9.0723 16.5754 1.9583 -8.6055 21.9208
# 2 9.0723 66.6707 -14.1482 3.7064 -1.2290 9.5337
# 3 16.5754 -14.1482 74.8979 -8.2573 -10.4626 14.8178
# 4 1.9583 3.7064 -8.2573 41.7145 8.5459 -6.7410
# 5 -8.6055 -1.2290 -10.4626 8.5459 50.2574 -2.9747
# 6 21.9208 9.5337 14.8178 -6.7410 -2.9747 53.5233
#
#
#
# Elastic Compliance Matrix: (Units=1/GPa)
#
#
# Indices 1 2 3 4 5 6 
#
# 1 0.013454 -0.001481 -0.002284 -0.002106 0.001868 -0.004776
# 2 -0.001481 0.016710 0.004200 -0.001389 0.001049 -0.003649
# 3 -0.002284 0.004200 0.015960 0.001754 0.002507 -0.003871
# 4 -0.002106 -0.001389 0.001754 0.026001 -0.004234 0.003664
# 5 0.001868 0.001049 0.002507 -0.004234 0.021426 -0.000988
# 6 -0.004776 -0.003649 -0.003871 0.003664 -0.000988 0.022767
#
#
# Mechanical properties :
#
#
# Convention : Reuss Voigt Hill
#
# Bulk Modulus (GPa) = 21.27938 27.99890 24.63914
# Shear Modulus (GPa) = 38.13493 43.59848 40.86670
#
# Velocity S-wave (km/s) = 4.15544 4.44316 4.30171
# Velocity P-wave (km/s) = 5.71481 6.24502 5.98579
#
# Compressibility (1/GPa) = 0.04699386
#
# Stress axis : x y z
#
# Youngs Moduli (GPa) = 74.32809 59.84359 62.65810
#
# Poissons Ratio (x) = 0.08863 0.14309
# Poissons Ratio (y) = 0.11008 -0.26315
# Poissons Ratio (z) = 0.16975 -0.25133
#
# Static dielectric constant tensor:
#      x y z
#    x 1.781740 -0.022630 0.020880 
#    y -0.022630 1.799510 0.021290 
#    z 0.020880 0.021290 1.751650 
# 
# From -- ./inp_files/134819.got.cif
#   From: 2010.05.17/outbox.cif.g08.bks.cpg/sg2_68_cif.got.tgz:134819.got - 2010.06.03 11:33:40.
