data_PCOD9067337
_publ_section_title
;
Structure prediction by ZEFSAII (Michael W. Deem and Ramdas Pophale) SiO2 
 PCOD9067337
Probable space group: P -1
;
_chemical_formula_sum "Si O2"
_cell_formula_units_Z 16
_cell_length_a 5.530493
_cell_length_b 17.783034
_cell_length_c 11.872677
_cell_angle_alpha 51.075511
_cell_angle_beta 49.573108
_cell_angle_gamma 70.246593
_cell_volume 686.742443
_symmetry_space_group_name_H-M "P -1"
_symmetry_group_IT_number 2
_symmetry_cell_setting 'triclinic'
loop_
_space_group_symop_operation_xyz
x,y,z
-x,-y,-z
loop_
_atom_site_type_symbol
_atom_site_label
_atom_site_fract_x
_atom_site_fract_y
_atom_site_fract_z
Si Si1 0.272457 0.877090 0.976962
Si Si2 0.310451 0.384866 0.415573
Si Si3 0.411121 0.082135 0.806278
Si Si4 0.421488 0.563125 0.070911
Si Si5 0.599446 0.200631 0.433828
Si Si6 0.245489 0.405155 0.669686
Si Si7 0.337603 0.215524 0.244035
Si Si8 0.718499 0.253904 0.691348
O O1 0.224772 0.790462 0.162688
O O2 0.922043 0.910782 0.035358
O O3 0.439866 0.840700 0.851541
O O4 0.476020 0.971128 0.883476
O O5 0.461176 0.490155 0.230963
O O6 0.556558 0.305604 0.404230
O O7 0.159425 0.393200 0.575734
O O8 0.004921 0.333190 0.487604
O O9 0.387927 0.120976 0.648808
O O10 0.664703 0.161757 0.712368
O O11 0.051145 0.580799 0.175874
O O12 0.500000 0.500000 0.000000
O O13 0.612333 0.669342 0.909365
O O14 0.464772 0.202621 0.345445
O O15 0.966998 0.181759 0.357381
O O16 0.500000 0.500000 0.500000
O O17 0.409472 0.310375 0.740040
#
# Coordination Sequence:
#
# PCOD9067337 Si02
#       8
#     2   2   2   2   2   2   2   2
#     4  11  27  47  76 112 142 193 254 327 372 453
#     4  12  25  46  71 106 146 199 255 301 370 449
#     4  11  25  48  80 106 142 195 261 310 384 448
#     4  12  27  45  68 112 150 196 247 307 367 451
#     4  12  27  50  78 106 155 208 244 312 381 458
#     4  12  27  42  76 104 143 204 252 306 369 453
#     4  12  30  50  73 113 159 200 251 310 388 443
#     4  12  22  46  76 108 147 190 255 314 375 442
#
# _framework density 23.298399
#
# number of rings (size 3 to 8) (size 9 to 14) (size 15 to 20)
#    0.000    0.250    5.000    3.000    7.000    1.500 
#    0.000    0.000    0.000    0.000    0.000    0.000 
#    0.000    0.000    0.000    0.000    0.000    0.000 
#
# Total GULP energy -89537.319918 kJ/mol
# GULP energy per Si atom -5596.082495 kJ/mol
# Density = 2.324537 g / cm^3
# Si number density = 23.298399 Si / 1000 Ang^3
#
#
#
# Elastic Constant Matrix: (Units=GPa)
#
#
# Indices 1 2 3 4 5 6 
#
# 1 75.5205 25.3760 34.5381 11.5317 1.3166 7.5078
# 2 25.3760 141.7408 50.1274 17.6609 -0.8569 6.0122
# 3 34.5381 50.1274 92.3504 9.7067 2.6818 -7.8234
# 4 11.5317 17.6609 9.7067 49.9027 -5.1407 -6.5125
# 5 1.3166 -0.8569 2.6818 -5.1407 26.3103 -4.3725
# 6 7.5078 6.0122 -7.8234 -6.5125 -4.3725 29.7554
#
#
#
# Elastic Compliance Matrix: (Units=1/GPa)
#
#
# Indices 1 2 3 4 5 6 
#
# 1 0.017729 0.000029 -0.006795 -0.003987 -0.002213 -0.007464
# 2 0.000029 0.009387 -0.005125 -0.002887 -0.000392 -0.003941
# 3 -0.006795 -0.005125 0.016662 0.001094 -0.000089 0.007357
# 4 -0.003987 -0.002887 0.001094 0.023400 0.005873 0.007861
# 5 -0.002213 -0.000392 -0.000089 0.005873 0.040569 0.007861
# 6 -0.007464 -0.003941 0.007357 0.007861 0.007861 0.041097
#
#
# Mechanical properties :
#
#
# Convention : Reuss Voigt Hill
#
# Bulk Modulus (GPa) = 50.01033 58.85496 54.43265
# Shear Modulus (GPa) = 27.88758 34.49837 31.19298
#
# Velocity S-wave (km/s) = 3.46348 3.85219 3.66299
# Velocity P-wave (km/s) = 6.12422 6.71580 6.42682
#
# Compressibility (1/GPa) = 0.01999587
#
# Stress axis : x y z
#
# Youngs Moduli (GPa) = 56.40579 106.53135 60.01541
#
# Poissons Ratio (x) = -0.00311 0.40781
# Poissons Ratio (y) = -0.00164 0.30759
# Poissons Ratio (z) = 0.38328 0.54599
#
# Static dielectric constant tensor:
#      x y z
#    x 1.960400 0.036520 0.001500 
#    y 0.036520 1.872390 0.002870 
#    z 0.001500 0.002870 1.885720 
# 
# From -- ./inp_files/37830.got.cif
#   From: 2010.05.17/outbox.cif.g08.bks.cpg/sg2_19_cif.got.tgz:37830.got - 2010.06.03 11:33:40.
