data_PCOD9067251
_publ_section_title
;
Structure prediction by ZEFSAII (Michael W. Deem and Ramdas Pophale) SiO2 
 PCOD9067251
Probable space group: P -1
;
_chemical_formula_sum "Si O2"
_cell_formula_units_Z 12
_cell_length_a 5.050119
_cell_length_b 7.683987
_cell_length_c 24.745261
_cell_angle_alpha 146.023240
_cell_angle_beta 60.741111
_cell_angle_gamma 107.030559
_cell_volume 455.556027
_symmetry_space_group_name_H-M "P -1"
_symmetry_group_IT_number 2
_symmetry_cell_setting 'triclinic'
loop_
_space_group_symop_operation_xyz
x,y,z
-x,-y,-z
loop_
_atom_site_type_symbol
_atom_site_label
_atom_site_fract_x
_atom_site_fract_y
_atom_site_fract_z
Si Si1 0.218907 0.744478 0.374305
Si Si2 0.497526 0.730721 0.232188
Si Si3 0.820434 0.691472 0.917840
Si Si4 0.081797 0.162123 0.938365
Si Si5 0.635285 0.567705 0.560509
Si Si6 0.271939 0.570948 0.690800
O O1 0.242786 0.816840 0.327498
O O2 0.579221 0.662979 0.334753
O O3 0.051765 0.446465 0.310073
O O4 0.000000 0.000000 0.500000
O O5 0.355749 0.560121 0.154640
O O6 0.820386 0.499412 0.157706
O O7 0.541694 0.084214 0.309433
O O8 0.719604 0.795937 0.016567
O O9 0.837016 0.974488 0.945462
O O10 0.233275 0.905008 0.812245
O O11 0.000000 0.500000 0.000000
O O12 0.500000 0.500000 0.500000
O O13 0.532051 0.389661 0.575088
O O14 0.000000 0.500000 0.500000
#
# Coordination Sequence:
#
# PCOD9067251 Si02
#       6
#     2   2   2   2   2   2
#     4  12  24  43  71 101 138 186 234 295 357 430
#     4  12  23  48  70 102 147 192 237 303 370 433
#     4  11  26  47  73 108 148 193 248 302 369 441
#     4  11  25  48  75 109 150 196 247 308 371 438
#     4  12  26  45  70 106 144 189 241 302 371 436
#     4  12  25  46  68 106 140 181 246 292 357 447
#
# _framework density 26.341434
#
# number of rings (size 3 to 8) (size 9 to 14) (size 15 to 20)
#    0.000    0.333    3.333    5.500    0.000    5.333 
#    0.000    5.000    0.000    0.000    0.000    0.000 
#    0.000    0.000    0.000    0.000    0.000    0.000 
#
# Total GULP energy -66948.053052 kJ/mol
# GULP energy per Si atom -5579.004421 kJ/mol
# Density = 2.628148 g / cm^3
# Si number density = 26.341434 Si / 1000 Ang^3
#
#
#
# Elastic Constant Matrix: (Units=GPa)
#
#
# Indices 1 2 3 4 5 6 
#
# 1 137.1287 33.3387 63.4419 0.2177 27.7107 -11.4723
# 2 33.3387 84.1258 55.5584 -23.4030 7.4838 -25.2047
# 3 63.4419 55.5584 217.2934 -18.4389 35.2895 -19.1963
# 4 0.2177 -23.4030 -18.4389 65.5197 -8.9909 -6.2417
# 5 27.7107 7.4838 35.2895 -8.9909 48.7788 -12.8650
# 6 -11.4723 -25.2047 -19.1963 -6.2417 -12.8650 23.2957
#
#
#
# Elastic Compliance Matrix: (Units=1/GPa)
#
#
# Indices 1 2 3 4 5 6 
#
# 1 0.010034 -0.005684 -0.001392 -0.003995 -0.006393 -0.006956
# 2 -0.005684 0.032775 -0.004063 0.016720 0.015374 0.042284
# 3 -0.001392 -0.004063 0.006469 -0.000341 -0.003848 -0.001967
# 4 -0.003995 0.016720 -0.000341 0.025690 0.012501 0.029628
# 5 -0.006393 0.015374 -0.003848 0.012501 0.035659 0.033357
# 6 -0.006956 0.042284 -0.001967 0.029628 0.033357 0.109989
#
#
# Mechanical properties :
#
#
# Convention : Reuss Voigt Hill
#
# Bulk Modulus (GPa) = 37.03542 82.58063 59.80803
# Shear Modulus (GPa) = 19.84947 46.59942 33.22445
#
# Velocity S-wave (km/s) = 2.74806 4.21058 3.55533
# Velocity P-wave (km/s) = 4.91522 7.42002 6.29349
#
# Compressibility (1/GPa) = 0.02700118
#
# Stress axis : x y z
#
# Youngs Moduli (GPa) = 99.65681 30.51073 154.57266
#
# Poissons Ratio (x) = 0.17344 0.21511
# Poissons Ratio (y) = 0.56649 0.62802
# Poissons Ratio (z) = 0.13869 0.12396
#
# Static dielectric constant tensor:
#      x y z
#    x 1.237980 -0.159140 -0.114000 
#    y -0.159140 2.484760 0.123750 
#    z -0.114000 0.123750 2.055000 
# 
# From -- ./inp_files/615058.got.cif
#   From: 2010.05.17/outbox.cif.g08.bks.cpg/sg2_308_cif.got.tgz:615058.got - 2010.06.03 11:33:40.
