data_PCOD9067365
_publ_section_title
;
Structure prediction by ZEFSAII (Michael W. Deem and Ramdas Pophale) SiO2 
 PCOD9067365
Probable space group: P -1
;
_chemical_formula_sum "Si O2"
_cell_formula_units_Z 13
_cell_length_a 12.155942
_cell_length_b 9.046311
_cell_length_c 9.753340
_cell_angle_alpha 66.121856
_cell_angle_beta 64.110829
_cell_angle_gamma 38.168027
_cell_volume 592.618131
_symmetry_space_group_name_H-M "P -1"
_symmetry_group_IT_number 2
_symmetry_cell_setting 'triclinic'
loop_
_space_group_symop_operation_xyz
x,y,z
-x,-y,-z
loop_
_atom_site_type_symbol
_atom_site_label
_atom_site_fract_x
_atom_site_fract_y
_atom_site_fract_z
Si Si1 0.145520 0.652609 0.639374
Si Si2 0.817437 0.017666 0.477882
Si Si3 0.510183 0.912008 0.378494
Si Si4 0.957614 0.370173 0.008306
Si Si5 0.846245 0.031905 0.136596
Si Si6 0.561157 0.794796 0.943252
Si Si7 0.500000 0.500000 0.000000
O O1 0.299667 0.366368 0.646155
O O2 0.068245 0.718159 0.811690
O O3 0.982913 0.792494 0.566409
O O4 0.221834 0.759415 0.538114
O O5 0.645398 0.070396 0.564154
O O6 0.871232 0.973873 0.304812
O O7 0.500000 0.000000 0.500000
O O8 0.467928 0.098134 0.228498
O O9 0.771860 0.557291 0.953660
O O10 0.000000 0.500000 0.000000
O O11 0.116568 0.165213 0.896367
O O12 0.651417 0.295910 0.107821
O O13 0.000000 0.000000 0.000000
O O14 0.471752 0.704882 0.022100
O O15 0.500000 0.000000 0.000000
#
# Coordination Sequence:
#
# PCOD9067365 Si02
#       7
#     2   2   2   2   2   2   1
#     4  11  25  49  72 103 146 190 242 294 370 431
#     4  11  26  48  72 105 143 193 235 303 361 437
#     4  12  28  46  70 108 147 190 239 302 367 436
#     4  12  25  46  74 106 146 190 247 309 361 436
#     4  12  25  47  75 106 140 187 249 296 363 436
#     4  12  25  48  75 109 147 192 252 301 365 435
#     4  12  26  46  78 108 146 188 242 310 360 432
#
# _framework density 21.936554999999998
#
# number of rings (size 3 to 8) (size 9 to 14) (size 15 to 20)
#    0.000    0.308    4.615    3.231    4.308    1.846 
#    2.769    0.000    0.000    0.000    0.000    0.000 
#    0.000    0.000    0.000    0.000    0.000    0.000 
#
# Total GULP energy -72464.913572 kJ/mol
# GULP energy per Si atom -5574.224121 kJ/mol
# Density = 2.188663 g / cm^3
# Si number density = 21.936555 Si / 1000 Ang^3
#
#
#
# Elastic Constant Matrix: (Units=GPa)
#
#
# Indices 1 2 3 4 5 6 
#
# 1 104.0735 44.3540 20.5874 -14.6774 12.0956 7.1211
# 2 44.3540 120.3436 57.2268 -19.2704 29.2736 -0.2749
# 3 20.5874 57.2268 110.0538 -17.2759 39.5731 -17.1270
# 4 -14.6774 -19.2704 -17.2759 30.4727 -0.9927 12.4716
# 5 12.0956 29.2736 39.5731 -0.9927 50.4037 -10.8114
# 6 7.1211 -0.2749 -17.1270 12.4716 -10.8114 48.9436
#
#
#
# Elastic Compliance Matrix: (Units=1/GPa)
#
#
# Indices 1 2 3 4 5 6 
#
# 1 0.012172 -0.003403 0.000506 0.005327 -0.001968 -0.003405
# 2 -0.003403 0.013657 -0.004640 0.005620 -0.004088 -0.003387
# 3 0.000506 -0.004640 0.015909 0.005173 -0.009370 0.002080
# 4 0.005327 0.005620 0.005173 0.046935 -0.010514 -0.013216
# 5 -0.001968 -0.004088 -0.009370 -0.010514 0.031244 0.006565
# 6 -0.003405 -0.003387 0.002080 -0.013216 0.006565 0.026454
#
#
# Mechanical properties :
#
#
# Convention : Reuss Voigt Hill
#
# Bulk Modulus (GPa) = 37.50253 64.31194 50.90724
# Shear Modulus (GPa) = 29.35484 40.11751 34.73617
#
# Velocity S-wave (km/s) = 3.66207 4.28108 3.98362
# Velocity P-wave (km/s) = 5.91726 7.33606 6.66453
#
# Compressibility (1/GPa) = 0.02666487
#
# Stress axis : x y z
#
# Youngs Moduli (GPa) = 82.15839 73.22498 62.85733
#
# Poissons Ratio (x) = 0.24918 -0.03183
# Poissons Ratio (y) = 0.27958 0.29163
# Poissons Ratio (z) = -0.04161 0.33974
#
# Static dielectric constant tensor:
#      x y z
#    x 1.816270 0.040280 -0.069940 
#    y 0.040280 1.797760 0.009520 
#    z -0.069940 0.009520 1.778450 
# 
# From -- ./inp_files/173855.got.cif
#   From: 2010.05.17/outbox.cif.g08.bks.cpg/sg2_87_cif.got.tgz:173855.got - 2010.06.03 11:33:40.
