data_PCOD9067087
_publ_section_title
;
Structure prediction by ZEFSAII (Michael W. Deem and Ramdas Pophale) SiO2 
 PCOD9067087
Probable space group: P -1
;
_chemical_formula_sum "Si O2"
_cell_formula_units_Z 14
_cell_length_a 16.798267
_cell_length_b 12.324463
_cell_length_c 5.518970
_cell_angle_alpha 55.000712
_cell_angle_beta 49.791538
_cell_angle_gamma 43.062906
_cell_volume 584.321053
_symmetry_space_group_name_H-M "P -1"
_symmetry_group_IT_number 2
_symmetry_cell_setting 'triclinic'
loop_
_space_group_symop_operation_xyz
x,y,z
-x,-y,-z
loop_
_atom_site_type_symbol
_atom_site_label
_atom_site_fract_x
_atom_site_fract_y
_atom_site_fract_z
Si Si1 0.362599 0.661560 0.494891
Si Si2 0.846473 0.763646 0.488362
Si Si3 0.139821 0.935604 0.918555
Si Si4 0.912820 0.498448 0.367486
Si Si5 0.238483 0.630065 0.385953
Si Si6 0.549144 0.684422 0.843703
Si Si7 0.601062 0.809113 0.082498
O O1 0.500000 0.500000 0.500000
O O2 0.262409 0.807902 0.675353
O O3 0.282036 0.601927 0.611139
O O4 0.406652 0.734864 0.106383
O O5 0.828558 0.678073 0.408330
O O6 0.991998 0.633138 0.453710
O O7 0.842168 0.922587 0.245196
O O8 0.739171 0.781441 0.855587
O O9 0.160247 0.820086 0.247837
O O10 0.000000 0.000000 0.000000
O O11 0.842262 0.434081 0.454306
O O12 0.000000 0.500000 0.000000
O O13 0.364674 0.508820 0.134972
O O14 0.567955 0.757004 0.467042
O O15 0.586519 0.729851 0.966180
O O16 0.500000 0.000000 0.000000
#
# Coordination Sequence:
#
# PCOD9067087 Si02
#       7
#     2   2   2   2   2   2   2
#     4  12  28  48  81 116 161 214 277 339 418 496
#     4  11  26  47  75 112 157 207 267 336 408 489
#     4  12  28  50  76 117 166 206 272 342 413 487
#     4  11  25  47  78 108 152 212 270 326 408 497
#     4  12  26  47  80 113 155 215 271 340 407 494
#     4  12  26  49  80 116 155 214 276 341 413 494
#     4  12  27  48  78 116 162 210 276 344 413 487
#
# _framework density 23.959427999999999
#
# number of rings (size 3 to 8) (size 9 to 14) (size 15 to 20)
#    0.000    0.286    4.286    3.429    6.000    1.714 
#    0.000    0.000    0.000    0.000    0.000    0.000 
#    0.000    0.000    0.000    0.000    0.000    0.000 
#
# Total GULP energy -78188.872430 kJ/mol
# GULP energy per Si atom -5584.919459 kJ/mol
# Density = 2.390490 g / cm^3
# Si number density = 23.959428 Si / 1000 Ang^3
#
#
#
# Elastic Constant Matrix: (Units=GPa)
#
#
# Indices 1 2 3 4 5 6 
#
# 1 145.0899 59.5961 21.3987 -18.1392 -6.1756 14.2834
# 2 59.5961 173.8236 41.9145 -20.0756 8.0253 15.8127
# 3 21.3987 41.9145 113.0486 -8.7435 -7.1113 0.9469
# 4 -18.1392 -20.0756 -8.7435 33.0813 -5.5064 -7.8781
# 5 -6.1756 8.0253 -7.1113 -5.5064 40.5961 1.3454
# 6 14.2834 15.8127 0.9469 -7.8781 1.3454 44.3657
#
#
#
# Elastic Compliance Matrix: (Units=1/GPa)
#
#
# Indices 1 2 3 4 5 6 
#
# 1 0.008581 -0.002479 -0.000310 0.003159 0.002216 -0.001379
# 2 -0.002479 0.007612 -0.002312 0.001974 -0.001971 -0.001455
# 3 -0.000310 -0.002312 0.010034 0.001697 0.002367 0.000939
# 4 0.003159 0.001974 0.001697 0.035495 0.005057 0.004393
# 5 0.002216 -0.001971 0.002367 0.005057 0.026459 0.000034
# 6 -0.001379 -0.001455 0.000939 0.004393 0.000034 0.024261
#
#
# Mechanical properties :
#
#
# Convention : Reuss Voigt Hill
#
# Bulk Modulus (GPa) = 62.40395 75.30895 68.85645
# Shear Modulus (GPa) = 39.06659 44.21212 41.63936
#
# Velocity S-wave (km/s) = 4.04236 4.30035 4.17335
# Velocity P-wave (km/s) = 6.92025 7.49382 7.21274
#
# Compressibility (1/GPa) = 0.01602463
#
# Stress axis : x y z
#
# Youngs Moduli (GPa) = 116.53084 131.37283 99.66286
#
# Poissons Ratio (x) = 0.32574 0.03087
# Poissons Ratio (y) = 0.28894 0.23042
# Poissons Ratio (z) = 0.03610 0.30374
#
# Static dielectric constant tensor:
#      x y z
#    x 2.016880 -0.045030 0.023730 
#    y -0.045030 1.982630 -0.019340 
#    z 0.023730 -0.019340 2.014910 
# 
# From -- ./inp_files/109553.got.cif
#   From: 2010.05.17/outbox.cif.g08.bks.cpg/sg2_55_cif.got.tgz:109553.got - 2010.06.03 11:33:40.
