data_PCOD9067699
_publ_section_title
;
Structure prediction by ZEFSAII (Michael W. Deem and Ramdas Pophale) SiO2 
 PCOD9067699
Probable space group: P -1
;
_chemical_formula_sum "Si O2"
_cell_formula_units_Z 14
_cell_length_a 17.228625
_cell_length_b 5.009548
_cell_length_c 16.265527
_cell_angle_alpha 113.338661
_cell_angle_beta 25.204683
_cell_angle_gamma 108.519573
_cell_volume 545.915369
_symmetry_space_group_name_H-M "P -1"
_symmetry_group_IT_number 2
_symmetry_cell_setting 'triclinic'
loop_
_space_group_symop_operation_xyz
x,y,z
-x,-y,-z
loop_
_atom_site_type_symbol
_atom_site_label
_atom_site_fract_x
_atom_site_fract_y
_atom_site_fract_z
Si Si1 0.511496 0.817037 0.211784
Si Si2 0.490911 0.901962 0.590105
Si Si3 0.064232 0.667107 0.728567
Si Si4 0.823029 0.397646 0.203260
Si Si5 0.120422 0.194042 0.355937
Si Si6 0.146351 0.868394 0.118463
Si Si7 0.359483 0.264139 0.284937
O O1 0.525908 0.469632 0.143148
O O2 0.462294 0.859801 0.359973
O O3 0.387531 0.966691 0.274687
O O4 0.668161 0.036097 0.084816
O O5 0.654976 0.645635 0.413080
O O6 0.283475 0.810334 0.778913
O O7 0.500000 0.000000 0.500000
O O8 0.012542 0.966155 0.765890
O O9 0.119629 0.723407 0.776238
O O10 0.205264 0.465660 0.510014
O O11 0.894110 0.465711 0.874821
O O12 0.000000 0.500000 0.000000
O O13 0.146134 0.038700 0.225578
O O14 0.296332 0.219157 0.247111
O O15 0.000000 0.500000 0.500000
O O16 0.000000 0.000000 0.500000
#
# Coordination Sequence:
#
# PCOD9067699 Si02
#       7
#     2   2   2   2   2   2   2
#     4  12  27  45  68 102 140 177 226 283 354 403
#     4  11  26  45  67  99 141 181 227 296 346 406
#     4  12  24  45  71 100 133 183 233 273 345 413
#     4  11  26  44  70 101 136 184 236 286 347 419
#     4  12  23  43  69 102 135 174 231 282 339 404
#     4  12  26  44  71 102 137 179 228 289 337 418
#     4  12  24  44  72  97 136 183 221 280 344 411
#
# _framework density 25.644998999999999
#
# number of rings (size 3 to 8) (size 9 to 14) (size 15 to 20)
#    0.000    0.286    4.286    4.286    6.000    1.714 
#    0.000    0.000    0.000    0.000    0.000    0.000 
#    0.000    0.000    0.000    0.000    0.000    0.000 
#
# Total GULP energy -78361.793424 kJ/mol
# GULP energy per Si atom -5597.270959 kJ/mol
# Density = 2.558663 g / cm^3
# Si number density = 25.644999 Si / 1000 Ang^3
#
#
#
# Elastic Constant Matrix: (Units=GPa)
#
#
# Indices 1 2 3 4 5 6 
#
# 1 229.5732 44.3601 15.8138 5.8689 9.3799 22.1257
# 2 44.3601 113.9252 -6.2370 -17.9567 -7.4086 7.5847
# 3 15.8138 -6.2370 46.7247 -25.6060 -14.0366 8.0143
# 4 5.8689 -17.9567 -25.6060 40.8737 5.1223 -4.7464
# 5 9.3799 -7.4086 -14.0366 5.1223 36.0314 -2.4074
# 6 22.1257 7.5847 8.0143 -4.7464 -2.4074 51.2581
#
#
#
# Elastic Compliance Matrix: (Units=1/GPa)
#
#
# Indices 1 2 3 4 5 6 
#
# 1 0.006218 -0.004140 -0.007625 -0.007122 -0.004545 -0.001752
# 2 -0.004140 0.013794 0.013068 0.013886 0.006985 -0.000683
# 3 -0.007625 0.013068 0.052210 0.036798 0.019614 -0.002477
# 4 -0.007122 0.013886 0.036798 0.053284 0.011519 0.000741
# 5 -0.004545 0.006985 0.019614 0.011519 0.036419 0.000639
# 6 -0.001752 -0.000683 -0.002477 0.000741 0.000639 0.020852
#
#
# Mechanical properties :
#
#
# Convention : Reuss Voigt Hill
#
# Bulk Modulus (GPa) = 13.36414 55.34411 34.35413
# Shear Modulus (GPa) = 24.37674 48.05171 36.21422
#
# Velocity S-wave (km/s) = 3.08644 4.33335 3.76192
# Velocity P-wave (km/s) = 4.23367 6.83118 5.68282
#
# Compressibility (1/GPa) = 0.07482713
#
# Stress axis : x y z
#
# Youngs Moduli (GPa) = 160.83021 72.49770 19.15337
#
# Poissons Ratio (x) = 0.30014 0.14604
# Poissons Ratio (y) = 0.66584 -0.25029
# Poissons Ratio (z) = 1.22632 -0.94738
#
# Static dielectric constant tensor:
#      x y z
#    x 1.933770 0.037290 -0.102270 
#    y 0.037290 2.002520 -0.083140 
#    z -0.102270 -0.083140 2.085750 
# 
# From -- ./inp_files/48776.got.cif
#   From: 2010.05.17/outbox.cif.g08.bks.cpg/sg2_25_cif.got.tgz:48776.got - 2010.06.03 11:33:40.
