data_PCOD9067449
_publ_section_title
;
Structure prediction by ZEFSAII (Michael W. Deem and Ramdas Pophale) SiO2 
 PCOD9067449
Probable space group: P -1
;
_chemical_formula_sum "Si O2"
_cell_formula_units_Z 10
_cell_length_a 12.167176
_cell_length_b 8.686807
_cell_length_c 5.278168
_cell_angle_alpha 119.339852
_cell_angle_beta 63.186378
_cell_angle_gamma 93.164979
_cell_volume 424.050062
_symmetry_space_group_name_H-M "P -1"
_symmetry_group_IT_number 2
_symmetry_cell_setting 'triclinic'
loop_
_space_group_symop_operation_xyz
x,y,z
-x,-y,-z
loop_
_atom_site_type_symbol
_atom_site_label
_atom_site_fract_x
_atom_site_fract_y
_atom_site_fract_z
Si Si1 0.442188 0.160899 0.382057
Si Si2 0.200657 0.423072 0.718678
Si Si3 0.685740 0.092656 0.354575
Si Si4 0.083477 0.118106 0.367202
Si Si5 0.146098 0.659458 0.465177
O O1 0.348191 0.326201 0.483824
O O2 0.560350 0.206099 0.444325
O O3 0.358149 0.071213 0.590875
O O4 0.500000 0.000000 0.000000
O O5 0.123290 0.267946 0.623779
O O6 0.168441 0.562112 0.632860
O O7 0.167383 0.519417 0.098798
O O8 0.753168 0.212853 0.560881
O O9 0.790832 0.006917 0.973125
O O10 0.994248 0.221390 0.321647
O O11 0.000000 0.000000 0.500000
#
# Coordination Sequence:
#
# PCOD9067449 Si02
#       5
#     2   2   2   2   2
#     4  11  25  49  78 100 146 198 256 298 352 450
#     4  12  27  48  74 110 151 193 241 312 375 425
#     4  11  26  48  76 108 143 199 253 295 364 441
#     4  12  25  50  79 107 148 198 247 297 363 455
#     4  12  28  46  74 115 153 187 240 313 377 433
#
# _framework density 23.582121000000001
#
# number of rings (size 3 to 8) (size 9 to 14) (size 15 to 20)
#    0.000    0.400    2.000    5.400    5.600    4.800 
#    0.000    0.000    0.000    0.000    0.000    0.000 
#    0.000    0.000    0.000    0.000    0.000    0.000 
#
# Total GULP energy -56118.360648 kJ/mol
# GULP energy per Si atom -5611.836065 kJ/mol
# Density = 2.352845 g / cm^3
# Si number density = 23.582121 Si / 1000 Ang^3
#
#
#
# Elastic Constant Matrix: (Units=GPa)
#
#
# Indices 1 2 3 4 5 6 
#
# 1 184.0134 53.4825 25.7012 13.5597 -9.5127 9.7869
# 2 53.4825 79.4742 51.2934 -3.0023 -13.0125 -0.2512
# 3 25.7012 51.2934 68.7405 -11.1674 -2.1493 20.4911
# 4 13.5597 -3.0023 -11.1674 34.8395 6.0766 1.2268
# 5 -9.5127 -13.0125 -2.1493 6.0766 45.5413 7.8234
# 6 9.7869 -0.2512 20.4911 1.2268 7.8234 49.5920
#
#
#
# Elastic Compliance Matrix: (Units=1/GPa)
#
#
# Indices 1 2 3 4 5 6 
#
# 1 0.007357 -0.006591 0.002517 -0.002633 0.000561 -0.002549
# 2 -0.006591 0.037058 -0.029699 -0.005314 0.006304 0.012897
# 3 0.002517 -0.029699 0.042866 0.011601 -0.004401 -0.017952
# 4 -0.002633 -0.005314 0.011601 0.034069 -0.005328 -0.004303
# 5 0.000561 0.006304 -0.004401 -0.005328 0.024728 -0.002030
# 6 -0.002549 0.012897 -0.017952 -0.004303 -0.002030 0.028577
#
#
# Mechanical properties :
#
#
# Convention : Reuss Voigt Hill
#
# Bulk Modulus (GPa) = 50.67074 65.90914 58.28994
# Shear Modulus (GPa) = 20.09808 39.44465 29.77136
#
# Velocity S-wave (km/s) = 2.92252 4.09424 3.55696
# Velocity P-wave (km/s) = 5.73774 7.09647 6.45297
#
# Compressibility (1/GPa) = 0.01973526
#
# Stress axis : x y z
#
# Youngs Moduli (GPa) = 135.92338 26.98443 23.32865
#
# Poissons Ratio (x) = 0.17786 -0.05872
# Poissons Ratio (y) = 0.89590 0.69284
# Poissons Ratio (z) = -0.34215 0.80141
#
# Static dielectric constant tensor:
#      x y z
#    x 1.894220 -0.031780 0.016470 
#    y -0.031780 1.888800 0.007290 
#    z 0.016470 0.007290 1.844060 
# 
# From -- ./inp_files/5551.got.cif
#   From: 2010.05.17/outbox.cif.g08.bks.cpg/sg2_3_cif.got.tgz:5551.got - 2010.06.03 11:33:40.
