data_PCOD9067898
_publ_section_title
;
Structure prediction by ZEFSAII (Michael W. Deem and Ramdas Pophale) SiO2 
 PCOD9067898
Probable space group: P -1
;
_chemical_formula_sum "Si O2"
_cell_formula_units_Z 14
_cell_length_a 11.622217
_cell_length_b 14.165391
_cell_length_c 5.187920
_cell_angle_alpha 97.710510
_cell_angle_beta 76.501776
_cell_angle_gamma 137.196560
_cell_volume 563.430610
_symmetry_space_group_name_H-M "P -1"
_symmetry_group_IT_number 2
_symmetry_cell_setting 'triclinic'
loop_
_space_group_symop_operation_xyz
x,y,z
-x,-y,-z
loop_
_atom_site_type_symbol
_atom_site_label
_atom_site_fract_x
_atom_site_fract_y
_atom_site_fract_z
Si Si1 0.786085 0.635824 0.517132
Si Si2 0.901692 0.846571 0.905086
Si Si3 0.603735 0.850521 0.561954
Si Si4 0.774722 0.031152 0.016493
Si Si5 0.723901 0.211805 0.166878
Si Si6 0.440224 0.375537 0.728284
Si Si7 0.936901 0.365724 0.614984
O O1 0.892505 0.791232 0.611491
O O2 0.634708 0.515603 0.756130
O O3 0.661796 0.597077 0.340109
O O4 0.910219 0.619678 0.409496
O O5 0.019513 0.839499 0.997671
O O6 0.701350 0.740765 0.035583
O O7 0.000000 0.000000 0.000000
O O8 0.439606 0.818317 0.707130
O O9 0.549241 0.709598 0.497313
O O10 0.690213 0.940116 0.287523
O O11 0.735757 0.942536 0.760447
O O12 0.693634 0.087210 0.035922
O O13 0.814541 0.251632 0.412450
O O14 0.839478 0.325516 0.920945
O O15 0.000000 0.500000 0.500000
#
# Coordination Sequence:
#
# PCOD9067898 Si02
#       7
#     2   2   2   2   2   2   2
#     4  11  26  48  72 106 149 197 252 308 375 448
#     4  12  24  44  73 105 148 191 247 304 369 446
#     4  12  26  46  72 114 151 196 248 306 377 451
#     4  12  25  44  75 108 154 196 249 308 379 444
#     4  12  25  47  74 107 150 194 252 314 373 440
#     4  11  26  46  72 106 150 198 246 311 373 449
#     4  12  26  48  76 106 145 200 253 311 371 447
#
# _framework density 24.847781000000001
#
# number of rings (size 3 to 8) (size 9 to 14) (size 15 to 20)
#    0.000    0.286    2.857    6.000    2.000    1.143 
#    2.571    0.000    0.000    0.000    0.000    0.000 
#    0.000    0.000    0.000    0.000    0.000    0.000 
#
# Total GULP energy -78328.717106 kJ/mol
# GULP energy per Si atom -5594.908365 kJ/mol
# Density = 2.479123 g / cm^3
# Si number density = 24.847781 Si / 1000 Ang^3
#
#
#
# Elastic Constant Matrix: (Units=GPa)
#
#
# Indices 1 2 3 4 5 6 
#
# 1 109.9840 13.6893 30.4736 -11.0912 -17.2541 1.2975
# 2 13.6893 97.2630 38.4963 5.7561 -10.0214 -1.2830
# 3 30.4736 38.4963 127.2615 -13.9569 -4.1052 6.7472
# 4 -11.0912 5.7561 -13.9569 47.3853 1.3606 -3.5155
# 5 -17.2541 -10.0214 -4.1052 1.3606 44.8432 -2.0296
# 6 1.2975 -1.2830 6.7472 -3.5155 -2.0296 46.3849
#
#
#
# Elastic Compliance Matrix: (Units=1/GPa)
#
#
# Indices 1 2 3 4 5 6 
#
# 1 0.010480 -0.000363 -0.002099 0.001794 0.003718 0.000301
# 2 -0.000363 0.012292 -0.003898 -0.002734 0.002370 0.000814
# 3 -0.002099 -0.003898 0.009889 0.002824 -0.000918 -0.001314
# 4 0.001794 -0.002734 0.002824 0.022783 -0.000300 0.001177
# 5 0.003718 0.002370 -0.000918 -0.000300 0.024236 0.001133
# 6 0.000301 0.000814 -0.001314 0.001177 0.001133 0.021903
#
#
# Mechanical properties :
#
#
# Convention : Reuss Voigt Hill
#
# Bulk Modulus (GPa) = 50.14799 55.53632 52.84215
# Shear Modulus (GPa) = 41.33928 44.51263 42.92596
#
# Velocity S-wave (km/s) = 4.08327 4.23710 4.16090
# Velocity P-wave (km/s) = 6.51588 6.80709 6.66308
#
# Compressibility (1/GPa) = 0.01994098
#
# Stress axis : x y z
#
# Youngs Moduli (GPa) = 95.42302 81.35356 101.12055
#
# Poissons Ratio (x) = 0.02957 0.21222
# Poissons Ratio (y) = 0.03468 0.39415
# Poissons Ratio (z) = 0.20026 0.31710
#
# Static dielectric constant tensor:
#      x y z
#    x 1.940960 -0.041910 0.014080 
#    y -0.041910 2.104000 -0.065970 
#    z 0.014080 -0.065970 2.071890 
# 
# From -- ./inp_files/78106.got.cif
#   From: 2010.05.17/outbox.cif.g08.bks.cpg/sg2_40_cif.got.tgz:78106.got - 2010.06.03 11:33:40.
