data_PCOD9067804
_publ_section_title
;
Structure prediction by ZEFSAII (Michael W. Deem and Ramdas Pophale) SiO2 
 PCOD9067804
Probable space group: P -1
;
_chemical_formula_sum "Si O2"
_cell_formula_units_Z 16
_cell_length_a 8.457859
_cell_length_b 9.988164
_cell_length_c 11.947158
_cell_angle_alpha 130.487727
_cell_angle_beta 79.471333
_cell_angle_gamma 103.336067
_cell_volume 746.160743
_symmetry_space_group_name_H-M "P -1"
_symmetry_group_IT_number 2
_symmetry_cell_setting 'triclinic'
loop_
_space_group_symop_operation_xyz
x,y,z
-x,-y,-z
loop_
_atom_site_type_symbol
_atom_site_label
_atom_site_fract_x
_atom_site_fract_y
_atom_site_fract_z
Si Si1 0.863353 0.123511 0.566686
Si Si2 0.476855 0.522655 0.383988
Si Si3 0.520972 0.812679 0.950331
Si Si4 0.901338 0.815070 0.949658
Si Si5 0.642300 0.281738 0.842878
Si Si6 0.096143 0.520951 0.382681
Si Si7 0.138061 0.380240 0.936443
Si Si8 0.644879 0.791807 0.341419
O O1 0.787170 0.184198 0.724360
O O2 0.924685 0.299007 0.582329
O O3 0.715024 0.998287 0.456339
O O4 0.000000 0.000000 0.500000
O O5 0.500000 0.500000 0.500000
O O6 0.524747 0.353657 0.218107
O O7 0.288047 0.530540 0.387379
O O8 0.579706 0.700363 0.415628
O O9 0.710766 0.818184 0.956623
O O10 0.418824 0.778899 0.059414
O O11 0.500000 0.000000 0.000000
O O12 0.951717 0.650604 0.783424
O O13 0.924483 0.777280 0.056528
O O14 0.000000 0.000000 0.000000
O O15 0.497206 0.245146 0.752328
O O16 0.714348 0.490611 0.951858
O O17 0.000000 0.500000 0.500000
O O18 0.209792 0.307051 0.776513
O O19 0.000000 0.500000 0.000000
#
# Coordination Sequence:
#
# PCOD9067804 Si02
#       8
#     2   2   2   2   2   2   2   2
#     4  12  28  46  73 110 147 190 245 301 365 432
#     4  11  26  46  72 105 144 188 241 296 362 432
#     4  11  26  45  73 107 140 189 240 302 358 424
#     4  11  26  47  70 103 146 189 236 295 365 432
#     4  12  23  49  75 101 146 186 251 302 349 433
#     4  11  27  47  69 100 149 191 232 296 366 430
#     4  12  25  44  75 108 143 188 242 305 360 424
#     4  12  25  45  77 105 138 193 246 294 363 427
#
# _framework density 21.443102
#
# number of rings (size 3 to 8) (size 9 to 14) (size 15 to 20)
#    0.000    0.500    5.000    2.250    7.000    2.000 
#    0.000    0.000    0.000    0.000    0.000    0.000 
#    0.000    0.000    0.000    0.000    0.000    0.000 
#
# Total GULP energy -89632.811232 kJ/mol
# GULP energy per Si atom -5602.050702 kJ/mol
# Density = 2.139430 g / cm^3
# Si number density = 21.443102 Si / 1000 Ang^3
#
#
#
# Elastic Constant Matrix: (Units=GPa)
#
#
# Indices 1 2 3 4 5 6 
#
# 1 57.0498 53.0244 38.0566 -2.0181 -14.2538 1.1384
# 2 53.0244 209.2089 71.5196 -6.0865 -12.9563 10.8545
# 3 38.0566 71.5196 119.8860 -6.6914 -19.3687 12.3744
# 4 -2.0181 -6.0865 -6.6914 48.7645 7.5069 -1.7184
# 5 -14.2538 -12.9563 -19.3687 7.5069 46.8305 1.1414
# 6 1.1384 10.8545 12.3744 -1.7184 1.1414 42.1168
#
#
#
# Elastic Compliance Matrix: (Units=1/GPa)
#
#
# Indices 1 2 3 4 5 6 
#
# 1 0.026464 -0.004827 -0.004991 -0.000859 0.004748 0.001831
# 2 -0.004827 0.006900 -0.002583 0.000380 -0.000668 -0.000855
# 3 -0.004991 -0.002583 0.012248 0.000620 0.002802 -0.002849
# 4 -0.000859 0.000380 0.000620 0.021137 -0.003305 0.000695
# 5 0.004748 -0.000668 0.002802 -0.003305 0.024341 -0.001574
# 6 0.001831 -0.000855 -0.002849 0.000695 -0.001574 0.024822
#
#
# Mechanical properties :
#
#
# Convention : Reuss Voigt Hill
#
# Bulk Modulus (GPa) = 48.05268 79.03840 63.54554
# Shear Modulus (GPa) = 33.86394 42.44530 38.15462
#
# Velocity S-wave (km/s) = 3.97828 4.45391 4.22280
# Velocity P-wave (km/s) = 6.60003 7.96175 7.31265
#
# Compressibility (1/GPa) = 0.02081049
#
# Stress axis : x y z
#
# Youngs Moduli (GPa) = 37.78762 144.92176 81.64899
#
# Poissons Ratio (x) = 0.69955 0.40750
# Poissons Ratio (y) = 0.18240 0.21087
# Poissons Ratio (z) = 0.18859 0.37428
#
# Static dielectric constant tensor:
#      x y z
#    x 1.817060 -0.000650 0.019240 
#    y -0.000650 1.735300 0.002720 
#    z 0.019240 0.002720 1.784360 
# 
# From -- ./inp_files/184291.got.cif
#   From: 2010.05.17/outbox.cif.g08.bks.cpg/sg2_93_cif.got.tgz:184291.got - 2010.06.03 11:33:40.
