data_PCOD9067964
_publ_section_title
;
Structure prediction by ZEFSAII (Michael W. Deem and Ramdas Pophale) SiO2 
 PCOD9067964
Probable space group: P -1
;
_chemical_formula_sum "Si O2"
_cell_formula_units_Z 12
_cell_length_a 5.109731
_cell_length_b 15.075982
_cell_length_c 8.032878
_cell_angle_alpha 67.602062
_cell_angle_beta 56.695381
_cell_angle_gamma 85.256993
_cell_volume 471.704904
_symmetry_space_group_name_H-M "P -1"
_symmetry_group_IT_number 2
_symmetry_cell_setting 'triclinic'
loop_
_space_group_symop_operation_xyz
x,y,z
-x,-y,-z
loop_
_atom_site_type_symbol
_atom_site_label
_atom_site_fract_x
_atom_site_fract_y
_atom_site_fract_z
Si Si1 0.390698 0.932495 0.430122
Si Si2 0.305813 0.510500 0.266262
Si Si3 0.157914 0.608494 0.727549
Si Si4 0.609811 0.772835 0.277207
Si Si5 0.320012 0.126079 0.175927
Si Si6 0.217038 0.700091 0.004277
O O1 0.617329 0.858103 0.349099
O O2 0.037883 0.877573 0.632419
O O3 0.500000 0.000000 0.500000
O O4 0.373215 0.014779 0.237641
O O5 0.162179 0.448382 0.199823
O O6 0.000000 0.500000 0.500000
O O7 0.590136 0.465828 0.282329
O O8 0.375732 0.622685 0.108754
O O9 0.311008 0.692538 0.487242
O O10 0.129670 0.655894 0.884389
O O11 0.912453 0.719570 0.199455
O O12 0.609785 0.825514 0.062416
O O13 0.552448 0.197409 0.163568
#
# Coordination Sequence:
#
# PCOD9067964 Si02
#       6
#     2   2   2   2   2   2
#     4  11  26  51  74 107 151 193 253 314 392 457
#     4  12  26  51  77 112 157 209 255 315 377 452
#     4  12  28  48  78 112 161 204 256 315 378 452
#     4  12  26  45  76 108 151 195 257 309 384 454
#     4  11  26  46  76 107 148 194 252 315 388 454
#     4  12  28  46  75 111 149 200 258 310 384 449
#
# _framework density 25.439630000000001
#
# number of rings (size 3 to 8) (size 9 to 14) (size 15 to 20)
#    0.000    0.333    1.667    6.000    7.000    5.333 
#    0.000    0.000    0.000    0.000    0.000    0.000 
#    0.000    0.000    0.000    0.000    0.000    0.000 
#
# Total GULP energy -67358.810822 kJ/mol
# GULP energy per Si atom -5613.234235 kJ/mol
# Density = 2.538173 g / cm^3
# Si number density = 25.439630 Si / 1000 Ang^3
#
#
#
# Elastic Constant Matrix: (Units=GPa)
#
#
# Indices 1 2 3 4 5 6 
#
# 1 73.8220 25.9178 15.2022 1.4165 -5.3878 0.0023
# 2 25.9178 146.3858 55.2307 18.6083 -6.5416 -12.0434
# 3 15.2022 55.2307 138.7923 -20.9686 8.5496 -4.7990
# 4 1.4165 18.6083 -20.9686 55.1988 -1.9388 -1.0605
# 5 -5.3878 -6.5416 8.5496 -1.9388 46.6528 -8.4005
# 6 0.0023 -12.0434 -4.7990 -1.0605 -8.4005 49.2180
#
#
#
# Elastic Compliance Matrix: (Units=1/GPa)
#
#
# Indices 1 2 3 4 5 6 
#
# 1 0.014609 -0.002280 -0.000774 0.000143 0.001446 -0.000384
# 2 -0.002280 0.009795 -0.004428 -0.004808 0.002122 0.002224
# 3 -0.000774 -0.004428 0.009972 0.005209 -0.002395 -0.000408
# 4 0.000143 -0.004808 0.005209 0.021679 -0.000771 -0.000333
# 5 0.001446 0.002122 -0.002395 -0.000771 0.023064 0.004206
# 6 -0.000384 0.002224 -0.000408 -0.000333 0.004206 0.021533
#
#
# Mechanical properties :
#
#
# Convention : Reuss Voigt Hill
#
# Bulk Modulus (GPa) = 51.51377 61.30017 56.40697
# Shear Modulus (GPa) = 40.95515 47.72388 44.33952
#
# Velocity S-wave (km/s) = 4.01670 4.33594 4.17937
# Velocity P-wave (km/s) = 6.46570 7.01540 6.74615
#
# Compressibility (1/GPa) = 0.01941229
#
# Stress axis : x y z
#
# Youngs Moduli (GPa) = 68.45288 102.09650 100.27785
#
# Poissons Ratio (x) = 0.23276 0.07758
# Poissons Ratio (y) = 0.15606 0.44405
# Poissons Ratio (z) = 0.05296 0.45211
#
# Static dielectric constant tensor:
#      x y z
#    x 2.025040 -0.001970 0.056230 
#    y -0.001970 1.987390 0.021900 
#    z 0.056230 0.021900 2.019260 
# 
# From -- ./inp_files/134789.got.cif
#   From: 2010.05.17/outbox.cif.g08.bks.cpg/sg2_68_cif.got.tgz:134789.got - 2010.06.03 11:33:40.
