data_PCOD9067380
_publ_section_title
;
Structure prediction by ZEFSAII (Michael W. Deem and Ramdas Pophale) SiO2 
 PCOD9067380
Probable space group: P -1
;
_chemical_formula_sum "Si O2"
_cell_formula_units_Z 12
_cell_length_a 14.973801
_cell_length_b 15.240851
_cell_length_c 8.241291
_cell_angle_alpha 49.117078
_cell_angle_beta 51.486389
_cell_angle_gamma 18.781785
_cell_volume 457.784125
_symmetry_space_group_name_H-M "P -1"
_symmetry_group_IT_number 2
_symmetry_cell_setting 'triclinic'
loop_
_space_group_symop_operation_xyz
x,y,z
-x,-y,-z
loop_
_atom_site_type_symbol
_atom_site_label
_atom_site_fract_x
_atom_site_fract_y
_atom_site_fract_z
Si Si1 0.037582 0.667589 0.088947
Si Si2 0.591953 0.138491 0.270349
Si Si3 0.427694 0.655976 0.533657
Si Si4 0.998305 0.081778 0.747119
Si Si5 0.643497 0.688819 0.145015
Si Si6 0.326838 0.194921 0.715788
O O1 0.299178 0.461312 0.152748
O O2 0.943551 0.619845 0.268115
O O3 0.133807 0.579554 0.899761
O O4 0.776755 0.969731 0.102681
O O5 0.784045 0.019499 0.330957
O O6 0.500646 0.101481 0.497308
O O7 0.500000 0.500000 0.500000
O O8 0.143959 0.886415 0.665149
O O9 0.427076 0.788065 0.310539
O O10 0.690254 0.406035 0.661102
O O11 0.000000 0.000000 0.000000
O O12 0.750622 0.643585 0.247719
O O13 0.507930 0.923294 0.920286
#
# Coordination Sequence:
#
# PCOD9067380 Si02
#       6
#     2   2   2   2   2   2
#     4  12  26  44  73 109 152 202 248 302 372 456
#     4  12  27  46  75 109 155 198 252 308 376 454
#     4  12  29  53  83 111 150 198 264 319 378 449
#     4  12  29  53  80 112 151 203 255 320 384 446
#     4  11  27  46  76 111 155 196 254 311 386 441
#     4  11  25  49  73 110 161 201 250 308 382 454
#
# _framework density 26.213228000000001
#
# number of rings (size 3 to 8) (size 9 to 14) (size 15 to 20)
#    0.000    0.333    3.333    3.500    9.333    0.000 
#    0.000    0.000    0.000    0.000    0.000    0.000 
#    0.000    0.000    0.000    0.000    0.000    0.000 
#
# Total GULP energy -67231.490275 kJ/mol
# GULP energy per Si atom -5602.624190 kJ/mol
# Density = 2.615357 g / cm^3
# Si number density = 26.213228 Si / 1000 Ang^3
#
#
#
# Elastic Constant Matrix: (Units=GPa)
#
#
# Indices 1 2 3 4 5 6 
#
# 1 72.0978 -9.4693 -27.6341 -5.7129 5.2194 -4.4430
# 2 -9.4693 124.8849 47.4629 13.8351 16.7952 -9.3625
# 3 -27.6341 47.4629 104.0544 15.3148 -10.2730 1.7575
# 4 -5.7129 13.8351 15.3148 44.3578 1.6446 12.1757
# 5 5.2194 16.7952 -10.2730 1.6446 32.1829 8.4297
# 6 -4.4430 -9.3625 1.7575 12.1757 8.4297 44.0777
#
#
#
# Elastic Compliance Matrix: (Units=1/GPa)
#
#
# Indices 1 2 3 4 5 6 
#
# 1 0.015619 0.000045 0.003886 0.000256 -0.001774 0.001698
# 2 0.000045 0.012475 -0.006323 -0.002869 -0.009852 0.005583
# 3 0.003886 -0.006323 0.014698 -0.002223 0.008124 -0.002477
# 4 0.000256 -0.002869 -0.002223 0.026400 0.001513 -0.008077
# 5 -0.001774 -0.009852 0.008124 0.001513 0.041906 -0.011028
# 6 0.001698 0.005583 -0.002477 -0.008077 -0.011028 0.028483
#
#
# Mechanical properties :
#
#
# Convention : Reuss Voigt Hill
#
# Bulk Modulus (GPa) = 26.31087 35.75068 31.03077
# Shear Modulus (GPa) = 31.84014 43.50219 37.67117
#
# Velocity S-wave (km/s) = 3.48898 4.07818 3.79503
# Velocity P-wave (km/s) = 5.12734 5.98694 5.57374
#
# Compressibility (1/GPa) = 0.03800711
#
# Stress axis : x y z
#
# Youngs Moduli (GPa) = 64.02589 80.15839 68.03801
#
# Poissons Ratio (x) = -0.00359 -0.26440
# Poissons Ratio (y) = -0.00287 0.43022
# Poissons Ratio (z) = -0.24881 0.50685
#
# Static dielectric constant tensor:
#      x y z
#    x 2.138650 0.030800 0.022530 
#    y 0.030800 2.065380 0.003680 
#    z 0.022530 0.003680 2.016090 
# 
# From -- ./inp_files/314561.got.cif
#   From: 2010.05.17/outbox.cif.g08.bks.cpg/sg2_158_cif.got.tgz:314561.got - 2010.06.03 11:33:40.
