data_PCOD9067868
_publ_section_title
;
Structure prediction by ZEFSAII (Michael W. Deem and Ramdas Pophale) SiO2 
 PCOD9067868
Probable space group: P -1
;
_chemical_formula_sum "Si O2"
_cell_formula_units_Z 16
_cell_length_a 9.656334
_cell_length_b 13.612529
_cell_length_c 8.433766
_cell_angle_alpha 136.832286
_cell_angle_beta 77.635541
_cell_angle_gamma 118.807535
_cell_volume 646.897066
_symmetry_space_group_name_H-M "P -1"
_symmetry_group_IT_number 2
_symmetry_cell_setting 'triclinic'
loop_
_space_group_symop_operation_xyz
x,y,z
-x,-y,-z
loop_
_atom_site_type_symbol
_atom_site_label
_atom_site_fract_x
_atom_site_fract_y
_atom_site_fract_z
Si Si1 0.682181 0.712646 0.507742
Si Si2 0.218733 0.533623 0.935116
Si Si3 0.310092 0.274510 0.113167
Si Si4 0.047477 0.928772 0.128020
Si Si5 0.677196 0.117479 0.170041
Si Si6 0.909373 0.234340 0.785198
Si Si7 0.365853 0.032743 0.650733
Si Si8 0.649324 0.392845 0.651047
O O1 0.633410 0.708423 0.698929
O O2 0.546643 0.717923 0.435633
O O3 0.853553 0.876870 0.632788
O O4 0.688314 0.546737 0.273477
O O5 0.200529 0.682010 0.036086
O O6 0.282120 0.583962 0.160295
O O7 0.039365 0.374428 0.805896
O O8 0.316456 0.437043 0.235274
O O9 0.120369 0.132630 0.994523
O O10 0.402138 0.214407 0.898631
O O11 0.003438 0.812381 0.155459
O O12 0.181169 0.894818 0.969827
O O13 0.669673 0.051839 0.270368
O O14 0.713026 0.302034 0.409830
O O15 0.500000 0.000000 0.000000
O O16 0.792880 0.064016 0.529382
O O17 0.500000 0.000000 0.500000
#
# Coordination Sequence:
#
# PCOD9067868 Si02
#       8
#     2   2   2   2   2   2   2   2
#     4  12  27  45  75 104 151 191 242 312 362 439
#     4  11  26  46  70 107 150 190 248 304 367 433
#     4  12  28  48  73 114 145 195 245 300 379 433
#     4  12  26  47  79 106 149 196 246 304 365 442
#     4  12  25  49  73 111 147 193 247 301 369 432
#     4  11  26  46  70 108 147 196 246 302 365 439
#     4  12  27  46  76 105 149 194 245 303 366 442
#     4  12  26  48  72 108 147 194 245 301 366 447
#
# _framework density 24.733456
#
# number of rings (size 3 to 8) (size 9 to 14) (size 15 to 20)
#    0.000    0.250    5.000    2.625    7.000    1.500 
#    0.000    0.000    0.000    0.000    0.000    0.000 
#    0.000    0.000    0.000    0.000    0.000    0.000 
#
# Total GULP energy -89679.930883 kJ/mol
# GULP energy per Si atom -5604.995680 kJ/mol
# Density = 2.467716 g / cm^3
# Si number density = 24.733456 Si / 1000 Ang^3
#
#
#
# Elastic Constant Matrix: (Units=GPa)
#
#
# Indices 1 2 3 4 5 6 
#
# 1 93.9029 -8.0933 46.3134 -1.3279 2.0327 0.3892
# 2 -8.0933 61.3829 16.6155 21.1875 -3.9793 -9.1011
# 3 46.3134 16.6155 169.9132 24.2303 -28.4351 -5.4006
# 4 -1.3279 21.1875 24.2303 43.6315 -5.8149 -2.3967
# 5 2.0327 -3.9793 -28.4351 -5.8149 51.4228 5.3508
# 6 0.3892 -9.1011 -5.4006 -2.3967 5.3508 44.3108
#
#
#
# Elastic Compliance Matrix: (Units=1/GPa)
#
#
# Indices 1 2 3 4 5 6 
#
# 1 0.013113 0.002306 -0.004437 0.001401 -0.002658 0.000214
# 2 0.002306 0.020585 -0.001341 -0.009067 -0.000643 0.003631
# 3 -0.004437 -0.001341 0.008469 -0.003605 0.004339 0.000077
# 4 0.001401 -0.009067 -0.003605 0.029411 0.000659 -0.000803
# 5 -0.002658 -0.000643 0.004339 0.000659 0.022207 -0.002226
# 6 0.000214 0.003631 0.000077 -0.000803 -0.002226 0.023547
#
#
# Mechanical properties :
#
#
# Convention : Reuss Voigt Hill
#
# Bulk Modulus (GPa) = 28.39124 48.31891 38.35507
# Shear Modulus (GPa) = 36.76048 45.89725 41.32887
#
# Velocity S-wave (km/s) = 3.85939 4.31243 4.09218
# Velocity P-wave (km/s) = 5.60033 6.66140 6.15378
#
# Compressibility (1/GPa) = 0.03522213
#
# Stress axis : x y z
#
# Youngs Moduli (GPa) = 76.25970 48.57986 118.08381
#
# Poissons Ratio (x) = -0.11202 0.52400
# Poissons Ratio (y) = -0.17585 0.15830
# Poissons Ratio (z) = 0.33840 0.06512
#
# Static dielectric constant tensor:
#      x y z
#    x 1.862460 0.073400 -0.133820 
#    y 0.073400 1.938210 0.062680 
#    z -0.133820 0.062680 1.931520 
# 
# From -- ./inp_files/209286.got.cif
#   From: 2010.05.17/outbox.cif.g08.bks.cpg/sg2_105_cif.got.tgz:209286.got - 2010.06.03 11:33:40.
