data_PCOD9067591
_publ_section_title
;
Structure prediction by ZEFSAII (Michael W. Deem and Ramdas Pophale) SiO2 
 PCOD9067591
Probable space group: P -1
;
_chemical_formula_sum "Si O2"
_cell_formula_units_Z 16
_cell_length_a 9.189500
_cell_length_b 8.552834
_cell_length_c 12.143804
_cell_angle_alpha 80.907779
_cell_angle_beta 103.334585
_cell_angle_gamma 131.897733
_cell_volume 691.274968
_symmetry_space_group_name_H-M "P -1"
_symmetry_group_IT_number 2
_symmetry_cell_setting 'triclinic'
loop_
_space_group_symop_operation_xyz
x,y,z
-x,-y,-z
loop_
_atom_site_type_symbol
_atom_site_label
_atom_site_fract_x
_atom_site_fract_y
_atom_site_fract_z
Si Si1 0.507493 0.301358 0.907100
Si Si2 0.766682 0.589722 0.108961
Si Si3 0.201300 0.535848 0.510202
Si Si4 0.203730 0.554986 0.250964
Si Si5 0.202603 0.905834 0.794624
Si Si6 0.829228 0.088891 0.782460
Si Si7 0.056172 0.110500 0.615983
Si Si8 0.395690 0.761770 0.720294
O O1 0.383847 0.373606 0.898326
O O2 0.615267 0.374713 0.800237
O O3 0.346432 0.047682 0.906001
O O4 0.684216 0.427493 0.012620
O O5 0.758233 0.466255 0.225263
O O6 0.985485 0.816371 0.115947
O O7 0.228185 0.533068 0.385977
O O8 0.373715 0.739286 0.587881
O O9 0.000000 0.500000 0.500000
O O10 0.187061 0.351558 0.579232
O O11 0.192981 0.737639 0.228858
O O12 0.003030 0.330644 0.196664
O O13 0.329350 0.886242 0.736360
O O14 0.151136 0.035725 0.712136
O O15 0.889981 0.069234 0.673508
O O16 0.612508 0.868565 0.790838
O O17 0.000000 0.000000 0.500000
#
# Coordination Sequence:
#
# PCOD9067591 Si02
#       8
#     2   2   2   2   2   2   2   2
#     4  11  27  46  73 103 133 183 234 289 347 409
#     4  11  25  51  70  97 146 176 228 298 346 404
#     4  12  21  44  71 101 149 183 221 283 346 408
#     4  12  25  44  71 102 142 181 230 284 341 415
#     4  12  23  44  68 103 142 175 233 288 334 413
#     4  12  25  45  69 101 139 183 233 280 345 417
#     4  12  23  41  70 102 142 186 221 281 342 406
#     4  12  25  44  73 103 138 187 226 281 355 408
#
# _framework density 23.145634999999999
#
# number of rings (size 3 to 8) (size 9 to 14) (size 15 to 20)
#    0.000    0.250    8.750    0.000    1.750    3.500 
#    0.000    4.375    0.000    0.000    0.000    0.000 
#    0.000    0.000    0.000    0.000    0.000    0.000 
#
# Total GULP energy -89424.314206 kJ/mol
# GULP energy per Si atom -5589.019638 kJ/mol
# Density = 2.309295 g / cm^3
# Si number density = 23.145635 Si / 1000 Ang^3
#
#
#
# Elastic Constant Matrix: (Units=GPa)
#
#
# Indices 1 2 3 4 5 6 
#
# 1 85.2752 27.0771 0.9761 10.5180 -1.6341 4.5846
# 2 27.0771 82.6943 20.6257 37.7928 -5.9068 7.1950
# 3 0.9761 20.6257 55.0979 33.9581 -5.5968 -2.2535
# 4 10.5180 37.7928 33.9581 43.4959 -1.7840 3.1285
# 5 -1.6341 -5.9068 -5.5968 -1.7840 29.1903 8.3259
# 6 4.5846 7.1950 -2.2535 3.1285 8.3259 43.3728
#
#
#
# Elastic Compliance Matrix: (Units=1/GPa)
#
#
# Indices 1 2 3 4 5 6 
#
# 1 0.013229 -0.004328 0.001960 -0.000913 0.000350 -0.000580
# 2 -0.004328 0.023415 0.006526 -0.024025 0.004935 -0.002302
# 3 0.001960 0.006526 0.038750 -0.036307 0.006017 0.002187
# 4 -0.000913 -0.024025 -0.036307 0.072267 -0.006979 -0.001677
# 5 0.000350 0.004935 0.006017 -0.006979 0.038101 -0.007354
# 6 -0.000580 -0.002302 0.002187 -0.001677 -0.007354 0.025145
#
#
# Mechanical properties :
#
#
# Convention : Reuss Voigt Hill
#
# Bulk Modulus (GPa) = 11.94605 35.60281 23.77443
# Shear Modulus (GPa) = 21.69261 34.83769 28.26515
#
# Velocity S-wave (km/s) = 3.06473 3.88384 3.49834
# Velocity P-wave (km/s) = 4.20665 5.96051 5.15866
#
# Compressibility (1/GPa) = 0.08370965
#
# Stress axis : x y z
#
# Youngs Moduli (GPa) = 75.59147 42.70785 25.80676
#
# Poissons Ratio (x) = 0.18484 -0.05059
# Poissons Ratio (y) = 0.32715 -0.16841
# Poissons Ratio (z) = -0.14818 -0.27870
#
# Static dielectric constant tensor:
#      x y z
#    x 1.849880 0.019110 0.026010 
#    y 0.019110 1.887160 0.052380 
#    z 0.026010 0.052380 1.909620 
# 
# From -- ./inp_files/208042.got.cif
#   From: 2010.05.17/outbox.cif.g08.bks.cpg/sg2_105_cif.got.tgz:208042.got - 2010.06.03 11:33:40.
