data_PCOD9067367
_publ_section_title
;
Structure prediction by ZEFSAII (Michael W. Deem and Ramdas Pophale) SiO2 
 PCOD9067367
Probable space group: P -1
;
_chemical_formula_sum "Si O2"
_cell_formula_units_Z 14
_cell_length_a 8.750839
_cell_length_b 10.938422
_cell_length_c 8.507115
_cell_angle_alpha 58.052748
_cell_angle_beta 54.395656
_cell_angle_gamma 84.777132
_cell_volume 533.274132
_symmetry_space_group_name_H-M "P -1"
_symmetry_group_IT_number 2
_symmetry_cell_setting 'triclinic'
loop_
_space_group_symop_operation_xyz
x,y,z
-x,-y,-z
loop_
_atom_site_type_symbol
_atom_site_label
_atom_site_fract_x
_atom_site_fract_y
_atom_site_fract_z
Si Si1 0.819491 0.595514 0.746121
Si Si2 0.489825 0.699369 0.800915
Si Si3 0.000000 0.000000 0.500000
Si Si4 0.782298 0.220195 0.644657
Si Si5 0.461859 0.282135 0.590548
Si Si6 0.308226 0.925285 0.881300
Si Si7 0.952532 0.781403 0.983504
Si Si8 0.000000 0.500000 0.000000
O O1 0.710380 0.723437 0.715749
O O2 0.020696 0.655370 0.490010
O O3 0.658162 0.435098 0.916129
O O4 0.893271 0.583822 0.884115
O O5 0.490993 0.642839 0.659377
O O6 0.434312 0.850636 0.746204
O O7 0.964882 0.903865 0.756338
O O8 0.144202 0.898404 0.420560
O O9 0.660437 0.306366 0.555540
O O10 0.663914 0.134110 0.922020
O O11 0.385323 0.104068 0.719979
O O12 0.276521 0.306946 0.773333
O O13 0.083306 0.868332 0.993338
O O14 0.052700 0.651999 0.975346
#
# Coordination Sequence:
#
# PCOD9067367 Si02
#       8
#     2   2   1   2   2   2   2   1
#     4  11  25  49  72 104 153 202 253 304 385 449
#     4  11  26  48  77 108 149 203 254 314 380 451
#     4  12  26  46  78 106 154 200 250 314 376 456
#     4  12  27  45  78 112 152 203 254 317 380 449
#     4  12  27  48  75 118 150 201 253 317 385 460
#     4  12  26  47  77 115 154 194 258 320 378 460
#     4  12  27  49  78 113 156 201 258 313 389 451
#     4  12  24  48  76 108 154 200 250 318 372 458
#
# _framework density 26.252914000000001
#
# number of rings (size 3 to 8) (size 9 to 14) (size 15 to 20)
#    0.000    0.286    4.286    3.857    6.000    0.571 
#    5.143    1.429    0.000    0.000    0.000    0.000 
#    0.000    0.000    0.000    0.000    0.000    0.000 
#
# Total GULP energy -77996.747476 kJ/mol
# GULP energy per Si atom -5571.196248 kJ/mol
# Density = 2.619316 g / cm^3
# Si number density = 26.252914 Si / 1000 Ang^3
#
#
#
# Elastic Constant Matrix: (Units=GPa)
#
#
# Indices 1 2 3 4 5 6 
#
# 1 127.6935 18.4595 32.5057 2.5539 1.1659 -31.3556
# 2 18.4595 81.8895 0.4995 -10.8007 2.7508 -13.4987
# 3 32.5057 0.4995 99.2110 5.3286 12.5433 -7.8736
# 4 2.5539 -10.8007 5.3286 30.2696 6.4529 2.9661
# 5 1.1659 2.7508 12.5433 6.4529 50.3604 -8.5438
# 6 -31.3556 -13.4987 -7.8736 2.9661 -8.5438 34.4647
#
#
#
# Elastic Compliance Matrix: (Units=1/GPa)
#
#
# Indices 1 2 3 4 5 6 
#
# 1 0.011251 -0.001291 -0.003093 -0.002377 0.002558 0.009863
# 2 -0.001291 0.013766 0.000498 0.004744 -0.000823 0.003718
# 3 -0.003093 0.000498 0.011444 -0.000920 -0.002793 -0.000618
# 4 -0.002377 0.004744 -0.000920 0.036769 -0.005544 -0.005054
# 5 0.002558 -0.000823 -0.002793 -0.005544 0.022508 0.007424
# 6 0.009863 0.003718 -0.000618 -0.005054 0.007424 0.041579
#
#
# Mechanical properties :
#
#
# Convention : Reuss Voigt Hill
#
# Bulk Modulus (GPa) = 34.85634 45.74705 40.30169
# Shear Modulus (GPa) = 32.33068 40.17422 36.25245
#
# Velocity S-wave (km/s) = 3.51309 3.91612 3.72007
# Velocity P-wave (km/s) = 5.45543 6.15722 5.81692
#
# Compressibility (1/GPa) = 0.02868918
#
# Stress axis : x y z
#
# Youngs Moduli (GPa) = 88.87885 72.64314 87.38281
#
# Poissons Ratio (x) = 0.09379 0.27027
# Poissons Ratio (y) = 0.11475 -0.04352
# Poissons Ratio (z) = 0.27490 -0.03618
#
# Static dielectric constant tensor:
#      x y z
#    x 2.027170 0.039140 -0.133920 
#    y 0.039140 2.109210 -0.076070 
#    z -0.133920 -0.076070 2.087750 
# 
# From -- ./inp_files/184743.got.cif
#   From: 2010.05.17/outbox.cif.g08.bks.cpg/sg2_93_cif.got.tgz:184743.got - 2010.06.03 11:33:40.
