data_PCOD9067794
_publ_section_title
;
Structure prediction by ZEFSAII (Michael W. Deem and Ramdas Pophale) SiO2 
 PCOD9067794
Probable space group: P -1
;
_chemical_formula_sum "Si O2"
_cell_formula_units_Z 16
_cell_length_a 8.533239
_cell_length_b 13.172477
_cell_length_c 19.372148
_cell_angle_alpha 25.204418
_cell_angle_beta 44.884950
_cell_angle_gamma 48.995601
_cell_volume 653.553126
_symmetry_space_group_name_H-M "P -1"
_symmetry_group_IT_number 2
_symmetry_cell_setting 'triclinic'
loop_
_space_group_symop_operation_xyz
x,y,z
-x,-y,-z
loop_
_atom_site_type_symbol
_atom_site_label
_atom_site_fract_x
_atom_site_fract_y
_atom_site_fract_z
Si Si1 0.322598 0.676379 0.709357
Si Si2 0.840912 0.817027 0.803410
Si Si3 0.434490 0.464407 0.151727
Si Si4 0.753698 0.640112 0.440173
Si Si5 0.960889 0.719970 0.178484
Si Si6 0.889487 0.137910 0.723139
Si Si7 0.617545 0.980404 0.645347
Si Si8 0.317231 0.209871 0.908924
O O1 0.505290 0.684810 0.706142
O O2 0.357881 0.431971 0.807469
O O3 0.077017 0.675737 0.817966
O O4 0.330762 0.885962 0.523117
O O5 0.818521 0.939638 0.660324
O O6 0.852488 0.007748 0.743287
O O7 0.621999 0.662259 0.971812
O O8 0.459949 0.278644 0.194853
O O9 0.185888 0.582495 0.164755
O O10 0.892184 0.633923 0.329180
O O11 0.710706 0.364766 0.640194
O O12 0.886097 0.733076 0.408414
O O13 0.555635 0.838322 0.372628
O O14 0.761631 0.707268 0.193107
O O15 0.000000 0.000000 0.000000
O O16 0.889847 0.932392 0.907468
O O17 0.500000 0.000000 0.000000
#
# Coordination Sequence:
#
# PCOD9067794 Si02
#       8
#     2   2   2   2   2   2   2   2
#     4  12  27  47  74 107 145 195 250 305 370 428
#     4  12  27  47  75 108 147 196 247 306 368 436
#     4  12  27  49  76 107 147 199 246 301 370 442
#     4  11  27  46  74 108 149 193 241 308 369 438
#     4  12  26  46  75 109 146 194 246 302 368 440
#     4  11  26  45  73 103 149 189 248 293 376 432
#     4  12  28  47  74 109 149 193 250 299 372 437
#     4  12  26  46  73 104 149 191 247 303 367 439
#
# _framework density 24.481562
#
# number of rings (size 3 to 8) (size 9 to 14) (size 15 to 20)
#    0.000    0.250    2.500    5.250   10.500    0.500 
#    0.000    0.000    0.000    0.000    0.000    0.000 
#    0.000    0.000    0.000    0.000    0.000    0.000 
#
# Total GULP energy -89543.224080 kJ/mol
# GULP energy per Si atom -5596.451505 kJ/mol
# Density = 2.442584 g / cm^3
# Si number density = 24.481562 Si / 1000 Ang^3
#
#
#
# Elastic Constant Matrix: (Units=GPa)
#
#
# Indices 1 2 3 4 5 6 
#
# 1 145.5844 49.8230 16.5624 -13.1655 22.3281 8.0158
# 2 49.8230 136.8392 30.8187 -28.3425 -11.7935 0.8104
# 3 16.5624 30.8187 105.8280 -6.9884 18.6675 12.5533
# 4 -13.1655 -28.3425 -6.9884 31.7608 1.2849 0.8893
# 5 22.3281 -11.7935 18.6675 1.2849 30.3852 -1.2021
# 6 8.0158 0.8104 12.5533 0.8893 -1.2021 54.1970
#
#
#
# Elastic Compliance Matrix: (Units=1/GPa)
#
#
# Indices 1 2 3 4 5 6 
#
# 1 0.010151 -0.004908 0.002041 0.000771 -0.010736 -0.002151
# 2 -0.004908 0.012679 -0.004567 0.007779 0.011072 0.001712
# 3 0.002041 -0.004567 0.012881 0.000160 -0.011329 -0.003471
# 4 0.000771 0.007779 0.000160 0.038780 0.000679 -0.000889
# 5 -0.010736 0.011072 -0.011329 0.000679 0.052235 0.005194
# 6 -0.002151 0.001712 -0.003471 -0.000889 0.005194 0.019678
#
#
# Mechanical properties :
#
#
# Convention : Reuss Voigt Hill
#
# Bulk Modulus (GPa) = 47.98037 64.73998 56.36017
# Shear Modulus (GPa) = 29.72328 42.67178 36.19753
#
# Velocity S-wave (km/s) = 3.48819 4.17947 3.84938
# Velocity P-wave (km/s) = 5.98869 7.05638 6.54434
#
# Compressibility (1/GPa) = 0.02084186
#
# Stress axis : x y z
#
# Youngs Moduli (GPa) = 98.50948 78.87169 77.63661
#
# Poissons Ratio (x) = 0.38714 -0.15843
# Poissons Ratio (y) = 0.48353 0.35453
# Poissons Ratio (z) = -0.20102 0.36017
#
# Static dielectric constant tensor:
#      x y z
#    x 2.146490 -0.158040 -0.058650 
#    y -0.158040 2.022680 0.100410 
#    z -0.058650 0.100410 2.045540 
# 
# From -- ./inp_files/559507.got.cif
#   From: 2010.05.17/outbox.cif.g08.bks.cpg/sg2_280_cif.got.tgz:559507.got - 2010.06.03 11:33:40.
