data_PCOD9067060
_publ_section_title
;
Structure prediction by ZEFSAII (Michael W. Deem and Ramdas Pophale) SiO2 
 PCOD9067060
Probable space group: P -1
;
_chemical_formula_sum "Si O2"
_cell_formula_units_Z 10
_cell_length_a 8.554706
_cell_length_b 20.447769
_cell_length_c 5.485334
_cell_angle_alpha 51.748049
_cell_angle_beta 65.697164
_cell_angle_gamma 32.643900
_cell_volume 392.571292
_symmetry_space_group_name_H-M "P -1"
_symmetry_group_IT_number 2
_symmetry_cell_setting 'triclinic'
loop_
_space_group_symop_operation_xyz
x,y,z
-x,-y,-z
loop_
_atom_site_type_symbol
_atom_site_label
_atom_site_fract_x
_atom_site_fract_y
_atom_site_fract_z
Si Si1 0.225968 0.354004 0.036834
Si Si2 0.149428 0.656319 0.848099
Si Si3 0.284490 0.900091 0.315591
Si Si4 0.621086 0.910899 0.876732
Si Si5 0.225582 0.788892 0.223067
O O1 0.479725 0.208587 0.373372
O O2 0.021966 0.361407 0.047756
O O3 0.427554 0.335161 0.784049
O O4 0.000000 0.500000 0.000000
O O5 0.127477 0.734540 0.468887
O O6 0.977944 0.761855 0.950718
O O7 0.500000 0.500000 0.000000
O O8 0.188555 0.854128 0.350114
O O9 0.476809 0.876727 0.051774
O O10 0.994666 0.074200 0.137900
O O11 0.500000 0.000000 0.500000
O O12 0.500000 0.000000 0.000000
#
# Coordination Sequence:
#
# PCOD9067060 Si02
#       5
#     2   2   2   2   2
#     4  12  28  49  76 114 160 214 267 339 410 490
#     4  12  28  51  78 117 162 214 272 337 416 489
#     4  11  25  47  77 108 159 201 268 335 400 484
#     4  12  26  50  83 120 162 215 277 340 409 494
#     4  11  26  49  76 113 154 202 276 322 418 474
#
# _framework density 25.473078999999998
#
# number of rings (size 3 to 8) (size 9 to 14) (size 15 to 20)
#    0.000    0.400    4.000    3.000    2.800    5.600 
#    0.000    0.000    0.000    0.000    0.000    0.000 
#    0.000    0.000    0.000    0.000    0.000    0.000 
#
# Total GULP energy -55986.994575 kJ/mol
# GULP energy per Si atom -5598.699458 kJ/mol
# Density = 2.541510 g / cm^3
# Si number density = 25.473079 Si / 1000 Ang^3
#
#
#
# Elastic Constant Matrix: (Units=GPa)
#
#
# Indices 1 2 3 4 5 6 
#
# 1 103.9015 82.6386 28.7218 9.3535 -3.7855 -12.9401
# 2 82.6386 261.1441 54.8847 4.1839 1.2487 -24.6332
# 3 28.7218 54.8847 88.2827 6.4172 3.0544 -3.4324
# 4 9.3535 4.1839 6.4172 37.8724 -13.6150 1.8979
# 5 -3.7855 1.2487 3.0544 -13.6150 52.4718 4.1025
# 6 -12.9401 -24.6332 -3.4324 1.8979 4.1025 54.2060
#
#
#
# Elastic Compliance Matrix: (Units=1/GPa)
#
#
# Indices 1 2 3 4 5 6 
#
# 1 0.013516 -0.003707 -0.001864 -0.002545 0.000395 0.001483
# 2 -0.003707 0.005612 -0.002252 0.000508 -0.000257 0.001525
# 3 -0.001864 -0.002252 0.013513 -0.002049 -0.001365 -0.000438
# 4 -0.002545 0.000508 -0.002049 0.030292 0.007953 -0.002169
# 5 0.000395 -0.000257 -0.001365 0.007953 0.021392 -0.002006
# 6 0.001483 0.001525 -0.000438 -0.002169 -0.002006 0.019695
#
#
# Mechanical properties :
#
#
# Convention : Reuss Voigt Hill
#
# Bulk Modulus (GPa) = 58.83668 87.31317 73.07492
# Shear Modulus (GPa) = 39.89411 48.04891 43.97151
#
# Velocity S-wave (km/s) = 3.96173 4.34782 4.15926
# Velocity P-wave (km/s) = 6.63888 7.71724 7.19828
#
# Compressibility (1/GPa) = 0.01699620
#
# Stress axis : x y z
#
# Youngs Moduli (GPa) = 73.98602 178.17418 74.00309
#
# Poissons Ratio (x) = 0.66042 0.13794
# Poissons Ratio (y) = 0.27424 0.16666
# Poissons Ratio (z) = 0.13791 0.40127
#
# Static dielectric constant tensor:
#      x y z
#    x 2.028030 0.014380 0.004970 
#    y 0.014380 2.066520 0.029330 
#    z 0.004970 0.029330 2.066530 
# 
# From -- ./inp_files/49492.got.cif
#   From: 2010.05.17/outbox.cif.g08.bks.cpg/sg2_25_cif.got.tgz:49492.got - 2010.06.03 11:33:40.
