data_PCOD9067849
_publ_section_title
;
Structure prediction by ZEFSAII (Michael W. Deem and Ramdas Pophale) SiO2 
 PCOD9067849
Probable space group: P -1
;
_chemical_formula_sum "Si O2"
_cell_formula_units_Z 16
_cell_length_a 5.486073
_cell_length_b 15.280413
_cell_length_c 10.085726
_cell_angle_alpha 99.391945
_cell_angle_beta 111.487088
_cell_angle_gamma 61.727089
_cell_volume 692.810665
_symmetry_space_group_name_H-M "P -1"
_symmetry_group_IT_number 2
_symmetry_cell_setting 'triclinic'
loop_
_space_group_symop_operation_xyz
x,y,z
-x,-y,-z
loop_
_atom_site_type_symbol
_atom_site_label
_atom_site_fract_x
_atom_site_fract_y
_atom_site_fract_z
Si Si1 0.821781 0.614217 0.943234
Si Si2 0.192777 0.591258 0.495625
Si Si3 0.085311 0.510981 0.727240
Si Si4 0.414311 0.164333 0.349118
Si Si5 0.628589 0.347281 0.913744
Si Si6 0.359393 0.824439 0.314720
Si Si7 0.867610 0.207783 0.367784
Si Si8 0.753614 0.927580 0.358424
O O1 0.823673 0.590177 0.782616
O O2 0.473427 0.339241 0.017996
O O3 0.046035 0.661929 0.014995
O O4 0.000000 0.500000 0.000000
O O5 0.500000 0.500000 0.500000
O O6 0.096624 0.565740 0.610352
O O7 0.982173 0.581503 0.340989
O O8 0.193585 0.695810 0.533101
O O9 0.407144 0.458328 0.843096
O O10 0.484402 0.201301 0.514521
O O11 0.067794 0.205180 0.284281
O O12 0.576184 0.197717 0.279902
O O13 0.570368 0.045400 0.354399
O O14 0.626623 0.267163 0.789083
O O15 0.532524 0.878087 0.290048
O O16 0.016545 0.893619 0.296404
O O17 0.075556 0.113589 0.477837
#
# Coordination Sequence:
#
# PCOD9067849 Si02
#       8
#     2   2   2   2   2   2   2   2
#     4  10  22  38  58  79 104 149 201 248 285 318
#     4  11  26  35  57  80 117 163 195 224 272 338
#     4  10  23  39  54  77 113 152 199 238 275 328
#     4  10  19  32  52  76 110 146 175 224 287 346
#     4  11  22  36  59  83 109 151 196 237 290 325
#     4  10  18  28  49  76 110 134 172 216 276 341
#     4  10  20  33  48  73 109 143 186 215 262 332
#     4  10  18  31  52  77 111 145 172 223 291 346
#
# _framework density 23.094332999999999
#
# number of rings (size 3 to 8) (size 9 to 14) (size 15 to 20)
#    0.000    1.750    0.000    7.500   12.250    0.000 
#    0.000    0.000    0.000    0.000    0.000    0.000 
#    0.000   34.000    0.000    0.000    0.000    0.000 
#
# Total GULP energy -89454.821137 kJ/mol
# GULP energy per Si atom -5590.926321 kJ/mol
# Density = 2.304177 g / cm^3
# Si number density = 23.094333 Si / 1000 Ang^3
#
#
#
# Elastic Constant Matrix: (Units=GPa)
#
#
# Indices 1 2 3 4 5 6 
#
# 1 199.9212 41.1673 34.3015 15.8528 5.0929 0.3743
# 2 41.1673 84.6062 16.1544 14.4852 5.5351 -6.9910
# 3 34.3015 16.1544 61.7308 18.0569 -2.2065 -3.2736
# 4 15.8528 14.4852 18.0569 22.6831 -2.8402 2.7697
# 5 5.0929 5.5351 -2.2065 -2.8402 31.4552 13.4553
# 6 0.3743 -6.9910 -3.2736 2.7697 13.4553 35.8191
#
#
#
# Elastic Compliance Matrix: (Units=1/GPa)
#
#
# Indices 1 2 3 4 5 6 
#
# 1 0.005988 -0.002304 -0.002570 -0.000687 -0.000607 -0.000466
# 2 -0.002304 0.015469 0.000247 -0.009925 -0.005799 0.006012
# 3 -0.002570 0.000247 0.022727 -0.017094 -0.001266 0.003950
# 4 -0.000687 -0.009925 -0.017094 0.067719 0.012518 -0.013431
# 5 -0.000607 -0.005799 -0.001266 0.012518 0.041577 -0.017828
# 6 -0.000466 0.006012 0.003950 -0.013431 -0.017828 0.037193
#
#
# Mechanical properties :
#
#
# Convention : Reuss Voigt Hill
#
# Bulk Modulus (GPa) = 28.62889 58.83384 43.73136
# Shear Modulus (GPa) = 23.63273 34.96715 29.29994
#
# Velocity S-wave (km/s) = 3.20240 3.89537 3.56576
# Velocity P-wave (km/s) = 5.10854 6.76480 5.99415
#
# Compressibility (1/GPa) = 0.03492975
#
# Stress axis : x y z
#
# Youngs Moduli (GPa) = 166.99560 64.64625 44.00004
#
# Poissons Ratio (x) = 0.14896 0.11308
# Poissons Ratio (y) = 0.38479 -0.01086
# Poissons Ratio (z) = 0.42916 -0.01596
#
# Static dielectric constant tensor:
#      x y z
#    x 2.067420 0.002510 -0.025220 
#    y 0.002510 1.844270 -0.025370 
#    z -0.025220 -0.025370 1.927060 
# 
# From -- ./inp_files/367018.got.cif
#   From: 2010.05.17/outbox.cif.g08.bks.cpg/sg2_184_cif.got.tgz:367018.got - 2010.06.03 11:33:40.
