data_PCOD9067269
_publ_section_title
;
Structure prediction by ZEFSAII (Michael W. Deem and Ramdas Pophale) SiO2 
 PCOD9067269
Probable space group: P -1
;
_chemical_formula_sum "Si O2"
_cell_formula_units_Z 9
_cell_length_a 4.968992
_cell_length_b 13.544917
_cell_length_c 5.517091
_cell_angle_alpha 81.162868
_cell_angle_beta 100.395118
_cell_angle_gamma 60.479281
_cell_volume 304.788826
_symmetry_space_group_name_H-M "P -1"
_symmetry_group_IT_number 2
_symmetry_cell_setting 'triclinic'
loop_
_space_group_symop_operation_xyz
x,y,z
-x,-y,-z
loop_
_atom_site_type_symbol
_atom_site_label
_atom_site_fract_x
_atom_site_fract_y
_atom_site_fract_z
Si Si1 0.584815 0.564378 0.288362
Si Si2 0.000000 0.000000 0.000000
Si Si3 0.457201 0.789252 0.059538
Si Si4 0.013821 0.335126 0.217366
Si Si5 0.733094 0.901531 0.383701
O O1 0.500000 0.500000 0.500000
O O2 0.557578 0.685465 0.305225
O O3 0.921871 0.461330 0.267445
O O4 0.305997 0.619517 0.016201
O O5 0.085286 0.875339 0.906891
O O6 0.053719 0.060581 0.735549
O O7 0.477965 0.896341 0.149464
O O8 0.686722 0.728437 0.893397
O O9 0.062526 0.235831 0.451047
O O10 0.500000 0.000000 0.500000
#
# Coordination Sequence:
#
# PCOD9067269 Si02
#       5
#     2   1   2   2   2
#     4  11  26  49  77 110 152 200 255 312 384 452
#     4  12  26  48  76 108 154 202 250 308 372 452
#     4  12  26  46  75 112 151 201 257 308 377 453
#     4  11  25  48  76 109 152 201 250 314 384 446
#     4  12  28  50  76 111 158 200 254 312 377 449
#
# _framework density 29.528642999999999
#
# number of rings (size 3 to 8) (size 9 to 14) (size 15 to 20)
#    0.000    0.444    2.222    5.333    3.111    9.778 
#    4.000    0.000    0.000    0.000    0.000    0.000 
#    0.000    0.000    0.000    0.000    0.000    0.000 
#
# Total GULP energy -50367.204010 kJ/mol
# GULP energy per Si atom -5596.356001 kJ/mol
# Density = 2.946143 g / cm^3
# Si number density = 29.528643 Si / 1000 Ang^3
#
#
#
# Elastic Constant Matrix: (Units=GPa)
#
#
# Indices 1 2 3 4 5 6 
#
# 1 92.5039 53.3481 49.0051 -2.1895 -20.6451 -11.7768
# 2 53.3481 343.2610 100.3334 -27.6944 -37.1887 -28.2835
# 3 49.0051 100.3334 178.0264 -66.2940 -47.6123 -17.4978
# 4 -2.1895 -27.6944 -66.2940 84.7442 -13.2245 -1.6720
# 5 -20.6451 -37.1887 -47.6123 -13.2245 77.3024 1.3314
# 6 -11.7768 -28.2835 -17.4978 -1.6720 1.3314 75.9521
#
#
#
# Elastic Compliance Matrix: (Units=1/GPa)
#
#
# Indices 1 2 3 4 5 6 
#
# 1 0.013761 -0.001084 -0.004496 -0.003540 -0.000232 0.000620
# 2 -0.001084 0.003656 -0.001494 0.000100 0.000551 0.000842
# 3 -0.004496 -0.001494 0.015370 0.012984 0.009727 0.002402
# 4 -0.003540 0.000100 0.012984 0.023687 0.011104 0.002806
# 5 -0.000232 0.000551 0.009727 0.011104 0.020991 0.002287
# 6 0.000620 0.000842 0.002402 0.002806 0.002287 0.014151
#
#
# Mechanical properties :
#
#
# Convention : Reuss Voigt Hill
#
# Bulk Modulus (GPa) = 53.65805 113.24051 83.44928
# Shear Modulus (GPa) = 44.65220 75.00672 59.82946
#
# Velocity S-wave (km/s) = 3.89288 5.04544 4.50616
# Velocity P-wave (km/s) = 6.19814 8.50733 7.44283
#
# Compressibility (1/GPa) = 0.01863653
#
# Stress axis : x y z
#
# Youngs Moduli (GPa) = 72.66934 273.54737 65.06344
#
# Poissons Ratio (x) = 0.29654 0.29256
# Poissons Ratio (y) = 0.07878 0.09723
# Poissons Ratio (z) = 0.32676 0.40877
#
# Static dielectric constant tensor:
#      x y z
#    x 3.317720 -0.367330 0.423190 
#    y -0.367330 2.734160 -0.042110 
#    z 0.423190 -0.042110 2.388230 
# 
# From -- ./inp_files/1375.got.cif
#   From: 2010.05.17/outbox.cif.g08.bks.cpg/sg2_1_cif.got.tgz:1375.got - 2010.06.03 11:33:40.
