data_PCOD9067043
_publ_section_title
;
Structure prediction by ZEFSAII (Michael W. Deem and Ramdas Pophale) SiO2 
 PCOD9067043
Probable space group: P -1
;
_chemical_formula_sum "Si O2"
_cell_formula_units_Z 13
_cell_length_a 16.740470
_cell_length_b 8.370040
_cell_length_c 5.595132
_cell_angle_alpha 104.260614
_cell_angle_beta 72.586814
_cell_angle_gamma 137.719074
_cell_volume 502.884865
_symmetry_space_group_name_H-M "P -1"
_symmetry_group_IT_number 2
_symmetry_cell_setting 'triclinic'
loop_
_space_group_symop_operation_xyz
x,y,z
-x,-y,-z
loop_
_atom_site_type_symbol
_atom_site_label
_atom_site_fract_x
_atom_site_fract_y
_atom_site_fract_z
Si Si1 0.706526 0.853158 0.196180
Si Si2 0.143305 0.700229 0.473929
Si Si3 0.908228 0.790984 0.199340
Si Si4 0.532229 0.804508 0.017185
Si Si5 0.867709 0.012916 0.711892
Si Si6 0.500000 0.500000 0.500000
Si Si7 0.701892 0.341749 0.907737
O O1 0.581910 0.759529 0.171778
O O2 0.646396 0.673543 0.402037
O O3 0.801657 0.127498 0.285133
O O4 0.775021 0.838896 0.940698
O O5 0.178880 0.877910 0.296623
O O6 0.000000 0.500000 0.500000
O O7 0.209283 0.622147 0.345834
O O8 0.791487 0.548875 0.094698
O O9 0.995489 0.778377 0.235974
O O10 0.879051 0.890993 0.454273
O O11 0.000000 0.000000 0.000000
O O12 0.621569 0.085241 0.010507
O O13 0.529345 0.695516 0.736790
O O14 0.398498 0.685073 0.133953
#
# Coordination Sequence:
#
# PCOD9067043 Si02
#       7
#     2   2   2   2   2   1   2
#     4  12  25  48  78 107 147 199 257 299 382 449
#     4  12  26  47  77 111 150 193 248 315 372 455
#     4  11  26  48  76 113 150 192 252 314 372 451
#     4  11  27  47  75 105 148 204 240 319 368 444
#     4  11  25  47  76 111 144 203 245 307 388 435
#     4  12  26  52  72 106 148 198 258 304 368 452
#     4  11  25  49  70 112 150 187 257 304 377 442
#
# _framework density 25.850847000000002
#
# number of rings (size 3 to 8) (size 9 to 14) (size 15 to 20)
#    0.000    0.615    3.077    3.231    8.615    1.846 
#    0.000    0.000    0.000    0.000    0.000    0.000 
#    0.000    0.000    0.000    0.000    0.000    0.000 
#
# Total GULP energy -72611.237689 kJ/mol
# GULP energy per Si atom -5585.479822 kJ/mol
# Density = 2.579201 g / cm^3
# Si number density = 25.850847 Si / 1000 Ang^3
#
#
#
# Elastic Constant Matrix: (Units=GPa)
#
#
# Indices 1 2 3 4 5 6 
#
# 1 179.5000 35.9346 38.5564 11.6537 -19.2287 44.8774
# 2 35.9346 168.8569 45.4674 30.2201 -8.8934 53.1565
# 3 38.5564 45.4674 144.8131 11.2241 -40.8838 31.4805
# 4 11.6537 30.2201 11.2241 45.3477 21.5755 1.8146
# 5 -19.2287 -8.8934 -40.8838 21.5755 39.2683 -9.1532
# 6 44.8774 53.1565 31.4805 1.8146 -9.1532 48.2650
#
#
#
# Elastic Compliance Matrix: (Units=1/GPa)
#
#
# Indices 1 2 3 4 5 6 
#
# 1 0.008960 0.003246 0.002962 -0.010003 0.011053 -0.011366
# 2 0.003246 0.013096 0.003689 -0.016178 0.013393 -0.016699
# 3 0.002962 0.003689 0.017354 -0.020867 0.029058 -0.011841
# 4 -0.010003 -0.016178 -0.020867 0.069051 -0.062083 0.026359
# 5 0.011053 0.013393 0.029058 -0.062083 0.092664 -0.024073
# 6 -0.011366 -0.016699 -0.011841 0.026359 -0.024073 0.051845
#
#
# Mechanical properties :
#
#
# Convention : Reuss Voigt Hill
#
# Bulk Modulus (GPa) = 16.89090 81.45409 49.17249
# Shear Modulus (GPa) = 19.76981 51.45697 35.61339
#
# Velocity S-wave (km/s) = 2.76844 4.46638 3.71570
# Velocity P-wave (km/s) = 4.09477 7.62730 6.12139
#
# Compressibility (1/GPa) = 0.05920349
#
# Stress axis : x y z
#
# Youngs Moduli (GPa) = 111.60668 76.36067 57.62490
#
# Poissons Ratio (x) = -0.24786 -0.17067
# Poissons Ratio (y) = -0.36227 -0.21260
# Poissons Ratio (z) = -0.33055 -0.28172
#
# Static dielectric constant tensor:
#      x y z
#    x 2.349520 -0.352970 0.549030 
#    y -0.352970 2.428550 -0.620090 
#    z 0.549030 -0.620090 2.937210 
# 
# From -- ./inp_files/23475.got.cif
#   From: 2010.05.17/outbox.cif.g08.bks.cpg/sg2_12_cif.got.tgz:23475.got - 2010.06.03 11:33:40.
