data_PCOD9067141
_publ_section_title
;
Structure prediction by ZEFSAII (Michael W. Deem and Ramdas Pophale) SiO2 
 PCOD9067141
Probable space group: P -1
;
_chemical_formula_sum "Si O2"
_cell_formula_units_Z 16
_cell_length_a 24.207630
_cell_length_b 9.323386
_cell_length_c 20.835115
_cell_angle_alpha 30.370631
_cell_angle_beta 18.730595
_cell_angle_gamma 29.866947
_cell_volume 726.195858
_symmetry_space_group_name_H-M "P -1"
_symmetry_group_IT_number 2
_symmetry_cell_setting 'triclinic'
loop_
_space_group_symop_operation_xyz
x,y,z
-x,-y,-z
loop_
_atom_site_type_symbol
_atom_site_label
_atom_site_fract_x
_atom_site_fract_y
_atom_site_fract_z
Si Si1 0.559437 0.140021 0.817214
Si Si2 0.212992 0.174703 0.110520
Si Si3 0.947099 0.734485 0.882209
Si Si4 0.177517 0.105826 0.901324
Si Si5 0.955954 0.802206 0.182927
Si Si6 0.843278 0.791385 0.540639
Si Si7 0.367432 0.488813 0.209302
Si Si8 0.573859 0.730548 0.631234
O O1 0.624477 0.418253 0.657924
O O2 0.705757 0.890514 0.712801
O O3 0.386561 0.245561 0.920250
O O4 0.500000 0.000000 0.000000
O O5 0.195712 0.188120 0.047799
O O6 0.043319 0.444526 0.217047
O O7 0.241354 0.829149 0.230422
O O8 0.084396 0.405006 0.848790
O O9 0.848143 0.780266 0.041342
O O10 0.068050 0.951335 0.665866
O O11 0.389096 0.943073 0.722013
O O12 0.056848 0.893628 0.097589
O O13 0.741028 0.862559 0.398948
O O14 0.000000 0.000000 0.000000
O O15 0.746668 0.714553 0.614191
O O16 0.000000 0.500000 0.500000
O O17 0.462803 0.353116 0.222755
O O18 0.500000 0.500000 0.000000
#
# Coordination Sequence:
#
# PCOD9067141 Si02
#       8
#     2   2   2   2   2   2   2   2
#     4  12  26  44  71 112 147 194 243 300 375 445
#     4  12  23  45  72 100 149 183 236 310 355 440
#     4  11  25  48  70 105 139 190 248 295 369 428
#     4  11  26  49  75 100 148 191 243 310 352 444
#     4  12  27  48  71 108 145 194 248 303 365 436
#     4  12  26  42  73 105 145 192 241 299 372 440
#     4  12  24  46  70 105 141 188 237 301 375 439
#     4  12  27  46  75 107 148 194 246 303 380 431
#
# _framework density 22.032623999999998
#
# number of rings (size 3 to 8) (size 9 to 14) (size 15 to 20)
#    0.000    0.250    6.250    2.250    1.750    3.000 
#    0.000    1.875    0.000    0.000    0.000    0.000 
#    0.000    0.000    0.000    0.000    0.000    0.000 
#
# Total GULP energy -89505.955817 kJ/mol
# GULP energy per Si atom -5594.122239 kJ/mol
# Density = 2.198248 g / cm^3
# Si number density = 22.032624 Si / 1000 Ang^3
#
#
#
# Elastic Constant Matrix: (Units=GPa)
#
#
# Indices 1 2 3 4 5 6 
#
# 1 101.6901 11.9764 15.9383 -1.3054 -33.8705 -1.5011
# 2 11.9764 129.2388 28.3939 5.0408 -9.8347 3.0935
# 3 15.9383 28.3939 93.9340 1.5591 -24.0110 -7.1150
# 4 -1.3054 5.0408 1.5591 33.4028 -1.9197 -10.2180
# 5 -33.8705 -9.8347 -24.0110 -1.9197 37.3410 -6.4777
# 6 -1.5011 3.0935 -7.1150 -10.2180 -6.4777 32.0234
#
#
#
# Elastic Compliance Matrix: (Units=1/GPa)
#
#
# Indices 1 2 3 4 5 6 
#
# 1 0.015019 -0.000913 0.002153 0.003224 0.015889 0.005514
# 2 -0.000913 0.008496 -0.002775 -0.001933 -0.000869 -0.002273
# 3 0.002153 -0.002775 0.014658 0.002612 0.011976 0.006882
# 4 0.003224 -0.001933 0.002612 0.034909 0.008271 0.013730
# 5 0.015889 -0.000869 0.011976 0.008271 0.051977 0.016643
# 6 0.005514 -0.002273 0.006882 0.013730 0.016643 0.040982
#
#
# Mechanical properties :
#
#
# Convention : Reuss Voigt Hill
#
# Bulk Modulus (GPa) = 28.48800 48.60893 38.54846
# Shear Modulus (GPa) = 27.65297 38.45706 33.05502
#
# Velocity S-wave (km/s) = 3.54657 4.18240 3.87754
# Velocity P-wave (km/s) = 5.45242 6.74044 6.13035
#
# Compressibility (1/GPa) = 0.03510250
#
# Stress axis : x y z
#
# Youngs Moduli (GPa) = 66.58221 117.70701 68.21980
#
# Poissons Ratio (x) = 0.10752 -0.14691
# Poissons Ratio (y) = 0.06082 0.18933
# Poissons Ratio (z) = -0.14338 0.32667
#
# Static dielectric constant tensor:
#      x y z
#    x 1.811440 0.026900 0.033610 
#    y 0.026900 1.821860 0.008450 
#    z 0.033610 0.008450 1.788340 
# 
# From -- ./inp_files/601911.got.cif
#   From: 2010.05.17/outbox.cif.g08.bks.cpg/sg2_301_cif.got.tgz:601911.got - 2010.06.03 11:33:40.
