data_PCOD9067316
_publ_section_title
;
Structure prediction by ZEFSAII (Michael W. Deem and Ramdas Pophale) SiO2 
 PCOD9067316
Probable space group: P -1
;
_chemical_formula_sum "Si O2"
_cell_formula_units_Z 16
_cell_length_a 23.598947
_cell_length_b 25.574419
_cell_length_c 5.252330
_cell_angle_alpha 136.121960
_cell_angle_beta 130.198131
_cell_angle_gamma 16.220020
_cell_volume 595.610645
_symmetry_space_group_name_H-M "P -1"
_symmetry_group_IT_number 2
_symmetry_cell_setting 'triclinic'
loop_
_space_group_symop_operation_xyz
x,y,z
-x,-y,-z
loop_
_atom_site_type_symbol
_atom_site_label
_atom_site_fract_x
_atom_site_fract_y
_atom_site_fract_z
Si Si1 0.593028 0.950903 0.352596
Si Si2 0.011773 0.040214 0.430597
Si Si3 0.338920 0.833139 0.441503
Si Si4 0.005441 0.431245 0.501669
Si Si5 0.244199 0.559865 0.465302
Si Si6 0.847148 0.868023 0.316866
Si Si7 0.592087 0.492926 0.652434
Si Si8 0.397017 0.269361 0.645594
O O1 0.500000 0.000000 0.500000
O O2 0.159809 0.288332 0.695495
O O3 0.492261 0.130485 0.671913
O O4 0.500000 0.000000 0.000000
O O5 0.810224 0.286976 0.720226
O O6 0.000000 0.000000 0.500000
O O7 0.228013 0.878611 0.461513
O O8 0.000000 0.000000 0.000000
O O9 0.566547 0.641344 0.512011
O O10 0.179511 0.052763 0.725357
O O11 0.401885 0.729222 0.001157
O O12 0.774832 0.623790 0.596395
O O13 0.000000 0.500000 0.500000
O O14 0.087944 0.279041 0.055161
O O15 0.313564 0.572486 0.578093
O O16 0.010705 0.761866 0.583140
O O17 0.274607 0.463799 0.008607
O O18 0.610289 0.087485 0.490543
O O19 0.500000 0.500000 0.500000
#
# Coordination Sequence:
#
# PCOD9067316 Si02
#       8
#     2   2   2   2   2   2   2   2
#     4  12  26  49  80 118 162 209 265 334 407 479
#     4  12  28  48  77 115 160 207 261 334 404 476
#     4  12  26  46  79 108 159 210 266 333 402 484
#     4  11  25  49  78 118 160 209 276 329 404 486
#     4  11  26  46  73 112 152 205 268 325 401 480
#     4  11  25  49  75 114 157 209 261 330 406 480
#     4  12  25  46  75 110 155 201 271 325 402 474
#     4  11  25  48  78 110 162 206 263 332 406 484
#
# _framework density 26.863184
#
# number of rings (size 3 to 8) (size 9 to 14) (size 15 to 20)
#    0.000    0.500    5.000    2.250    1.750    3.500 
#    0.000    0.000    0.000    0.000    0.000    0.000 
#    0.000    0.000    0.000    0.000    0.000    0.000 
#
# Total GULP energy -89376.081313 kJ/mol
# GULP energy per Si atom -5586.005082 kJ/mol
# Density = 2.680204 g / cm^3
# Si number density = 26.863184 Si / 1000 Ang^3
#
#
#
# Elastic Constant Matrix: (Units=GPa)
#
#
# Indices 1 2 3 4 5 6 
#
# 1 166.1704 53.9777 44.0620 -8.8396 3.3572 1.0743
# 2 53.9777 219.6874 28.0841 -1.8939 1.5041 -18.1231
# 3 44.0620 28.0841 64.4169 4.3809 4.3775 2.5438
# 4 -8.8396 -1.8939 4.3809 48.8376 5.7457 5.0283
# 5 3.3572 1.5041 4.3775 5.7457 46.0047 8.8002
# 6 1.0743 -18.1231 2.5438 5.0283 8.8002 62.9118
#
#
#
# Elastic Compliance Matrix: (Units=1/GPa)
#
#
# Indices 1 2 3 4 5 6 
#
# 1 0.007851 -0.001322 -0.004890 0.001879 -0.000215 -0.000437
# 2 -0.001322 0.005190 -0.001402 -0.000050 -0.000242 0.001612
# 3 -0.004890 -0.001402 0.019750 -0.002512 -0.001014 -0.000776
# 4 0.001879 -0.000050 -0.002512 0.021450 -0.002320 -0.001335
# 5 -0.000215 -0.000242 -0.001014 -0.002320 0.022724 -0.003018
# 6 -0.000437 0.001612 -0.000776 -0.001335 -0.003018 0.016927
#
#
# Mechanical properties :
#
#
# Convention : Reuss Voigt Hill
#
# Bulk Modulus (GPa) = 56.93692 78.05805 67.49749
# Shear Modulus (GPa) = 43.48740 53.16088 48.32414
#
# Velocity S-wave (km/s) = 4.02786 4.45336 4.24594
# Velocity P-wave (km/s) = 6.54772 7.45413 7.01558
#
# Compressibility (1/GPa) = 0.01756330
#
# Stress axis : x y z
#
# Youngs Moduli (GPa) = 127.37020 192.66654 50.63252
#
# Poissons Ratio (x) = 0.25478 0.24757
# Poissons Ratio (y) = 0.16843 0.07099
# Poissons Ratio (z) = 0.62279 0.27015
#
# Static dielectric constant tensor:
#      x y z
#    x 2.126980 0.081980 0.095100 
#    y 0.081980 1.988860 -0.223240 
#    z 0.095100 -0.223240 2.260910 
# 
# From -- ./inp_files/120687.got.cif
#   From: 2010.05.17/outbox.cif.g08.bks.cpg/sg2_61_cif.got.tgz:120687.got - 2010.06.03 11:33:40.
