data_PCOD9067490
_publ_section_title
;
Structure prediction by ZEFSAII (Michael W. Deem and Ramdas Pophale) SiO2 
 PCOD9067490
Probable space group: P -1
;
_chemical_formula_sum "Si O2"
_cell_formula_units_Z 14
_cell_length_a 9.313674
_cell_length_b 13.052544
_cell_length_c 12.735127
_cell_angle_alpha 147.231874
_cell_angle_beta 88.308889
_cell_angle_gamma 112.377703
_cell_volume 630.820201
_symmetry_space_group_name_H-M "P -1"
_symmetry_group_IT_number 2
_symmetry_cell_setting 'triclinic'
loop_
_space_group_symop_operation_xyz
x,y,z
-x,-y,-z
loop_
_atom_site_type_symbol
_atom_site_label
_atom_site_fract_x
_atom_site_fract_y
_atom_site_fract_z
Si Si1 0.139236 0.128539 0.505127
Si Si2 0.275004 0.822667 0.978686
Si Si3 0.161387 0.998021 0.766893
Si Si4 0.726943 0.266406 0.336363
Si Si5 0.809043 0.272397 0.866633
Si Si6 0.061528 0.213702 0.103450
Si Si7 0.457540 0.638125 0.045175
O O1 0.019797 0.118152 0.403299
O O2 0.204635 0.967127 0.346494
O O3 0.318782 0.416499 0.773364
O O4 0.000000 0.000000 0.500000
O O5 0.197670 0.681215 0.969370
O O6 0.500947 0.056116 0.184099
O O7 0.253473 0.697515 0.759282
O O8 0.138500 0.883954 0.019877
O O9 0.168029 0.831986 0.707318
O O10 0.344200 0.120107 0.796958
O O11 0.185704 0.217408 0.015968
O O12 0.820855 0.520039 0.614223
O O13 0.646557 0.270722 0.823526
O O14 0.000000 0.500000 0.000000
O O15 0.000000 0.000000 0.000000
O O16 0.500000 0.500000 0.000000
#
# Coordination Sequence:
#
# PCOD9067490 Si02
#       7
#     2   2   2   2   2   2   2
#     4  12  26  46  71 105 146 193 240 306 365 432
#     4  11  25  50  71 106 150 189 245 304 366 437
#     4  12  26  45  72 107 145 190 247 299 368 442
#     4  11  27  48  74 109 145 196 244 304 374 436
#     4  12  25  46  75 106 144 195 241 300 371 434
#     4  12  27  46  74 109 144 190 244 303 374 440
#     4  12  27  48  70 106 148 189 248 302 362 444
#
# _framework density 22.19333
#
# number of rings (size 3 to 8) (size 9 to 14) (size 15 to 20)
#    0.000    0.286    7.143    0.429    4.000    1.143 
#    0.000    0.000    0.000    0.000    0.000    0.000 
#    0.000    0.000    0.000    0.000    0.000    0.000 
#
# Total GULP energy -78226.332212 kJ/mol
# GULP energy per Si atom -5587.595158 kJ/mol
# Density = 2.214282 g / cm^3
# Si number density = 22.193330 Si / 1000 Ang^3
#
#
#
# Elastic Constant Matrix: (Units=GPa)
#
#
# Indices 1 2 3 4 5 6 
#
# 1 188.5636 37.5715 75.2998 -5.6223 -7.9938 -5.9545
# 2 37.5715 105.8128 17.6150 -14.1322 2.4249 -3.6493
# 3 75.2998 17.6150 118.3240 -10.5885 -4.8169 -18.7572
# 4 -5.6223 -14.1322 -10.5885 20.0772 5.4933 2.0061
# 5 -7.9938 2.4249 -4.8169 5.4933 41.2753 2.2969
# 6 -5.9545 -3.6493 -18.7572 2.0061 2.2969 48.6643
#
#
#
# Elastic Compliance Matrix: (Units=1/GPa)
#
#
# Indices 1 2 3 4 5 6 
#
# 1 0.007653 -0.002287 -0.004849 -0.002305 0.001417 -0.001076
# 2 -0.002287 0.011336 0.000492 0.008137 -0.002164 0.000526
# 3 -0.004849 0.000492 0.012571 0.005329 -0.000438 0.004090
# 4 -0.002305 0.008137 0.005329 0.059941 -0.008297 0.000303
# 5 0.001417 -0.002164 -0.000438 -0.008297 0.025740 -0.001030
# 6 -0.001076 0.000526 0.004090 0.000303 -0.001030 0.022069
#
#
# Mechanical properties :
#
#
# Convention : Reuss Voigt Hill
#
# Bulk Modulus (GPa) = 54.73235 74.85255 64.79245
# Shear Modulus (GPa) = 31.50835 40.81763 36.16299
#
# Velocity S-wave (km/s) = 3.77201 4.29322 4.04103
# Velocity P-wave (km/s) = 6.60953 7.64045 7.14361
#
# Compressibility (1/GPa) = 0.01827073
#
# Stress axis : x y z
#
# Youngs Moduli (GPa) = 130.67405 88.21797 79.54685
#
# Poissons Ratio (x) = 0.20180 0.38569
# Poissons Ratio (y) = 0.29891 -0.03911
# Poissons Ratio (z) = 0.63358 -0.04338
#
# Static dielectric constant tensor:
#      x y z
#    x 1.834160 -0.046860 -0.001510 
#    y -0.046860 2.089110 -0.035330 
#    z -0.001510 -0.035330 1.803930 
# 
# From -- ./inp_files/505838.got.cif
#   From: 2010.05.17/outbox.cif.g08.bks.cpg/sg2_253_cif.got.tgz:505838.got - 2010.06.03 11:33:40.
