data_PCOD9067520
_publ_section_title
;
Structure prediction by ZEFSAII (Michael W. Deem and Ramdas Pophale) SiO2 
 PCOD9067520
Probable space group: P -1
;
_chemical_formula_sum "Si O2"
_cell_formula_units_Z 14
_cell_length_a 14.628280
_cell_length_b 5.735983
_cell_length_c 23.394914
_cell_angle_alpha 116.957360
_cell_angle_beta 160.270260
_cell_angle_gamma 59.965773
_cell_volume 572.634306
_symmetry_space_group_name_H-M "P -1"
_symmetry_group_IT_number 2
_symmetry_cell_setting 'triclinic'
loop_
_space_group_symop_operation_xyz
x,y,z
-x,-y,-z
loop_
_atom_site_type_symbol
_atom_site_label
_atom_site_fract_x
_atom_site_fract_y
_atom_site_fract_z
Si Si1 0.412214 0.246847 0.673352
Si Si2 0.035400 0.507885 0.380525
Si Si3 0.815237 0.582144 0.955380
Si Si4 0.277658 0.075481 0.689031
Si Si5 0.362358 0.746847 0.510870
Si Si6 0.483657 0.688454 0.954898
Si Si7 0.049938 0.596582 0.214486
O O1 0.254089 0.450627 0.554755
O O2 0.706479 0.310635 0.867280
O O3 0.290865 0.284337 0.669625
O O4 0.393236 0.964133 0.601630
O O5 0.221614 0.530297 0.437185
O O6 0.802926 0.791500 0.282183
O O7 0.830278 0.311844 0.249154
O O8 0.550347 0.835706 0.820943
O O9 0.000000 0.500000 0.000000
O O10 0.977581 0.664290 0.113603
O O11 0.000000 0.000000 0.500000
O O12 0.160608 0.806885 0.343105
O O13 0.671598 0.645157 0.654924
O O14 0.500000 0.500000 0.000000
O O15 0.761098 0.551163 0.065779
O O16 0.500000 0.000000 0.000000
#
# Coordination Sequence:
#
# PCOD9067520 Si02
#       7
#     2   2   2   2   2   2   2
#     4  12  24  46  75 107 149 201 262 326 397 476
#     4  12  25  45  76 110 152 205 265 330 399 479
#     4  12  28  49  73 113 155 204 263 328 406 482
#     4  12  25  43  74 106 149 198 260 324 392 475
#     4  11  25  50  75 111 153 201 267 325 409 484
#     4  12  28  50  77 118 162 209 268 336 406 484
#     4  11  26  50  76 111 156 209 261 332 412 482
#
# _framework density 24.448415000000001
#
# number of rings (size 3 to 8) (size 9 to 14) (size 15 to 20)
#    0.000    0.286    4.286    3.857    4.000    3.429 
#    2.571    4.286    0.000    0.000    0.000    0.000 
#    0.000    0.000    0.000    0.000    0.000    0.000 
#
# Total GULP energy -78004.798981 kJ/mol
# GULP energy per Si atom -5571.771356 kJ/mol
# Density = 2.439277 g / cm^3
# Si number density = 24.448415 Si / 1000 Ang^3
#
#
#
# Elastic Constant Matrix: (Units=GPa)
#
#
# Indices 1 2 3 4 5 6 
#
# 1 138.4037 22.5475 37.4614 -9.0625 25.1936 -7.5607
# 2 22.5475 66.5218 27.7571 5.5240 6.3665 -13.8687
# 3 37.4614 27.7571 110.0817 0.1650 -5.3275 -6.7678
# 4 -9.0625 5.5240 0.1650 40.7116 1.8713 9.2549
# 5 25.1936 6.3665 -5.3275 1.8713 63.1806 -4.1171
# 6 -7.5607 -13.8687 -6.7678 9.2549 -4.1171 32.0730
#
#
#
# Elastic Compliance Matrix: (Units=1/GPa)
#
#
# Indices 1 2 3 4 5 6 
#
# 1 0.009137 -0.001855 -0.002859 0.002582 -0.003806 -0.000485
# 2 -0.001855 0.019514 -0.003799 -0.004943 -0.000846 0.008517
# 3 -0.002859 -0.003799 0.011166 -0.000389 0.002507 0.000474
# 4 0.002582 -0.004943 -0.000389 0.028179 -0.002051 -0.010005
# 5 -0.003806 -0.000846 0.002507 -0.002051 0.017842 0.002149
# 6 -0.000485 0.008517 0.000474 -0.010005 0.002149 0.038010
#
#
# Mechanical properties :
#
#
# Convention : Reuss Voigt Hill
#
# Bulk Modulus (GPa) = 43.88001 54.50435 49.19218
# Shear Modulus (GPa) = 33.67657 42.34245 38.00951
#
# Velocity S-wave (km/s) = 3.71543 4.16614 3.94722
# Velocity P-wave (km/s) = 6.03265 6.74420 6.39833
#
# Compressibility (1/GPa) = 0.02278942
#
# Stress axis : x y z
#
# Youngs Moduli (GPa) = 109.44849 51.24644 89.55646
#
# Poissons Ratio (x) = 0.09507 0.25608
# Poissons Ratio (y) = 0.20305 0.34022
# Poissons Ratio (z) = 0.31295 0.19468
#
# Static dielectric constant tensor:
#      x y z
#    x 1.809330 -0.118800 -0.012110 
#    y -0.118800 2.660260 -0.267570 
#    z -0.012110 -0.267570 2.134190 
# 
# From -- ./inp_files/611344.got.cif
#   From: 2010.05.17/outbox.cif.g08.bks.cpg/sg2_306_cif.got.tgz:611344.got - 2010.06.03 11:33:40.
