data_PCOD9067869
_publ_section_title
;
Structure prediction by ZEFSAII (Michael W. Deem and Ramdas Pophale) SiO2 
 PCOD9067869
Probable space group: P -1
;
_chemical_formula_sum "Si O2"
_cell_formula_units_Z 16
_cell_length_a 12.149336
_cell_length_b 16.090144
_cell_length_c 8.000105
_cell_angle_alpha 118.793658
_cell_angle_beta 87.759612
_cell_angle_gamma 42.007436
_cell_volume 675.128032
_symmetry_space_group_name_H-M "P -1"
_symmetry_group_IT_number 2
_symmetry_cell_setting 'triclinic'
loop_
_space_group_symop_operation_xyz
x,y,z
-x,-y,-z
loop_
_atom_site_type_symbol
_atom_site_label
_atom_site_fract_x
_atom_site_fract_y
_atom_site_fract_z
Si Si1 0.670732 0.424666 0.295653
Si Si2 0.692078 0.899906 0.509027
Si Si3 0.718045 0.779117 0.735158
Si Si4 0.451136 0.781963 0.105812
Si Si5 0.830151 0.499332 0.393620
Si Si6 0.351306 0.695623 0.289913
Si Si7 0.116073 0.516650 0.004618
Si Si8 0.908622 0.060045 0.875776
O O1 0.500000 0.500000 0.500000
O O2 0.798358 0.415042 0.367122
O O3 0.508255 0.595910 0.340890
O O4 0.830517 0.227265 0.006843
O O5 0.760565 0.779848 0.542184
O O6 0.917468 0.741159 0.237494
O O7 0.500000 0.000000 0.500000
O O8 0.619040 0.056745 0.726333
O O9 0.687450 0.689525 0.671554
O O10 0.917807 0.659901 0.729012
O O11 0.500000 0.000000 0.000000
O O12 0.351231 0.787019 0.260315
O O13 0.319031 0.831901 0.009167
O O14 0.712211 0.590601 0.959101
O O15 0.783555 0.548610 0.248274
O O16 0.500000 0.500000 0.000000
O O17 0.101765 0.873184 0.559432
O O18 0.000000 0.500000 0.000000
O O19 0.000000 0.000000 0.000000
#
# Coordination Sequence:
#
# PCOD9067869 Si02
#       8
#     2   2   2   2   2   2   2   2
#     4  12  27  49  76 108 154 199 255 320 391 458
#     4  12  26  45  72 112 149 193 254 310 377 460
#     4  11  26  46  70 107 151 196 247 305 386 458
#     4  12  28  44  77 109 149 205 246 321 390 456
#     4  11  26  47  73 107 148 198 246 315 380 461
#     4  12  27  51  74 108 150 198 265 317 381 467
#     4  12  24  48  75 108 150 190 253 310 381 457
#     4  12  29  50  73 113 153 201 266 321 387 467
#
# _framework density 23.699207999999999
#
# number of rings (size 3 to 8) (size 9 to 14) (size 15 to 20)
#    0.000    0.250    6.250    1.125    5.250    3.000 
#    0.000    0.000    0.000    0.000    0.000    0.000 
#    0.000    0.000    0.000    0.000    0.000    0.000 
#
# Total GULP energy -89327.307039 kJ/mol
# GULP energy per Si atom -5582.956690 kJ/mol
# Density = 2.364527 g / cm^3
# Si number density = 23.699208 Si / 1000 Ang^3
#
#
#
# Elastic Constant Matrix: (Units=GPa)
#
#
# Indices 1 2 3 4 5 6 
#
# 1 162.0624 35.1530 48.1394 5.4063 21.1059 -21.1154
# 2 35.1530 120.8926 5.7875 8.0009 7.2899 -28.4914
# 3 48.1394 5.7875 138.6385 27.7375 14.7023 -14.3671
# 4 5.4063 8.0009 27.7375 44.1479 6.2576 -3.7256
# 5 21.1059 7.2899 14.7023 6.2576 30.8394 1.7541
# 6 -21.1154 -28.4914 -14.3671 -3.7256 1.7541 46.9429
#
#
#
# Elastic Compliance Matrix: (Units=1/GPa)
#
#
# Indices 1 2 3 4 5 6 
#
# 1 0.008016 -0.001522 -0.002328 0.001581 -0.004466 0.002262
# 2 -0.001522 0.010269 0.001255 -0.001688 -0.001976 0.005872
# 3 -0.002328 0.001255 0.009531 -0.005415 -0.002279 0.002287
# 4 0.001581 -0.001688 -0.005415 0.026690 -0.003533 0.000280
# 5 -0.004466 -0.001976 -0.002279 -0.003533 0.038071 -0.005608
# 6 0.002262 0.005872 0.002287 0.000280 -0.005608 0.026816
#
#
# Mechanical properties :
#
#
# Convention : Reuss Voigt Hill
#
# Bulk Modulus (GPa) = 44.19472 66.63925 55.41698
# Shear Modulus (GPa) = 37.84349 46.55361 42.19855
#
# Velocity S-wave (km/s) = 4.00036 4.43691 4.22428
# Velocity P-wave (km/s) = 6.32660 7.37754 6.87219
#
# Compressibility (1/GPa) = 0.02262714
#
# Stress axis : x y z
#
# Youngs Moduli (GPa) = 124.75737 97.38074 104.92158
#
# Poissons Ratio (x) = 0.14817 0.24426
# Poissons Ratio (y) = 0.18983 -0.13172
# Poissons Ratio (z) = 0.29044 -0.12226
#
# Static dielectric constant tensor:
#      x y z
#    x 2.017290 0.073440 -0.052110 
#    y 0.073440 1.970880 -0.100000 
#    z -0.052110 -0.100000 1.952810 
# 
# From -- ./inp_files/279908.got.cif
#   From: 2010.05.17/outbox.cif.g08.bks.cpg/sg2_140_cif.got.tgz:279908.got - 2010.06.03 11:33:40.
