data_PCOD9067442
_publ_section_title
;
Structure prediction by ZEFSAII (Michael W. Deem and Ramdas Pophale) SiO2 
 PCOD9067442
Probable space group: P -1
;
_chemical_formula_sum "Si O2"
_cell_formula_units_Z 11
_cell_length_a 7.754012
_cell_length_b 13.996709
_cell_length_c 6.032090
_cell_angle_alpha 120.063951
_cell_angle_beta 84.969921
_cell_angle_gamma 60.018361
_cell_volume 438.051234
_symmetry_space_group_name_H-M "P -1"
_symmetry_group_IT_number 2
_symmetry_cell_setting 'triclinic'
loop_
_space_group_symop_operation_xyz
x,y,z
-x,-y,-z
loop_
_atom_site_type_symbol
_atom_site_label
_atom_site_fract_x
_atom_site_fract_y
_atom_site_fract_z
Si Si1 0.377278 0.466129 0.139667
Si Si2 0.948194 0.362163 0.253790
Si Si3 0.927810 0.856387 0.367702
Si Si4 0.000000 0.500000 0.000000
Si Si5 0.323164 0.831024 0.434443
Si Si6 0.634471 0.841239 0.708566
O O1 0.513682 0.297020 0.904222
O O2 0.284407 0.538715 0.471495
O O3 0.500000 0.500000 0.000000
O O4 0.150382 0.537253 0.118156
O O5 0.977325 0.455869 0.203840
O O6 0.173567 0.264806 0.262572
O O7 0.950900 0.249723 0.975314
O O8 0.762942 0.833679 0.467445
O O9 0.111186 0.834131 0.490401
O O10 0.779158 0.017470 0.483200
O O11 0.472243 0.808459 0.602477
O O12 0.500000 0.000000 0.000000
#
# Coordination Sequence:
#
# PCOD9067442 Si02
#       6
#     2   2   2   1   2   2
#     4  12  27  49  77 116 160 206 258 323 401 466
#     4  12  26  52  80 115 162 207 265 327 385 481
#     4  11  26  50  74 116 156 199 271 319 383 475
#     4  12  28  48  76 114 158 210 262 314 390 470
#     4  11  25  49  77 114 156 204 259 322 397 463
#     4  12  26  48  82 113 153 207 261 329 391 457
#
# _framework density 25.111215000000001
#
# number of rings (size 3 to 8) (size 9 to 14) (size 15 to 20)
#    0.000    0.364    1.818    6.545    2.545    3.636 
#    6.545    1.818    0.000    1.091    0.000    0.000 
#    0.000    0.000    0.000    0.000    0.000    0.000 
#
# Total GULP energy -61360.657400 kJ/mol
# GULP energy per Si atom -5578.241582 kJ/mol
# Density = 2.505406 g / cm^3
# Si number density = 25.111215 Si / 1000 Ang^3
#
#
#
# Elastic Constant Matrix: (Units=GPa)
#
#
# Indices 1 2 3 4 5 6 
#
# 1 145.6383 27.0103 65.7875 -13.8788 18.8476 -3.1260
# 2 27.0103 99.8189 70.1974 8.0381 -7.1697 7.4803
# 3 65.7875 70.1974 182.6815 33.0698 -14.5540 -3.5556
# 4 -13.8788 8.0381 33.0698 52.6609 -10.7232 2.5731
# 5 18.8476 -7.1697 -14.5540 -10.7232 50.5483 -15.9138
# 6 -3.1260 7.4803 -3.5556 2.5731 -15.9138 34.7323
#
#
#
# Elastic Compliance Matrix: (Units=1/GPa)
#
#
# Indices 1 2 3 4 5 6 
#
# 1 0.010176 0.000245 -0.005089 0.004956 -0.004886 -0.002264
# 2 0.000245 0.014320 -0.006043 0.001726 -0.000740 -0.004148
# 3 -0.005089 -0.006043 0.011296 -0.006867 0.004237 0.004450
# 4 0.004956 0.001726 -0.006867 0.024650 0.001024 -0.001986
# 5 -0.004886 -0.000740 0.004237 0.001024 0.026832 0.012371
# 6 -0.002264 -0.004148 0.004450 -0.001986 0.012371 0.035752
#
#
# Mechanical properties :
#
#
# Convention : Reuss Voigt Hill
#
# Bulk Modulus (GPa) = 71.33727 83.79212 77.56470
# Shear Modulus (GPa) = 33.45081 45.26454 39.35768
#
# Velocity S-wave (km/s) = 3.65376 4.25027 3.96325
# Velocity P-wave (km/s) = 6.80222 7.58467 7.20407
#
# Compressibility (1/GPa) = 0.01401792
#
# Stress axis : x y z
#
# Youngs Moduli (GPa) = 98.27289 69.83091 88.52607
#
# Poissons Ratio (x) = -0.01711 0.45052
# Poissons Ratio (y) = -0.02408 0.53497
# Poissons Ratio (z) = 0.50012 0.42199
#
# Static dielectric constant tensor:
#      x y z
#    x 1.952640 -0.037130 -0.005190 
#    y -0.037130 2.003620 0.036480 
#    z -0.005190 0.036480 2.036720 
# 
# From -- ./inp_files/46051.got.cif
#   From: 2010.05.17/outbox.cif.g08.bks.cpg/sg2_24_cif.got.tgz:46051.got - 2010.06.03 11:33:40.
