data_PCOD9067957
_publ_section_title
;
Structure prediction by ZEFSAII (Michael W. Deem and Ramdas Pophale) SiO2 
 PCOD9067957
Probable space group: P -1
;
_chemical_formula_sum "Si O2"
_cell_formula_units_Z 14
_cell_length_a 9.499488
_cell_length_b 13.143823
_cell_length_c 9.127744
_cell_angle_alpha 73.937698
_cell_angle_beta 149.343028
_cell_angle_gamma 103.147174
_cell_volume 558.306818
_symmetry_space_group_name_H-M "P -1"
_symmetry_group_IT_number 2
_symmetry_cell_setting 'triclinic'
loop_
_space_group_symop_operation_xyz
x,y,z
-x,-y,-z
loop_
_atom_site_type_symbol
_atom_site_label
_atom_site_fract_x
_atom_site_fract_y
_atom_site_fract_z
Si Si1 0.624882 0.381978 0.919287
Si Si2 0.465176 0.798850 0.854608
Si Si3 0.272733 0.927582 0.250252
Si Si4 0.094612 0.111188 0.599134
Si Si5 0.101442 0.263861 0.975494
Si Si6 0.621282 0.779343 0.447257
Si Si7 0.907760 0.490017 0.591389
O O1 0.564160 0.313008 0.748929
O O2 0.415207 0.482516 0.696017
O O3 0.542365 0.306354 0.010617
O O4 0.928654 0.422804 0.203582
O O5 0.152914 0.839073 0.545949
O O6 0.630539 0.886257 0.059591
O O7 0.646012 0.774465 0.885607
O O8 0.429638 0.884807 0.261669
O O9 0.151971 0.815116 0.235410
O O10 0.500000 0.000000 0.500000
O O11 0.000000 0.000000 0.000000
O O12 0.154271 0.186915 0.485130
O O13 0.000000 0.000000 0.500000
O O14 0.995073 0.377460 0.780055
O O15 0.222188 0.254929 0.251270
O O16 0.000000 0.500000 0.500000
#
# Coordination Sequence:
#
# PCOD9067957 Si02
#       7
#     2   2   2   2   2   2   2
#     4  11  26  50  79 111 163 204 260 332 396 472
#     4  11  26  46  75 109 153 206 259 323 387 471
#     4  12  29  50  77 112 166 211 261 323 402 469
#     4  11  27  47  75 107 153 208 266 320 395 465
#     4  12  30  48  83 118 160 206 275 331 395 480
#     4  11  29  51  78 119 165 205 270 329 405 473
#     4  12  27  49  82 117 155 212 268 321 404 480
#
# _framework density 25.075817000000001
#
# number of rings (size 3 to 8) (size 9 to 14) (size 15 to 20)
#    0.000    0.571    2.857    2.571   14.000    1.143 
#    0.000    0.000    0.000    0.000    0.000    0.000 
#    0.000    0.000    0.000    0.000    0.000    0.000 
#
# Total GULP energy -78489.479756 kJ/mol
# GULP energy per Si atom -5606.391411 kJ/mol
# Density = 2.501874 g / cm^3
# Si number density = 25.075817 Si / 1000 Ang^3
#
#
#
# Elastic Constant Matrix: (Units=GPa)
#
#
# Indices 1 2 3 4 5 6 
#
# 1 84.2988 25.2241 30.4656 10.1099 -6.4871 -3.7810
# 2 25.2241 148.5080 35.5753 13.9472 -11.7898 9.3402
# 3 30.4656 35.5753 120.3221 11.2183 5.2420 11.9655
# 4 10.1099 13.9472 11.2183 38.5463 -2.6107 5.7961
# 5 -6.4871 -11.7898 5.2420 -2.6107 51.1298 -2.5134
# 6 -3.7810 9.3402 11.9655 5.7961 -2.5134 38.3155
#
#
#
# Elastic Compliance Matrix: (Units=1/GPa)
#
#
# Indices 1 2 3 4 5 6 
#
# 1 0.014081 -0.001417 -0.003311 -0.002586 0.001829 0.003280
# 2 -0.001417 0.007747 -0.001738 -0.001644 0.001645 -0.001129
# 3 -0.003311 -0.001738 0.010162 -0.001144 -0.002070 -0.003040
# 4 -0.002586 -0.001644 -0.001144 0.028152 0.000665 -0.003712
# 5 0.001829 0.001645 -0.002070 0.000665 0.020498 0.001670
# 6 0.003280 -0.001129 -0.003040 -0.003712 0.001670 0.028318
#
#
# Mechanical properties :
#
#
# Convention : Reuss Voigt Hill
#
# Bulk Modulus (GPa) = 52.46965 59.51766 55.99365
# Shear Modulus (GPa) = 38.98860 43.05592 41.02226
#
# Velocity S-wave (km/s) = 3.94741 4.14820 4.04905
# Velocity P-wave (km/s) = 6.46111 6.83594 6.65116
#
# Compressibility (1/GPa) = 0.01905864
#
# Stress axis : x y z
#
# Youngs Moduli (GPa) = 71.01694 129.08862 98.40277
#
# Poissons Ratio (x) = 0.18288 0.32583
# Poissons Ratio (y) = 0.10061 0.17100
# Poissons Ratio (z) = 0.23515 0.22433
#
# Static dielectric constant tensor:
#      x y z
#    x 1.988300 -0.001390 -0.048190 
#    y -0.001390 1.944120 -0.038400 
#    z -0.048190 -0.038400 1.969120 
# 
# From -- ./inp_files/201691.got.cif
#   From: 2010.05.17/outbox.cif.g08.bks.cpg/sg2_101_cif.got.tgz:201691.got - 2010.06.03 11:33:40.
