data_PCOD9067502
_publ_section_title
;
Structure prediction by ZEFSAII (Michael W. Deem and Ramdas Pophale) SiO2 
 PCOD9067502
Probable space group: P -1
;
_chemical_formula_sum "Si O2"
_cell_formula_units_Z 13
_cell_length_a 9.132874
_cell_length_b 13.923124
_cell_length_c 10.912401
_cell_angle_alpha 144.508060
_cell_angle_beta 45.576282
_cell_angle_gamma 123.989970
_cell_volume 575.166291
_symmetry_space_group_name_H-M "P -1"
_symmetry_group_IT_number 2
_symmetry_cell_setting 'triclinic'
loop_
_space_group_symop_operation_xyz
x,y,z
-x,-y,-z
loop_
_atom_site_type_symbol
_atom_site_label
_atom_site_fract_x
_atom_site_fract_y
_atom_site_fract_z
Si Si1 0.897754 0.132593 0.788629
Si Si2 0.476870 0.631249 0.540001
Si Si3 0.789302 0.428208 0.997940
Si Si4 0.924428 0.320445 0.324558
Si Si5 0.500000 0.000000 0.000000
Si Si6 0.766102 0.838213 0.196521
Si Si7 0.297068 0.773689 0.396038
O O1 0.763969 0.262563 0.922571
O O2 0.082959 0.216396 0.839230
O O3 0.741066 0.048202 0.884367
O O4 0.000000 0.000000 0.500000
O O5 0.500000 0.500000 0.500000
O O6 0.244894 0.652253 0.652623
O O7 0.549097 0.810230 0.723990
O O8 0.608584 0.556113 0.272201
O O9 0.783394 0.360958 0.793081
O O10 0.000000 0.500000 0.000000
O O11 0.814311 0.245013 0.428567
O O12 0.000000 0.500000 0.500000
O O13 0.114438 0.210320 0.048176
O O14 0.543750 0.759758 0.248407
O O15 0.742807 0.037113 0.428240
#
# Coordination Sequence:
#
# PCOD9067502 Si02
#       7
#     2   2   2   2   1   2   2
#     4  12  25  47  78 113 147 196 255 310 378 444
#     4  12  27  49  75 113 149 195 251 310 374 450
#     4  12  27  47  76 109 152 198 249 317 377 452
#     4  12  28  48  74 107 151 199 247 308 380 450
#     4  12  26  46  80 112 150 192 248 316 368 446
#     4  11  25  50  74 106 147 199 250 309 372 451
#     4  11  28  48  74 108 149 197 250 310 375 450
#
# _framework density 22.602160000000001
#
# number of rings (size 3 to 8) (size 9 to 14) (size 15 to 20)
#    0.000    0.308    4.615    2.308    8.615    1.231 
#    5.538    0.000    0.000    0.000    0.000    0.000 
#    0.000    0.000    0.000    0.000    0.000    0.000 
#
# Total GULP energy -72526.503826 kJ/mol
# GULP energy per Si atom -5578.961833 kJ/mol
# Density = 2.255072 g / cm^3
# Si number density = 22.602160 Si / 1000 Ang^3
#
#
#
# Elastic Constant Matrix: (Units=GPa)
#
#
# Indices 1 2 3 4 5 6 
#
# 1 84.3932 37.6595 27.9051 -1.0333 16.1435 7.0523
# 2 37.6595 67.4836 30.1497 -7.9407 9.1304 21.2605
# 3 27.9051 30.1497 178.0608 -9.2655 17.9945 15.4206
# 4 -1.0333 -7.9407 -9.2655 56.2476 7.4688 0.5048
# 5 16.1435 9.1304 17.9945 7.4688 36.4890 2.2137
# 6 7.0523 21.2605 15.4206 0.5048 2.2137 37.0837
#
#
#
# Elastic Compliance Matrix: (Units=1/GPa)
#
#
# Indices 1 2 3 4 5 6 
#
# 1 0.017009 -0.009407 -0.000859 -0.000544 -0.004807 0.002810
# 2 -0.009407 0.025056 -0.001415 0.003422 -0.001385 -0.011951
# 3 -0.000859 -0.001415 0.006452 0.001206 -0.002599 -0.001569
# 4 -0.000544 0.003422 0.001206 0.019133 -0.004986 -0.002323
# 5 -0.004807 -0.001385 -0.002599 -0.004986 0.032124 0.000939
# 6 0.002810 -0.011951 -0.001569 -0.002323 0.000939 0.033912
#
#
# Mechanical properties :
#
#
# Convention : Reuss Voigt Hill
#
# Bulk Modulus (GPa) = 39.75463 57.92958 48.84211
# Shear Modulus (GPa) = 30.22376 41.57895 35.90136
#
# Velocity S-wave (km/s) = 3.66075 4.29371 3.98980
# Velocity P-wave (km/s) = 5.95778 7.08992 6.54837
#
# Compressibility (1/GPa) = 0.02515430
#
# Stress axis : x y z
#
# Youngs Moduli (GPa) = 58.79178 39.91097 154.99995
#
# Poissons Ratio (x) = 0.37546 0.13309
# Poissons Ratio (y) = 0.55308 0.21935
# Poissons Ratio (z) = 0.05048 0.05648
#
# Static dielectric constant tensor:
#      x y z
#    x 1.883880 -0.025670 0.015150 
#    y -0.025670 1.866100 -0.006370 
#    z 0.015150 -0.006370 1.840430 
# 
# From -- ./inp_files/261254.got.cif
#   From: 2010.05.17/outbox.cif.g08.bks.cpg/sg2_131_cif.got.tgz:261254.got - 2010.06.03 11:33:40.
