data_PCOD9067575
_publ_section_title
;
Structure prediction by ZEFSAII (Michael W. Deem and Ramdas Pophale) SiO2 
 PCOD9067575
Probable space group: P -1
;
_chemical_formula_sum "Si O2"
_cell_formula_units_Z 12
_cell_length_a 6.332990
_cell_length_b 8.746382
_cell_length_c 9.743955
_cell_angle_alpha 73.469170
_cell_angle_beta 105.698590
_cell_angle_gamma 77.102236
_cell_volume 471.027935
_symmetry_space_group_name_H-M "P -1"
_symmetry_group_IT_number 2
_symmetry_cell_setting 'triclinic'
loop_
_space_group_symop_operation_xyz
x,y,z
-x,-y,-z
loop_
_atom_site_type_symbol
_atom_site_label
_atom_site_fract_x
_atom_site_fract_y
_atom_site_fract_z
Si Si1 0.506905 0.640645 0.765700
Si Si2 0.000000 0.000000 0.500000
Si Si3 0.800098 0.328693 0.034566
Si Si4 0.726402 0.923921 0.732044
Si Si5 0.519117 0.841451 0.138443
Si Si6 0.001686 0.678714 0.391408
Si Si7 0.500000 0.500000 0.500000
O O1 0.295915 0.660051 0.828883
O O2 0.551392 0.817488 0.707218
O O3 0.448078 0.580091 0.625320
O O4 0.735729 0.514139 0.911303
O O5 0.838849 0.967334 0.604783
O O6 0.970452 0.833728 0.450193
O O7 0.056550 0.197631 0.111413
O O8 0.627160 0.256772 0.938101
O O9 0.589508 0.087454 0.752563
O O10 0.784248 0.734626 0.236460
O O11 0.500000 0.000000 0.000000
O O12 0.000000 0.500000 0.500000
O O13 0.245713 0.624042 0.372672
#
# Coordination Sequence:
#
# PCOD9067575 Si02
#       7
#     2   1   2   2   2   2   1
#     4  11  26  48  81 120 165 221 286 351 430 516
#     4  12  30  52  84 118 178 228 290 356 432 508
#     4  11  25  50  80 121 166 220 282 349 437 516
#     4  12  27  50  81 120 167 223 284 357 425 513
#     4  12  27  51  85 124 167 222 287 355 433 513
#     4  12  30  54  80 124 169 227 289 352 434 520
#     4  12  28  48  84 118 168 224 274 348 424 514
#
# _framework density 25.476194
#
# number of rings (size 3 to 8) (size 9 to 14) (size 15 to 20)
#    0.000    0.333    1.667    5.000    9.333    4.667 
#    0.000    0.000    0.000    0.000    0.000    0.000 
#    0.000    0.000    0.000    0.000    0.000    0.000 
#
# Total GULP energy -66835.708041 kJ/mol
# GULP energy per Si atom -5569.642337 kJ/mol
# Density = 2.541821 g / cm^3
# Si number density = 25.476194 Si / 1000 Ang^3
#
#
#
# Elastic Constant Matrix: (Units=GPa)
#
#
# Indices 1 2 3 4 5 6 
#
# 1 44.1189 47.6186 50.1163 -7.1954 21.0793 -25.7989
# 2 47.6186 111.2834 39.0744 9.8315 2.5295 26.4962
# 3 50.1163 39.0744 115.2171 5.3002 -0.3063 4.5314
# 4 -7.1954 9.8315 5.3002 68.4275 -14.3318 -2.5388
# 5 21.0793 2.5295 -0.3063 -14.3318 65.7536 -19.6925
# 6 -25.7989 26.4962 4.5314 -2.5388 -19.6925 59.3337
#
#
#
# Elastic Compliance Matrix: (Units=1/GPa)
#
#
# Indices 1 2 3 4 5 6 
#
# 1 -0.067442 0.033684 0.020367 -0.014413 0.003709 -0.045307
# 2 0.033684 -0.004809 -0.013911 0.004949 -0.004651 0.016524
# 3 0.020367 -0.013911 0.003760 0.004265 -0.000628 0.014754
# 4 -0.014413 0.004949 0.004265 0.012932 0.005328 -0.006481
# 5 0.003709 -0.004651 -0.000628 0.005328 0.018370 0.010062
# 6 -0.045307 0.016524 0.014754 -0.006481 0.010062 -0.008290
#
#
# Mechanical properties :
#
#
# Convention : Reuss Voigt Hill
#
# Bulk Modulus (GPa) = 84.82492 60.47086 72.64789
# Shear Modulus (GPa) = -41.04119 47.62364 3.29122
#
# Velocity S-wave (km/s) = -4.01803 4.32828 1.13784
# Velocity P-wave (km/s) = 3.44121 6.98329 5.50492
#
# Compressibility (1/GPa) = 0.01178899
#
# Stress axis : x y z
#
# Youngs Moduli (GPa) = -14.82761 -207.94428 265.97242
#
# Poissons Ratio (x) = 7.00438 -5.41697
# Poissons Ratio (y) = 0.49945 3.69984
# Poissons Ratio (z) = 0.30199 -2.89263
#
# Static dielectric constant tensor:
#      x y z
#    x 2.007570 -0.008860 0.042240 
#    y -0.008860 2.013830 -0.051060 
#    z 0.042240 -0.051060 1.966930 
# 
# From -- ./inp_files/129337.got.cif
#   From: 2010.05.17/outbox.cif.g08.bks.cpg/sg2_65_cif.got.tgz:129337.got - 2010.06.03 11:33:40.
