data_PCOD9067889
_publ_section_title
;
Structure prediction by ZEFSAII (Michael W. Deem and Ramdas Pophale) SiO2 
 PCOD9067889
Probable space group: P -1
;
_chemical_formula_sum "Si O2"
_cell_formula_units_Z 14
_cell_length_a 15.363735
_cell_length_b 27.254817
_cell_length_c 15.776212
_cell_angle_alpha 160.852238
_cell_angle_beta 18.544743
_cell_angle_gamma 161.994472
_cell_volume 583.929971
_symmetry_space_group_name_H-M "P -1"
_symmetry_group_IT_number 2
_symmetry_cell_setting 'triclinic'
loop_
_space_group_symop_operation_xyz
x,y,z
-x,-y,-z
loop_
_atom_site_type_symbol
_atom_site_label
_atom_site_fract_x
_atom_site_fract_y
_atom_site_fract_z
Si Si1 0.866189 0.663819 0.433259
Si Si2 0.494631 0.852064 0.386173
Si Si3 0.565601 0.821431 0.081028
Si Si4 0.327835 0.822822 0.811192
Si Si5 0.846027 0.908230 0.329524
Si Si6 0.818904 0.691677 0.329749
Si Si7 0.120881 0.534615 0.671005
O O1 0.500000 0.500000 0.500000
O O2 0.946699 0.715099 0.344879
O O3 0.180736 0.664930 0.176282
O O4 0.808931 0.790396 0.752514
O O5 0.635030 0.837608 0.142920
O O6 0.723173 0.885814 0.310184
O O7 0.162267 0.666735 0.407180
O O8 0.434131 0.010891 0.684193
O O9 0.559181 0.854336 0.571245
O O10 0.240056 0.651023 0.665856
O O11 0.008513 0.800907 0.029540
O O12 0.500000 0.000000 0.000000
O O13 0.106800 0.114628 0.444279
O O14 0.436862 0.553979 0.453241
O O15 0.996568 0.632498 0.005655
#
# Coordination Sequence:
#
# PCOD9067889 Si02
#       7
#     2   2   2   2   2   2   2
#     4  12  24  43  72 107 136 182 240 287 335 412
#     4  11  28  48  69 106 143 190 227 284 353 422
#     4  11  26  46  71  98 147 188 223 283 356 410
#     4  12  24  44  73 103 134 183 230 297 348 401
#     4  12  25  44  73  99 139 181 235 282 350 417
#     4  12  23  43  71 103 135 185 231 293 341 408
#     4  12  26  44  72 102 145 179 237 288 348 414
#
# _framework density 23.975477000000001
#
# number of rings (size 3 to 8) (size 9 to 14) (size 15 to 20)
#    0.000    0.286    4.286    4.286    2.000    6.857 
#    0.000    0.000    0.000    0.000    0.000    0.000 
#    0.000    0.000    0.000    0.000    0.000    0.000 
#
# Total GULP energy -78480.544868 kJ/mol
# GULP energy per Si atom -5605.753205 kJ/mol
# Density = 2.392091 g / cm^3
# Si number density = 23.975477 Si / 1000 Ang^3
#
#
#
# Elastic Constant Matrix: (Units=GPa)
#
#
# Indices 1 2 3 4 5 6 
#
# 1 161.6351 30.1635 25.6350 7.3700 -5.7749 16.8461
# 2 30.1635 146.7939 -18.0141 17.3119 -6.4039 22.7462
# 3 25.6350 -18.0141 63.4410 -2.9149 -3.5283 36.6680
# 4 7.3700 17.3119 -2.9149 21.2666 7.6678 -34.0933
# 5 -5.7749 -6.4039 -3.5283 7.6678 21.5329 4.3395
# 6 16.8461 22.7462 36.6680 -34.0933 4.3395 16.1018
#
#
#
# Elastic Compliance Matrix: (Units=1/GPa)
#
#
# Indices 1 2 3 4 5 6 
#
# 1 0.007150 -0.001790 -0.003643 -0.001228 0.001137 0.000438
# 2 -0.001790 0.005718 -0.000475 0.004634 -0.001536 0.005102
# 3 -0.003643 -0.000475 0.014035 0.015116 -0.005407 0.005984
# 4 -0.001228 0.004634 0.015116 0.009025 0.004715 -0.021846
# 5 0.001137 -0.001536 -0.005407 0.004715 0.041275 0.012152
# 6 0.000438 0.005102 0.005984 -0.021846 0.012152 -0.008720
#
#
# Mechanical properties :
#
#
# Convention : Reuss Voigt Hill
#
# Bulk Modulus (GPa) = 66.28409 49.71544 57.99976
# Shear Modulus (GPa) = 58.59878 34.05263 46.32570
#
# Velocity S-wave (km/s) = 4.94916 3.77279 4.40046
# Velocity P-wave (km/s) = 7.76953 6.30552 7.07549
#
# Compressibility (1/GPa) = 0.01508658
#
# Stress axis : x y z
#
# Youngs Moduli (GPa) = 139.86835 174.89710 71.24993
#
# Poissons Ratio (x) = 0.31300 0.25959
# Poissons Ratio (y) = 0.25031 0.03383
# Poissons Ratio (z) = 0.50960 0.08304
#
# Static dielectric constant tensor:
#      x y z
#    x 1.879160 0.021990 0.003740 
#    y 0.021990 2.014810 0.050960 
#    z 0.003740 0.050960 1.849670 
# 
# From -- ./inp_files/535730.got.cif
#   From: 2010.05.17/outbox.cif.g08.bks.cpg/sg2_268_cif.got.tgz:535730.got - 2010.06.03 11:33:40.
