data_PCOD9067616
_publ_section_title
;
Structure prediction by ZEFSAII (Michael W. Deem and Ramdas Pophale) SiO2 
 PCOD9067616
Probable space group: P -1
;
_chemical_formula_sum "Si O2"
_cell_formula_units_Z 14
_cell_length_a 8.800538
_cell_length_b 13.650264
_cell_length_c 11.452862
_cell_angle_alpha 145.900582
_cell_angle_beta 128.298954
_cell_angle_gamma 63.931690
_cell_volume 596.763576
_symmetry_space_group_name_H-M "P -1"
_symmetry_group_IT_number 2
_symmetry_cell_setting 'triclinic'
loop_
_space_group_symop_operation_xyz
x,y,z
-x,-y,-z
loop_
_atom_site_type_symbol
_atom_site_label
_atom_site_fract_x
_atom_site_fract_y
_atom_site_fract_z
Si Si1 0.193603 0.490390 0.790197
Si Si2 0.625506 0.030736 0.415379
Si Si3 0.212426 0.085865 0.380513
Si Si4 0.777421 0.423507 0.848914
Si Si5 0.389003 0.517908 0.670400
Si Si6 0.108492 0.251500 0.134046
Si Si7 0.449014 0.157031 0.048732
O O1 0.152824 0.279500 0.544236
O O2 0.323478 0.569083 0.818544
O O3 0.012073 0.594819 0.805556
O O4 0.279754 0.531551 0.000953
O O5 0.414629 0.076606 0.399455
O O6 0.756405 0.213889 0.622488
O O7 0.730376 0.954834 0.499232
O O8 0.595413 0.908516 0.168289
O O9 0.044529 0.929736 0.099625
O O10 0.611778 0.485018 0.750604
O O11 0.000000 0.500000 0.000000
O O12 0.245885 0.337247 0.389532
O O13 0.384650 0.669834 0.721139
O O14 0.257565 0.213049 0.068524
O O15 0.500000 0.000000 0.000000
#
# Coordination Sequence:
#
# PCOD9067616 Si02
#       7
#     2   2   2   2   2   2   2
#     4  12  26  49  81 118 157 210 263 325 396 472
#     4  11  25  51  78 119 155 208 267 331 390 471
#     4  11  26  48  84 114 161 202 271 326 394 468
#     4  12  26  48  81 117 159 204 267 329 394 466
#     4  12  27  51  76 116 163 206 265 326 393 478
#     4  12  28  50  76 118 160 206 263 321 401 475
#     4  12  29  49  78 111 164 211 260 328 402 463
#
# _framework density 23.459878
#
# number of rings (size 3 to 8) (size 9 to 14) (size 15 to 20)
#    0.000    0.286    2.857    4.714    6.000    1.143 
#    0.000    0.000    0.000    0.000    0.000    0.000 
#    0.000    0.000    0.000    0.000    0.000    0.000 
#
# Total GULP energy -78425.021548 kJ/mol
# GULP energy per Si atom -5601.787253 kJ/mol
# Density = 2.340648 g / cm^3
# Si number density = 23.459878 Si / 1000 Ang^3
#
#
#
# Elastic Constant Matrix: (Units=GPa)
#
#
# Indices 1 2 3 4 5 6 
#
# 1 70.2478 39.6028 16.4173 8.0561 -0.8169 -10.2672
# 2 39.6028 136.1104 24.5253 20.3763 4.9261 -11.8283
# 3 16.4173 24.5253 106.6273 7.5463 13.3914 -7.1061
# 4 8.0561 20.3763 7.5463 45.3769 2.3754 -3.6174
# 5 -0.8169 4.9261 13.3914 2.3754 41.2009 9.9553
# 6 -10.2672 -11.8283 -7.1061 -3.6174 9.9553 35.0462
#
#
#
# Elastic Compliance Matrix: (Units=1/GPa)
#
#
# Indices 1 2 3 4 5 6 
#
# 1 0.017675 -0.004531 -0.001513 -0.000641 0.000676 0.003084
# 2 -0.004531 0.009498 -0.001016 -0.003100 -0.001120 0.001671
# 3 -0.001513 -0.001016 0.010535 -0.000634 -0.003872 0.002385
# 4 -0.000641 -0.003100 -0.000634 0.023823 -0.001153 0.001424
# 5 0.000676 -0.001120 -0.003872 -0.001153 0.027922 -0.009016
# 6 0.003084 0.001671 0.002385 0.001424 -0.009016 0.033193
#
#
# Mechanical properties :
#
#
# Convention : Reuss Voigt Hill
#
# Bulk Modulus (GPa) = 42.39171 52.67514 47.53343
# Shear Modulus (GPa) = 34.57129 39.82081 37.19605
#
# Velocity S-wave (km/s) = 3.84296 4.12442 3.98618
# Velocity P-wave (km/s) = 6.14819 6.72184 6.44140
#
# Compressibility (1/GPa) = 0.02358952
#
# Stress axis : x y z
#
# Youngs Moduli (GPa) = 56.57611 105.28529 94.91963
#
# Poissons Ratio (x) = 0.47700 0.14364
# Poissons Ratio (y) = 0.25632 0.09640
# Poissons Ratio (z) = 0.08562 0.10693
#
# Static dielectric constant tensor:
#      x y z
#    x 1.841060 0.028030 -0.001000 
#    y 0.028030 1.941970 -0.068230 
#    z -0.001000 -0.068230 1.981800 
# 
# From -- ./inp_files/259223.got.cif
#   From: 2010.05.17/outbox.cif.g08.bks.cpg/sg2_130_cif.got.tgz:259223.got - 2010.06.03 11:33:40.
