data_PCOD9067552
_publ_section_title
;
Structure prediction by ZEFSAII (Michael W. Deem and Ramdas Pophale) SiO2 
 PCOD9067552
Probable space group: P -1
;
_chemical_formula_sum "Si O2"
_cell_formula_units_Z 14
_cell_length_a 10.625929
_cell_length_b 8.745617
_cell_length_c 17.893604
_cell_angle_alpha 33.377207
_cell_angle_beta 48.886416
_cell_angle_gamma 71.830214
_cell_volume 565.134126
_symmetry_space_group_name_H-M "P -1"
_symmetry_group_IT_number 2
_symmetry_cell_setting 'triclinic'
loop_
_space_group_symop_operation_xyz
x,y,z
-x,-y,-z
loop_
_atom_site_type_symbol
_atom_site_label
_atom_site_fract_x
_atom_site_fract_y
_atom_site_fract_z
Si Si1 0.206913 0.544817 0.073297
Si Si2 0.571610 0.741012 0.749788
Si Si3 0.974704 0.824904 0.002208
Si Si4 0.655424 0.243816 0.906760
Si Si5 0.482392 0.657364 0.652049
Si Si6 0.889361 0.187648 0.546179
Si Si7 0.665619 0.554445 0.478211
O O1 0.263304 0.774310 0.033892
O O2 0.024487 0.547210 0.107346
O O3 0.151068 0.161715 0.261561
O O4 0.395529 0.741912 0.859804
O O5 0.543662 0.400299 0.925548
O O6 0.570487 0.688724 0.684938
O O7 0.797079 0.057631 0.552155
O O8 0.750900 0.652754 0.129037
O O9 0.000000 0.000000 0.000000
O O10 0.131863 0.108783 0.768312
O O11 0.873324 0.509630 0.672670
O O12 0.500000 0.000000 0.000000
O O13 0.586519 0.610983 0.561661
O O14 0.500000 0.000000 0.500000
O O15 0.746135 0.319067 0.567517
O O16 0.500000 0.500000 0.500000
#
# Coordination Sequence:
#
# PCOD9067552 Si02
#       7
#     2   2   2   2   2   2   2
#     4  11  25  50  78 110 156 207 252 316 393 456
#     4  11  26  46  73 110 152 202 256 315 381 459
#     4  12  27  48  83 113 157 206 259 320 386 454
#     4  11  26  45  75 111 153 197 261 318 378 459
#     4  12  29  48  77 115 158 204 265 314 380 469
#     4  11  25  51  79 109 154 206 251 313 398 456
#     4  12  26  50  82 115 155 205 259 318 387 458
#
# _framework density 24.772877999999999
#
# number of rings (size 3 to 8) (size 9 to 14) (size 15 to 20)
#    0.000    0.571    1.429    6.857    8.000    3.429 
#    0.000    6.429    0.000    0.000    0.000    0.000 
#    0.000    0.000    0.000    0.000    0.000    0.000 
#
# Total GULP energy -78024.323884 kJ/mol
# GULP energy per Si atom -5573.165992 kJ/mol
# Density = 2.471649 g / cm^3
# Si number density = 24.772878 Si / 1000 Ang^3
#
#
#
# Elastic Constant Matrix: (Units=GPa)
#
#
# Indices 1 2 3 4 5 6 
#
# 1 99.1503 67.3879 40.2604 2.6930 -8.7252 -2.5698
# 2 67.3879 133.9490 63.9219 -0.0073 -17.5294 -10.8803
# 3 40.2604 63.9219 144.0515 7.4838 -25.7838 4.4262
# 4 2.6930 -0.0073 7.4838 40.2599 -2.3695 4.7278
# 5 -8.7252 -17.5294 -25.7838 -2.3695 50.0583 -17.2410
# 6 -2.5698 -10.8803 4.4262 4.7278 -17.2410 59.2823
#
#
#
# Elastic Compliance Matrix: (Units=1/GPa)
#
#
# Indices 1 2 3 4 5 6 
#
# 1 0.015532 -0.007449 -0.001110 -0.000789 -0.000777 -0.000774
# 2 -0.007449 0.013535 -0.003583 0.000958 0.002724 0.003145
# 3 -0.001110 -0.003583 0.009513 -0.001462 0.003262 -0.000351
# 4 -0.000789 0.000958 -0.001462 0.025372 0.000039 -0.001761
# 5 -0.000777 0.002724 0.003262 0.000039 0.025063 0.007509
# 6 -0.000774 0.003145 -0.000351 -0.001761 0.007509 0.019762
#
#
# Mechanical properties :
#
#
# Convention : Reuss Voigt Hill
#
# Bulk Modulus (GPa) = 69.94935 80.03235 74.99085
# Shear Modulus (GPa) = 36.27763 43.62546 39.95155
#
# Velocity S-wave (km/s) = 3.83091 4.20100 4.02022
# Velocity P-wave (km/s) = 6.91848 7.47715 7.20323
#
# Compressibility (1/GPa) = 0.01429606
#
# Stress axis : x y z
#
# Youngs Moduli (GPa) = 64.38304 73.88398 105.12453
#
# Poissons Ratio (x) = 0.55035 0.11667
# Poissons Ratio (y) = 0.47958 0.37665
# Poissons Ratio (z) = 0.07146 0.26472
#
# Static dielectric constant tensor:
#      x y z
#    x 1.892200 -0.121340 0.022330 
#    y -0.121340 1.962980 -0.101870 
#    z 0.022330 -0.101870 1.976120 
# 
# From -- ./inp_files/566427.got.cif
#   From: 2010.05.17/outbox.cif.g08.bks.cpg/sg2_284_cif.got.tgz:566427.got - 2010.06.03 11:33:40.
