data_PCOD9067328
_publ_section_title
;
Structure prediction by ZEFSAII (Michael W. Deem and Ramdas Pophale) SiO2 
 PCOD9067328
Probable space group: P -1
;
_chemical_formula_sum "Si O2"
_cell_formula_units_Z 10
_cell_length_a 5.078220
_cell_length_b 10.172876
_cell_length_c 9.657463
_cell_angle_alpha 125.071440
_cell_angle_beta 73.115309
_cell_angle_gamma 92.020753
_cell_volume 385.161813
_symmetry_space_group_name_H-M "P -1"
_symmetry_group_IT_number 2
_symmetry_cell_setting 'triclinic'
loop_
_space_group_symop_operation_xyz
x,y,z
-x,-y,-z
loop_
_atom_site_type_symbol
_atom_site_label
_atom_site_fract_x
_atom_site_fract_y
_atom_site_fract_z
Si Si1 0.721289 0.389922 0.301543
Si Si2 0.107219 0.120462 0.208842
Si Si3 0.440476 0.797199 0.023093
Si Si4 0.016026 0.671119 0.388397
Si Si5 0.434925 0.190970 0.668772
O O1 0.500000 0.500000 0.500000
O O2 0.624256 0.359753 0.143304
O O3 0.017133 0.514059 0.689938
O O4 0.815135 0.212344 0.248372
O O5 0.323248 0.140377 0.067228
O O6 0.152480 0.224357 0.399883
O O7 0.162101 0.935165 0.137613
O O8 0.543418 0.784068 0.155646
O O9 0.319065 0.719859 0.374206
O O10 0.856986 0.729434 0.306417
O O11 0.500000 0.000000 0.500000
#
# Coordination Sequence:
#
# PCOD9067328 Si02
#       5
#     2   2   2   2   2
#     4  12  26  48  79 117 157 199 260 324 391 454
#     4  11  25  48  79 111 151 207 264 314 378 466
#     4  11  27  47  79 115 151 205 260 321 380 464
#     4  12  27  48  83 109 158 207 254 321 397 457
#     4  12  28  51  76 114 157 206 259 320 392 463
#
# _framework density 25.963113
#
# number of rings (size 3 to 8) (size 9 to 14) (size 15 to 20)
#    0.000    0.400    4.000    3.000    5.600    1.600 
#    0.000    0.000    0.000    0.000    0.000    0.000 
#    0.000    0.000    0.000    0.000    0.000    0.000 
#
# Total GULP energy -56089.660533 kJ/mol
# GULP energy per Si atom -5608.966053 kJ/mol
# Density = 2.590402 g / cm^3
# Si number density = 25.963113 Si / 1000 Ang^3
#
#
#
# Elastic Constant Matrix: (Units=GPa)
#
#
# Indices 1 2 3 4 5 6 
#
# 1 97.0851 22.0506 24.8870 10.1525 15.4891 5.0444
# 2 22.0506 97.3494 48.9562 0.3260 9.2300 -19.7818
# 3 24.8870 48.9562 183.9743 -21.0716 39.6377 -9.6228
# 4 10.1525 0.3260 -21.0716 46.8406 -1.2622 -6.9971
# 5 15.4891 9.2300 39.6377 -1.2622 44.3496 3.9430
# 6 5.0444 -19.7818 -9.6228 -6.9971 3.9430 43.6088
#
#
#
# Elastic Compliance Matrix: (Units=1/GPa)
#
#
# Indices 1 2 3 4 5 6 
#
# 1 0.012101 -0.002645 -0.000931 -0.003563 -0.002666 -0.003136
# 2 -0.002645 0.013523 -0.003000 -0.000004 0.000280 0.005752
# 3 -0.000931 -0.003000 0.008331 0.004067 -0.006543 0.001829
# 4 -0.003563 -0.000004 0.004067 0.024709 -0.002173 0.005469
# 5 -0.002666 0.000280 -0.006543 -0.002173 0.029566 -0.004031
# 6 -0.003136 0.005752 0.001829 0.005469 -0.004031 0.027549
#
#
# Mechanical properties :
#
#
# Convention : Reuss Voigt Hill
#
# Bulk Modulus (GPa) = 48.07274 63.35517 55.71395
# Shear Modulus (GPa) = 36.80116 45.79415 41.29765
#
# Velocity S-wave (km/s) = 3.76898 4.20434 3.99259
# Velocity P-wave (km/s) = 6.12342 6.92990 6.53910
#
# Compressibility (1/GPa) = 0.02080181
#
# Stress axis : x y z
#
# Youngs Moduli (GPa) = 82.64065 73.94964 120.03098
#
# Poissons Ratio (x) = 0.19562 0.11170
# Poissons Ratio (y) = 0.21861 0.36014
# Poissons Ratio (z) = 0.07690 0.22188
#
# Static dielectric constant tensor:
#      x y z
#    x 2.064660 -0.035250 -0.009900 
#    y -0.035250 2.044860 -0.000380 
#    z -0.009900 -0.000380 1.991610 
# 
# From -- ./inp_files/83574.got.cif
#   From: 2010.05.17/outbox.cif.g08.bks.cpg/sg2_42_cif.got.tgz:83574.got - 2010.06.03 11:33:40.
