data_PCOD9067656
_publ_section_title
;
Structure prediction by ZEFSAII (Michael W. Deem and Ramdas Pophale) SiO2 
 PCOD9067656
Probable space group: P -1
;
_chemical_formula_sum "Si O2"
_cell_formula_units_Z 14
_cell_length_a 9.243737
_cell_length_b 13.682949
_cell_length_c 11.992393
_cell_angle_alpha 21.500817
_cell_angle_beta 101.345199
_cell_angle_gamma 93.796638
_cell_volume 515.469221
_symmetry_space_group_name_H-M "P -1"
_symmetry_group_IT_number 2
_symmetry_cell_setting 'triclinic'
loop_
_space_group_symop_operation_xyz
x,y,z
-x,-y,-z
loop_
_atom_site_type_symbol
_atom_site_label
_atom_site_fract_x
_atom_site_fract_y
_atom_site_fract_z
Si Si1 0.375827 0.675589 0.014114
Si Si2 0.681581 0.805785 0.911340
Si Si3 0.328052 0.703787 0.289633
Si Si4 0.052057 0.143236 0.537524
Si Si5 0.744001 0.671883 0.487336
Si Si6 0.116775 0.998775 0.121401
Si Si7 0.272551 0.665804 0.767454
O O1 0.513399 0.799953 0.930704
O O2 0.371599 0.598472 0.966219
O O3 0.210335 0.913192 0.764513
O O4 0.383332 0.407130 0.374763
O O5 0.809619 0.766378 0.071105
O O6 0.679580 0.095541 0.544393
O O7 0.720014 0.582384 0.053686
O O8 0.500000 0.500000 0.500000
O O9 0.695540 0.986982 0.096041
O O10 0.222011 0.546635 0.377031
O O11 0.272378 0.765582 0.342478
O O12 0.113100 0.380861 0.349303
O O13 0.970078 0.059357 0.721802
O O14 0.911332 0.228884 0.338941
O O15 0.000000 0.000000 0.000000
#
# Coordination Sequence:
#
# PCOD9067656 Si02
#       7
#     2   2   2   2   2   2   2
#     4  12  27  51  83 116 167 208 267 339 396 474
#     4  11  29  50  79 119 157 214 274 325 403 480
#     4  12  29  50  81 116 158 207 270 325 408 462
#     4  11  27  49  77 119 161 209 274 316 407 476
#     4  12  27  48  78 119 156 203 271 323 397 479
#     4  11  25  55  79 113 162 212 261 337 395 476
#     4  11  28  50  81 117 163 214 267 329 403 471
#
# _framework density 27.159718000000002
#
# number of rings (size 3 to 8) (size 9 to 14) (size 15 to 20)
#    0.000    0.571    2.857    1.714   12.000    5.714 
#    0.000    0.714    0.000    0.000    0.000    0.000 
#    0.000    0.000    0.000    0.000    0.000    0.000 
#
# Total GULP energy -78398.930543 kJ/mol
# GULP energy per Si atom -5599.923610 kJ/mol
# Density = 2.709790 g / cm^3
# Si number density = 27.159718 Si / 1000 Ang^3
#
#
#
# Elastic Constant Matrix: (Units=GPa)
#
#
# Indices 1 2 3 4 5 6 
#
# 1 190.1243 54.9997 30.5318 -19.0226 -10.8243 23.8256
# 2 54.9997 196.1524 53.3613 -23.4353 -20.2710 12.2089
# 3 30.5318 53.3613 117.1569 -28.4533 -21.7797 9.6363
# 4 -19.0226 -23.4353 -28.4533 47.6586 0.8078 -0.7910
# 5 -10.8243 -20.2710 -21.7797 0.8078 46.5615 -11.2413
# 6 23.8256 12.2089 9.6363 -0.7910 -11.2413 63.8640
#
#
#
# Elastic Compliance Matrix: (Units=1/GPa)
#
#
# Indices 1 2 3 4 5 6 
#
# 1 0.006101 -0.001270 -0.000459 0.001502 0.000162 -0.001917
# 2 -0.001270 0.006308 -0.001903 0.001431 0.001496 -0.000164
# 3 -0.000459 -0.001903 0.011787 0.005837 0.004380 -0.000400
# 4 0.001502 0.001431 0.005837 0.025705 0.003049 -0.000860
# 5 0.000162 0.001496 0.004380 0.003049 0.024990 0.003429
# 6 -0.001917 -0.000164 -0.000400 -0.000860 0.003429 0.017058
#
#
# Mechanical properties :
#
#
# Convention : Reuss Voigt Hill
#
# Bulk Modulus (GPa) = 59.06282 86.80214 72.93248
# Shear Modulus (GPa) = 47.68495 55.91953 51.80224
#
# Velocity S-wave (km/s) = 4.19468 4.54245 4.37202
# Velocity P-wave (km/s) = 6.72712 7.71628 7.23862
#
# Compressibility (1/GPa) = 0.01693112
#
# Stress axis : x y z
#
# Youngs Moduli (GPa) = 163.91973 158.53782 84.84144
#
# Poissons Ratio (x) = 0.20139 0.03892
# Poissons Ratio (y) = 0.20822 0.16144
# Poissons Ratio (z) = 0.07520 0.30167
#
# Static dielectric constant tensor:
#      x y z
#    x 2.214480 0.036690 0.068010 
#    y 0.036690 2.124050 0.027380 
#    z 0.068010 0.027380 2.146720 
# 
# From -- ./inp_files/287832.got.cif
#   From: 2010.05.17/outbox.cif.g08.bks.cpg/sg2_144_cif.got.tgz:287832.got - 2010.06.03 11:33:40.
