data_PCOD9067131
_publ_section_title
;
Structure prediction by ZEFSAII (Michael W. Deem and Ramdas Pophale) SiO2 
 PCOD9067131
Probable space group: P -1
;
_chemical_formula_sum "Si O2"
_cell_formula_units_Z 16
_cell_length_a 5.600669
_cell_length_b 21.722857
_cell_length_c 14.382459
_cell_angle_alpha 26.453214
_cell_angle_beta 50.105065
_cell_angle_gamma 56.954544
_cell_volume 595.889263
_symmetry_space_group_name_H-M "P -1"
_symmetry_group_IT_number 2
_symmetry_cell_setting 'triclinic'
loop_
_space_group_symop_operation_xyz
x,y,z
-x,-y,-z
loop_
_atom_site_type_symbol
_atom_site_label
_atom_site_fract_x
_atom_site_fract_y
_atom_site_fract_z
Si Si1 0.384059 0.648019 0.859613
Si Si2 0.316055 0.297541 0.575559
Si Si3 0.624603 0.113338 0.183777
Si Si4 0.723030 0.871581 0.004105
Si Si5 0.819213 0.754118 0.761407
Si Si6 0.704608 0.933422 0.223734
Si Si7 0.673877 0.362045 0.691568
Si Si8 0.753808 0.516376 0.235696
O O1 0.660042 0.739285 0.720197
O O2 0.184149 0.736391 0.716627
O O3 0.093003 0.587900 0.079318
O O4 0.500000 0.500000 0.000000
O O5 0.243764 0.177378 0.832921
O O6 0.275182 0.229566 0.576595
O O7 0.659320 0.366463 0.418784
O O8 0.036048 0.396315 0.529740
O O9 0.654453 0.999141 0.249059
O O10 0.325453 0.121815 0.312752
O O11 0.659969 0.259782 0.923305
O O12 0.954430 0.116924 0.149119
O O13 0.487762 0.749992 0.186960
O O14 0.588276 0.018004 0.826796
O O15 0.677976 0.611213 0.038530
O O16 0.000000 0.000000 0.000000
O O17 0.461416 0.476873 0.628909
#
# Coordination Sequence:
#
# PCOD9067131 Si02
#       8
#     2   2   2   2   2   2   2   2
#     4  10  20  37  60  84 108 131 163 213 275 331
#     4  11  20  30  45  71 102 145 178 216 257 291
#     4   9  18  30  48  70  98 137 179 219 251 299
#     4  10  18  28  48  62  98 141 188 216 254 285
#     4   9  20  36  57  81 109 129 169 214 266 323
#     4  11  19  31  43  67 101 144 190 223 246 291
#     4   9  17  31  44  67 102 136 176 209 254 307
#     4   9  21  32  49  76 108 135 173 212 264 324
#
# _framework density 26.850629999999999
#
# number of rings (size 3 to 8) (size 9 to 14) (size 15 to 20)
#    0.750    1.500    3.750    1.875    1.750    1.500 
#    0.000    0.000    0.000    0.000    0.000    1.750 
#    0.000    0.000    0.000    0.000    0.000    0.000 
#
# Total GULP energy -89167.449424 kJ/mol
# GULP energy per Si atom -5572.965589 kJ/mol
# Density = 2.678952 g / cm^3
# Si number density = 26.850630 Si / 1000 Ang^3
#
#
#
# Elastic Constant Matrix: (Units=GPa)
#
#
# Indices 1 2 3 4 5 6 
#
# 1 126.2829 40.7687 -3.7575 6.7385 -9.9301 -13.8426
# 2 40.7687 123.8119 2.8475 -3.8035 -6.9480 -9.3261
# 3 -3.7575 2.8475 58.5634 9.8034 -1.8266 3.8439
# 4 6.7385 -3.8035 9.8034 23.0139 -0.6642 -2.8614
# 5 -9.9301 -6.9480 -1.8266 -0.6642 26.5784 -2.6062
# 6 -13.8426 -9.3261 3.8439 -2.8614 -2.6062 28.3866
#
#
#
# Elastic Compliance Matrix: (Units=1/GPa)
#
#
# Indices 1 2 3 4 5 6 
#
# 1 0.009703 -0.002871 0.001175 -0.003276 0.003226 0.003595
# 2 -0.002871 0.009421 -0.001297 0.003289 0.001614 0.002350
# 3 0.001175 -0.001297 0.018963 -0.009016 0.000859 -0.003251
# 4 -0.003276 0.003289 -0.009016 0.049537 0.000820 0.005772
# 5 0.003226 0.001614 0.000859 0.000820 0.039893 0.005732
# 6 0.003595 0.002350 -0.003251 0.005772 0.005732 0.039302
#
#
# Mechanical properties :
#
#
# Convention : Reuss Voigt Hill
#
# Bulk Modulus (GPa) = 31.15044 43.15284 37.15164
# Shear Modulus (GPa) = 27.24737 33.51575 30.38156
#
# Velocity S-wave (km/s) = 3.18901 3.53686 3.36743
# Velocity P-wave (km/s) = 5.01859 5.72586 5.38386
#
# Compressibility (1/GPa) = 0.03210227
#
# Stress axis : x y z
#
# Youngs Moduli (GPa) = 103.05967 106.15135 52.73330
#
# Poissons Ratio (x) = 0.30474 -0.06197
# Poissons Ratio (y) = 0.29587 0.06838
# Poissons Ratio (z) = -0.12111 0.13765
#
# Static dielectric constant tensor:
#      x y z
#    x 2.213410 -0.067710 0.098260 
#    y -0.067710 2.216040 -0.004280 
#    z 0.098260 -0.004280 2.104050 
# 
# From -- ./inp_files/369666.got.cif
#   From: 2010.05.17/outbox.cif.g08.bks.cpg/sg2_185_cif.got.tgz:369666.got - 2010.06.03 11:33:40.
