data_PCOD9067559
_publ_section_title
;
Structure prediction by ZEFSAII (Michael W. Deem and Ramdas Pophale) SiO2 
 PCOD9067559
Probable space group: P -1
;
_chemical_formula_sum "Si O2"
_cell_formula_units_Z 11
_cell_length_a 9.836531
_cell_length_b 8.869716
_cell_length_c 7.575346
_cell_angle_alpha 111.320709
_cell_angle_beta 108.390277
_cell_angle_gamma 42.841324
_cell_volume 417.404752
_symmetry_space_group_name_H-M "P -1"
_symmetry_group_IT_number 2
_symmetry_cell_setting 'triclinic'
loop_
_space_group_symop_operation_xyz
x,y,z
-x,-y,-z
loop_
_atom_site_type_symbol
_atom_site_label
_atom_site_fract_x
_atom_site_fract_y
_atom_site_fract_z
Si Si1 0.757461 0.737888 0.862883
Si Si2 0.399025 0.493090 0.288967
Si Si3 0.500000 0.500000 0.000000
Si Si4 0.648658 0.888871 0.289514
Si Si5 0.130906 0.576067 0.753853
Si Si6 0.862926 0.014574 0.590011
O O1 0.728787 0.565980 0.751831
O O2 0.968394 0.644608 0.857580
O O3 0.588015 0.948210 0.755305
O O4 0.716299 0.811219 0.081173
O O5 0.500000 0.500000 0.500000
O O6 0.266817 0.746856 0.256860
O O7 0.555392 0.340783 0.132808
O O8 0.320652 0.517440 0.883170
O O9 0.766973 0.672017 0.372351
O O10 0.706446 0.021546 0.431179
O O11 0.010950 0.786141 0.664192
O O12 0.000000 0.000000 0.500000
#
# Coordination Sequence:
#
# PCOD9067559 Si02
#       6
#     2   2   1   2   2   2
#     4  11  26  51  81 111 161 211 260 328 406 474
#     4  12  26  53  81 116 164 207 264 335 399 475
#     4  12  30  50  78 120 160 210 272 336 394 480
#     4  11  25  50  78 115 158 204 261 330 396 482
#     4  12  28  49  79 113 158 210 271 324 403 475
#     4  12  28  47  80 116 160 206 268 333 401 472
#
# _framework density 26.353318999999999
#
# number of rings (size 3 to 8) (size 9 to 14) (size 15 to 20)
#    0.000    0.364    3.636    3.273    5.091    2.909 
#    0.000    0.000    0.000    0.000    0.000    0.000 
#    0.000    0.000    0.000    0.000    0.000    0.000 
#
# Total GULP energy -61448.226677 kJ/mol
# GULP energy per Si atom -5586.202425 kJ/mol
# Density = 2.629334 g / cm^3
# Si number density = 26.353319 Si / 1000 Ang^3
#
#
#
# Elastic Constant Matrix: (Units=GPa)
#
#
# Indices 1 2 3 4 5 6 
#
# 1 171.0857 -3.2307 10.5709 2.8106 17.2586 6.0093
# 2 -3.2307 137.2779 -2.9339 -2.2818 3.2564 26.9273
# 3 10.5709 -2.9339 73.5359 4.2244 7.8024 18.0651
# 4 2.8106 -2.2818 4.2244 37.3709 12.8439 6.1215
# 5 17.2586 3.2564 7.8024 12.8439 44.1231 -3.8016
# 6 6.0093 26.9273 18.0651 6.1215 -3.8016 46.9229
#
#
#
# Elastic Compliance Matrix: (Units=1/GPa)
#
#
# Indices 1 2 3 4 5 6 
#
# 1 0.006179 0.000461 -0.000317 0.000738 -0.002717 -0.001250
# 2 0.000461 0.008647 0.001932 0.002086 -0.002303 -0.006224
# 3 -0.000317 0.001932 0.015942 0.000877 -0.003750 -0.007624
# 4 0.000738 0.002086 0.000877 0.031339 -0.010285 -0.006551
# 5 -0.002717 -0.002303 -0.003750 -0.010285 0.028134 0.006735
# 6 -0.001250 -0.006224 -0.007624 -0.006551 0.006735 0.029379
#
#
# Mechanical properties :
#
#
# Convention : Reuss Voigt Hill
#
# Bulk Modulus (GPa) = 28.63698 43.41247 36.02473
# Shear Modulus (GPa) = 39.33669 50.84960 45.09314
#
# Velocity S-wave (km/s) = 3.86769 4.39741 4.14103
# Velocity P-wave (km/s) = 5.55298 6.50323 6.04680
#
# Compressibility (1/GPa) = 0.03491988
#
# Stress axis : x y z
#
# Youngs Moduli (GPa) = 161.83291 115.65070 62.72774
#
# Poissons Ratio (x) = -0.05327 0.01988
# Poissons Ratio (y) = -0.07454 -0.12121
# Poissons Ratio (z) = 0.05128 -0.22347
#
# Static dielectric constant tensor:
#      x y z
#    x 1.924750 0.124440 0.119660 
#    y 0.124440 2.109570 -0.193370 
#    z 0.119660 -0.193370 1.895730 
# 
# From -- ./inp_files/152293.got.cif
#   From: 2010.05.17/outbox.cif.g08.bks.cpg/sg2_77_cif.got.tgz:152293.got - 2010.06.03 11:33:40.
