data_PCOD9067376
_publ_section_title
;
Structure prediction by ZEFSAII (Michael W. Deem and Ramdas Pophale) SiO2 
 PCOD9067376
Probable space group: P -1
;
_chemical_formula_sum "Si O2"
_cell_formula_units_Z 16
_cell_length_a 9.123502
_cell_length_b 13.516833
_cell_length_c 9.166301
_cell_angle_alpha 101.555806
_cell_angle_beta 124.966129
_cell_angle_gamma 54.998397
_cell_volume 744.794802
_symmetry_space_group_name_H-M "P -1"
_symmetry_group_IT_number 2
_symmetry_cell_setting 'triclinic'
loop_
_space_group_symop_operation_xyz
x,y,z
-x,-y,-z
loop_
_atom_site_type_symbol
_atom_site_label
_atom_site_fract_x
_atom_site_fract_y
_atom_site_fract_z
Si Si1 0.912609 0.104789 0.863741
Si Si2 0.574176 0.357145 0.846496
Si Si3 0.365383 0.953650 0.486447
Si Si4 0.538524 0.375382 0.174950
Si Si5 0.750774 0.877497 0.100932
Si Si6 0.952554 0.787003 0.503206
Si Si7 0.825148 0.621530 0.529052
Si Si8 0.304986 0.279816 0.201786
O O1 0.812011 0.237268 0.915465
O O2 0.715371 0.107610 0.682018
O O3 0.101829 0.076948 0.855167
O O4 0.000000 0.000000 0.000000
O O5 0.554797 0.481137 0.834957
O O6 0.398174 0.357372 0.645481
O O7 0.531702 0.350155 0.991536
O O8 0.508859 0.850129 0.656352
O O9 0.500000 0.000000 0.500000
O O10 0.147354 0.076170 0.457336
O O11 0.404689 0.340037 0.185052
O O12 0.787179 0.297733 0.354096
O O13 0.849935 0.810475 0.291397
O O14 0.787463 0.771518 0.981003
O O15 0.500000 0.000000 0.000000
O O16 0.857403 0.725359 0.524280
O O17 0.831450 0.629748 0.712030
O O18 0.000000 0.500000 0.500000
#
# Coordination Sequence:
#
# PCOD9067376 Si02
#       8
#     2   2   2   2   2   2   2   2
#     4  12  27  43  76 107 146 197 247 305 377 442
#     4  11  25  49  73 106 149 189 252 304 376 440
#     4  12  23  42  73 108 148 189 244 308 368 440
#     4  11  27  46  77 105 145 196 248 310 365 449
#     4  12  29  46  70 113 155 191 247 311 374 440
#     4  12  25  45  74 107 150 192 245 301 376 444
#     4  12  26  48  77 106 145 197 245 303 373 448
#     4  12  26  46  74 107 148 192 247 305 372 432
#
# _framework density 21.482427000000001
#
# number of rings (size 3 to 8) (size 9 to 14) (size 15 to 20)
#    0.000    0.250    5.000    3.000    7.000    2.500 
#    0.000    1.875    0.000    0.000    0.000    0.000 
#    0.000    0.000    0.000    0.000    0.000    0.000 
#
# Total GULP energy -89421.327469 kJ/mol
# GULP energy per Si atom -5588.832967 kJ/mol
# Density = 2.143353 g / cm^3
# Si number density = 21.482427 Si / 1000 Ang^3
#
#
#
# Elastic Constant Matrix: (Units=GPa)
#
#
# Indices 1 2 3 4 5 6 
#
# 1 133.4972 45.4029 37.7522 1.8419 -16.2294 25.1525
# 2 45.4029 126.6329 34.2130 3.3226 -17.7402 -22.6090
# 3 37.7522 34.2130 101.7225 11.5121 -21.0133 8.7908
# 4 1.8419 3.3226 11.5121 37.3130 5.1991 -0.9833
# 5 -16.2294 -17.7402 -21.0133 5.1991 29.2047 -3.7403
# 6 25.1525 -22.6090 8.7908 -0.9833 -3.7403 38.8690
#
#
#
# Elastic Compliance Matrix: (Units=1/GPa)
#
#
# Indices 1 2 3 4 5 6 
#
# 1 0.011921 -0.005669 -0.001432 -0.000033 0.000797 -0.010612
# 2 -0.005669 0.013553 -0.002439 -0.000544 0.005034 0.012575
# 3 -0.001432 -0.002439 0.013696 -0.005146 0.008116 -0.002939
# 4 -0.000033 -0.000544 -0.005146 0.029747 -0.009253 0.000730
# 5 0.000797 0.005034 0.008116 -0.009253 0.045838 0.004754
# 6 -0.010612 0.012575 -0.002939 0.000730 0.004754 0.041049
#
#
# Mechanical properties :
#
#
# Convention : Reuss Voigt Hill
#
# Bulk Modulus (GPa) = 49.78064 66.28763 58.03413
# Shear Modulus (GPa) = 27.53595 37.37631 32.45613
#
# Velocity S-wave (km/s) = 3.58409 4.17568 3.89115
# Velocity P-wave (km/s) = 6.35222 7.36017 6.87469
#
# Compressibility (1/GPa) = 0.02008813
#
# Stress axis : x y z
#
# Youngs Moduli (GPa) = 83.88832 73.78335 73.01631
#
# Poissons Ratio (x) = 0.41830 0.10455
# Poissons Ratio (y) = 0.47558 0.17812
# Poissons Ratio (z) = 0.12012 0.17999
#
# Static dielectric constant tensor:
#      x y z
#    x 1.769940 -0.078070 -0.029580 
#    y -0.078070 1.753150 0.089900 
#    z -0.029580 0.089900 1.595360 
# 
# From -- ./inp_files/188779.got.cif
#   From: 2010.05.17/outbox.cif.g08.bks.cpg/sg2_95_cif.got.tgz:188779.got - 2010.06.03 11:33:40.
