data_PCOD9067675
_publ_section_title
;
Structure prediction by ZEFSAII (Michael W. Deem and Ramdas Pophale) SiO2 
 PCOD9067675
Probable space group: P -1
;
_chemical_formula_sum "Si O2"
_cell_formula_units_Z 16
_cell_length_a 9.481594
_cell_length_b 9.388185
_cell_length_c 11.267526
_cell_angle_alpha 58.110887
_cell_angle_beta 50.225250
_cell_angle_gamma 65.883314
_cell_volume 650.667264
_symmetry_space_group_name_H-M "P -1"
_symmetry_group_IT_number 2
_symmetry_cell_setting 'triclinic'
loop_
_space_group_symop_operation_xyz
x,y,z
-x,-y,-z
loop_
_atom_site_type_symbol
_atom_site_label
_atom_site_fract_x
_atom_site_fract_y
_atom_site_fract_z
Si Si1 0.807491 0.779433 0.650337
Si Si2 0.574412 0.110280 0.634667
Si Si3 0.949129 0.030439 0.152646
Si Si4 0.647725 0.059523 0.983648
Si Si5 0.821442 0.398666 0.155463
Si Si6 0.441310 0.394054 0.968238
Si Si7 0.215062 0.617135 0.534236
Si Si8 0.687654 0.744368 0.478437
O O1 0.721516 0.710154 0.846466
O O2 0.690862 0.719552 0.628153
O O3 0.019427 0.708062 0.555163
O O4 0.758946 0.981040 0.586073
O O5 0.619756 0.266141 0.622232
O O6 0.498842 0.173749 0.519894
O O7 0.418083 0.010685 0.823632
O O8 0.831996 0.880834 0.319181
O O9 0.145178 0.010371 0.123023
O O10 0.857032 0.216861 0.151840
O O11 0.000000 0.000000 0.000000
O O12 0.617426 0.260543 0.907886
O O13 0.500000 0.000000 0.000000
O O14 0.796075 0.389485 0.313968
O O15 0.646331 0.500376 0.140762
O O16 0.000000 0.500000 0.000000
O O17 0.500000 0.500000 0.000000
O O18 0.252993 0.432185 0.540606
#
# Coordination Sequence:
#
# PCOD9067675 Si02
#       8
#     2   2   2   2   2   2   2   2
#     4  11  26  47  71 103 140 183 236 283 350 415
#     4  11  26  47  71 103 140 183 236 283 350 415
#     4  12  25  46  73 103 140 184 232 286 346 413
#     4  11  26  43  71 103 140 180 229 286 345 412
#     4  12  25  46  73 103 140 184 232 286 346 413
#     4  11  26  43  71 103 140 180 229 286 345 412
#     4  12  27  47  73 104 142 184 234 289 349 417
#     4  12  27  47  73 104 142 184 234 289 349 417
#
# _framework density 24.590140000000002
#
# number of rings (size 3 to 8) (size 9 to 14) (size 15 to 20)
#    0.000    0.500    2.500    4.500   10.500    1.000 
#    0.000    0.000    0.000    0.000    0.000    0.000 
#    0.000    0.000    0.000    0.000    0.000    0.000 
#
# Total GULP energy -89730.301350 kJ/mol
# GULP energy per Si atom -5608.143834 kJ/mol
# Density = 2.453417 g / cm^3
# Si number density = 24.590140 Si / 1000 Ang^3
#
#
#
# Elastic Constant Matrix: (Units=GPa)
#
#
# Indices 1 2 3 4 5 6 
#
# 1 126.5337 33.2655 28.2410 -19.7374 14.3057 -13.7607
# 2 33.2655 170.1446 44.8947 -20.9660 10.5668 5.0845
# 3 28.2410 44.8947 76.5183 -4.7243 11.1637 -5.1196
# 4 -19.7374 -20.9660 -4.7243 28.2830 7.5152 4.8184
# 5 14.3057 10.5668 11.1637 7.5152 49.9354 -0.7322
# 6 -13.7607 5.0845 -5.1196 4.8184 -0.7322 53.5795
#
#
#
# Elastic Compliance Matrix: (Units=1/GPa)
#
#
# Indices 1 2 3 4 5 6 
#
# 1 0.010221 -0.000295 -0.002560 0.007078 -0.003333 0.001726
# 2 -0.000295 0.007843 -0.004034 0.005640 -0.001547 -0.001734
# 3 -0.002560 -0.004034 0.016639 -0.001754 -0.001847 0.001448
# 4 0.007078 0.005640 -0.001754 0.047404 -0.010011 -0.003285
# 5 -0.003333 -0.001547 -0.001847 -0.010011 0.023233 0.000332
# 6 0.001726 -0.001734 0.001448 -0.003285 0.000332 0.019710
#
#
# Mechanical properties :
#
#
# Convention : Reuss Voigt Hill
#
# Bulk Modulus (GPa) = 47.79584 65.11100 56.45342
# Shear Modulus (GPa) = 34.29294 44.14595 39.21945
#
# Velocity S-wave (km/s) = 3.73846 4.24166 3.99798
# Velocity P-wave (km/s) = 6.17365 7.10809 6.65728
#
# Compressibility (1/GPa) = 0.02092232
#
# Stress axis : x y z
#
# Youngs Moduli (GPa) = 97.84156 127.50987 60.10016
#
# Poissons Ratio (x) = 0.03764 0.15387
# Poissons Ratio (y) = 0.02888 0.24247
# Poissons Ratio (z) = 0.25050 0.51443
#
# Static dielectric constant tensor:
#      x y z
#    x 1.917690 0.005650 0.010250 
#    y 0.005650 1.933260 -0.027060 
#    z 0.010250 -0.027060 2.037430 
# 
# From -- ./inp_files/381245.got.cif
#   From: 2010.05.17/outbox.cif.g08.bks.cpg/sg2_191_cif.got.tgz:381245.got - 2010.06.03 11:33:40.
