data_PCOD9067691
_publ_section_title
;
Structure prediction by ZEFSAII (Michael W. Deem and Ramdas Pophale) SiO2 
 PCOD9067691
Probable space group: P -1
;
_chemical_formula_sum "Si O2"
_cell_formula_units_Z 10
_cell_length_a 15.447713
_cell_length_b 19.544992
_cell_length_c 10.326646
_cell_angle_alpha 29.312650
_cell_angle_beta 141.321475
_cell_angle_gamma 161.798769
_cell_volume 453.033868
_symmetry_space_group_name_H-M "P -1"
_symmetry_group_IT_number 2
_symmetry_cell_setting 'triclinic'
loop_
_space_group_symop_operation_xyz
x,y,z
-x,-y,-z
loop_
_atom_site_type_symbol
_atom_site_label
_atom_site_fract_x
_atom_site_fract_y
_atom_site_fract_z
Si Si1 0.681111 0.246200 0.408955
Si Si2 0.662858 0.533031 0.795873
Si Si3 0.359578 0.773244 0.316239
Si Si4 0.368073 0.473063 0.719354
Si Si5 0.933226 0.879873 0.297049
O O1 0.544604 0.111111 0.615531
O O2 0.011196 0.484264 0.394274
O O3 0.500000 0.000000 0.500000
O O4 0.690575 0.416822 0.098757
O O5 0.642587 0.646493 0.682033
O O6 0.896545 0.760048 0.581544
O O7 0.344468 0.259588 0.804188
O O8 0.415499 0.663342 0.523115
O O9 0.500000 0.000000 0.000000
O O10 0.128426 0.267721 0.659597
O O11 0.222017 0.226670 0.047198
#
# Coordination Sequence:
#
# PCOD9067691 Si02
#       5
#     2   2   2   2   2
#     4  11  26  44  66  96 135 174 219 266 327 390
#     4   9  18  35  63  92 118 167 212 262 317 374
#     4  11  27  45  63  98 138 172 213 275 324 387
#     4   9  18  37  62  89 127 163 213 262 315 379
#     4   8  17  33  65  94 124 160 212 269 318 372
#
# _framework density 22.073404
#
# number of rings (size 3 to 8) (size 9 to 14) (size 15 to 20)
#    1.200    1.200    0.000    1.200    2.800    6.400 
#    0.000    2.000    0.000    0.000    0.000    0.000 
#    0.000    0.000    0.000    0.000    0.000    0.000 
#
# Total GULP energy -55866.159998 kJ/mol
# GULP energy per Si atom -5586.616000 kJ/mol
# Density = 2.202316 g / cm^3
# Si number density = 22.073404 Si / 1000 Ang^3
#
#
#
# Elastic Constant Matrix: (Units=GPa)
#
#
# Indices 1 2 3 4 5 6 
#
# 1 155.5646 39.2291 85.3781 0.3345 -1.5164 -30.8873
# 2 39.2291 68.4729 21.2045 -2.1178 -1.6680 -17.5106
# 3 85.3781 21.2045 145.4872 11.6922 -39.6178 -21.3300
# 4 0.3345 -2.1178 11.6922 29.1921 3.1902 1.6750
# 5 -1.5164 -1.6680 -39.6178 3.1902 44.3233 6.1850
# 6 -30.8873 -17.5106 -21.3300 1.6750 6.1850 33.0678
#
#
#
# Elastic Compliance Matrix: (Units=1/GPa)
#
#
# Indices 1 2 3 4 5 6 
#
# 1 0.013597 -0.003348 -0.009391 0.004005 -0.009235 0.006395
# 2 -0.003348 0.018195 0.000115 0.000969 -0.000316 0.006592
# 3 -0.009391 0.000115 0.017358 -0.008563 0.015820 -0.000039
# 4 0.004005 0.000969 -0.008563 0.038890 -0.010091 -0.001352
# 5 -0.009235 -0.000316 0.015820 -0.010091 0.037819 -0.005152
# 6 0.006395 0.006592 -0.000039 -0.001352 -0.005152 0.040712
#
#
# Mechanical properties :
#
#
# Convention : Reuss Voigt Hill
#
# Bulk Modulus (GPa) = 41.83472 73.46091 57.64781
# Shear Modulus (GPa) = 25.02677 36.23083 30.62880
#
# Velocity S-wave (km/s) = 3.37084 4.05579 3.72908
# Velocity P-wave (km/s) = 5.84327 7.43539 6.68689
#
# Compressibility (1/GPa) = 0.02390359
#
# Stress axis : x y z
#
# Youngs Moduli (GPa) = 73.54334 54.96117 57.61045
#
# Poissons Ratio (x) = 0.18399 0.54101
# Poissons Ratio (y) = 0.24620 -0.00664
# Poissons Ratio (z) = 0.69063 -0.00633
#
# Static dielectric constant tensor:
#      x y z
#    x 1.789850 -0.005720 -0.039250 
#    y -0.005720 1.895400 0.035280 
#    z -0.039250 0.035280 1.761090 
# 
# From -- ./inp_files/304404.got.cif
#   From: 2010.05.17/outbox.cif.g08.bks.cpg/sg2_153_cif.got.tgz:304404.got - 2010.06.03 11:33:40.
