data_PCOD9067463
_publ_section_title
;
Structure prediction by ZEFSAII (Michael W. Deem and Ramdas Pophale) SiO2 
 PCOD9067463
Probable space group: P -1
;
_chemical_formula_sum "Si O2"
_cell_formula_units_Z 13
_cell_length_a 7.970022
_cell_length_b 13.236774
_cell_length_c 4.861892
_cell_angle_alpha 108.290438
_cell_angle_beta 85.941641
_cell_angle_gamma 81.076148
_cell_volume 477.190791
_symmetry_space_group_name_H-M "P -1"
_symmetry_group_IT_number 2
_symmetry_cell_setting 'triclinic'
loop_
_space_group_symop_operation_xyz
x,y,z
-x,-y,-z
loop_
_atom_site_type_symbol
_atom_site_label
_atom_site_fract_x
_atom_site_fract_y
_atom_site_fract_z
Si Si1 0.186683 0.896607 0.679769
Si Si2 0.768293 0.322551 0.203865
Si Si3 0.111766 0.120612 0.717801
Si Si4 0.262695 0.300832 0.083704
Si Si5 0.000000 0.500000 0.500000
Si Si6 0.438143 0.105944 0.283178
Si Si7 0.455467 0.621557 0.219583
O O1 0.172083 0.802408 0.817373
O O2 0.389055 0.875918 0.568498
O O3 0.053894 0.884804 0.446160
O O4 0.139927 0.025475 0.860862
O O5 0.598014 0.364095 0.446414
O O6 0.887146 0.408091 0.340478
O O7 0.711508 0.328645 0.899581
O O8 0.283694 0.091611 0.486667
O O9 0.119445 0.240810 0.916625
O O10 0.175903 0.410364 0.336836
O O11 0.367272 0.207961 0.184827
O O12 0.384274 0.327390 0.849639
O O13 0.500000 0.000000 0.000000
O O14 0.500000 0.500000 0.000000
#
# Coordination Sequence:
#
# PCOD9067463 Si02
#       7
#     2   2   2   2   1   2   2
#     4  11  25  49  78 120 163 215 274 338 432 506
#     4  12  28  50  80 118 161 218 279 351 423 505
#     4  11  27  49  77 123 169 216 271 351 423 515
#     4  12  27  52  81 114 171 216 285 347 426 503
#     4  12  30  52  78 118 162 220 278 360 414 498
#     4  12  25  48  82 121 164 217 273 349 422 512
#     4  12  27  50  81 114 159 217 285 343 417 515
#
# _framework density 27.242773
#
# number of rings (size 3 to 8) (size 9 to 14) (size 15 to 20)
#    0.000    0.308    4.615    2.769    4.308    2.462 
#    2.769    0.000    0.000    0.000    0.000    0.000 
#    0.000    0.000    0.000    0.000    0.000    0.000 
#
# Total GULP energy -72730.895384 kJ/mol
# GULP energy per Si atom -5594.684260 kJ/mol
# Density = 2.718077 g / cm^3
# Si number density = 27.242773 Si / 1000 Ang^3
#
#
#
# Elastic Constant Matrix: (Units=GPa)
#
#
# Indices 1 2 3 4 5 6 
#
# 1 193.8103 44.2337 38.9768 6.0981 10.8196 18.1579
# 2 44.2337 119.2381 61.1916 51.2271 1.7165 -4.1980
# 3 38.9768 61.1916 97.0530 28.9855 -6.1277 6.7313
# 4 6.0981 51.2271 28.9855 60.9839 -3.3827 -0.7318
# 5 10.8196 1.7165 -6.1277 -3.3827 55.1468 3.6223
# 6 18.1579 -4.1980 6.7313 -0.7318 3.6223 53.3579
#
#
#
# Elastic Compliance Matrix: (Units=1/GPa)
#
#
# Indices 1 2 3 4 5 6 
#
# 1 0.006209 -0.002513 -0.001463 0.002103 -0.001040 -0.002027
# 2 -0.002513 0.018218 -0.007340 -0.011626 -0.001812 0.003178
# 3 -0.001463 -0.007340 0.016215 -0.001290 0.002389 -0.002305
# 4 0.002103 -0.011626 -0.001290 0.026636 0.001519 -0.001205
# 5 -0.001040 -0.001812 0.002389 0.001519 0.018841 -0.001348
# 6 -0.002027 0.003178 -0.002305 -0.001205 -0.001348 0.020047
#
#
# Mechanical properties :
#
#
# Convention : Reuss Voigt Hill
#
# Bulk Modulus (GPa) = 55.51951 77.65620 66.58785
# Shear Modulus (GPa) = 37.09175 51.61103 44.35139
#
# Velocity S-wave (km/s) = 3.69389 4.35729 4.03923
# Velocity P-wave (km/s) = 6.21425 7.34042 6.80069
#
# Compressibility (1/GPa) = 0.01801169
#
# Stress axis : x y z
#
# Youngs Moduli (GPa) = 161.05487 54.89016 61.67155
#
# Poissons Ratio (x) = 0.13792 0.09020
# Poissons Ratio (y) = 0.40467 0.45268
# Poissons Ratio (z) = 0.23555 0.40290
#
# Static dielectric constant tensor:
#      x y z
#    x 2.164410 -0.020690 -0.038380 
#    y -0.020690 2.130070 0.034030 
#    z -0.038380 0.034030 2.098310 
# 
# From -- ./inp_files/25676.got.cif
#   From: 2010.05.17/outbox.cif.g08.bks.cpg/sg2_13_cif.got.tgz:25676.got - 2010.06.03 11:33:40.
