data_PCOD9067564
_publ_section_title
;
Structure prediction by ZEFSAII (Michael W. Deem and Ramdas Pophale) SiO2 
 PCOD9067564
Probable space group: P -1
;
_chemical_formula_sum "Si O2"
_cell_formula_units_Z 15
_cell_length_a 18.083710
_cell_length_b 8.629572
_cell_length_c 11.968189
_cell_angle_alpha 53.800213
_cell_angle_beta 148.341289
_cell_angle_gamma 140.636318
_cell_volume 608.820396
_symmetry_space_group_name_H-M "P -1"
_symmetry_group_IT_number 2
_symmetry_cell_setting 'triclinic'
loop_
_space_group_symop_operation_xyz
x,y,z
-x,-y,-z
loop_
_atom_site_type_symbol
_atom_site_label
_atom_site_fract_x
_atom_site_fract_y
_atom_site_fract_z
Si Si1 0.032655 0.446968 0.688033
Si Si2 0.610730 0.015408 0.031093
Si Si3 0.500000 0.500000 0.500000
Si Si4 0.727034 0.421325 0.655708
Si Si5 0.852709 0.129317 0.019686
Si Si6 0.163325 0.178872 0.048701
Si Si7 0.214937 0.187077 0.724704
Si Si8 0.670962 0.282916 0.393330
O O1 0.000000 0.500000 0.500000
O O2 0.851730 0.315446 0.585618
O O3 0.094116 0.280869 0.831138
O O4 0.195651 0.708654 0.842195
O O5 0.485259 0.935119 0.795155
O O6 0.663962 0.837714 0.192323
O O7 0.500000 0.000000 0.000000
O O8 0.607569 0.464439 0.554361
O O9 0.335062 0.401051 0.243083
O O10 0.637454 0.274256 0.485743
O O11 0.926122 0.681467 0.766186
O O12 0.783305 0.285597 0.859402
O O13 0.768741 0.920951 0.095044
O O14 0.800755 0.986471 0.897513
O O15 0.000000 0.000000 0.000000
O O16 0.285882 0.464174 0.702385
O O17 0.000000 0.000000 0.500000
#
# Coordination Sequence:
#
# PCOD9067564 Si02
#       8
#     2   2   1   2   2   2   2   2
#     4  12  26  50  79 119 159 205 259 330 390 467
#     4  12  28  47  76 117 156 202 257 322 385 470
#     4  12  30  50  78 118 152 202 270 330 384 466
#     4  11  26  51  78 111 154 204 262 318 393 467
#     4  11  25  50  79 109 154 208 251 320 395 468
#     4  12  28  50  78 112 158 204 260 322 395 463
#     4  12  25  47  77 113 155 202 255 320 389 466
#     4  12  26  51  80 112 158 212 259 314 399 472
#
# _framework density 24.637806000000001
#
# number of rings (size 3 to 8) (size 9 to 14) (size 15 to 20)
#    0.000    0.267    5.333    2.000    5.600    3.733 
#    0.000    0.000    0.000    0.000    0.000    0.000 
#    0.000    0.000    0.000    0.000    0.000    0.000 
#
# Total GULP energy -83883.323474 kJ/mol
# GULP energy per Si atom -5592.221565 kJ/mol
# Density = 2.458173 g / cm^3
# Si number density = 24.637806 Si / 1000 Ang^3
#
#
#
# Elastic Constant Matrix: (Units=GPa)
#
#
# Indices 1 2 3 4 5 6 
#
# 1 176.6375 10.9658 71.2580 8.2136 10.4924 -6.4578
# 2 10.9658 69.2170 39.0590 -0.2888 -4.0078 -0.4014
# 3 71.2580 39.0590 141.3091 17.7518 4.8619 7.0213
# 4 8.2136 -0.2888 17.7518 51.4194 -7.3481 -11.2458
# 5 10.4924 -4.0078 4.8619 -7.3481 55.4575 -2.3216
# 6 -6.4578 -0.4014 7.0213 -11.2458 -2.3216 26.5184
#
#
#
# Elastic Compliance Matrix: (Units=1/GPa)
#
#
# Indices 1 2 3 4 5 6 
#
# 1 0.007467 0.001275 -0.004382 0.000964 -0.000669 0.003348
# 2 0.001275 0.017945 -0.006269 0.003204 0.002189 0.003792
# 3 -0.004382 -0.006269 0.012063 -0.005203 -0.001652 -0.006707
# 4 0.000964 0.003204 -0.005203 0.024427 0.004261 0.012393
# 5 -0.000669 0.002189 -0.001652 0.004261 0.019185 0.003794
# 6 0.003348 0.003792 -0.006707 0.012393 0.003794 0.045946
#
#
# Mechanical properties :
#
#
# Convention : Reuss Voigt Hill
#
# Bulk Modulus (GPa) = 53.41336 69.96991 61.69164
# Shear Modulus (GPa) = 32.88869 44.40443 38.64656
#
# Velocity S-wave (km/s) = 3.65757 4.24994 3.96484
# Velocity P-wave (km/s) = 6.28996 7.24871 6.78629
#
# Compressibility (1/GPa) = 0.01872191
#
# Stress axis : x y z
#
# Youngs Moduli (GPa) = 133.91539 55.72540 82.89731
#
# Poissons Ratio (x) = -0.07103 0.36329
# Poissons Ratio (y) = -0.17070 0.51970
# Poissons Ratio (z) = 0.58687 0.34935
#
# Static dielectric constant tensor:
#      x y z
#    x 1.974900 -0.004600 0.019620 
#    y -0.004600 1.994190 -0.011610 
#    z 0.019620 -0.011610 1.947660 
# 
# From -- ./inp_files/461967.got.cif
#   From: 2010.05.17/outbox.cif.g08.bks.cpg/sg2_231_cif.got.tgz:461967.got - 2010.06.03 11:33:40.
