data_PCOD9067686
_publ_section_title
;
Structure prediction by ZEFSAII (Michael W. Deem and Ramdas Pophale) SiO2 
 PCOD9067686
Probable space group: P -1
;
_chemical_formula_sum "Si O2"
_cell_formula_units_Z 12
_cell_length_a 5.332683
_cell_length_b 9.446808
_cell_length_c 19.087700
_cell_angle_alpha 137.481728
_cell_angle_beta 60.570423
_cell_angle_gamma 102.624384
_cell_volume 548.899439
_symmetry_space_group_name_H-M "P -1"
_symmetry_group_IT_number 2
_symmetry_cell_setting 'triclinic'
loop_
_space_group_symop_operation_xyz
x,y,z
-x,-y,-z
loop_
_atom_site_type_symbol
_atom_site_label
_atom_site_fract_x
_atom_site_fract_y
_atom_site_fract_z
Si Si1 0.796764 0.049617 0.614686
Si Si2 0.316099 0.357039 0.431874
Si Si3 0.792651 0.259869 0.069038
Si Si4 0.308211 0.701246 0.058311
Si Si5 0.391231 0.910721 0.835479
Si Si6 0.130128 0.293973 0.767617
O O1 0.478872 0.189332 0.683025
O O2 0.952627 0.174990 0.695792
O O3 0.744764 0.834594 0.580861
O O4 0.000000 0.000000 0.500000
O O5 0.500000 0.500000 0.500000
O O6 0.517140 0.252699 0.300035
O O7 0.000000 0.500000 0.500000
O O8 0.571604 0.203256 0.135431
O O9 0.925902 0.452534 0.150506
O O10 0.655834 0.345408 0.045210
O O11 0.050067 0.049470 0.936211
O O12 0.983749 0.730342 0.146387
O O13 0.415017 0.916155 0.135660
O O14 0.500000 0.500000 0.000000
#
# Coordination Sequence:
#
# PCOD9067686 Si02
#       6
#     2   2   2   2   2   2
#     4  12  28  49  76 105 145 196 253 305 358 433
#     4  12  29  51  74 105 146 200 248 301 362 433
#     4  11  26  43  75 111 149 190 237 308 380 445
#     4  12  23  45  72 110 147 192 238 300 383 445
#     4  11  26  47  71 108 151 192 244 303 374 443
#     4  12  25  46  77 109 146 187 245 307 370 439
#
# _framework density 21.861931999999999
#
# number of rings (size 3 to 8) (size 9 to 14) (size 15 to 20)
#    0.000    0.333    3.333    4.500    7.000    0.000 
#    0.000    0.000    0.000    0.000    0.000    0.000 
#    0.000    0.000    0.000    0.000    0.000    0.000 
#
# Total GULP energy -67192.687305 kJ/mol
# GULP energy per Si atom -5599.390609 kJ/mol
# Density = 2.181217 g / cm^3
# Si number density = 21.861932 Si / 1000 Ang^3
#
#
#
# Elastic Constant Matrix: (Units=GPa)
#
#
# Indices 1 2 3 4 5 6 
#
# 1 125.8338 36.1330 70.3618 4.6540 8.4512 3.1344
# 2 36.1330 136.4914 84.9435 -26.2054 5.3961 -6.3230
# 3 70.3618 84.9435 168.7799 -13.9185 7.6645 14.8665
# 4 4.6540 -26.2054 -13.9185 37.3777 15.8654 4.6515
# 5 8.4512 5.3961 7.6645 15.8654 42.8506 -3.2037
# 6 3.1344 -6.3230 14.8665 4.6515 -3.2037 23.2935
#
#
#
# Elastic Compliance Matrix: (Units=1/GPa)
#
#
# Indices 1 2 3 4 5 6 
#
# 1 0.010850 -0.000573 -0.004789 -0.004012 0.000447 0.002303
# 2 -0.000573 0.013074 -0.006099 0.007441 -0.002775 0.005651
# 3 -0.004789 -0.006099 0.012207 0.003069 -0.002335 -0.009736
# 4 -0.004012 0.007441 0.003069 0.042112 -0.017045 -0.010152
# 5 0.000447 -0.002775 -0.002335 -0.017045 0.030950 0.008338
# 6 0.002303 0.005651 -0.009736 -0.010152 0.008338 0.053542
#
#
# Mechanical properties :
#
#
# Convention : Reuss Voigt Hill
#
# Bulk Modulus (GPa) = 75.70348 90.44241 83.07295
# Shear Modulus (GPa) = 26.30724 36.68216 31.49470
#
# Velocity S-wave (km/s) = 3.47268 4.10066 3.79967
# Velocity P-wave (km/s) = 7.12618 7.99251 7.57175
#
# Compressibility (1/GPa) = 0.01320943
#
# Stress axis : x y z
#
# Youngs Moduli (GPa) = 92.16224 76.48787 81.91740
#
# Poissons Ratio (x) = 0.04386 0.39229
# Poissons Ratio (y) = 0.05285 0.49961
# Poissons Ratio (z) = 0.44135 0.46649
#
# Static dielectric constant tensor:
#      x y z
#    x 1.832040 -0.026270 0.011920 
#    y -0.026270 1.835220 -0.035630 
#    z 0.011920 -0.035630 1.900860 
# 
# From -- ./inp_files/21802.got.cif
#   From: 2010.05.17/outbox.cif.g08.bks.cpg/sg2_11_cif.got.tgz:21802.got - 2010.06.03 11:33:40.
