data_PCOD9067785
_publ_section_title
;
Structure prediction by ZEFSAII (Michael W. Deem and Ramdas Pophale) SiO2 
 PCOD9067785
Probable space group: P -1
;
_chemical_formula_sum "Si O2"
_cell_formula_units_Z 14
_cell_length_a 8.552668
_cell_length_b 5.142526
_cell_length_c 19.129157
_cell_angle_alpha 111.263917
_cell_angle_beta 45.459303
_cell_angle_gamma 95.499796
_cell_volume 542.693522
_symmetry_space_group_name_H-M "P -1"
_symmetry_group_IT_number 2
_symmetry_cell_setting 'triclinic'
loop_
_space_group_symop_operation_xyz
x,y,z
-x,-y,-z
loop_
_atom_site_type_symbol
_atom_site_label
_atom_site_fract_x
_atom_site_fract_y
_atom_site_fract_z
Si Si1 0.656861 0.497563 0.816950
Si Si2 0.839491 0.880291 0.401243
Si Si3 0.310883 0.478263 0.702023
Si Si4 0.207259 0.475616 0.486569
Si Si5 0.158621 0.103122 0.106397
Si Si6 0.914882 0.704542 0.112607
Si Si7 0.618905 0.981948 0.120407
O O1 0.671242 0.740497 0.893802
O O2 0.511671 0.270841 0.858473
O O3 0.903769 0.303715 0.706622
O O4 0.546000 0.708430 0.809916
O O5 0.691887 0.779133 0.377348
O O6 0.776650 0.780318 0.487832
O O7 0.834644 0.215446 0.431542
O O8 0.549087 0.557572 0.628602
O O9 0.245525 0.387812 0.790187
O O10 0.086208 0.716250 0.774063
O O11 0.000000 0.500000 0.500000
O O12 0.216015 0.091191 0.005267
O O13 0.123552 0.781719 0.096679
O O14 0.763318 0.972306 0.143900
O O15 0.000000 0.500000 0.000000
#
# Coordination Sequence:
#
# PCOD9067785 Si02
#       7
#     2   2   2   2   2   2   2
#     4  11  27  45  77 106 153 198 252 312 379 435
#     4  11  27  52  78 113 151 198 256 308 379 462
#     4  11  28  47  80 107 153 204 250 310 381 451
#     4  12  28  52  81 115 149 189 254 325 387 445
#     4  11  26  45  72 106 152 203 257 301 371 459
#     4  12  27  47  72 111 159 203 256 306 372 451
#     4  12  25  45  72 109 156 201 249 310 369 440
#
# _framework density 25.797250999999999
#
# number of rings (size 3 to 8) (size 9 to 14) (size 15 to 20)
#    0.000    0.571    1.429    4.286   14.000    1.143 
#    0.000    0.000    0.000    0.000    0.000    0.000 
#    0.000    0.000    0.000    0.000    0.000    0.000 
#
# Total GULP energy -78449.516421 kJ/mol
# GULP energy per Si atom -5603.536887 kJ/mol
# Density = 2.573854 g / cm^3
# Si number density = 25.797251 Si / 1000 Ang^3
#
#
#
# Elastic Constant Matrix: (Units=GPa)
#
#
# Indices 1 2 3 4 5 6 
#
# 1 88.1276 21.2101 19.2611 -16.7774 -6.1914 25.1486
# 2 21.2101 106.1781 9.7737 -10.3810 -13.4077 21.8864
# 3 19.2611 9.7737 101.1199 -13.8352 -14.3364 9.8305
# 4 -16.7774 -10.3810 -13.8352 54.9459 3.5041 -7.0643
# 5 -6.1914 -13.4077 -14.3364 3.5041 44.5029 0.0937
# 6 25.1486 21.8864 9.8305 -7.0643 0.0937 60.4144
#
#
#
# Elastic Compliance Matrix: (Units=1/GPa)
#
#
# Indices 1 2 3 4 5 6 
#
# 1 0.013974 -0.001272 -0.001551 0.002971 0.000837 -0.004758
# 2 -0.001272 0.010829 0.000092 0.001064 0.003038 -0.003289
# 3 -0.001551 0.000092 0.010993 0.001986 0.003199 -0.000949
# 4 0.002971 0.001064 0.001986 0.019869 -0.000192 0.000378
# 5 0.000837 0.003038 0.003199 -0.000192 0.024552 -0.002030
# 6 -0.004758 -0.003289 -0.000949 0.000378 -0.002030 0.019926
#
#
# Mechanical properties :
#
#
# Convention : Reuss Voigt Hill
#
# Bulk Modulus (GPa) = 32.96558 43.99059 38.47808
# Shear Modulus (GPa) = 43.20827 48.31802 45.76314
#
# Velocity S-wave (km/s) = 4.09702 4.33250 4.21640
# Velocity P-wave (km/s) = 5.93188 6.48975 6.21708
#
# Compressibility (1/GPa) = 0.03033467
#
# Stress axis : x y z
#
# Youngs Moduli (GPa) = 71.55910 92.34098 90.96415
#
# Poissons Ratio (x) = 0.11744 0.14110
# Poissons Ratio (y) = 0.09101 -0.00834
# Poissons Ratio (z) = 0.11100 -0.00846
#
# Static dielectric constant tensor:
#      x y z
#    x 2.046940 -0.000370 -0.022110 
#    y -0.000370 2.093290 0.076910 
#    z -0.022110 0.076910 2.040600 
# 
# From -- ./inp_files/585818.got.cif
#   From: 2010.05.17/outbox.cif.g08.bks.cpg/sg2_293_cif.got.tgz:585818.got - 2010.06.03 11:33:40.
