data_PCOD9067003
_publ_section_title
;
Structure prediction by ZEFSAII (Michael W. Deem and Ramdas Pophale) SiO2 
 PCOD9067003
Probable space group: P -1
;
_chemical_formula_sum "Si O2"
_cell_formula_units_Z 16
_cell_length_a 9.389409
_cell_length_b 16.240154
_cell_length_c 8.605117
_cell_angle_alpha 100.900917
_cell_angle_beta 123.352000
_cell_angle_gamma 118.978434
_cell_volume 749.783639
_symmetry_space_group_name_H-M "P -1"
_symmetry_group_IT_number 2
_symmetry_cell_setting 'triclinic'
loop_
_space_group_symop_operation_xyz
x,y,z
-x,-y,-z
loop_
_atom_site_type_symbol
_atom_site_label
_atom_site_fract_x
_atom_site_fract_y
_atom_site_fract_z
Si Si1 0.553790 0.678523 0.758307
Si Si2 0.531920 0.011281 0.706943
Si Si3 0.916586 0.060481 0.408678
Si Si4 0.765099 0.935700 0.946247
Si Si5 0.087413 0.494142 0.214694
Si Si6 0.748935 0.669020 0.359064
Si Si7 0.047814 0.283232 0.156975
Si Si8 0.270556 0.514472 0.834404
O O1 0.646091 0.805899 0.877464
O O2 0.366860 0.607631 0.475147
O O3 0.786590 0.703674 0.867445
O O4 0.418550 0.595129 0.798916
O O5 0.500000 0.000000 0.500000
O O6 0.309944 0.979407 0.648542
O O7 0.569284 0.927424 0.745189
O O8 0.781269 0.147808 0.948792
O O9 0.128624 0.204487 0.589715
O O10 0.000000 0.000000 0.500000
O O11 0.848601 0.017321 0.175060
O O12 0.000000 0.000000 0.000000
O O13 0.036094 0.377472 0.150583
O O14 0.928101 0.487041 0.244092
O O15 0.000000 0.500000 0.000000
O O16 0.820721 0.685227 0.587285
O O17 0.840111 0.616061 0.312034
O O18 0.462182 0.572560 0.112060
#
# Coordination Sequence:
#
# PCOD9067003 Si02
#       8
#     2   2   2   2   2   2   2   2
#     4  12  26  47  74 104 148 186 238 295 360 427
#     4  12  29  46  72 107 143 191 246 299 363 433
#     4  12  27  46  75 106 144 193 240 299 366 433
#     4  12  25  48  73 108 145 189 240 298 366 431
#     4  12  29  45  73 107 142 187 243 296 357 421
#     4  11  25  47  74  99 148 182 242 286 367 420
#     4  12  27  49  73 102 146 188 237 293 362 434
#     4  11  27  45  74 108 139 188 238 299 356 421
#
# _framework density 21.339486999999998
#
# number of rings (size 3 to 8) (size 9 to 14) (size 15 to 20)
#    0.000    0.250    3.750    3.375   12.250    0.000 
#    0.000    0.000    0.000    0.000    0.000    0.000 
#    0.000    0.000    0.000    0.000    0.000    0.000 
#
# Total GULP energy -89612.559076 kJ/mol
# GULP energy per Si atom -5600.784942 kJ/mol
# Density = 2.129092 g / cm^3
# Si number density = 21.339487 Si / 1000 Ang^3
#
#
#
# Elastic Constant Matrix: (Units=GPa)
#
#
# Indices 1 2 3 4 5 6 
#
# 1 145.7979 42.9792 4.3224 -7.2360 6.9920 -25.2262
# 2 42.9792 149.9391 18.2028 0.6318 -3.1540 -37.6696
# 3 4.3224 18.2028 67.7329 -13.6222 -20.2406 -5.0610
# 4 -7.2360 0.6318 -13.6222 42.3346 -7.7467 -6.3816
# 5 6.9920 -3.1540 -20.2406 -7.7467 33.1122 -7.3922
# 6 -25.2262 -37.6696 -5.0610 -6.3816 -7.3922 39.5369
#
#
#
# Elastic Compliance Matrix: (Units=1/GPa)
#
#
# Indices 1 2 3 4 5 6 
#
# 1 0.008093 -0.001304 0.000643 0.002284 0.000074 0.004386
# 2 -0.001304 0.009395 -0.000581 0.001351 0.003106 0.008844
# 3 0.000643 -0.000581 0.023773 0.012561 0.019180 0.008513
# 4 0.002284 0.001351 0.012561 0.033310 0.018043 0.013103
# 5 0.000074 0.003106 0.019180 0.018043 0.050399 0.017796
# 6 0.004386 0.008844 0.008513 0.013103 0.017796 0.043049
#
#
# Mechanical properties :
#
#
# Convention : Reuss Voigt Hill
#
# Bulk Modulus (GPa) = 25.78852 54.94208 40.36530
# Shear Modulus (GPa) = 27.25848 42.86110 35.05979
#
# Velocity S-wave (km/s) = 3.57791 4.48653 4.05773
# Velocity P-wave (km/s) = 5.40183 7.25542 6.39613
#
# Compressibility (1/GPa) = 0.03877695
#
# Stress axis : x y z
#
# Youngs Moduli (GPa) = 123.56582 106.43721 42.06478
#
# Poissons Ratio (x) = 0.13880 -0.02705
# Poissons Ratio (y) = 0.16113 0.02444
# Poissons Ratio (z) = -0.07947 0.06185
#
# Static dielectric constant tensor:
#      x y z
#    x 1.746570 0.002440 0.002130 
#    y 0.002440 1.769220 -0.028030 
#    z 0.002130 -0.028030 1.748620 
# 
# From -- ./inp_files/177407.got.cif
#   From: 2010.05.17/outbox.cif.g08.bks.cpg/sg2_89_cif.got.tgz:177407.got - 2010.06.03 11:33:40.
