data_PCOD9067724
_publ_section_title
;
Structure prediction by ZEFSAII (Michael W. Deem and Ramdas Pophale) SiO2 
 PCOD9067724
Probable space group: P -1
;
_chemical_formula_sum "Si O2"
_cell_formula_units_Z 16
_cell_length_a 6.661956
_cell_length_b 14.203732
_cell_length_c 11.958926
_cell_angle_alpha 48.165481
_cell_angle_beta 72.396965
_cell_angle_gamma 94.561464
_cell_volume 737.952830
_symmetry_space_group_name_H-M "P -1"
_symmetry_group_IT_number 2
_symmetry_cell_setting 'triclinic'
loop_
_space_group_symop_operation_xyz
x,y,z
-x,-y,-z
loop_
_atom_site_type_symbol
_atom_site_label
_atom_site_fract_x
_atom_site_fract_y
_atom_site_fract_z
Si Si1 0.734664 0.593829 0.445182
Si Si2 0.233722 0.130127 0.879007
Si Si3 0.663628 0.147869 0.668149
Si Si4 0.158243 0.499472 0.075234
Si Si5 0.662064 0.734122 0.779249
Si Si6 0.016578 0.462301 0.371943
Si Si7 0.139480 0.085460 0.177750
Si Si8 0.377488 0.065681 0.555416
O O1 0.500000 0.500000 0.500000
O O2 0.765206 0.748518 0.298383
O O3 0.936642 0.565764 0.371287
O O4 0.757624 0.548104 0.603520
O O5 0.457698 0.104760 0.826685
O O6 0.231296 0.165274 0.982639
O O7 0.000000 0.000000 0.000000
O O8 0.824666 0.307285 0.533458
O O9 0.545916 0.127994 0.581674
O O10 0.801993 0.049991 0.730829
O O11 0.186234 0.354998 0.186720
O O12 0.051422 0.511428 0.201214
O O13 0.403237 0.624050 0.922994
O O14 0.000000 0.500000 0.000000
O O15 0.739686 0.829395 0.800245
O O16 0.677582 0.823506 0.595941
O O17 0.866745 0.041201 0.272474
O O18 0.500000 0.000000 0.500000
#
# Coordination Sequence:
#
# PCOD9067724 Si02
#       8
#     2   2   2   2   2   2   2   2
#     4  11  26  47  70 103 142 185 234 298 356 426
#     4  12  26  47  73 105 146 187 246 294 364 420
#     4  12  25  46  73 105 144 194 235 300 359 432
#     4  11  27  45  71 101 142 189 236 298 355 429
#     4  11  27  44  68 105 141 183 242 291 357 433
#     4  11  26  44  74 101 140 188 240 287 363 434
#     4  12  27  44  73 105 146 185 238 302 357 435
#     4  12  26  46  73 106 145 189 234 294 369 432
#
# _framework density 21.681601000000001
#
# number of rings (size 3 to 8) (size 9 to 14) (size 15 to 20)
#    0.000    0.500    3.750    3.000    8.750    2.000 
#    0.000    0.000    0.000    0.000    0.000    0.000 
#    0.000    0.000    0.000    0.000    0.000    0.000 
#
# Total GULP energy -89601.251308 kJ/mol
# GULP energy per Si atom -5600.078207 kJ/mol
# Density = 2.163225 g / cm^3
# Si number density = 21.681601 Si / 1000 Ang^3
#
#
#
# Elastic Constant Matrix: (Units=GPa)
#
#
# Indices 1 2 3 4 5 6 
#
# 1 102.1063 14.2199 9.6376 4.9168 6.9358 8.8299
# 2 14.2199 60.4837 -4.0996 7.4048 -4.2241 -0.5792
# 3 9.6376 -4.0996 47.7086 19.4023 7.3605 2.2000
# 4 4.9168 7.4048 19.4023 41.1132 1.3220 2.2258
# 5 6.9358 -4.2241 7.3605 1.3220 37.0181 7.9048
# 6 8.8299 -0.5792 2.2000 2.2258 7.9048 43.6273
#
#
#
# Elastic Compliance Matrix: (Units=1/GPa)
#
#
# Indices 1 2 3 4 5 6 
#
# 1 0.010639 -0.002832 -0.002262 0.000452 -0.001492 -0.001830
# 2 -0.002832 0.018182 0.003769 -0.004804 0.001916 0.000522
# 3 -0.002262 0.003769 0.027849 -0.013443 -0.004326 0.000573
# 4 0.000452 -0.004804 -0.013443 0.031510 0.001192 -0.001301
# 5 -0.001492 0.001916 -0.004326 0.001192 0.029362 -0.004835
# 6 -0.001830 0.000522 0.000573 -0.001301 -0.004835 0.024212
#
#
# Mechanical properties :
#
#
# Convention : Reuss Voigt Hill
#
# Bulk Modulus (GPa) = 18.51161 27.75716 23.13438
# Shear Modulus (GPa) = 30.78592 37.05443 33.92018
#
# Velocity S-wave (km/s) = 3.77226 4.13852 3.95963
# Velocity P-wave (km/s) = 5.24688 5.97214 5.62122
#
# Compressibility (1/GPa) = 0.05402016
#
# Stress axis : x y z
#
# Youngs Moduli (GPa) = 93.99038 55.00081 35.90752
#
# Poissons Ratio (x) = 0.15575 0.08122
# Poissons Ratio (y) = 0.26616 -0.13532
# Poissons Ratio (z) = 0.21259 -0.20727
#
# Static dielectric constant tensor:
#      x y z
#    x 1.786000 -0.002080 0.061920 
#    y -0.002080 1.778830 -0.067170 
#    z 0.061920 -0.067170 1.004190 
# 
# From -- ./inp_files/367466.got.cif
#   From: 2010.05.17/outbox.cif.g08.bks.cpg/sg2_184_cif.got.tgz:367466.got - 2010.06.03 11:33:40.
