data_PCOD9067034
_publ_section_title
;
Structure prediction by ZEFSAII (Michael W. Deem and Ramdas Pophale) SiO2 
 PCOD9067034
Probable space group: P -1
;
_chemical_formula_sum "Si O2"
_cell_formula_units_Z 14
_cell_length_a 9.563378
_cell_length_b 14.990202
_cell_length_c 15.024880
_cell_angle_alpha 152.588944
_cell_angle_beta 144.035741
_cell_angle_gamma 38.496535
_cell_volume 565.727513
_symmetry_space_group_name_H-M "P -1"
_symmetry_group_IT_number 2
_symmetry_cell_setting 'triclinic'
loop_
_space_group_symop_operation_xyz
x,y,z
-x,-y,-z
loop_
_atom_site_type_symbol
_atom_site_label
_atom_site_fract_x
_atom_site_fract_y
_atom_site_fract_z
Si Si1 0.195732 0.020534 0.546483
Si Si2 0.345256 0.485394 0.799619
Si Si3 0.171908 0.430975 0.842445
Si Si4 0.384306 0.353811 0.514903
Si Si5 0.618448 0.657737 0.794508
Si Si6 0.026593 0.130070 0.042258
Si Si7 0.808509 0.037213 0.214631
O O1 0.237896 0.240201 0.770356
O O2 0.054981 0.023334 0.383342
O O3 0.426699 0.844119 0.527744
O O4 0.000000 0.000000 0.500000
O O5 0.242455 0.372873 0.725397
O O6 0.258937 0.448265 0.624784
O O7 0.234680 0.717370 0.972298
O O8 0.639045 0.439186 0.914860
O O9 0.887538 0.538587 0.796749
O O10 0.517462 0.514849 0.683145
O O11 0.207411 0.273986 0.286353
O O12 0.389134 0.749546 0.691948
O O13 0.680932 0.868937 0.041413
O O14 0.124119 0.010125 0.896545
O O15 0.000000 0.000000 0.000000
#
# Coordination Sequence:
#
# PCOD9067034 Si02
#       7
#     2   2   2   2   2   2   2
#     4  12  28  45  74 114 149 192 248 310 377 438
#     4  11  26  47  73 108 145 204 246 301 375 444
#     4  11  25  47  76 104 155 191 249 308 373 446
#     4  12  28  46  80 110 149 197 254 311 373 444
#     4  11  25  48  78 108 149 192 256 305 378 434
#     4  12  27  50  74 109 156 197 253 305 374 452
#     4  11  28  45  78 112 150 198 246 313 377 443
#
# _framework density 24.746897000000001
#
# number of rings (size 3 to 8) (size 9 to 14) (size 15 to 20)
#    0.000    0.571    2.857    3.000   12.000    2.857 
#    0.000    0.000    0.000    0.000    0.000    0.000 
#    0.000    0.000    0.000    0.000    0.000    0.000 
#
# Total GULP energy -78360.326134 kJ/mol
# GULP energy per Si atom -5597.166152 kJ/mol
# Density = 2.469057 g / cm^3
# Si number density = 24.746897 Si / 1000 Ang^3
#
#
#
# Elastic Constant Matrix: (Units=GPa)
#
#
# Indices 1 2 3 4 5 6 
#
# 1 136.7393 36.3418 38.1354 9.2669 -0.5341 11.6482
# 2 36.3418 164.4538 36.1564 12.6383 14.8307 -4.1686
# 3 38.1354 36.1564 60.5147 -9.5975 1.0254 3.9756
# 4 9.2669 12.6383 -9.5975 45.4132 13.8498 7.5070
# 5 -0.5341 14.8307 1.0254 13.8498 35.9735 6.3113
# 6 11.6482 -4.1686 3.9756 7.5070 6.3113 48.6676
#
#
#
# Elastic Compliance Matrix: (Units=1/GPa)
#
#
# Indices 1 2 3 4 5 6 
#
# 1 0.009587 -0.000765 -0.006061 -0.003439 0.002239 -0.001625
# 2 -0.000765 0.007731 -0.004628 -0.002554 -0.002422 0.001931
# 3 -0.006061 -0.004628 0.024646 0.008637 -0.001850 -0.002051
# 4 -0.003439 -0.002554 0.008637 0.028772 -0.009747 -0.003275
# 5 0.002239 -0.002422 -0.001850 -0.009747 0.033231 -0.003398
# 6 -0.001625 0.001931 -0.002051 -0.003275 -0.003398 0.022215
#
#
# Mechanical properties :
#
#
# Convention : Reuss Voigt Hill
#
# Bulk Modulus (GPa) = 52.47843 64.77502 58.62672
# Shear Modulus (GPa) = 32.16632 42.74914 37.45773
#
# Velocity S-wave (km/s) = 3.60920 4.16077 3.89476
# Velocity P-wave (km/s) = 6.21454 7.02243 6.63080
#
# Compressibility (1/GPa) = 0.01905545
#
# Stress axis : x y z
#
# Youngs Moduli (GPa) = 104.30663 129.35051 40.57521
#
# Poissons Ratio (x) = 0.09894 0.24594
# Poissons Ratio (y) = 0.07978 0.18778
# Poissons Ratio (z) = 0.63223 0.59863
#
# Static dielectric constant tensor:
#      x y z
#    x 1.964690 0.009060 -0.012070 
#    y 0.009060 1.823610 -0.058260 
#    z -0.012070 -0.058260 1.971570 
# 
# From -- ./inp_files/505994.got.cif
#   From: 2010.05.17/outbox.cif.g08.bks.cpg/sg2_253_cif.got.tgz:505994.got - 2010.06.03 11:33:40.
