data_PCOD9067066
_publ_section_title
;
Structure prediction by ZEFSAII (Michael W. Deem and Ramdas Pophale) SiO2 
 PCOD9067066
Probable space group: P -1
;
_chemical_formula_sum "Si O2"
_cell_formula_units_Z 13
_cell_length_a 5.674793
_cell_length_b 5.472058
_cell_length_c 15.849920
_cell_angle_alpha 97.578248
_cell_angle_beta 98.913338
_cell_angle_gamma 82.695588
_cell_volume 479.123741
_symmetry_space_group_name_H-M "P -1"
_symmetry_group_IT_number 2
_symmetry_cell_setting 'triclinic'
loop_
_space_group_symop_operation_xyz
x,y,z
-x,-y,-z
loop_
_atom_site_type_symbol
_atom_site_label
_atom_site_fract_x
_atom_site_fract_y
_atom_site_fract_z
Si Si1 0.165383 0.103682 0.714014
Si Si2 0.910309 0.846277 0.817624
Si Si3 0.500000 0.000000 0.500000
Si Si4 0.457244 0.254395 0.343754
Si Si5 0.129564 0.652912 0.442908
Si Si6 0.693184 0.775105 0.973408
Si Si7 0.331008 0.436567 0.863832
O O1 0.366770 0.231825 0.783112
O O2 0.058040 0.263212 0.636977
O O3 0.276093 0.830877 0.677970
O O4 0.969489 0.073956 0.773530
O O5 0.707617 0.730919 0.747164
O O6 0.842765 0.886192 0.912940
O O7 0.147934 0.655359 0.827360
O O8 0.411999 0.036699 0.397314
O O9 0.744838 0.126078 0.498473
O O10 0.361749 0.489397 0.406562
O O11 0.000000 0.500000 0.500000
O O12 0.565642 0.553069 0.913185
O O13 0.789051 0.667066 0.063151
O O14 0.500000 0.000000 0.000000
#
# Coordination Sequence:
#
# PCOD9067066 Si02
#       7
#     2   2   1   2   2   2   2
#     4  12  28  51  80 115 163 213 273 341 415 494
#     4  12  25  47  78 113 160 212 268 335 412 489
#     4  12  28  52  84 120 162 218 276 346 412 504
#     4  12  27  49  80 118 161 212 275 341 408 499
#     4  12  29  55  86 120 169 219 278 349 425 492
#     4  11  26  48  75 117 160 214 271 336 409 494
#     4  11  25  47  77 111 161 214 268 334 413 492
#
# _framework density 27.132866
#
# number of rings (size 3 to 8) (size 9 to 14) (size 15 to 20)
#    0.000    0.308    3.077    4.615    2.154   11.077 
#    2.769    0.769    3.385    0.000    0.000    0.000 
#    0.000    0.000    0.000    0.000    0.000    0.000 
#
# Total GULP energy -72605.903145 kJ/mol
# GULP energy per Si atom -5585.069473 kJ/mol
# Density = 2.707111 g / cm^3
# Si number density = 27.132866 Si / 1000 Ang^3
#
#
#
# Elastic Constant Matrix: (Units=GPa)
#
#
# Indices 1 2 3 4 5 6 
#
# 1 65.6614 39.0504 45.5484 -9.3897 -5.5080 3.9884
# 2 39.0504 71.7486 61.3400 -25.6632 -13.3105 5.8502
# 3 45.5484 61.3400 228.1366 -43.3694 0.7282 4.7737
# 4 -9.3897 -25.6632 -43.3694 63.8394 9.4910 -8.4764
# 5 -5.5080 -13.3105 0.7282 9.4910 55.6370 1.7821
# 6 3.9884 5.8502 4.7737 -8.4764 1.7821 46.8755
#
#
#
# Elastic Compliance Matrix: (Units=1/GPa)
#
#
# Indices 1 2 3 4 5 6 
#
# 1 0.023361 -0.011985 -0.001960 -0.002817 -0.000023 -0.000801
# 2 -0.011985 0.026468 -0.003646 0.005626 0.004267 -0.001057
# 3 -0.001960 -0.003646 0.006288 0.002837 -0.001650 0.000557
# 4 -0.002817 0.005626 0.002837 0.020211 -0.002514 0.002999
# 5 -0.000023 0.004267 -0.001650 -0.002514 0.019493 -0.001558
# 6 -0.000801 -0.001057 0.000557 0.002999 -0.001558 0.022078
#
#
# Mechanical properties :
#
#
# Convention : Reuss Voigt Hill
#
# Bulk Modulus (GPa) = 47.76822 73.04712 60.40767
# Shear Modulus (GPa) = 31.23851 47.91090 39.57470
#
# Velocity S-wave (km/s) = 3.39679 4.20669 3.82324
# Velocity P-wave (km/s) = 5.74698 7.11164 6.46541
#
# Compressibility (1/GPa) = 0.02093442
#
# Stress axis : x y z
#
# Youngs Moduli (GPa) = 42.80565 37.78213 159.03605
#
# Poissons Ratio (x) = 0.45283 0.31175
# Poissons Ratio (y) = 0.51304 0.57978
# Poissons Ratio (z) = 0.08391 0.13774
#
# Static dielectric constant tensor:
#      x y z
#    x 2.180370 0.011420 0.024880 
#    y 0.011420 2.254750 -0.013470 
#    z 0.024880 -0.013470 1.961340 
# 
# From -- ./inp_files/7032.got.cif
#   From: 2010.05.17/outbox.cif.g08.bks.cpg/sg2_4_cif.got.tgz:7032.got - 2010.06.03 11:33:40.
