data_PCOD9067124
_publ_section_title
;
Structure prediction by ZEFSAII (Michael W. Deem and Ramdas Pophale) SiO2 
 PCOD9067124
Probable space group: P -1
;
_chemical_formula_sum "Si O2"
_cell_formula_units_Z 16
_cell_length_a 9.349559
_cell_length_b 12.957874
_cell_length_c 10.631063
_cell_angle_alpha 54.782943
_cell_angle_beta 71.900937
_cell_angle_gamma 39.720119
_cell_volume 650.260351
_symmetry_space_group_name_H-M "P -1"
_symmetry_group_IT_number 2
_symmetry_cell_setting 'triclinic'
loop_
_space_group_symop_operation_xyz
x,y,z
-x,-y,-z
loop_
_atom_site_type_symbol
_atom_site_label
_atom_site_fract_x
_atom_site_fract_y
_atom_site_fract_z
Si Si1 0.191602 0.309920 0.164536
Si Si2 0.872717 0.274753 0.257926
Si Si3 0.370660 0.719057 0.076052
Si Si4 0.014442 0.051228 0.613889
Si Si5 0.568691 0.815891 0.071584
Si Si6 0.521146 0.838133 0.575622
Si Si7 0.968507 0.851670 0.214105
Si Si8 0.219327 0.304099 0.646735
O O1 0.285665 0.317177 0.259973
O O2 0.066216 0.255127 0.255675
O O3 0.379586 0.195291 0.082688
O O4 0.000000 0.500000 0.000000
O O5 0.626511 0.497776 0.132172
O O6 0.980058 0.103330 0.252822
O O7 0.854812 0.193741 0.439863
O O8 0.411349 0.791167 0.130004
O O9 0.186546 0.728046 0.150067
O O10 0.211628 0.915526 0.899275
O O11 0.282552 0.919849 0.609016
O O12 0.929053 0.200486 0.639434
O O13 0.748076 0.669637 0.238027
O O14 0.500000 0.000000 0.000000
O O15 0.583930 0.790573 0.444303
O O16 0.500000 0.000000 0.500000
O O17 0.836017 0.808883 0.254770
O O18 0.000000 0.500000 0.500000
#
# Coordination Sequence:
#
# PCOD9067124 Si02
#       8
#     2   2   2   2   2   2   2   2
#     4  12  24  44  72 101 135 182 237 286 338 412
#     4  11  26  45  68 102 135 182 235 284 346 410
#     4  11  26  46  68  98 141 182 228 288 347 412
#     4  11  26  44  70 100 138 182 234 285 344 414
#     4  12  25  43  70 104 137 181 232 283 345 410
#     4  12  23  46  72  97 140 185 230 289 343 405
#     4  11  25  48  66  99 142 182 228 287 348 412
#     4  12  27  44  70 106 140 181 231 285 349 412
#
# _framework density 24.605529000000001
#
# number of rings (size 3 to 8) (size 9 to 14) (size 15 to 20)
#    0.000    0.500    5.000    2.250    5.250    2.000 
#    0.000    0.000    0.000    0.000    0.000    0.000 
#    0.000    0.000    0.000    0.000    0.000    0.000 
#
# Total GULP energy -89133.676876 kJ/mol
# GULP energy per Si atom -5570.854805 kJ/mol
# Density = 2.454953 g / cm^3
# Si number density = 24.605529 Si / 1000 Ang^3
#
#
#
# Elastic Constant Matrix: (Units=GPa)
#
#
# Indices 1 2 3 4 5 6 
#
# 1 83.7594 -1.9404 31.4796 6.3784 1.4082 3.9884
# 2 -1.9404 45.0674 6.4644 0.1274 -7.6991 -21.7874
# 3 31.4796 6.4644 85.1656 -7.8649 14.8110 -13.4472
# 4 6.3784 0.1274 -7.8649 41.5880 1.1309 -0.3159
# 5 1.4082 -7.6991 14.8110 1.1309 37.6560 6.1770
# 6 3.9884 -21.7874 -13.4472 -0.3159 6.1770 26.7426
#
#
#
# Elastic Compliance Matrix: (Units=1/GPa)
#
#
# Indices 1 2 3 4 5 6 
#
# 1 0.015577 -0.001718 -0.008029 -0.004071 0.003770 -0.008679
# 2 -0.001718 0.037266 0.002626 0.000847 0.001439 0.031615
# 3 -0.008029 0.002626 0.018979 0.005179 -0.009257 0.015080
# 4 -0.004071 0.000847 0.005179 0.025774 -0.003301 0.004968
# 5 0.003770 0.001439 -0.009257 -0.003301 0.032345 -0.011555
# 6 -0.008679 0.031615 0.015080 0.004968 -0.011555 0.074755
#
#
# Mechanical properties :
#
#
# Convention : Reuss Voigt Hill
#
# Bulk Modulus (GPa) = 17.36703 31.77774 24.57239
# Shear Modulus (GPa) = 20.99682 33.06323 27.03003
#
# Velocity S-wave (km/s) = 2.92436 3.66967 3.31801
# Velocity P-wave (km/s) = 4.29838 5.55862 4.96862
#
# Compressibility (1/GPa) = 0.05758036
#
# Stress axis : x y z
#
# Youngs Moduli (GPa) = 64.19871 26.83424 52.68850
#
# Poissons Ratio (x) = 0.04609 0.42304
# Poissons Ratio (y) = 0.11028 -0.13836
# Poissons Ratio (z) = 0.51546 -0.07047
#
# Static dielectric constant tensor:
#      x y z
#    x 1.925500 0.029110 -0.049760 
#    y 0.029110 1.771360 0.144160 
#    z -0.049760 0.144160 2.048280 
# 
# From -- ./inp_files/398560.got.cif
#   From: 2010.05.17/outbox.cif.g08.bks.cpg/sg2_200_cif.got.tgz:398560.got - 2010.06.03 11:33:40.
