data_PCOD9067234
_publ_section_title
;
Structure prediction by ZEFSAII (Michael W. Deem and Ramdas Pophale) SiO2 
 PCOD9067234
Probable space group: P -1
;
_chemical_formula_sum "Si O2"
_cell_formula_units_Z 16
_cell_length_a 11.758927
_cell_length_b 17.868682
_cell_length_c 9.038562
_cell_angle_alpha 98.891352
_cell_angle_beta 49.904433
_cell_angle_gamma 138.671245
_cell_volume 727.894333
_symmetry_space_group_name_H-M "P -1"
_symmetry_group_IT_number 2
_symmetry_cell_setting 'triclinic'
loop_
_space_group_symop_operation_xyz
x,y,z
-x,-y,-z
loop_
_atom_site_type_symbol
_atom_site_label
_atom_site_fract_x
_atom_site_fract_y
_atom_site_fract_z
Si Si1 0.733822 0.650478 0.949063
Si Si2 0.170671 0.643988 0.476588
Si Si3 0.171245 0.646143 0.839018
Si Si4 0.152913 0.075844 0.551897
Si Si5 0.201473 0.377450 0.804105
Si Si6 0.804427 0.856395 0.014262
Si Si7 0.868717 0.113145 0.841559
Si Si8 0.826088 0.193682 0.611249
O O1 0.696943 0.720360 0.068990
O O2 0.036086 0.785247 0.642862
O O3 0.500000 0.500000 0.000000
O O4 0.733003 0.594587 0.071277
O O5 0.144404 0.639030 0.678253
O O6 0.086726 0.681354 0.462607
O O7 0.000000 0.500000 0.500000
O O8 0.511808 0.775682 0.210386
O O9 0.503627 0.783074 0.660938
O O10 0.000000 0.500000 0.000000
O O11 0.006971 0.643256 0.055671
O O12 0.042751 0.111154 0.697626
O O13 0.000000 0.000000 0.500000
O O14 0.004216 0.945254 0.730940
O O15 0.500000 0.500000 0.500000
O O16 0.000059 0.217277 0.896786
O O17 0.000000 0.000000 0.000000
O O18 0.931371 0.191578 0.665587
O O19 0.522740 0.954863 0.112266
#
# Coordination Sequence:
#
# PCOD9067234 Si02
#       8
#     2   2   2   2   2   2   2   2
#     4  12  27  48  75 109 157 205 261 322 397 478
#     4  12  27  49  78 111 157 205 261 325 397 472
#     4  12  30  48  77 112 155 204 264 319 397 472
#     4  12  27  49  75 111 153 203 258 320 391 467
#     4  12  28  47  74 109 155 201 260 322 394 463
#     4  12  26  46  77 110 153 200 256 320 390 466
#     4  11  26  46  76 109 152 198 253 322 388 467
#     4  11  25  48  74 111 149 199 260 314 393 465
#
# _framework density 21.981211999999999
#
# number of rings (size 3 to 8) (size 9 to 14) (size 15 to 20)
#    0.000    0.250    3.750    3.750   10.500    0.500 
#    0.000    0.000    0.000    0.000    0.000    0.000 
#    0.000    0.000    0.000    0.000    0.000    0.000 
#
# Total GULP energy -89109.886983 kJ/mol
# GULP energy per Si atom -5569.367936 kJ/mol
# Density = 2.193118 g / cm^3
# Si number density = 21.981212 Si / 1000 Ang^3
#
#
#
# Elastic Constant Matrix: (Units=GPa)
#
#
# Indices 1 2 3 4 5 6 
#
# 1 117.3972 49.7759 54.9524 -6.8345 -13.8068 -7.4096
# 2 49.7759 131.7275 22.6079 -0.9778 -16.7398 -10.0063
# 3 54.9524 22.6079 125.5022 -5.9224 -10.6676 3.6357
# 4 -6.8345 -0.9778 -5.9224 31.9625 -6.8499 -3.9784
# 5 -13.8068 -16.7398 -10.6676 -6.8499 48.2135 10.3579
# 6 -7.4096 -10.0063 3.6357 -3.9784 10.3579 48.9513
#
#
#
# Elastic Compliance Matrix: (Units=1/GPa)
#
#
# Indices 1 2 3 4 5 6 
#
# 1 0.012651 -0.003684 -0.004703 0.002177 0.001310 0.001411
# 2 -0.003684 0.009293 0.000085 0.000055 0.002001 0.000917
# 3 -0.004703 0.000085 0.010230 0.000994 0.001449 -0.001680
# 4 0.002177 0.000055 0.000994 0.033283 0.005189 0.001874
# 5 0.001310 0.002001 0.001449 0.005189 0.023750 -0.004104
# 6 0.001411 0.000917 -0.001680 0.001874 -0.004104 0.021975
#
#
# Mechanical properties :
#
#
# Convention : Reuss Voigt Hill
#
# Bulk Modulus (GPa) = 64.21684 69.92217 67.06950
# Shear Modulus (GPa) = 37.60062 42.31150 39.95606
#
# Velocity S-wave (km/s) = 4.14040 4.39212 4.26812
# Velocity P-wave (km/s) = 7.22046 7.58947 7.40726
#
# Compressibility (1/GPa) = 0.01557224
#
# Stress axis : x y z
#
# Youngs Moduli (GPa) = 79.04515 107.60618 97.74730
#
# Poissons Ratio (x) = 0.39637 0.45967
# Poissons Ratio (y) = 0.29117 -0.00831
# Poissons Ratio (z) = 0.37172 -0.00915
#
# Static dielectric constant tensor:
#      x y z
#    x 1.779320 0.009520 0.041740 
#    y 0.009520 1.789420 -0.025490 
#    z 0.041740 -0.025490 1.765070 
# 
# From -- ./inp_files/279489.got.cif
#   From: 2010.05.17/outbox.cif.g08.bks.cpg/sg2_140_cif.got.tgz:279489.got - 2010.06.03 11:33:40.
