data_PCOD9067718
_publ_section_title
;
Structure prediction by ZEFSAII (Michael W. Deem and Ramdas Pophale) SiO2 
 PCOD9067718
Probable space group: P -1
;
_chemical_formula_sum "Si O2"
_cell_formula_units_Z 14
_cell_length_a 8.694659
_cell_length_b 15.801547
_cell_length_c 15.246335
_cell_angle_alpha 161.753393
_cell_angle_beta 60.893423
_cell_angle_gamma 119.779233
_cell_volume 568.411776
_symmetry_space_group_name_H-M "P -1"
_symmetry_group_IT_number 2
_symmetry_cell_setting 'triclinic'
loop_
_space_group_symop_operation_xyz
x,y,z
-x,-y,-z
loop_
_atom_site_type_symbol
_atom_site_label
_atom_site_fract_x
_atom_site_fract_y
_atom_site_fract_z
Si Si1 0.188377 0.249433 0.735628
Si Si2 0.322526 0.081382 0.084303
Si Si3 0.549536 0.908847 0.139022
Si Si4 0.839949 0.406864 0.081105
Si Si5 0.879502 0.462172 0.333141
Si Si6 0.660330 0.235562 0.707969
Si Si7 0.277462 0.569880 0.310657
O O1 0.172923 0.332919 0.721450
O O2 0.222195 0.942918 0.441383
O O3 0.342468 0.480169 0.959473
O O4 0.013835 0.293200 0.882711
O O5 0.362436 0.106210 0.995166
O O6 0.259789 0.355194 0.408284
O O7 0.500000 0.000000 0.000000
O O8 0.169468 0.840742 0.914935
O O9 0.344403 0.789898 0.072179
O O10 0.653756 0.722868 0.990958
O O11 0.582823 0.215389 0.466170
O O12 0.861296 0.464424 0.234977
O O13 0.083031 0.563550 0.399879
O O14 0.737215 0.328670 0.684258
O O15 0.500000 0.000000 0.500000
#
# Coordination Sequence:
#
# PCOD9067718 Si02
#       7
#     2   2   2   2   2   2   2
#     4  11  26  44  73 107 140 191 241 289 348 425
#     4  12  27  47  76 109 138 187 240 298 356 418
#     4  12  27  46  74 104 145 182 241 292 354 423
#     4  11  26  47  75 108 144 189 241 295 351 422
#     4  12  27  47  76 102 150 185 238 295 356 424
#     4  12  24  45  70 103 148 188 236 291 355 419
#     4  12  27  46  71 107 142 191 230 293 360 419
#
# _framework density 24.630032
#
# number of rings (size 3 to 8) (size 9 to 14) (size 15 to 20)
#    0.000    0.286    2.857    5.143    4.000    8.000 
#    0.000    0.000    0.000    0.000    0.000    0.000 
#    0.000    0.000    0.000    0.000    0.000    0.000 
#
# Total GULP energy -78550.751836 kJ/mol
# GULP energy per Si atom -5610.767988 kJ/mol
# Density = 2.457397 g / cm^3
# Si number density = 24.630032 Si / 1000 Ang^3
#
#
#
# Elastic Constant Matrix: (Units=GPa)
#
#
# Indices 1 2 3 4 5 6 
#
# 1 79.3629 14.8463 7.9893 6.0556 20.4837 17.4043
# 2 14.8463 155.7345 10.8362 -4.6486 16.0949 -18.8381
# 3 7.9893 10.8362 96.2372 3.3798 3.8665 -8.9632
# 4 6.0556 -4.6486 3.3798 36.3674 4.6249 -1.2429
# 5 20.4837 16.0949 3.8665 4.6249 35.0251 7.2232
# 6 17.4043 -18.8381 -8.9632 -1.2429 7.2232 31.5014
#
#
#
# Elastic Compliance Matrix: (Units=1/GPa)
#
#
# Indices 1 2 3 4 5 6 
#
# 1 0.017215 -0.002111 -0.001761 -0.002478 -0.006540 -0.009873
# 2 -0.002111 0.007955 0.000019 0.002131 -0.004140 0.006962
# 3 -0.001761 0.000019 0.010995 -0.000448 -0.001027 0.004331
# 4 -0.002478 0.002131 -0.000448 0.028923 -0.004255 0.004633
# 5 -0.006540 -0.004140 -0.001027 -0.004255 0.036542 -0.007702
# 6 -0.009873 0.006962 0.004331 0.004633 -0.007702 0.044544
#
#
# Mechanical properties :
#
#
# Convention : Reuss Voigt Hill
#
# Bulk Modulus (GPa) = 35.13735 44.29758 39.71747
# Shear Modulus (GPa) = 30.60631 40.42296 35.51463
#
# Velocity S-wave (km/s) = 3.52894 4.05557 3.80139
# Velocity P-wave (km/s) = 5.55892 6.32096 5.95214
#
# Compressibility (1/GPa) = 0.02845974
#
# Stress axis : x y z
#
# Youngs Moduli (GPa) = 58.09015 125.71158 90.94756
#
# Poissons Ratio (x) = 0.26536 0.16017
# Poissons Ratio (y) = 0.12262 -0.00177
# Poissons Ratio (z) = 0.10230 -0.00245
#
# Static dielectric constant tensor:
#      x y z
#    x 2.072190 0.028240 0.065060 
#    y 0.028240 1.892400 0.007660 
#    z 0.065060 0.007660 1.916190 
# 
# From -- ./inp_files/287214.got.cif
#   From: 2010.05.17/outbox.cif.g08.bks.cpg/sg2_144_cif.got.tgz:287214.got - 2010.06.03 11:33:40.
