data_PCOD9067533
_publ_section_title
;
Structure prediction by ZEFSAII (Michael W. Deem and Ramdas Pophale) SiO2 
 PCOD9067533
Probable space group: P -1
;
_chemical_formula_sum "Si O2"
_cell_formula_units_Z 16
_cell_length_a 6.749210
_cell_length_b 9.324357
_cell_length_c 19.081333
_cell_angle_alpha 148.474117
_cell_angle_beta 80.517117
_cell_angle_gamma 89.324634
_cell_volume 591.721840
_symmetry_space_group_name_H-M "P -1"
_symmetry_group_IT_number 2
_symmetry_cell_setting 'triclinic'
loop_
_space_group_symop_operation_xyz
x,y,z
-x,-y,-z
loop_
_atom_site_type_symbol
_atom_site_label
_atom_site_fract_x
_atom_site_fract_y
_atom_site_fract_z
Si Si1 0.668295 0.776917 0.914971
Si Si2 0.636633 0.363975 0.856661
Si Si3 0.284697 0.527856 0.561726
Si Si4 0.161897 0.783338 0.924029
Si Si5 0.670078 0.764258 0.410057
Si Si6 0.833463 0.217653 0.573780
Si Si7 0.995047 0.853036 0.615149
Si Si8 0.197741 0.563589 0.979273
O O1 0.632643 0.667090 0.949768
O O2 0.402684 0.856605 0.938871
O O3 0.905536 0.851359 0.940751
O O4 0.751125 0.511144 0.745205
O O5 0.409632 0.316246 0.836748
O O6 0.850339 0.161476 0.726785
O O7 0.692295 0.313146 0.913571
O O8 0.500000 0.500000 0.500000
O O9 0.313657 0.428154 0.598744
O O10 0.179096 0.312131 0.438903
O O11 0.121566 0.829189 0.670495
O O12 0.247696 0.463413 0.752353
O O13 0.128191 0.765386 0.001873
O O14 0.896884 0.864360 0.454772
O O15 0.402502 0.862987 0.452405
O O16 0.858053 0.266422 0.509103
O O17 0.000000 0.500000 0.000000
#
# Coordination Sequence:
#
# PCOD9067533 Si02
#       8
#     2   2   2   2   2   2   2   2
#     4  12  24  47  76 111 156 200 261 330 388 469
#     4  11  25  50  76 112 149 213 265 324 400 479
#     4  11  26  49  72 117 156 200 259 330 392 468
#     4  12  28  46  75 116 155 200 263 330 394 467
#     4  12  27  49  78 112 153 208 263 322 394 478
#     4  12  23  46  79 107 153 205 260 318 393 475
#     4  11  26  47  82 111 154 208 267 327 395 477
#     4  11  27  49  74 110 157 210 260 325 401 480
#
# _framework density 27.039729999999999
#
# number of rings (size 3 to 8) (size 9 to 14) (size 15 to 20)
#    0.000    0.500    3.750    3.000    5.250    2.000 
#    4.500    0.000    0.000    0.000    0.000    0.000 
#    0.000    0.000    0.000    0.000    0.000    0.000 
#
# Total GULP energy -89356.010374 kJ/mol
# GULP energy per Si atom -5584.750648 kJ/mol
# Density = 2.697819 g / cm^3
# Si number density = 27.039730 Si / 1000 Ang^3
#
#
#
# Elastic Constant Matrix: (Units=GPa)
#
#
# Indices 1 2 3 4 5 6 
#
# 1 241.9422 100.1511 64.7889 8.2419 -21.9715 8.8776
# 2 100.1511 202.7615 104.8582 -5.7205 -20.1704 -10.3415
# 3 64.7889 104.8582 111.0901 -13.8126 -21.2509 -7.9593
# 4 8.2419 -5.7205 -13.8126 39.3498 -11.6128 -18.6466
# 5 -21.9715 -20.1704 -21.2509 -11.6128 72.3328 11.4381
# 6 8.8776 -10.3415 -7.9593 -18.6466 11.4381 75.7728
#
#
#
# Elastic Compliance Matrix: (Units=1/GPa)
#
#
# Indices 1 2 3 4 5 6 
#
# 1 0.005653 -0.001972 -0.001841 -0.002882 0.000465 -0.001904
# 2 -0.001972 0.010469 -0.008942 -0.001121 -0.000571 0.000531
# 3 -0.001841 -0.008942 0.020557 0.008756 0.003964 0.002711
# 4 -0.002882 -0.001121 0.008756 0.034748 0.005569 0.008815
# 5 0.000465 -0.000571 0.003964 0.005569 0.015986 -0.000759
# 6 -0.001904 0.000531 0.002711 0.008815 -0.000759 0.016061
#
#
# Mechanical properties :
#
#
# Convention : Reuss Voigt Hill
#
# Bulk Modulus (GPa) = 89.53981 121.71003 105.62492
# Shear Modulus (GPa) = 37.67667 56.55746 47.11707
#
# Velocity S-wave (km/s) = 3.73685 4.57841 4.17887
# Velocity P-wave (km/s) = 7.19756 8.54742 7.90137
#
# Compressibility (1/GPa) = 0.01116822
#
# Stress axis : x y z
#
# Youngs Moduli (GPa) = 176.90000 95.51854 48.64481
#
# Poissons Ratio (x) = 0.18839 0.08956
# Poissons Ratio (y) = 0.34889 0.43499
# Poissons Ratio (z) = 0.32570 0.85414
#
# Static dielectric constant tensor:
#      x y z
#    x 2.247660 -0.026200 -0.116590 
#    y -0.026200 2.149800 0.148950 
#    z -0.116590 0.148950 2.325820 
# 
# From -- ./inp_files/77379.got.cif
#   From: 2010.05.17/outbox.cif.g08.bks.cpg/sg2_39_cif.got.tgz:77379.got - 2010.06.03 11:33:40.
