data_PCOD9067084
_publ_section_title
;
Structure prediction by ZEFSAII (Michael W. Deem and Ramdas Pophale) SiO2 
 PCOD9067084
Probable space group: P -1
;
_chemical_formula_sum "Si O2"
_cell_formula_units_Z 12
_cell_length_a 18.505697
_cell_length_b 9.675030
_cell_length_c 13.550454
_cell_angle_alpha 139.139516
_cell_angle_beta 19.243079
_cell_angle_gamma 145.557544
_cell_volume 448.979620
_symmetry_space_group_name_H-M "P -1"
_symmetry_group_IT_number 2
_symmetry_cell_setting 'triclinic'
loop_
_space_group_symop_operation_xyz
x,y,z
-x,-y,-z
loop_
_atom_site_type_symbol
_atom_site_label
_atom_site_fract_x
_atom_site_fract_y
_atom_site_fract_z
Si Si1 0.605072 0.890942 0.528700
Si Si2 0.014240 0.436232 0.282705
Si Si3 0.281895 0.348193 0.582630
Si Si4 0.118372 0.277109 0.528511
Si Si5 0.729737 0.053027 0.155915
Si Si6 0.313007 0.457298 0.082412
O O1 0.513166 0.625612 0.453877
O O2 0.642592 0.836813 0.564009
O O3 0.861471 0.142085 0.301342
O O4 0.377762 0.926865 0.801167
O O5 0.032823 0.599346 0.254128
O O6 0.808698 0.687661 0.432061
O O7 0.268403 0.529544 0.069201
O O8 0.007579 0.280278 0.949181
O O9 0.395769 0.416537 0.196282
O O10 0.163244 0.527039 0.389586
O O11 0.000000 0.000000 0.500000
O O12 0.777058 0.827842 0.965276
O O13 0.500000 0.000000 0.500000
#
# Coordination Sequence:
#
# PCOD9067084 Si02
#       6
#     2   2   2   2   2   2
#     4  11  25  47  78 106 153 202 240 313 379 444
#     4  11  25  48  80 106 152 208 240 313 378 452
#     4  11  27  50  71 117 153 190 259 312 372 452
#     4  12  27  46  77 111 152 199 252 318 373 444
#     4  12  25  48  78 107 148 202 252 310 376 451
#     4  11  25  48  75 111 149 197 262 297 378 455
#
# _framework density 26.727270999999998
#
# number of rings (size 3 to 8) (size 9 to 14) (size 15 to 20)
#    0.000    0.667    3.333    3.000    4.667    2.667 
#    6.000    0.000    0.000    0.000    0.000    0.000 
#    0.000    0.000    0.000    0.000    0.000    0.000 
#
# Total GULP energy -67207.990416 kJ/mol
# GULP energy per Si atom -5600.665868 kJ/mol
# Density = 2.666644 g / cm^3
# Si number density = 26.727271 Si / 1000 Ang^3
#
#
#
# Elastic Constant Matrix: (Units=GPa)
#
#
# Indices 1 2 3 4 5 6 
#
# 1 176.6548 76.3740 29.5218 7.9400 -21.0329 -39.5300
# 2 76.3740 161.5046 9.7068 -10.6932 -14.0184 -13.1366
# 3 29.5218 9.7068 105.6514 -3.7169 -19.3440 0.3323
# 4 7.9400 -10.6932 -3.7169 41.9455 0.8905 -17.2974
# 5 -21.0329 -14.0184 -19.3440 0.8905 59.1126 18.5388
# 6 -39.5300 -13.1366 0.3323 -17.2974 18.5388 64.9261
#
#
#
# Elastic Compliance Matrix: (Units=1/GPa)
#
#
# Indices 1 2 3 4 5 6 
#
# 1 0.008588 -0.003647 -0.002073 -0.001026 0.000222 0.004165
# 2 -0.003647 0.008131 0.000512 0.002766 0.000776 -0.000062
# 3 -0.002073 0.000512 0.010667 0.000538 0.003517 -0.002074
# 4 -0.001026 0.002766 0.000538 0.028209 -0.002519 0.008167
# 5 0.000222 0.000776 0.003517 -0.002519 0.020312 -0.006197
# 6 0.004165 -0.000062 -0.002074 0.008167 -0.006197 0.021881
#
#
# Mechanical properties :
#
#
# Convention : Reuss Voigt Hill
#
# Bulk Modulus (GPa) = 58.93079 75.00176 66.96627
# Shear Modulus (GPa) = 43.91298 55.07740 49.49519
#
# Velocity S-wave (km/s) = 4.05779 4.54444 4.30799
# Velocity P-wave (km/s) = 6.63710 7.46048 7.06080
#
# Compressibility (1/GPa) = 0.01696906
#
# Stress axis : x y z
#
# Youngs Moduli (GPa) = 116.43646 122.98698 93.74912
#
# Poissons Ratio (x) = 0.44849 0.19438
# Poissons Ratio (y) = 0.42460 -0.04796
# Poissons Ratio (z) = 0.24142 -0.06291
#
# Static dielectric constant tensor:
#      x y z
#    x 2.025350 -0.220690 0.057020 
#    y -0.220690 1.665450 -0.100150 
#    z 0.057020 -0.100150 2.101340 
# 
# From -- ./inp_files/577407.got.cif
#   From: 2010.05.17/outbox.cif.g08.bks.cpg/sg2_289_cif.got.tgz:577407.got - 2010.06.03 11:33:40.
