data_PCOD9067402
_publ_section_title
;
Structure prediction by ZEFSAII (Michael W. Deem and Ramdas Pophale) SiO2 
 PCOD9067402
Probable space group: P -1
;
_chemical_formula_sum "Si O2"
_cell_formula_units_Z 14
_cell_length_a 7.560604
_cell_length_b 14.715644
_cell_length_c 12.209960
_cell_angle_alpha 138.532049
_cell_angle_beta 110.485035
_cell_angle_gamma 100.044836
_cell_volume 598.554384
_symmetry_space_group_name_H-M "P -1"
_symmetry_group_IT_number 2
_symmetry_cell_setting 'triclinic'
loop_
_space_group_symop_operation_xyz
x,y,z
-x,-y,-z
loop_
_atom_site_type_symbol
_atom_site_label
_atom_site_fract_x
_atom_site_fract_y
_atom_site_fract_z
Si Si1 0.633312 0.243195 0.663285
Si Si2 0.085570 0.806304 0.164672
Si Si3 0.593299 0.940962 0.059976
Si Si4 0.416663 0.554490 0.629398
Si Si5 0.994857 0.324400 0.616433
Si Si6 0.057289 0.642922 0.795728
Si Si7 0.544763 0.519202 0.865615
O O1 0.794805 0.274114 0.832254
O O2 0.798465 0.257752 0.613883
O O3 0.606334 0.390615 0.775214
O O4 0.335569 0.033433 0.418090
O O5 0.986877 0.717140 0.941538
O O6 0.840532 0.735973 0.120911
O O7 0.862690 0.132754 0.346198
O O8 0.585163 0.781784 0.869776
O O9 0.364873 0.819788 0.993768
O O10 0.500000 0.000000 0.000000
O O11 0.500000 0.500000 0.500000
O O12 0.434457 0.495478 0.698323
O O13 0.113310 0.429062 0.415795
O O14 0.000319 0.464974 0.672455
O O15 0.301040 0.445035 0.820857
#
# Coordination Sequence:
#
# PCOD9067402 Si02
#       7
#     2   2   2   2   2   2   2
#     4  11  26  50  72 105 140 193 241 297 362 419
#     4  11  25  49  74  99 147 186 241 302 353 427
#     4  12  25  44  68 103 148 194 235 287 360 435
#     4  12  24  42  69 104 145 186 236 293 356 428
#     4  12  25  44  73 106 144 188 240 289 363 426
#     4  12  23  45  70 102 146 194 228 297 359 423
#     4  12  26  43  72 108 141 182 244 294 358 428
#
# _framework density 23.389689000000001
#
# number of rings (size 3 to 8) (size 9 to 14) (size 15 to 20)
#    0.000    0.286    7.143    1.714    2.000    0.571 
#    0.000    3.571    0.000    0.000    0.000    0.000 
#    0.000    0.000    0.000    0.000    0.000    0.000 
#
# Total GULP energy -78376.836258 kJ/mol
# GULP energy per Si atom -5598.345447 kJ/mol
# Density = 2.333645 g / cm^3
# Si number density = 23.389689 Si / 1000 Ang^3
#
#
#
# Elastic Constant Matrix: (Units=GPa)
#
#
# Indices 1 2 3 4 5 6 
#
# 1 116.8142 19.7325 43.7877 17.1894 13.5148 24.0072
# 2 19.7325 100.2388 41.7429 9.2083 4.4650 -2.3802
# 3 43.7877 41.7429 134.6121 16.2074 22.0394 3.5554
# 4 17.1894 9.2083 16.2074 39.7262 6.7402 8.5227
# 5 13.5148 4.4650 22.0394 6.7402 50.7509 6.6139
# 6 24.0072 -2.3802 3.5554 8.5227 6.6139 33.8052
#
#
#
# Elastic Compliance Matrix: (Units=1/GPa)
#
#
# Indices 1 2 3 4 5 6 
#
# 1 0.011741 -0.001049 -0.002981 -0.001923 -0.000505 -0.007515
# 2 -0.001049 0.011704 -0.003261 -0.001494 0.000581 0.002175
# 3 -0.002981 -0.003261 0.010135 -0.001947 -0.003318 0.001962
# 4 -0.001923 -0.001494 -0.001947 0.028581 -0.001599 -0.005427
# 5 -0.000505 0.000581 -0.003318 -0.001599 0.021848 -0.003123
# 6 -0.007515 0.002175 0.001962 -0.005427 -0.003123 0.036844
#
#
# Mechanical properties :
#
#
# Convention : Reuss Voigt Hill
#
# Bulk Modulus (GPa) = 52.63663 62.46572 57.55117
# Shear Modulus (GPa) = 35.26904 41.28326 38.27615
#
# Velocity S-wave (km/s) = 3.88737 4.20577 4.04970
# Velocity P-wave (km/s) = 6.53467 7.09572 6.82096
#
# Compressibility (1/GPa) = 0.01899818
#
# Stress axis : x y z
#
# Youngs Moduli (GPa) = 85.17056 85.44419 98.66336
#
# Poissons Ratio (x) = 0.08964 0.29414
# Poissons Ratio (y) = 0.08935 0.32171
# Poissons Ratio (z) = 0.25391 0.27860
#
# Static dielectric constant tensor:
#      x y z
#    x 1.936220 0.029360 0.027400 
#    y 0.029360 1.882570 -0.011960 
#    z 0.027400 -0.011960 1.864480 
# 
# From -- ./inp_files/397812.got.cif
#   From: 2010.05.17/outbox.cif.g08.bks.cpg/sg2_199_cif.got.tgz:397812.got - 2010.06.03 11:33:40.
