data_PCOD9067486
_publ_section_title
;
Structure prediction by ZEFSAII (Michael W. Deem and Ramdas Pophale) SiO2 
 PCOD9067486
Probable space group: P -1
;
_chemical_formula_sum "Si O2"
_cell_formula_units_Z 12
_cell_length_a 10.209207
_cell_length_b 16.862106
_cell_length_c 5.508512
_cell_angle_alpha 80.870870
_cell_angle_beta 96.101036
_cell_angle_gamma 33.329406
_cell_volume 461.892681
_symmetry_space_group_name_H-M "P -1"
_symmetry_group_IT_number 2
_symmetry_cell_setting 'triclinic'
loop_
_space_group_symop_operation_xyz
x,y,z
-x,-y,-z
loop_
_atom_site_type_symbol
_atom_site_label
_atom_site_fract_x
_atom_site_fract_y
_atom_site_fract_z
Si Si1 0.206711 0.431944 0.752331
Si Si2 0.492781 0.852127 0.796597
Si Si3 0.258835 0.621920 0.088894
Si Si4 0.000000 0.000000 0.500000
Si Si5 0.856009 0.769227 0.603731
Si Si6 0.500000 0.000000 0.000000
Si Si7 0.580195 0.322349 0.557777
O O1 0.477164 0.306522 0.719898
O O2 0.000000 0.500000 0.500000
O O3 0.085585 0.581839 0.720028
O O4 0.283747 0.334664 0.036752
O O5 0.224185 0.950729 0.630060
O O6 0.601294 0.860008 0.623065
O O7 0.500025 0.900929 0.019309
O O8 0.332404 0.502177 0.308581
O O9 0.274869 0.688763 0.239286
O O10 0.500000 0.500000 0.000000
O O11 0.977950 0.765050 0.828441
O O12 0.235752 0.813811 0.541276
O O13 0.768794 0.853561 0.295613
#
# Coordination Sequence:
#
# PCOD9067486 Si02
#       7
#     2   2   2   1   2   1   2
#     4  12  23  49  82 111 152 208 268 334 393 485
#     4  12  29  50  77 115 159 214 263 332 409 474
#     4  11  25  49  83 120 157 215 271 330 405 485
#     4  12  30  50  76 114 168 204 266 334 406 476
#     4  12  26  51  82 114 160 206 279 327 403 483
#     4  12  30  50  74 120 160 224 254 334 406 478
#     4  11  27  49  78 124 162 211 265 337 410 478
#
# _framework density 25.980062
#
# number of rings (size 3 to 8) (size 9 to 14) (size 15 to 20)
#    0.000    0.333    3.333    4.000    4.667    0.667 
#    0.000    0.000    0.000    0.000    0.000    0.000 
#    0.000    0.000    0.000    0.000    0.000    0.000 
#
# Total GULP energy -66835.526806 kJ/mol
# GULP energy per Si atom -5569.627234 kJ/mol
# Density = 2.592093 g / cm^3
# Si number density = 25.980062 Si / 1000 Ang^3
#
#
#
# Elastic Constant Matrix: (Units=GPa)
#
#
# Indices 1 2 3 4 5 6 
#
# 1 110.6026 30.9326 58.0392 -3.5193 33.9594 1.9075
# 2 30.9326 101.4430 28.6362 -18.7794 11.6490 21.9503
# 3 58.0392 28.6362 129.7189 -11.4929 35.7155 8.9485
# 4 -3.5193 -18.7794 -11.4929 31.3986 7.6771 5.3771
# 5 33.9594 11.6490 35.7155 7.6771 57.9903 -0.3750
# 6 1.9075 21.9503 8.9485 5.3771 -0.3750 42.9845
#
#
#
# Elastic Compliance Matrix: (Units=1/GPa)
#
#
# Indices 1 2 3 4 5 6 
#
# 1 0.013466 -0.002993 -0.004381 -0.001136 -0.004423 0.001946
# 2 -0.002993 0.015005 0.000488 0.011124 -0.003093 -0.009050
# 3 -0.004381 0.000488 0.011903 0.006124 -0.005696 -0.003349
# 4 -0.001136 0.011124 0.006124 0.045594 -0.011459 -0.012709
# 5 -0.004423 -0.003093 -0.005696 -0.011459 0.025511 0.004618
# 6 0.001946 -0.009050 -0.003349 -0.012709 0.004618 0.030126
#
#
# Mechanical properties :
#
#
# Convention : Reuss Voigt Hill
#
# Bulk Modulus (GPa) = 37.59076 64.10896 50.84986
# Shear Modulus (GPa) = 30.44223 41.41844 35.93033
#
# Velocity S-wave (km/s) = 3.42680 3.99712 3.72290
# Velocity P-wave (km/s) = 5.49161 6.78472 6.17212
#
# Compressibility (1/GPa) = 0.02660228
#
# Stress axis : x y z
#
# Youngs Moduli (GPa) = 74.26166 66.64305 84.00990
#
# Poissons Ratio (x) = 0.19946 0.36808
# Poissons Ratio (y) = 0.22226 -0.04101
# Poissons Ratio (z) = 0.32537 -0.03253
#
# Static dielectric constant tensor:
#      x y z
#    x 1.953400 -0.105450 -0.030490 
#    y -0.105450 2.073920 0.147230 
#    z -0.030490 0.147230 2.042610 
# 
# From -- ./inp_files/35155.got.cif
#   From: 2010.05.17/outbox.cif.g08.bks.cpg/sg2_18_cif.got.tgz:35155.got - 2010.06.03 11:33:40.
