data_PCOD9067501
_publ_section_title
;
Structure prediction by ZEFSAII (Michael W. Deem and Ramdas Pophale) SiO2 
 PCOD9067501
Probable space group: P -1
;
_chemical_formula_sum "Si O2"
_cell_formula_units_Z 12
_cell_length_a 6.445619
_cell_length_b 11.872010
_cell_length_c 7.231577
_cell_angle_alpha 71.674925
_cell_angle_beta 65.381323
_cell_angle_gamma 95.646319
_cell_volume 460.388696
_symmetry_space_group_name_H-M "P -1"
_symmetry_group_IT_number 2
_symmetry_cell_setting 'triclinic'
loop_
_space_group_symop_operation_xyz
x,y,z
-x,-y,-z
loop_
_atom_site_type_symbol
_atom_site_label
_atom_site_fract_x
_atom_site_fract_y
_atom_site_fract_z
Si Si1 0.629107 0.140793 0.921008
Si Si2 0.136480 0.212095 0.611425
Si Si3 0.278925 0.498829 0.954332
Si Si4 0.242862 0.963835 0.711822
Si Si5 0.096508 0.452002 0.679279
Si Si6 0.207279 0.225086 0.169274
O O1 0.431051 0.212993 0.973104
O O2 0.854857 0.188460 0.682423
O O3 0.743754 0.130205 0.082704
O O4 0.500000 0.000000 0.000000
O O5 0.189593 0.090099 0.737797
O O6 0.183277 0.333891 0.651886
O O7 0.273615 0.230501 0.357919
O O8 0.985173 0.106853 0.284954
O O9 0.149760 0.352293 0.082012
O O10 0.133799 0.571195 0.092896
O O11 0.500000 0.500000 0.000000
O O12 0.287731 0.531552 0.715783
O O13 0.500000 0.000000 0.500000
O O14 0.000000 0.500000 0.500000
#
# Coordination Sequence:
#
# PCOD9067501 Si02
#       6
#     2   2   2   2   2   2
#     4  12  25  42  69 105 147 194 243 301 381 452
#     4  12  24  47  73 104 149 196 252 307 380 455
#     4  11  26  50  77 109 150 196 258 321 380 447
#     4  12  25  45  71 108 150 196 239 308 380 452
#     4  11  25  50  74 106 145 199 251 318 377 448
#     4  12  25  48  73 108 153 190 250 318 373 456
#
# _framework density 26.064931000000001
#
# number of rings (size 3 to 8) (size 9 to 14) (size 15 to 20)
#    0.000    0.333    5.000    4.000    2.333    2.000 
#    3.000    0.000    0.000    0.000    0.000    0.000 
#    0.000    0.000    0.000    0.000    0.000    0.000 
#
# Total GULP energy -67116.248021 kJ/mol
# GULP energy per Si atom -5593.020668 kJ/mol
# Density = 2.600561 g / cm^3
# Si number density = 26.064931 Si / 1000 Ang^3
#
#
#
# Elastic Constant Matrix: (Units=GPa)
#
#
# Indices 1 2 3 4 5 6 
#
# 1 150.8923 53.9921 45.1810 17.1009 -0.1069 -13.1668
# 2 53.9921 122.3453 43.8971 23.6121 2.2856 -20.2439
# 3 45.1810 43.8971 100.6054 21.0251 22.9690 -6.1188
# 4 17.1009 23.6121 21.0251 43.1744 -0.8094 5.4748
# 5 -0.1069 2.2856 22.9690 -0.8094 64.0255 4.1779
# 6 -13.1668 -20.2439 -6.1188 5.4748 4.1779 44.8341
#
#
#
# Elastic Compliance Matrix: (Units=1/GPa)
#
#
# Indices 1 2 3 4 5 6 
#
# 1 0.008513 -0.002469 -0.002750 -0.000792 0.001013 0.001012
# 2 -0.002469 0.012031 -0.002890 -0.004809 0.000224 0.004879
# 3 -0.002750 -0.002890 0.014685 -0.004702 -0.005292 0.000959
# 4 -0.000792 -0.004809 -0.004702 0.029318 0.002676 -0.006875
# 5 0.001013 0.000224 -0.005292 0.002676 0.017695 -0.002299
# 6 0.001012 0.004879 0.000959 -0.006875 -0.002299 0.025990
#
#
# Mechanical properties :
#
#
# Convention : Reuss Voigt Hill
#
# Bulk Modulus (GPa) = 52.60050 73.33150 62.96600
# Shear Modulus (GPa) = 38.23024 45.79164 42.01094
#
# Velocity S-wave (km/s) = 3.83395 4.19600 4.01905
# Velocity P-wave (km/s) = 6.31057 7.18822 6.76364
#
# Compressibility (1/GPa) = 0.01901123
#
# Stress axis : x y z
#
# Youngs Moduli (GPa) = 117.47003 83.11568 68.09604
#
# Poissons Ratio (x) = 0.20518 0.18727
# Poissons Ratio (y) = 0.28999 0.19682
# Poissons Ratio (z) = 0.32305 0.24023
#
# Static dielectric constant tensor:
#      x y z
#    x 2.169110 0.106200 0.028890 
#    y 0.106200 2.027950 -0.008320 
#    z 0.028890 -0.008320 2.125260 
# 
# From -- ./inp_files/129751.got.cif
#   From: 2010.05.17/outbox.cif.g08.bks.cpg/sg2_65_cif.got.tgz:129751.got - 2010.06.03 11:33:40.
