data_PCOD9067825
_publ_section_title
;
Structure prediction by ZEFSAII (Michael W. Deem and Ramdas Pophale) SiO2 
 PCOD9067825
Probable space group: P -1
;
_chemical_formula_sum "Si O2"
_cell_formula_units_Z 14
_cell_length_a 23.409262
_cell_length_b 15.706988
_cell_length_c 5.954736
_cell_angle_alpha 74.419614
_cell_angle_beta 98.254658
_cell_angle_gamma 162.017917
_cell_volume 603.248354
_symmetry_space_group_name_H-M "P -1"
_symmetry_group_IT_number 2
_symmetry_cell_setting 'triclinic'
loop_
_space_group_symop_operation_xyz
x,y,z
-x,-y,-z
loop_
_atom_site_type_symbol
_atom_site_label
_atom_site_fract_x
_atom_site_fract_y
_atom_site_fract_z
Si Si1 0.667351 0.275722 0.720418
Si Si2 0.032646 0.143804 0.298537
Si Si3 0.639425 0.466405 0.037404
Si Si4 0.364637 0.919307 0.470121
Si Si5 0.390209 0.216262 0.808043
Si Si6 0.995458 0.447150 0.788993
Si Si7 0.615611 0.591499 0.268475
O O1 0.826092 0.577918 0.692084
O O2 0.739384 0.290650 0.635531
O O3 0.552863 0.153013 0.535940
O O4 0.500000 0.000000 0.000000
O O5 0.165519 0.307759 0.042081
O O6 0.000000 0.000000 0.500000
O O7 0.822254 0.883577 0.320367
O O8 0.659774 0.585034 0.107213
O O9 0.459180 0.145049 0.259621
O O10 0.557540 0.385740 0.816341
O O11 0.200743 0.694737 0.723231
O O12 0.415817 0.270225 0.519178
O O13 0.418148 0.354551 0.831002
O O14 0.194621 0.893603 0.045447
O O15 0.000000 0.500000 0.500000
O O16 0.000000 0.500000 0.000000
#
# Coordination Sequence:
#
# PCOD9067825 Si02
#       7
#     2   2   2   2   2   2   2
#     4  11  26  47  71 106 147 186 247 320 381 453
#     4  12  25  44  76 105 142 190 247 309 382 459
#     4  12  23  46  73 103 145 190 247 308 384 458
#     4  11  26  45  75 104 146 198 245 318 383 456
#     4  11  26  47  69 106 148 196 249 313 383 453
#     4  12  28  46  77 112 149 205 259 312 378 470
#     4  11  26  46  71 107 146 192 247 319 382 459
#
# _framework density 23.207687
#
# number of rings (size 3 to 8) (size 9 to 14) (size 15 to 20)
#    0.000    0.571    4.286    2.571    6.000    1.143 
#    2.571    0.000    0.000    0.000    0.000    0.000 
#    0.000    0.000    0.000    0.000    0.000    0.000 
#
# Total GULP energy -78044.831761 kJ/mol
# GULP energy per Si atom -5574.630840 kJ/mol
# Density = 2.315487 g / cm^3
# Si number density = 23.207687 Si / 1000 Ang^3
#
#
#
# Elastic Constant Matrix: (Units=GPa)
#
#
# Indices 1 2 3 4 5 6 
#
# 1 64.6796 15.8488 13.9023 -5.7346 -6.1503 1.2628
# 2 15.8488 63.2804 31.9846 -14.5549 15.8258 -12.6900
# 3 13.9023 31.9846 110.9693 -27.0243 -4.2369 -14.7012
# 4 -5.7346 -14.5549 -27.0243 37.6833 -0.5058 -9.8302
# 5 -6.1503 15.8258 -4.2369 -0.5058 54.6774 -4.0148
# 6 1.2628 -12.6900 -14.7012 -9.8302 -4.0148 31.5490
#
#
#
# Elastic Compliance Matrix: (Units=1/GPa)
#
#
# Indices 1 2 3 4 5 6 
#
# 1 0.017330 -0.005488 -0.001219 -0.001212 0.003179 -0.003442
# 2 -0.005488 0.024795 -0.003054 0.009258 -0.007156 0.010743
# 3 -0.001219 -0.003054 0.014082 0.011167 0.002617 0.009195
# 4 -0.001212 0.009258 0.011167 0.043848 0.000118 0.022654
# 5 0.003179 -0.007156 0.002617 0.000118 0.020989 0.000922
# 6 -0.003442 0.010743 0.009195 0.022654 0.000922 0.047616
#
#
# Mechanical properties :
#
#
# Convention : Reuss Voigt Hill
#
# Bulk Modulus (GPa) = 27.26070 40.26676 33.76373
# Shear Modulus (GPa) = 24.94866 36.59484 30.77175
#
# Velocity S-wave (km/s) = 3.28230 3.97525 3.64528
# Velocity P-wave (km/s) = 5.11240 6.20149 5.68309
#
# Compressibility (1/GPa) = 0.03668285
#
# Stress axis : x y z
#
# Youngs Moduli (GPa) = 57.70411 40.33152 71.01151
#
# Poissons Ratio (x) = 0.22136 0.08656
# Poissons Ratio (y) = 0.31671 0.21689
# Poissons Ratio (z) = 0.07034 0.12319
#
# Static dielectric constant tensor:
#      x y z
#    x 1.955830 0.013550 0.018610 
#    y 0.013550 1.955400 0.038990 
#    z 0.018610 0.038990 1.932420 
# 
# From -- ./inp_files/94462.got.cif
#   From: 2010.05.17/outbox.cif.g08.bks.cpg/sg2_48_cif.got.tgz:94462.got - 2010.06.03 11:33:40.
