data_PCOD9067865
_publ_section_title
;
Structure prediction by ZEFSAII (Michael W. Deem and Ramdas Pophale) SiO2 
 PCOD9067865
Probable space group: P -1
;
_chemical_formula_sum "Si O2"
_cell_formula_units_Z 12
_cell_length_a 22.254400
_cell_length_b 24.315290
_cell_length_c 8.723015
_cell_angle_alpha 146.260642
_cell_angle_beta 33.017657
_cell_angle_gamma 167.865442
_cell_volume 537.783744
_symmetry_space_group_name_H-M "P -1"
_symmetry_group_IT_number 2
_symmetry_cell_setting 'triclinic'
loop_
_space_group_symop_operation_xyz
x,y,z
-x,-y,-z
loop_
_atom_site_type_symbol
_atom_site_label
_atom_site_fract_x
_atom_site_fract_y
_atom_site_fract_z
Si Si1 0.733672 0.422184 0.488256
Si Si2 0.678195 0.752097 0.190896
Si Si3 0.174142 0.057460 0.338885
Si Si4 0.786856 0.541209 0.992969
Si Si5 0.959952 0.402939 0.209803
Si Si6 0.681781 0.187446 0.871983
O O1 0.530089 0.340770 0.667757
O O2 0.073540 0.691742 0.329538
O O3 0.767507 0.465089 0.697920
O O4 0.616697 0.217967 0.208072
O O5 0.739876 0.845444 0.445446
O O6 0.500000 0.500000 0.000000
O O7 0.000000 0.000000 0.000000
O O8 0.459293 0.284288 0.151648
O O9 0.000000 0.000000 0.500000
O O10 0.973893 0.794129 0.148100
O O11 0.932441 0.613149 0.997948
O O12 0.000000 0.500000 0.500000
O O13 0.164956 0.621479 0.149046
O O14 0.619533 0.109556 0.223264
#
# Coordination Sequence:
#
# PCOD9067865 Si02
#       6
#     2   2   2   2   2   2
#     4  11  26  46  70 107 142 188 235 287 362 409
#     4  12  26  47  74 101 141 183 234 293 351 419
#     4  12  26  47  71 103 136 182 237 287 347 412
#     4  12  25  42  73 100 142 181 231 289 342 419
#     4  12  24  45  68 102 138 185 235 281 352 409
#     4  11  27  45  71 102 147 187 235 293 344 429
#
# _framework density 22.313801000000002
#
# number of rings (size 3 to 8) (size 9 to 14) (size 15 to 20)
#    0.000    0.333    1.667    7.000    2.333    6.667 
#    0.000    0.000    0.000    0.000    0.000    0.000 
#    0.000    0.000    0.000    0.000    0.000    0.000 
#
# Total GULP energy -67099.955833 kJ/mol
# GULP energy per Si atom -5591.662986 kJ/mol
# Density = 2.226301 g / cm^3
# Si number density = 22.313801 Si / 1000 Ang^3
#
#
#
# Elastic Constant Matrix: (Units=GPa)
#
#
# Indices 1 2 3 4 5 6 
#
# 1 162.8667 81.6569 53.8669 -13.1987 -9.2464 7.3208
# 2 81.6569 229.8888 93.8923 3.4073 -6.7683 -9.1366
# 3 53.8669 93.8923 151.3021 2.1189 19.8075 -4.2132
# 4 -13.1987 3.4073 2.1189 47.7516 17.3832 -0.1534
# 5 -9.2464 -6.7683 19.8075 17.3832 57.0872 -9.7284
# 6 7.3208 -9.1366 -4.2132 -0.1534 -9.7284 53.0912
#
#
#
# Elastic Compliance Matrix: (Units=1/GPa)
#
#
# Indices 1 2 3 4 5 6 
#
# 1 0.008114 -0.002290 -0.001629 0.002229 0.000671 -0.001513
# 2 -0.002290 0.006844 -0.003697 -0.001893 0.002584 0.001668
# 3 -0.001629 -0.003697 0.010056 0.001034 -0.004583 -0.000450
# 4 0.002229 -0.001893 0.001034 0.024566 -0.008035 -0.001952
# 5 0.000671 0.002584 -0.004583 -0.008035 0.022671 0.004119
# 6 -0.001513 0.001668 -0.000450 -0.001952 0.004119 0.020045
#
#
# Mechanical properties :
#
#
# Convention : Reuss Voigt Hill
#
# Bulk Modulus (GPa) = 102.22691 111.43218 106.82954
# Shear Modulus (GPa) = 45.13157 52.56209 48.84683
#
# Velocity S-wave (km/s) = 4.50220 4.85870 4.68384
# Velocity P-wave (km/s) = 8.54044 9.02901 8.78812
#
# Compressibility (1/GPa) = 0.00978216
#
# Stress axis : x y z
#
# Youngs Moduli (GPa) = 123.24914 146.11913 99.44099
#
# Poissons Ratio (x) = 0.33464 0.16195
# Poissons Ratio (y) = 0.28227 0.36762
# Poissons Ratio (z) = 0.20073 0.54018
#
# Static dielectric constant tensor:
#      x y z
#    x 1.935660 0.032030 -0.040230 
#    y 0.032030 1.779510 -0.011080 
#    z -0.040230 -0.011080 1.850710 
# 
# From -- ./inp_files/54059.got.cif
#   From: 2010.05.17/outbox.cif.g08.bks.cpg/sg2_28_cif.got.tgz:54059.got - 2010.06.03 11:33:40.
