data_PCOD9067756
_publ_section_title
;
Structure prediction by ZEFSAII (Michael W. Deem and Ramdas Pophale) SiO2 
 PCOD9067756
Probable space group: P -1
;
_chemical_formula_sum "Si O2"
_cell_formula_units_Z 16
_cell_length_a 9.868737
_cell_length_b 12.032802
_cell_length_c 17.232070
_cell_angle_alpha 152.678993
_cell_angle_beta 47.182219
_cell_angle_gamma 129.504570
_cell_volume 685.740685
_symmetry_space_group_name_H-M "P -1"
_symmetry_group_IT_number 2
_symmetry_cell_setting 'triclinic'
loop_
_space_group_symop_operation_xyz
x,y,z
-x,-y,-z
loop_
_atom_site_type_symbol
_atom_site_label
_atom_site_fract_x
_atom_site_fract_y
_atom_site_fract_z
Si Si1 0.231689 0.270649 0.451455
Si Si2 0.144383 0.568195 0.368049
Si Si3 0.897448 0.303445 0.027093
Si Si4 0.054933 0.934860 0.851480
Si Si5 0.505966 0.575538 0.134182
Si Si6 0.375981 0.869001 0.590258
Si Si7 0.447381 0.570076 0.686188
Si Si8 0.841947 0.269503 0.849937
O O1 0.323620 0.465498 0.597133
O O2 0.363864 0.297459 0.340394
O O3 0.026178 0.332141 0.548766
O O4 0.225127 0.998893 0.319597
O O5 0.063505 0.314998 0.280217
O O6 0.310611 0.508002 0.209689
O O7 0.227384 0.760701 0.517986
O O8 0.684215 0.271686 0.115937
O O9 0.990652 0.581596 0.168821
O O10 0.910962 0.235750 0.889953
O O11 0.011141 0.145114 0.940671
O O12 0.269691 0.896418 0.730509
O O13 0.000000 0.000000 0.000000
O O14 0.540547 0.867651 0.305697
O O15 0.500000 0.500000 0.000000
O O16 0.672998 0.440561 0.022262
O O17 0.510468 0.660322 0.421290
#
# Coordination Sequence:
#
# PCOD9067756 Si02
#       8
#     2   2   2   2   2   2   2   2
#     4  11  26  45  70 103 145 186 237 294 358 429
#     4  12  27  45  77 105 142 194 243 300 363 421
#     4  11  26  45  74 102 145 188 233 295 361 426
#     4  12  25  46  75 105 144 190 245 298 356 425
#     4  12  27  47  74 108 145 191 244 298 359 434
#     4  12  25  48  72 107 146 187 245 301 353 437
#     4  11  26  45  70 104 143 187 238 295 358 423
#     4  11  26  47  70 106 145 187 234 291 363 432
#
# _framework density 23.332433000000002
#
# number of rings (size 3 to 8) (size 9 to 14) (size 15 to 20)
#    0.000    0.500    2.500    4.500   10.500    1.000 
#    0.000    0.000    0.000    0.000    0.000    0.000 
#    0.000    0.000    0.000    0.000    0.000    0.000 
#
# Total GULP energy -89668.633940 kJ/mol
# GULP energy per Si atom -5604.289621 kJ/mol
# Density = 2.327933 g / cm^3
# Si number density = 23.332433 Si / 1000 Ang^3
#
#
#
# Elastic Constant Matrix: (Units=GPa)
#
#
# Indices 1 2 3 4 5 6 
#
# 1 81.9796 3.5922 1.0523 4.4788 -8.4370 1.4051
# 2 3.5922 95.1245 7.8983 1.5518 -6.1639 1.1836
# 3 1.0523 7.8983 39.2805 2.3629 -1.9530 -1.9525
# 4 4.4788 1.5518 2.3629 49.8370 7.4117 -8.8511
# 5 -8.4370 -6.1639 -1.9530 7.4117 28.9761 -4.7353
# 6 1.4051 1.1836 -1.9525 -8.8511 -4.7353 31.1459
#
#
#
# Elastic Compliance Matrix: (Units=1/GPa)
#
#
# Indices 1 2 3 4 5 6 
#
# 1 0.012732 -0.000181 -0.000017 -0.001825 0.004057 -0.000470
# 2 -0.000181 0.010848 -0.002047 -0.000620 0.002215 -0.000372
# 3 -0.000017 -0.002047 0.026117 -0.001157 0.001889 0.001674
# 4 -0.001825 -0.000620 -0.001157 0.022094 -0.005497 0.005476
# 5 0.004057 0.002215 0.001889 -0.005497 0.038371 0.004123
# 6 -0.000470 -0.000372 0.001674 0.005476 0.004123 0.034430
#
#
# Mechanical properties :
#
#
# Convention : Reuss Voigt Hill
#
# Bulk Modulus (GPa) = 22.12084 26.83003 24.47543
# Shear Modulus (GPa) = 30.46006 35.58127 33.02067
#
# Velocity S-wave (km/s) = 3.61706 3.90932 3.76603
# Velocity P-wave (km/s) = 5.19091 5.64810 5.42432
#
# Compressibility (1/GPa) = 0.04520625
#
# Stress axis : x y z
#
# Youngs Moduli (GPa) = 78.54474 92.18617 38.28958
#
# Poissons Ratio (x) = 0.01668 0.00063
# Poissons Ratio (y) = 0.01421 0.07839
# Poissons Ratio (z) = 0.00130 0.18874
#
# Static dielectric constant tensor:
#      x y z
#    x 1.854080 0.002970 0.015270 
#    y 0.002970 1.884880 -0.000800 
#    z 0.015270 -0.000800 1.888980 
# 
# From -- ./inp_files/393224.got.cif
#   From: 2010.05.17/outbox.cif.g08.bks.cpg/sg2_197_cif.got.tgz:393224.got - 2010.06.03 11:33:40.
