data_PCOD9067914
_publ_section_title
;
Structure prediction by ZEFSAII (Michael W. Deem and Ramdas Pophale) SiO2 
 PCOD9067914
Probable space group: P -1
;
_chemical_formula_sum "Si O2"
_cell_formula_units_Z 16
_cell_length_a 9.983157
_cell_length_b 6.927964
_cell_length_c 16.653038
_cell_angle_alpha 76.729595
_cell_angle_beta 92.309293
_cell_angle_gamma 136.699866
_cell_volume 754.825941
_symmetry_space_group_name_H-M "P -1"
_symmetry_group_IT_number 2
_symmetry_cell_setting 'triclinic'
loop_
_space_group_symop_operation_xyz
x,y,z
-x,-y,-z
loop_
_atom_site_type_symbol
_atom_site_label
_atom_site_fract_x
_atom_site_fract_y
_atom_site_fract_z
Si Si1 0.329325 0.901314 0.277519
Si Si2 0.112480 0.530620 0.925164
Si Si3 0.344239 0.443397 0.723511
Si Si4 0.623682 0.458960 0.965862
Si Si5 0.554151 0.854207 0.169887
Si Si6 0.720438 0.725104 0.447847
Si Si7 0.924602 0.069153 0.832717
Si Si8 0.049721 0.382113 0.449088
O O1 0.411128 0.842768 0.216852
O O2 0.202847 0.938684 0.230549
O O3 0.190189 0.628608 0.360820
O O4 0.515081 0.210956 0.296415
O O5 0.963076 0.242662 0.895689
O O6 0.222808 0.817368 0.848248
O O7 0.284409 0.574778 0.959135
O O8 0.000000 0.500000 0.000000
O O9 0.452093 0.373425 0.773722
O O10 0.299093 0.339692 0.640672
O O11 0.137461 0.252271 0.782715
O O12 0.493564 0.204958 0.920354
O O13 0.804386 0.747648 0.890662
O O14 0.500000 0.500000 0.000000
O O15 0.500000 0.500000 0.500000
O O16 0.832711 0.664516 0.498355
O O17 0.852235 0.064499 0.437349
O O18 0.000000 0.500000 0.500000
#
# Coordination Sequence:
#
# PCOD9067914 Si02
#       8
#     2   2   2   2   2   2   2   2
#     4  12  26  46  69 102 141 179 226 282 335 405
#     4  12  24  42  66 100 132 178 236 282 342 410
#     4  12  26  46  69 102 141 179 226 282 335 405
#     4  12  24  44  68  96 138 178 228 292 344 402
#     4  12  25  44  69 101 137 181 231 283 345 402
#     4  11  26  46  73 106 140 179 224 274 335 403
#     4  12  25  44  69 101 137 181 231 283 345 402
#     4  11  26  46  73 106 140 179 224 274 335 403
#
# _framework density 21.196940000000001
#
# number of rings (size 3 to 8) (size 9 to 14) (size 15 to 20)
#    0.000    0.250    2.500    6.750    3.500    6.000 
#    0.000    0.000    0.000    0.000    0.000    0.000 
#    0.000    0.000    0.000    0.000    0.000    0.000 
#
# Total GULP energy -89629.911054 kJ/mol
# GULP energy per Si atom -5601.869441 kJ/mol
# Density = 2.114869 g / cm^3
# Si number density = 21.196940 Si / 1000 Ang^3
#
#
#
# Elastic Constant Matrix: (Units=GPa)
#
#
# Indices 1 2 3 4 5 6 
#
# 1 77.4679 54.6107 23.4647 0.2753 -15.9100 -2.2371
# 2 54.6107 116.9446 32.6688 -1.7981 -8.6057 -0.2877
# 3 23.4647 32.6688 90.5561 1.5044 -6.2279 -2.9203
# 4 0.2753 -1.7981 1.5044 49.4176 2.8109 -1.4392
# 5 -15.9100 -8.6057 -6.2279 2.8109 30.9385 3.4649
# 6 -2.2371 -0.2877 -2.9203 -1.4392 3.4649 28.8176
#
#
#
# Elastic Compliance Matrix: (Units=1/GPa)
#
#
# Indices 1 2 3 4 5 6 
#
# 1 0.021433 -0.008930 -0.001741 -0.000848 0.008224 0.000367
# 2 -0.008930 0.013363 -0.002634 0.000677 -0.001397 -0.000625
# 3 -0.001741 -0.002634 0.012541 -0.000486 0.000830 0.000985
# 4 -0.000848 0.000677 -0.000486 0.020448 -0.002337 0.001194
# 5 0.008224 -0.001397 0.000830 -0.002337 0.036974 -0.003854
# 6 0.000367 -0.000625 0.000985 0.001194 -0.003854 0.035346
#
#
# Mechanical properties :
#
#
# Convention : Reuss Voigt Hill
#
# Bulk Modulus (GPa) = 48.24418 56.27301 52.25859
# Shear Modulus (GPa) = 28.79782 33.44968 31.12375
#
# Velocity S-wave (km/s) = 3.68990 3.97677 3.83602
# Velocity P-wave (km/s) = 6.40025 6.90591 6.65788
#
# Compressibility (1/GPa) = 0.02072789
#
# Stress axis : x y z
#
# Youngs Moduli (GPa) = 46.65635 74.83343 79.73632
#
# Poissons Ratio (x) = 0.66823 0.13881
# Poissons Ratio (y) = 0.41662 0.21006
# Poissons Ratio (z) = 0.08122 0.19715
#
# Static dielectric constant tensor:
#      x y z
#    x 1.783440 -0.033790 0.086540 
#    y -0.033790 1.761140 -0.063780 
#    z 0.086540 -0.063780 1.801680 
# 
# From -- ./inp_files/47290.got.cif
#   From: 2010.05.17/outbox.cif.g08.bks.cpg/sg2_24_cif.got.tgz:47290.got - 2010.06.03 11:33:40.
