data_PCOD9067500
_publ_section_title
;
Structure prediction by ZEFSAII (Michael W. Deem and Ramdas Pophale) SiO2 
 PCOD9067500
Probable space group: P -1
;
_chemical_formula_sum "Si O2"
_cell_formula_units_Z 16
_cell_length_a 13.224434
_cell_length_b 16.440131
_cell_length_c 8.417917
_cell_angle_alpha 86.600756
_cell_angle_beta 79.533150
_cell_angle_gamma 26.005802
_cell_volume 765.809683
_symmetry_space_group_name_H-M "P -1"
_symmetry_group_IT_number 2
_symmetry_cell_setting 'triclinic'
loop_
_space_group_symop_operation_xyz
x,y,z
-x,-y,-z
loop_
_atom_site_type_symbol
_atom_site_label
_atom_site_fract_x
_atom_site_fract_y
_atom_site_fract_z
Si Si1 0.222832 0.403444 0.477860
Si Si2 0.518016 0.063842 0.601944
Si Si3 0.047540 0.278242 0.266129
Si Si4 0.704440 0.535984 0.851420
Si Si5 0.815220 0.122883 0.891567
Si Si6 0.311003 0.623076 0.295577
Si Si7 0.113880 0.330421 0.952303
Si Si8 0.151220 0.748920 0.693084
O O1 0.446391 0.193134 0.505723
O O2 0.287644 0.404371 0.300210
O O3 0.000000 0.500000 0.500000
O O4 0.143008 0.525903 0.618271
O O5 0.323672 0.192618 0.782104
O O6 0.500000 0.000000 0.500000
O O7 0.776274 0.879915 0.629350
O O8 0.930032 0.282499 0.225455
O O9 0.188499 0.232469 0.104529
O O10 0.759507 0.408277 0.774327
O O11 0.908532 0.420132 0.926334
O O12 0.443917 0.720332 0.987420
O O13 0.766548 0.242097 0.798080
O O14 0.945651 0.962345 0.762596
O O15 0.000000 0.000000 0.000000
O O16 0.204858 0.705277 0.494408
O O17 0.600273 0.409991 0.267017
O O18 0.000000 0.500000 0.000000
#
# Coordination Sequence:
#
# PCOD9067500 Si02
#       8
#     2   2   2   2   2   2   2   2
#     4  12  23  49  70 101 146 184 243 289 348 423
#     4  12  26  44  72  99 138 188 237 293 344 419
#     4  12  25  44  72 104 138 185 239 290 358 417
#     4  12  25  47  77 100 143 199 227 292 367 413
#     4  12  27  45  72 112 142 178 241 299 348 426
#     4  11  25  50  74 100 146 189 233 290 358 430
#     4  12  26  45  70 102 146 188 233 296 353 413
#     4  11  26  47  74 105 140 186 236 293 356 426
#
# _framework density 20.89292
#
# number of rings (size 3 to 8) (size 9 to 14) (size 15 to 20)
#    0.000    0.250    6.250    1.875    3.500    3.000 
#    0.000    0.000    0.000    0.000    0.000    0.000 
#    0.000    0.000    0.000    0.000    0.000    0.000 
#
# Total GULP energy -89572.880337 kJ/mol
# GULP energy per Si atom -5598.305021 kJ/mol
# Density = 2.084537 g / cm^3
# Si number density = 20.892920 Si / 1000 Ang^3
#
#
#
# Elastic Constant Matrix: (Units=GPa)
#
#
# Indices 1 2 3 4 5 6 
#
# 1 118.9128 39.0872 17.7060 -0.3461 5.7350 26.0083
# 2 39.0872 94.2665 31.7745 -10.6589 4.1309 44.7657
# 3 17.7060 31.7745 84.5068 -4.6234 -10.4565 34.5502
# 4 -0.3461 -10.6589 -4.6234 44.5673 11.3438 2.2211
# 5 5.7350 4.1309 -10.4565 11.3438 38.8046 -6.4894
# 6 26.0083 44.7657 34.5502 2.2211 -6.4894 33.2940
#
#
#
# Elastic Compliance Matrix: (Units=1/GPa)
#
#
# Indices 1 2 3 4 5 6 
#
# 1 0.010921 0.003255 0.003158 0.003327 -0.004988 -0.017379
# 2 0.003255 0.060960 0.021043 0.029876 -0.029100 -0.114008
# 3 0.003158 0.021043 0.028715 0.013620 -0.009541 -0.063327
# 4 0.003327 0.029876 0.013620 0.039898 -0.022355 -0.063922
# 5 -0.004988 -0.029100 -0.009541 -0.022355 0.044107 0.063012
# 6 -0.017379 -0.114008 -0.063327 -0.063922 0.063012 0.279163
#
#
# Mechanical properties :
#
#
# Convention : Reuss Voigt Hill
#
# Bulk Modulus (GPa) = 6.43061 52.75793 29.59427
# Shear Modulus (GPa) = 10.85335 37.27441 24.06388
#
# Velocity S-wave (km/s) = 2.28167 4.22841 3.39746
# Velocity P-wave (km/s) = 3.16638 7.01039 5.43928
#
# Compressibility (1/GPa) = 0.15550629
#
# Stress axis : x y z
#
# Youngs Moduli (GPa) = 91.56953 16.40433 34.82484
#
# Poissons Ratio (x) = -0.05339 -0.10998
# Poissons Ratio (y) = -0.29805 -0.73281
# Poissons Ratio (z) = -0.28917 -0.34519
#
# Static dielectric constant tensor:
#      x y z
#    x 1.735440 -0.016240 0.003300 
#    y -0.016240 1.713480 -0.003280 
#    z 0.003300 -0.003280 1.740690 
# 
# From -- ./inp_files/272860.got.cif
#   From: 2010.05.17/outbox.cif.g08.bks.cpg/sg2_137_cif.got.tgz:272860.got - 2010.06.03 11:33:40.
