data_PCOD9067422
_publ_section_title
;
Structure prediction by ZEFSAII (Michael W. Deem and Ramdas Pophale) SiO2 
 PCOD9067422
Probable space group: P -1
;
_chemical_formula_sum "Si O2"
_cell_formula_units_Z 16
_cell_length_a 8.681048
_cell_length_b 6.763624
_cell_length_c 16.156263
_cell_angle_alpha 114.300839
_cell_angle_beta 80.467967
_cell_angle_gamma 124.013444
_cell_volume 714.022441
_symmetry_space_group_name_H-M "P -1"
_symmetry_group_IT_number 2
_symmetry_cell_setting 'triclinic'
loop_
_space_group_symop_operation_xyz
x,y,z
-x,-y,-z
loop_
_atom_site_type_symbol
_atom_site_label
_atom_site_fract_x
_atom_site_fract_y
_atom_site_fract_z
Si Si1 0.302488 0.728879 0.676790
Si Si2 0.105990 0.977151 0.245000
Si Si3 0.957145 0.177200 0.593268
Si Si4 0.301812 0.747777 0.491487
Si Si5 0.804664 0.222724 0.952808
Si Si6 0.424453 0.445185 0.341192
Si Si7 0.674954 0.774347 0.233427
Si Si8 0.518993 0.686434 0.957329
O O1 0.251545 0.747268 0.590013
O O2 0.478625 0.705916 0.667964
O O3 0.130786 0.441820 0.662633
O O4 0.335748 0.987695 0.759909
O O5 0.139568 0.964865 0.337400
O O6 0.169432 0.835665 0.153947
O O7 0.892466 0.877693 0.232846
O O8 0.249218 0.280630 0.267444
O O9 0.840666 0.253624 0.559905
O O10 0.000000 0.000000 0.500000
O O11 0.342026 0.524593 0.436300
O O12 0.500000 0.000000 0.500000
O O13 0.722942 0.948788 0.964483
O O14 0.632894 0.250601 0.990882
O O15 0.000000 0.500000 0.000000
O O16 0.581669 0.694501 0.318853
O O17 0.563528 0.505732 0.147126
O O18 0.500000 0.500000 0.000000
#
# Coordination Sequence:
#
# PCOD9067422 Si02
#       8
#     2   2   2   2   2   2   2   2
#     4  12  25  44  71  99 145 192 238 302 360 423
#     4  12  25  46  73 103 143 192 237 293 361 434
#     4  12  25  44  72 108 145 194 246 298 360 426
#     4  12  23  42  66 100 143 188 243 297 352 426
#     4  11  25  49  76 107 148 192 241 300 369 441
#     4  12  25  45  70 102 143 187 241 293 358 428
#     4  12  25  47  69 106 143 184 237 299 360 431
#     4  11  27  47  77 108 149 185 238 309 371 440
#
# _framework density 22.408261
#
# number of rings (size 3 to 8) (size 9 to 14) (size 15 to 20)
#    0.000    0.250    5.000    4.500    1.750    1.500 
#    2.250    0.000    0.000    0.000    0.000    0.000 
#    0.000    0.000    0.000    0.000    0.000    0.000 
#
# Total GULP energy -89253.838016 kJ/mol
# GULP energy per Si atom -5578.364876 kJ/mol
# Density = 2.235726 g / cm^3
# Si number density = 22.408261 Si / 1000 Ang^3
#
#
#
# Elastic Constant Matrix: (Units=GPa)
#
#
# Indices 1 2 3 4 5 6 
#
# 1 92.3817 56.5343 14.7518 7.8569 -1.5018 16.8194
# 2 56.5343 129.4823 29.4413 16.0692 -1.6454 17.4238
# 3 14.7518 29.4413 98.8965 7.7401 -26.0994 4.4758
# 4 7.8569 16.0692 7.7401 41.6051 1.7658 4.8320
# 5 -1.5018 -1.6454 -26.0994 1.7658 30.4461 8.2692
# 6 16.8194 17.4238 4.4758 4.8320 8.2692 46.5194
#
#
#
# Elastic Compliance Matrix: (Units=1/GPa)
#
#
# Indices 1 2 3 4 5 6 
#
# 1 0.015258 -0.006184 0.000124 -0.000177 0.001474 -0.003456
# 2 -0.006184 0.011494 -0.002615 -0.002574 -0.001424 -0.001297
# 3 0.000124 -0.002615 0.014641 -0.001995 0.013243 -0.002621
# 4 -0.000177 -0.002574 -0.001995 0.025670 -0.003104 -0.000895
# 5 0.001474 -0.001424 0.013243 -0.003104 0.046896 -0.009288
# 6 -0.003456 -0.001297 -0.002621 -0.000895 -0.009288 0.025228
#
#
# Mechanical properties :
#
#
# Convention : Reuss Voigt Hill
#
# Bulk Modulus (GPa) = 41.59204 58.02391 49.80798
# Shear Modulus (GPa) = 30.38599 38.38299 34.38449
#
# Velocity S-wave (km/s) = 3.68641 4.14320 3.92146
# Velocity P-wave (km/s) = 6.05977 6.98845 6.54061
#
# Compressibility (1/GPa) = 0.02404306
#
# Stress axis : x y z
#
# Youngs Moduli (GPa) = 65.54146 87.00490 68.30025
#
# Poissons Ratio (x) = 0.53806 -0.00850
# Poissons Ratio (y) = 0.40533 0.17859
# Poissons Ratio (z) = -0.00815 0.22750
#
# Static dielectric constant tensor:
#      x y z
#    x 1.853650 -0.052840 -0.039040 
#    y -0.052840 2.166030 0.219740 
#    z -0.039040 0.219740 2.034530 
# 
# From -- ./inp_files/548325.got.cif
#   From: 2010.05.17/outbox.cif.g08.bks.cpg/sg2_275_cif.got.tgz:548325.got - 2010.06.03 11:33:40.
