data_PCOD9067884
_publ_section_title
;
Structure prediction by ZEFSAII (Michael W. Deem and Ramdas Pophale) SiO2 
 PCOD9067884
Probable space group: P -1
;
_chemical_formula_sum "Si O2"
_cell_formula_units_Z 16
_cell_length_a 20.130209
_cell_length_b 5.563045
_cell_length_c 17.014059
_cell_angle_alpha 79.931883
_cell_angle_beta 157.970829
_cell_angle_gamma 97.168453
_cell_volume 700.048880
_symmetry_space_group_name_H-M "P -1"
_symmetry_group_IT_number 2
_symmetry_cell_setting 'triclinic'
loop_
_space_group_symop_operation_xyz
x,y,z
-x,-y,-z
loop_
_atom_site_type_symbol
_atom_site_label
_atom_site_fract_x
_atom_site_fract_y
_atom_site_fract_z
Si Si1 0.934047 0.275148 0.388689
Si Si2 0.738986 0.155171 0.446651
Si Si3 0.396921 0.768816 0.881312
Si Si4 0.098984 0.745227 0.096035
Si Si5 0.481507 0.726248 0.532933
Si Si6 0.979968 0.514028 0.271236
Si Si7 0.894183 0.175845 0.080293
Si Si8 0.373142 0.162811 0.144260
O O1 0.727475 0.278634 0.179051
O O2 0.987985 0.305555 0.356770
O O3 0.000000 0.500000 0.500000
O O4 0.000000 0.000000 0.500000
O O5 0.701983 0.145566 0.313460
O O6 0.556118 0.142033 0.295696
O O7 0.822911 0.412345 0.527027
O O8 0.917231 0.985174 0.682552
O O9 0.500000 0.500000 0.000000
O O10 0.500000 0.000000 0.000000
O O11 0.281727 0.706324 0.345249
O O12 0.143392 0.808638 0.052365
O O13 0.000000 0.500000 0.000000
O O14 0.000000 0.000000 0.000000
O O15 0.500000 0.500000 0.500000
O O16 0.590683 0.732088 0.734398
O O17 0.500000 0.000000 0.500000
O O18 0.927319 0.439458 0.131908
O O19 0.803504 0.685976 0.095976
O O20 0.715743 0.091497 0.928069
#
# Coordination Sequence:
#
# PCOD9067884 Si02
#       8
#     2   2   2   2   2   2   2   2
#     4  12  25  47  75 102 142 193 238 297 364 424
#     4  11  26  47  72 105 147 190 239 300 364 431
#     4  12  27  46  73 107 144 187 246 298 355 434
#     4  12  27  47  75 107 143 192 246 299 359 430
#     4  12  25  47  73 102 146 189 240 299 356 427
#     4  11  26  46  72 105 145 190 241 299 363 435
#     4  11  26  46  73 104 147 189 241 299 362 435
#     4  11  26  46  71 107 144 192 239 298 367 430
#
# _framework density 22.855549
#
# number of rings (size 3 to 8) (size 9 to 14) (size 15 to 20)
#    0.000    0.500    2.500    4.500   10.500    1.000 
#    0.000    0.000    0.000    0.000    0.000    0.000 
#    0.000    0.000    0.000    0.000    0.000    0.000 
#
# Total GULP energy -89114.592698 kJ/mol
# GULP energy per Si atom -5569.662044 kJ/mol
# Density = 2.280353 g / cm^3
# Si number density = 22.855549 Si / 1000 Ang^3
#
#
#
# Elastic Constant Matrix: (Units=GPa)
#
#
# Indices 1 2 3 4 5 6 
#
# 1 70.7379 5.4048 13.5680 12.2736 20.6925 10.7428
# 2 5.4048 107.8752 34.7493 21.5876 19.7881 1.4301
# 3 13.5680 34.7493 103.9190 25.8822 18.5176 8.1680
# 4 12.2736 21.5876 25.8822 55.7881 1.7398 -0.3091
# 5 20.6925 19.7881 18.5176 1.7398 57.5132 6.9376
# 6 10.7428 1.4301 8.1680 -0.3091 6.9376 39.9021
#
#
#
# Elastic Compliance Matrix: (Units=1/GPa)
#
#
# Indices 1 2 3 4 5 6 
#
# 1 0.017046 0.001151 -0.000314 -0.003886 -0.005879 -0.003574
# 2 0.001151 0.011321 -0.002515 -0.003357 -0.003442 0.000372
# 3 -0.000314 -0.002515 0.012258 -0.004574 -0.002599 -0.001918
# 4 -0.003886 -0.003357 -0.004574 0.022113 0.003149 0.001727
# 5 -0.005879 -0.003442 -0.002599 0.003149 0.021609 -0.001494
# 6 -0.003574 0.000372 -0.001918 0.001727 -0.001494 0.026676
#
#
# Mechanical properties :
#
#
# Convention : Reuss Voigt Hill
#
# Bulk Modulus (GPa) = 26.83309 43.33070 35.08189
# Shear Modulus (GPa) = 39.43149 45.89470 42.66309
#
# Velocity S-wave (km/s) = 4.15812 4.48597 4.32515
# Velocity P-wave (km/s) = 5.90076 6.76990 6.35022
#
# Compressibility (1/GPa) = 0.03726742
#
# Stress axis : x y z
#
# Youngs Moduli (GPa) = 58.66541 88.33116 81.57900
#
# Poissons Ratio (x) = -0.10163 0.02560
# Poissons Ratio (y) = -0.06750 0.20521
# Poissons Ratio (z) = 0.01841 0.22219
#
# Static dielectric constant tensor:
#      x y z
#    x 1.644090 0.089070 0.011580 
#    y 0.089070 1.831870 -0.038020 
#    z 0.011580 -0.038020 1.910370 
# 
# From -- ./inp_files/576800.got.cif
#   From: 2010.05.17/outbox.cif.g08.bks.cpg/sg2_289_cif.got.tgz:576800.got - 2010.06.03 11:33:40.
