data_PCOD9067752
_publ_section_title
;
Structure prediction by ZEFSAII (Michael W. Deem and Ramdas Pophale) SiO2 
 PCOD9067752
Probable space group: P -1
;
_chemical_formula_sum "Si O2"
_cell_formula_units_Z 16
_cell_length_a 13.226790
_cell_length_b 14.014286
_cell_length_c 11.405909
_cell_angle_alpha 65.432818
_cell_angle_beta 135.864083
_cell_angle_gamma 148.026425
_cell_volume 664.233846
_symmetry_space_group_name_H-M "P -1"
_symmetry_group_IT_number 2
_symmetry_cell_setting 'triclinic'
loop_
_space_group_symop_operation_xyz
x,y,z
-x,-y,-z
loop_
_atom_site_type_symbol
_atom_site_label
_atom_site_fract_x
_atom_site_fract_y
_atom_site_fract_z
Si Si1 0.528606 0.727756 0.346419
Si Si2 0.617119 0.575237 0.361965
Si Si3 0.292681 0.818191 0.518950
Si Si4 0.559119 0.878002 0.063254
Si Si5 0.203452 0.226078 0.027114
Si Si6 0.372252 0.655794 0.802795
Si Si7 0.075258 0.886041 0.383582
Si Si8 0.988162 0.333579 0.219411
O O1 0.607687 0.659877 0.408087
O O2 0.609043 0.854857 0.241445
O O3 0.183997 0.513196 0.194038
O O4 0.700613 0.879552 0.523943
O O5 0.300555 0.352297 0.156646
O O6 0.820010 0.739016 0.340076
O O7 0.773983 0.570957 0.546306
O O8 0.412855 0.787647 0.693559
O O9 0.239051 0.877407 0.538281
O O10 0.967132 0.578062 0.330927
O O11 0.500000 0.000000 0.500000
O O12 0.794773 0.116868 0.119043
O O13 0.554389 0.789122 0.003739
O O14 0.240137 0.732621 0.874966
O O15 0.500391 0.361722 0.153204
O O16 0.047444 0.189926 0.811318
O O17 0.000000 0.000000 0.000000
#
# Coordination Sequence:
#
# PCOD9067752 Si02
#       8
#     2   2   2   2   2   2   2   2
#     4  12  27  45  74 101 139 185 234 281 346 413
#     4  12  25  47  71 100 141 182 232 287 345 411
#     4  11  26  46  72 102 138 187 234 287 351 413
#     4  11  26  45  70 100 142 179 232 287 345 405
#     4  12  27  45  71 105 141 182 235 288 349 415
#     4  11  26  45  72 101 141 182 234 291 346 412
#     4  12  25  47  71 101 141 183 230 289 346 412
#     4  11  26  46  69 101 137 185 230 286 341 413
#
# _framework density 24.087904000000002
#
# number of rings (size 3 to 8) (size 9 to 14) (size 15 to 20)
#    0.000    0.500    2.500    4.500   10.500    1.000 
#    0.000    0.000    0.000    0.000    0.000    0.000 
#    0.000    0.000    0.000    0.000    0.000    0.000 
#
# Total GULP energy -89660.873946 kJ/mol
# GULP energy per Si atom -5603.804622 kJ/mol
# Density = 2.403308 g / cm^3
# Si number density = 24.087904 Si / 1000 Ang^3
#
#
#
# Elastic Constant Matrix: (Units=GPa)
#
#
# Indices 1 2 3 4 5 6 
#
# 1 65.5815 18.8081 21.9442 8.2852 -2.5413 -22.7509
# 2 18.8081 125.5913 17.2698 16.7803 3.3423 2.9636
# 3 21.9442 17.2698 86.5463 -4.5809 -0.3956 -16.2434
# 4 8.2852 16.7803 -4.5809 39.0679 -9.6290 4.9091
# 5 -2.5413 3.3423 -0.3956 -9.6290 27.9991 7.6329
# 6 -22.7509 2.9636 -16.2434 4.9091 7.6329 41.9021
#
#
#
# Elastic Compliance Matrix: (Units=1/GPa)
#
#
# Indices 1 2 3 4 5 6 
#
# 1 0.021822 -0.002173 -0.003178 -0.006407 -0.003314 0.012124
# 2 -0.002173 0.009176 -0.001814 -0.004043 -0.002260 -0.001646
# 3 -0.003178 -0.001814 0.013481 0.002653 0.000133 0.003294
# 4 -0.006407 -0.004043 0.002653 0.033485 0.013799 -0.008601
# 5 -0.003314 -0.002260 0.000133 0.013799 0.043464 -0.011122
# 6 0.012124 -0.001646 0.003294 -0.008601 -0.011122 0.034875
#
#
# Mechanical properties :
#
#
# Convention : Reuss Voigt Hill
#
# Bulk Modulus (GPa) = 33.16680 43.75147 38.45913
# Shear Modulus (GPa) = 27.67287 36.44029 32.05658
#
# Velocity S-wave (km/s) = 3.39311 3.89370 3.65199
# Velocity P-wave (km/s) = 5.39907 6.19816 5.81236
#
# Compressibility (1/GPa) = 0.03015063
#
# Stress axis : x y z
#
# Youngs Moduli (GPa) = 45.82556 108.97627 74.17607
#
# Poissons Ratio (x) = 0.23678 0.23575
# Poissons Ratio (y) = 0.09957 0.13452
# Poissons Ratio (z) = 0.14565 0.19763
#
# Static dielectric constant tensor:
#      x y z
#    x 1.920250 0.028750 -0.015140 
#    y 0.028750 1.923410 -0.008730 
#    z -0.015140 -0.008730 1.944750 
# 
# From -- ./inp_files/455634.got.cif
#   From: 2010.05.17/outbox.cif.g08.bks.cpg/sg2_228_cif.got.tgz:455634.got - 2010.06.03 11:33:40.
