data_PCOD9067515
_publ_section_title
;
Structure prediction by ZEFSAII (Michael W. Deem and Ramdas Pophale) SiO2 
 PCOD9067515
Probable space group: P -1
;
_chemical_formula_sum "Si O2"
_cell_formula_units_Z 12
_cell_length_a 7.853742
_cell_length_b 11.930464
_cell_length_c 9.161997
_cell_angle_alpha 143.297457
_cell_angle_beta 102.516370
_cell_angle_gamma 70.361214
_cell_volume 481.101496
_symmetry_space_group_name_H-M "P -1"
_symmetry_group_IT_number 2
_symmetry_cell_setting 'triclinic'
loop_
_space_group_symop_operation_xyz
x,y,z
-x,-y,-z
loop_
_atom_site_type_symbol
_atom_site_label
_atom_site_fract_x
_atom_site_fract_y
_atom_site_fract_z
Si Si1 0.194614 0.986066 0.088906
Si Si2 0.723035 0.894359 0.075173
Si Si3 0.816210 0.722557 0.344541
Si Si4 0.572851 0.240547 0.629822
Si Si5 0.931113 0.270804 0.876755
Si Si6 0.500753 0.596263 0.760415
O O1 0.300840 0.050607 0.040656
O O2 0.175314 0.139294 0.375182
O O3 0.313756 0.768157 0.923795
O O4 0.000000 0.000000 0.000000
O O5 0.934687 0.860009 0.119084
O O6 0.661290 0.701920 0.897519
O O7 0.614966 0.065354 0.339287
O O8 0.602941 0.761254 0.310697
O O9 0.468029 0.564103 0.273417
O O10 0.884346 0.493474 0.153837
O O11 0.748039 0.224502 0.744675
O O12 0.057727 0.247754 0.732195
O O13 0.500000 0.500000 0.500000
#
# Coordination Sequence:
#
# PCOD9067515 Si02
#       6
#     2   2   2   2   2   2
#     4  12  27  47  76 114 147 193 255 310 372 443
#     4  12  26  50  77 109 154 192 248 317 369 444
#     4  11  25  50  75 109 152 197 254 304 371 443
#     4  12  25  50  78 111 149 200 251 302 381 444
#     4  11  27  48  76 111 152 201 246 306 371 452
#     4  12  25  46  77 108 150 195 247 309 376 440
#
# _framework density 24.942761999999998
#
# number of rings (size 3 to 8) (size 9 to 14) (size 15 to 20)
#    0.000    0.333    3.333    5.500    4.667    1.333 
#    3.000    0.000    0.000    0.000    0.000    0.000 
#    0.000    0.000    0.000    0.000    0.000    0.000 
#
# Total GULP energy -67408.870537 kJ/mol
# GULP energy per Si atom -5617.405878 kJ/mol
# Density = 2.488599 g / cm^3
# Si number density = 24.942762 Si / 1000 Ang^3
#
#
#
# Elastic Constant Matrix: (Units=GPa)
#
#
# Indices 1 2 3 4 5 6 
#
# 1 197.4703 39.1534 54.6010 -8.8194 3.1611 -19.0208
# 2 39.1534 97.5052 42.4598 -12.9359 -1.6796 -4.2269
# 3 54.6010 42.4598 211.1525 -19.5465 -6.8656 -8.2007
# 4 -8.8194 -12.9359 -19.5465 26.3615 -5.7548 -5.4397
# 5 3.1611 -1.6796 -6.8656 -5.7548 45.9269 -0.8362
# 6 -19.0208 -4.2269 -8.2007 -5.4397 -0.8362 41.3953
#
#
#
# Elastic Compliance Matrix: (Units=1/GPa)
#
#
# Indices 1 2 3 4 5 6 
#
# 1 0.005977 -0.001746 -0.001044 0.000768 -0.000490 0.002452
# 2 -0.001746 0.012293 -0.001526 0.004685 0.000943 0.000786
# 3 -0.001044 -0.001526 0.005734 0.003657 0.001350 0.001008
# 4 0.000768 0.004685 0.003657 0.046245 0.006601 0.007766
# 5 -0.000490 0.000943 0.001350 0.006601 0.022898 0.001468
# 6 0.002452 0.000786 0.001008 0.007766 0.001468 0.026614
#
#
# Mechanical properties :
#
#
# Convention : Reuss Voigt Hill
#
# Bulk Modulus (GPa) = 65.04765 86.50625 75.77695
# Shear Modulus (GPa) = 37.44840 47.39765 42.42302
#
# Velocity S-wave (km/s) = 3.87896 4.36392 4.12857
# Velocity P-wave (km/s) = 6.79685 7.75558 7.29199
#
# Compressibility (1/GPa) = 0.01537334
#
# Stress axis : x y z
#
# Youngs Moduli (GPa) = 167.30010 81.34648 174.39048
#
# Poissons Ratio (x) = 0.14201 0.18210
# Poissons Ratio (y) = 0.29206 0.26606
# Poissons Ratio (z) = 0.17470 0.12411
#
# Static dielectric constant tensor:
#      x y z
#    x 2.005030 0.040560 -0.006630 
#    y 0.040560 1.968200 0.012960 
#    z -0.006630 0.012960 1.903360 
# 
# From -- ./inp_files/301726.got.cif
#   From: 2010.05.17/outbox.cif.g08.bks.cpg/sg2_151_cif.got.tgz:301726.got - 2010.06.03 11:33:40.
