data_PCOD9067097
_publ_section_title
;
Structure prediction by ZEFSAII (Michael W. Deem and Ramdas Pophale) SiO2 
 PCOD9067097
Probable space group: P -1
;
_chemical_formula_sum "Si O2"
_cell_formula_units_Z 16
_cell_length_a 20.670212
_cell_length_b 9.255623
_cell_length_c 15.013508
_cell_angle_alpha 48.990504
_cell_angle_beta 159.289468
_cell_angle_gamma 132.073442
_cell_volume 749.260008
_symmetry_space_group_name_H-M "P -1"
_symmetry_group_IT_number 2
_symmetry_cell_setting 'triclinic'
loop_
_space_group_symop_operation_xyz
x,y,z
-x,-y,-z
loop_
_atom_site_type_symbol
_atom_site_label
_atom_site_fract_x
_atom_site_fract_y
_atom_site_fract_z
Si Si1 0.750113 0.149742 0.128912
Si Si2 0.925371 0.278629 0.022013
Si Si3 0.531302 0.337331 0.535875
Si Si4 0.457316 0.562809 0.820135
Si Si5 0.688969 0.565970 0.945796
Si Si6 0.024272 0.047759 0.906786
Si Si7 0.134976 0.204394 0.489313
Si Si8 0.390337 0.983582 0.608373
O O1 0.733128 0.355212 0.066968
O O2 0.942609 0.184972 0.305706
O O3 0.773429 0.980070 0.296462
O O4 0.564392 0.068617 0.863431
O O5 0.071211 0.214643 0.302308
O O6 0.733988 0.288841 0.820436
O O7 0.893734 0.124635 0.963610
O O8 0.000000 0.500000 0.000000
O O9 0.500000 0.500000 0.500000
O O10 0.398609 0.136946 0.476462
O O11 0.486126 0.408203 0.351908
O O12 0.283074 0.400521 0.626178
O O13 0.411378 0.775752 0.682341
O O14 0.500000 0.500000 0.000000
O O15 0.629198 0.577207 0.966646
O O16 0.852344 0.742863 0.049366
O O17 0.813599 0.037173 0.603967
O O18 0.000000 0.000000 0.000000
#
# Coordination Sequence:
#
# PCOD9067097 Si02
#       8
#     2   2   2   2   2   2   2   2
#     4  11  25  47  79 105 144 199 249 305 367 459
#     4  12  27  43  74 110 147 197 249 306 379 446
#     4  12  23  43  76 110 149 188 251 309 373 446
#     4  12  28  48  74 107 149 193 250 312 371 442
#     4  12  27  46  76 112 148 198 249 306 382 443
#     4  12  29  46  71 113 157 194 247 313 378 443
#     4  11  25  48  76 106 146 193 253 305 377 443
#     4  12  24  46  74 103 153 193 244 310 370 438
#
# _framework density 21.354403000000001
#
# number of rings (size 3 to 8) (size 9 to 14) (size 15 to 20)
#    0.000    0.250    5.000    3.000    7.000    2.500 
#    0.000    1.875    0.000    0.000    0.000    0.000 
#    0.000    0.000    0.000    0.000    0.000    0.000 
#
# Total GULP energy -89514.427472 kJ/mol
# GULP energy per Si atom -5594.651717 kJ/mol
# Density = 2.130580 g / cm^3
# Si number density = 21.354403 Si / 1000 Ang^3
#
#
#
# Elastic Constant Matrix: (Units=GPa)
#
#
# Indices 1 2 3 4 5 6 
#
# 1 125.5525 73.3872 56.7270 -5.6553 -13.2918 -0.6991
# 2 73.3872 195.8993 51.1404 -20.7633 15.3490 -3.9557
# 3 56.7270 51.1404 109.6230 -2.7943 10.4862 2.4722
# 4 -5.6553 -20.7633 -2.7943 46.5832 10.1538 9.9311
# 5 -13.2918 15.3490 10.4862 10.1538 31.1933 -2.8879
# 6 -0.6991 -3.9557 2.4722 9.9311 -2.8879 34.3568
#
#
#
# Elastic Compliance Matrix: (Units=1/GPa)
#
#
# Indices 1 2 3 4 5 6 
#
# 1 0.015505 -0.005460 -0.006919 -0.004414 0.013295 0.002578
# 2 -0.005460 0.008337 -0.000123 0.005105 -0.008170 -0.001305
# 3 -0.006919 -0.000123 0.013686 0.002310 -0.008474 -0.002520
# 4 -0.004414 0.005105 0.002310 0.028663 -0.015355 -0.009244
# 5 0.013295 -0.008170 -0.008474 -0.015355 0.050388 0.008614
# 6 0.002578 -0.001305 -0.002520 -0.009244 0.008614 0.032586
#
#
# Mechanical properties :
#
#
# Convention : Reuss Voigt Hill
#
# Bulk Modulus (GPa) = 79.83940 88.17599 84.00770
# Shear Modulus (GPa) = 28.03591 39.08134 33.55862
#
# Velocity S-wave (km/s) = 3.62731 4.28264 3.96853
# Velocity P-wave (km/s) = 7.41702 8.11394 7.77329
#
# Compressibility (1/GPa) = 0.01252514
#
# Stress axis : x y z
#
# Youngs Moduli (GPa) = 64.49463 119.94901 73.06644
#
# Poissons Ratio (x) = 0.65489 0.50554
# Poissons Ratio (y) = 0.35212 0.00898
# Poissons Ratio (z) = 0.44623 0.01475
#
# Static dielectric constant tensor:
#      x y z
#    x 1.822690 0.073590 0.045070 
#    y 0.073590 1.814250 0.097570 
#    z 0.045070 0.097570 1.840780 
# 
# From -- ./inp_files/185710.got.cif
#   From: 2010.05.17/outbox.cif.g08.bks.cpg/sg2_93_cif.got.tgz:185710.got - 2010.06.03 11:33:40.
