data_PCOD9067283
_publ_section_title
;
Structure prediction by ZEFSAII (Michael W. Deem and Ramdas Pophale) SiO2 
 PCOD9067283
Probable space group: P -1
;
_chemical_formula_sum "Si O2"
_cell_formula_units_Z 14
_cell_length_a 12.436145
_cell_length_b 11.624018
_cell_length_c 5.661835
_cell_angle_alpha 84.568288
_cell_angle_beta 134.184431
_cell_angle_gamma 101.045197
_cell_volume 575.169123
_symmetry_space_group_name_H-M "P -1"
_symmetry_group_IT_number 2
_symmetry_cell_setting 'triclinic'
loop_
_space_group_symop_operation_xyz
x,y,z
-x,-y,-z
loop_
_atom_site_type_symbol
_atom_site_label
_atom_site_fract_x
_atom_site_fract_y
_atom_site_fract_z
Si Si1 0.055352 0.671984 0.846055
Si Si2 0.210576 0.723684 0.570731
Si Si3 0.311096 0.202991 0.269168
Si Si4 0.822621 0.011294 0.657279
Si Si5 0.095122 0.124762 0.560341
Si Si6 0.532037 0.355670 0.266908
Si Si7 0.277916 0.409896 0.536271
O O1 0.013747 0.802472 0.753309
O O2 0.891471 0.588823 0.630170
O O3 0.142334 0.671044 0.727602
O O4 0.133501 0.666918 0.220734
O O5 0.196489 0.861333 0.488017
O O6 0.381717 0.700798 0.799529
O O7 0.471062 0.258338 0.385949
O O8 0.280355 0.295630 0.402531
O O9 0.287497 0.061816 0.303383
O O10 0.170910 0.203132 0.872567
O O11 0.777758 0.916546 0.396799
O O12 0.000000 0.000000 0.000000
O O13 0.000000 0.000000 0.500000
O O14 0.643042 0.473038 0.500820
O O15 0.385066 0.398592 0.925474
#
# Coordination Sequence:
#
# PCOD9067283 Si02
#       7
#     2   2   2   2   2   2   2
#     4  12  23  45  74 106 144 192 244 303 355 429
#     4  12  28  45  73 114 153 183 244 310 368 429
#     4  12  22  43  73 104 141 194 245 299 358 444
#     4  12  21  38  70 106 142 189 237 296 364 438
#     4  12  20  37  70 106 136 183 245 291 353 433
#     4  11  28  48  69 105 149 195 242 306 365 437
#     4  11  25  48  77 100 139 202 254 291 363 439
#
# _framework density 24.340665999999999
#
# number of rings (size 3 to 8) (size 9 to 14) (size 15 to 20)
#    0.000    0.286    7.143    1.286    2.000    1.714 
#    0.000    2.857    0.000    0.000    0.000    0.000 
#    0.000    0.000    0.000    0.000    0.000    0.000 
#
# Total GULP energy -78091.324419 kJ/mol
# GULP energy per Si atom -5577.951744 kJ/mol
# Density = 2.428527 g / cm^3
# Si number density = 24.340666 Si / 1000 Ang^3
#
#
#
# Elastic Constant Matrix: (Units=GPa)
#
#
# Indices 1 2 3 4 5 6 
#
# 1 152.0903 52.6727 14.9338 13.7207 -7.0211 34.7747
# 2 52.6727 140.7201 30.5349 20.6354 10.5934 26.5538
# 3 14.9338 30.5349 49.6260 11.6606 -19.3191 7.4813
# 4 13.7207 20.6354 11.6606 22.2809 -1.1966 8.9157
# 5 -7.0211 10.5934 -19.3191 -1.1966 28.7765 5.7905
# 6 34.7747 26.5538 7.4813 8.9157 5.7905 49.1083
#
#
#
# Elastic Compliance Matrix: (Units=1/GPa)
#
#
# Indices 1 2 3 4 5 6 
#
# 1 0.009150 -0.003279 0.003036 -0.001572 0.006551 -0.005656
# 2 -0.003279 0.012193 -0.010148 -0.004423 -0.012188 -0.000485
# 3 0.003036 -0.010148 0.041486 -0.010428 0.032894 -0.004968
# 4 -0.001572 -0.004423 -0.010428 0.057289 -0.002362 -0.005029
# 5 0.006551 -0.012188 0.032894 -0.002362 0.064890 -0.010282
# 6 -0.005656 -0.000485 -0.004968 -0.005029 -0.010282 0.027513
#
#
# Mechanical properties :
#
#
# Convention : Reuss Voigt Hill
#
# Bulk Modulus (GPa) = 23.78275 59.85769 41.82022
# Shear Modulus (GPa) = 20.21680 36.31947 28.26813
#
# Velocity S-wave (km/s) = 2.88510 3.86700 3.41156
# Velocity P-wave (km/s) = 4.57060 6.67707 5.72161
#
# Compressibility (1/GPa) = 0.04204728
#
# Stress axis : x y z
#
# Youngs Moduli (GPa) = 109.29050 82.01131 24.10449
#
# Poissons Ratio (x) = 0.26893 -0.07319
# Poissons Ratio (y) = 0.35838 0.24462
# Poissons Ratio (z) = -0.33184 0.83227
#
# Static dielectric constant tensor:
#      x y z
#    x 2.222620 0.138200 -0.165860 
#    y 0.138200 2.000920 -0.087920 
#    z -0.165860 -0.087920 2.110840 
# 
# From -- ./inp_files/70938.got.cif
#   From: 2010.05.17/outbox.cif.g08.bks.cpg/sg2_36_cif.got.tgz:70938.got - 2010.06.03 11:33:40.
