data_PCOD9067027
_publ_section_title
;
Structure prediction by ZEFSAII (Michael W. Deem and Ramdas Pophale) SiO2 
 PCOD9067027
Probable space group: P -1
;
_chemical_formula_sum "Si O2"
_cell_formula_units_Z 16
_cell_length_a 9.838284
_cell_length_b 7.105496
_cell_length_c 11.718378
_cell_angle_alpha 109.313940
_cell_angle_beta 125.042799
_cell_angle_gamma 86.589740
_cell_volume 623.856286
_symmetry_space_group_name_H-M "P -1"
_symmetry_group_IT_number 2
_symmetry_cell_setting 'triclinic'
loop_
_space_group_symop_operation_xyz
x,y,z
-x,-y,-z
loop_
_atom_site_type_symbol
_atom_site_label
_atom_site_fract_x
_atom_site_fract_y
_atom_site_fract_z
Si Si1 0.973022 0.232415 0.039872
Si Si2 0.346992 0.097704 0.901397
Si Si3 0.862801 0.313750 0.258430
Si Si4 0.621148 0.643301 0.248897
Si Si5 0.080580 0.109517 0.446172
Si Si6 0.336186 0.349258 0.161386
Si Si7 0.498442 0.738567 0.565615
Si Si8 0.771499 0.123267 0.699803
O O1 0.836711 0.644677 0.854144
O O2 0.851421 0.242337 0.874406
O O3 0.894185 0.285889 0.133063
O O4 0.000000 0.000000 0.000000
O O5 0.406486 0.256543 0.864249
O O6 0.216728 0.901296 0.765301
O O7 0.281246 0.213284 0.997799
O O8 0.500000 0.000000 0.000000
O O9 0.742135 0.476412 0.251927
O O10 0.036416 0.318959 0.412017
O O11 0.724592 0.819111 0.409610
O O12 0.450024 0.550326 0.209312
O O13 0.077434 0.944117 0.312647
O O14 0.000000 0.000000 0.500000
O O15 0.470140 0.247517 0.280153
O O16 0.500000 0.500000 0.500000
O O17 0.336185 0.774175 0.423532
O O18 0.650889 0.913599 0.635168
#
# Coordination Sequence:
#
# PCOD9067027 Si02
#       8
#     2   2   2   2   2   2   2   2
#     4  12  23  50  82 112 157 204 259 317 387 464
#     4  12  25  47  76 107 155 198 252 316 382 458
#     4  12  25  50  81 112 156 204 255 325 387 460
#     4  12  29  47  77 119 153 201 263 316 392 466
#     4  12  25  48  77 110 156 200 255 318 393 459
#     4  12  25  47  78 111 157 201 257 319 385 459
#     4  11  25  47  75 113 150 197 257 318 382 457
#     4  11  25  49  79 107 152 208 253 313 389 456
#
# _framework density 25.646930999999999
#
# number of rings (size 3 to 8) (size 9 to 14) (size 15 to 20)
#    0.000    0.250    6.250    1.500    3.500    1.000 
#    4.500    1.250    5.500    0.000    0.000    0.000 
#    0.000    0.000    0.000    0.000    0.000    0.000 
#
# Total GULP energy -89524.550957 kJ/mol
# GULP energy per Si atom -5595.284435 kJ/mol
# Density = 2.558856 g / cm^3
# Si number density = 25.646931 Si / 1000 Ang^3
#
#
#
# Elastic Constant Matrix: (Units=GPa)
#
#
# Indices 1 2 3 4 5 6 
#
# 1 125.3890 48.3920 51.6233 -13.9969 -8.5797 5.6062
# 2 48.3920 133.9980 50.0348 -37.4692 0.9313 5.7941
# 3 51.6233 50.0348 157.1950 -32.2527 -1.7173 4.2496
# 4 -13.9969 -37.4692 -32.2527 56.6670 1.5958 8.0350
# 5 -8.5797 0.9313 -1.7173 1.5958 39.5910 -4.6324
# 6 5.6062 5.7941 4.2496 8.0350 -4.6324 38.1736
#
#
#
# Elastic Compliance Matrix: (Units=1/GPa)
#
#
# Indices 1 2 3 4 5 6 
#
# 1 0.010252 -0.003007 -0.002570 -0.000938 0.002184 -0.000301
# 2 -0.003007 0.010819 -0.001138 0.006168 -0.001503 -0.002555
# 3 -0.002570 -0.001138 0.008318 0.003526 -0.000449 -0.001172
# 4 -0.000938 0.006168 0.003526 0.024489 -0.001953 -0.006583
# 5 0.002184 -0.001503 -0.000449 -0.001953 0.026242 0.003553
# 6 -0.000301 -0.002555 -0.001172 -0.006583 0.003553 0.028575
#
#
# Mechanical properties :
#
#
# Convention : Reuss Voigt Hill
#
# Bulk Modulus (GPa) = 62.66095 79.63140 71.14617
# Shear Modulus (GPa) = 39.23251 44.65512 41.94381
#
# Velocity S-wave (km/s) = 3.91540 4.17723 4.04843
# Velocity P-wave (km/s) = 6.70266 7.37443 7.04656
#
# Compressibility (1/GPa) = 0.01595890
#
# Stress axis : x y z
#
# Youngs Moduli (GPa) = 97.54168 92.42668 120.22134
#
# Poissons Ratio (x) = 0.27794 0.30897
# Poissons Ratio (y) = 0.29332 0.13682
# Poissons Ratio (z) = 0.25069 0.10519
#
# Static dielectric constant tensor:
#      x y z
#    x 2.599940 -0.084810 0.430320 
#    y -0.084810 2.042910 -0.063590 
#    z 0.430320 -0.063590 2.419980 
# 
# From -- ./inp_files/410909.got.cif
#   From: 2010.05.17/outbox.cif.g08.bks.cpg/sg2_206_cif.got.tgz:410909.got - 2010.06.03 11:33:40.
