data_PCOD9067798
_publ_section_title
;
Structure prediction by ZEFSAII (Michael W. Deem and Ramdas Pophale) SiO2 
 PCOD9067798
Probable space group: P -1
;
_chemical_formula_sum "Si O2"
_cell_formula_units_Z 10
_cell_length_a 5.434795
_cell_length_b 16.387756
_cell_length_c 15.445922
_cell_angle_alpha 161.584795
_cell_angle_beta 109.228435
_cell_angle_gamma 67.380889
_cell_volume 398.154510
_symmetry_space_group_name_H-M "P -1"
_symmetry_group_IT_number 2
_symmetry_cell_setting 'triclinic'
loop_
_space_group_symop_operation_xyz
x,y,z
-x,-y,-z
loop_
_atom_site_type_symbol
_atom_site_label
_atom_site_fract_x
_atom_site_fract_y
_atom_site_fract_z
Si Si1 0.018952 0.553487 0.793446
Si Si2 0.819230 0.741083 0.314823
Si Si3 0.496480 0.247415 0.186762
Si Si4 0.275706 0.054748 0.661956
Si Si5 0.305942 0.968485 0.177934
O O1 0.020388 0.472411 0.812905
O O2 0.759152 0.656458 0.808136
O O3 0.164465 0.275744 0.483549
O O4 0.184668 0.775612 0.029244
O O5 0.527057 0.847422 0.433651
O O6 0.006632 0.951526 0.539422
O O7 0.762175 0.702987 0.168115
O O8 0.500000 0.500000 0.500000
O O9 0.719121 0.133994 0.025167
O O10 0.500000 0.000000 0.000000
O O11 0.397595 0.066529 0.783140
#
# Coordination Sequence:
#
# PCOD9067798 Si02
#       5
#     2   2   2   2   2
#     4  11  26  45  73 104 144 191 238 300 365 436
#     4   9  20  40  70 107 148 192 238 292 357 435
#     4  12  28  46  73 104 139 184 248 308 370 432
#     4   9  20  40  70 107 148 192 238 292 357 435
#     4  11  26  45  73 104 144 191 238 300 365 436
#
# _framework density 25.115877999999999
#
# number of rings (size 3 to 8) (size 9 to 14) (size 15 to 20)
#    0.000    1.600    0.000    2.400   14.000    5.600 
#    0.000    1.000    0.000    0.000    0.000    0.000 
#    0.000    0.000    0.000    0.000    0.000    0.000 
#
# Total GULP energy -55874.475440 kJ/mol
# GULP energy per Si atom -5587.447544 kJ/mol
# Density = 2.505871 g / cm^3
# Si number density = 25.115878 Si / 1000 Ang^3
#
#
#
# Elastic Constant Matrix: (Units=GPa)
#
#
# Indices 1 2 3 4 5 6 
#
# 1 89.8558 34.7857 19.4676 -7.3766 -3.7561 0.3861
# 2 34.7857 223.1545 105.0897 10.7521 -26.9106 47.4444
# 3 19.4676 105.0897 285.5259 25.0151 -16.5532 93.5255
# 4 -7.3766 10.7521 25.0151 69.0686 -2.2008 1.7247
# 5 -3.7561 -26.9106 -16.5532 -2.2008 39.6607 1.6285
# 6 0.3861 47.4444 93.5255 1.7247 1.6285 99.9036
#
#
#
# Elastic Compliance Matrix: (Units=1/GPa)
#
#
# Indices 1 2 3 4 5 6 
#
# 1 0.012214 -0.002021 -0.000827 0.001860 -0.000525 0.001663
# 2 -0.002021 0.006251 -0.001333 -0.000550 0.003536 -0.001761
# 3 -0.000827 -0.001333 0.005902 -0.001846 0.001579 -0.004883
# 4 0.001860 -0.000550 -0.001846 0.015382 -0.000184 0.001720
# 5 -0.000525 0.003536 0.001579 -0.000184 0.028360 -0.003614
# 6 0.001663 -0.001761 -0.004883 0.001720 -0.003614 0.015440
#
#
# Mechanical properties :
#
#
# Convention : Reuss Voigt Hill
#
# Bulk Modulus (GPa) = 62.48061 101.91358 82.19710
# Shear Modulus (GPa) = 51.41521 71.00612 61.21066
#
# Velocity S-wave (km/s) = 4.52942 5.32285 4.94209
# Velocity P-wave (km/s) = 7.23085 8.85678 8.08479
#
# Compressibility (1/GPa) = 0.01600496
#
# Stress axis : x y z
#
# Youngs Moduli (GPa) = 81.87194 159.96696 169.43454
#
# Poissons Ratio (x) = 0.32329 0.14016
# Poissons Ratio (y) = 0.16546 0.22586
# Poissons Ratio (z) = 0.06773 0.21324
#
# Static dielectric constant tensor:
#      x y z
#    x 2.137960 -0.024310 -0.145330 
#    y -0.024310 1.925540 0.005560 
#    z -0.145330 0.005560 1.983430 
# 
# From -- ./inp_files/2832.got.cif
#   From: 2010.05.17/outbox.cif.g08.bks.cpg/sg2_2_cif.got.tgz:2832.got - 2010.06.03 11:33:40.
