data_PCOD9067495
_publ_section_title
;
Structure prediction by ZEFSAII (Michael W. Deem and Ramdas Pophale) SiO2 
 PCOD9067495
Probable space group: P -1
;
_chemical_formula_sum "Si O2"
_cell_formula_units_Z 12
_cell_length_a 11.787660
_cell_length_b 9.207000
_cell_length_c 15.936255
_cell_angle_alpha 140.172519
_cell_angle_beta 151.661958
_cell_angle_gamma 56.598530
_cell_volume 478.965434
_symmetry_space_group_name_H-M "P -1"
_symmetry_group_IT_number 2
_symmetry_cell_setting 'triclinic'
loop_
_space_group_symop_operation_xyz
x,y,z
-x,-y,-z
loop_
_atom_site_type_symbol
_atom_site_label
_atom_site_fract_x
_atom_site_fract_y
_atom_site_fract_z
Si Si1 0.162631 0.862370 0.504180
Si Si2 0.363987 0.980518 0.502255
Si Si3 0.961545 0.288189 0.081301
Si Si4 0.874796 0.743681 0.653755
Si Si5 0.645050 0.012135 0.012507
Si Si6 0.317840 0.441731 0.220218
O O1 0.991565 0.563963 0.253187
O O2 0.246713 0.962320 0.509917
O O3 0.426649 0.942962 0.767161
O O4 0.000000 0.000000 0.500000
O O5 0.271125 0.133404 0.445461
O O6 0.276008 0.692551 0.288287
O O7 0.678697 0.127882 0.785126
O O8 0.196406 0.360966 0.197842
O O9 0.023729 0.853799 0.886822
O O10 0.626302 0.528988 0.440937
O O11 0.106486 0.736229 0.742231
O O12 0.773898 0.808859 0.005294
O O13 0.500000 0.000000 0.000000
#
# Coordination Sequence:
#
# PCOD9067495 Si02
#       6
#     2   2   2   2   2   2
#     4  11  25  50  72 107 153 199 248 305 372 441
#     4  11  26  46  77 114 150 192 249 308 370 442
#     4  11  25  50  79 110 153 193 245 314 369 437
#     4  12  25  46  76 114 147 194 247 300 377 441
#     4  12  27  48  76 106 151 200 249 305 368 444
#     4  11  26  48  75 112 152 195 246 307 374 440
#
# _framework density 25.054001
#
# number of rings (size 3 to 8) (size 9 to 14) (size 15 to 20)
#    0.000    0.667    3.333    3.000    2.333    8.000 
#    3.000    0.000    0.000    0.000    0.000    0.000 
#    0.000    0.000    0.000    0.000    0.000    0.000 
#
# Total GULP energy -66999.475296 kJ/mol
# GULP energy per Si atom -5583.289608 kJ/mol
# Density = 2.499698 g / cm^3
# Si number density = 25.054001 Si / 1000 Ang^3
#
#
#
# Elastic Constant Matrix: (Units=GPa)
#
#
# Indices 1 2 3 4 5 6 
#
# 1 243.0496 77.0846 50.1925 -10.3608 2.3025 -3.2533
# 2 77.0846 127.7087 50.6331 -11.0697 1.4407 16.7757
# 3 50.1925 50.6331 132.9015 -18.3063 13.2847 5.4713
# 4 -10.3608 -11.0697 -18.3063 41.6285 -3.3698 -14.3101
# 5 2.3025 1.4407 13.2847 -3.3698 49.4685 -9.7822
# 6 -3.2533 16.7757 5.4713 -14.3101 -9.7822 55.2903
#
#
#
# Elastic Compliance Matrix: (Units=1/GPa)
#
#
# Indices 1 2 3 4 5 6 
#
# 1 0.005292 -0.003000 -0.000865 0.000713 0.000432 0.001568
# 2 -0.003000 0.011273 -0.003053 -0.000254 -0.000053 -0.003370
# 3 -0.000865 -0.003053 0.009653 0.003163 -0.002178 0.000353
# 4 0.000713 -0.000254 0.003163 0.028340 0.002557 0.007593
# 5 0.000432 -0.000053 -0.002178 0.002557 0.021903 0.004794
# 6 0.001568 -0.003370 0.000353 0.007593 0.004794 0.021980
#
#
# Mechanical properties :
#
#
# Convention : Reuss Voigt Hill
#
# Bulk Modulus (GPa) = 80.76509 95.49777 88.13143
# Shear Modulus (GPa) = 42.95402 50.99411 46.97407
#
# Velocity S-wave (km/s) = 4.14509 4.51640 4.33472
# Velocity P-wave (km/s) = 7.43071 8.08682 7.76570
#
# Compressibility (1/GPa) = 0.01238159
#
# Stress axis : x y z
#
# Youngs Moduli (GPa) = 188.96903 88.70927 103.59575
#
# Poissons Ratio (x) = 0.26615 0.08962
# Poissons Ratio (y) = 0.56696 0.31624
# Poissons Ratio (z) = 0.16347 0.27080
#
# Static dielectric constant tensor:
#      x y z
#    x 1.950050 -0.010930 0.072510 
#    y -0.010930 2.024100 0.024490 
#    z 0.072510 0.024490 2.201620 
# 
# From -- ./inp_files/442459.got.cif
#   From: 2010.05.17/outbox.cif.g08.bks.cpg/sg2_222_cif.got.tgz:442459.got - 2010.06.03 11:33:40.
