data_PCOD9067870
_publ_section_title
;
Structure prediction by ZEFSAII (Michael W. Deem and Ramdas Pophale) SiO2 
 PCOD9067870
Probable space group: P -1
;
_chemical_formula_sum "Si O2"
_cell_formula_units_Z 13
_cell_length_a 8.369559
_cell_length_b 9.032576
_cell_length_c 14.330840
_cell_angle_alpha 57.050555
_cell_angle_beta 54.625112
_cell_angle_gamma 33.887773
_cell_volume 487.743434
_symmetry_space_group_name_H-M "P -1"
_symmetry_group_IT_number 2
_symmetry_cell_setting 'triclinic'
loop_
_space_group_symop_operation_xyz
x,y,z
-x,-y,-z
loop_
_atom_site_type_symbol
_atom_site_label
_atom_site_fract_x
_atom_site_fract_y
_atom_site_fract_z
Si Si1 0.642804 0.099033 0.139565
Si Si2 0.695038 0.044077 0.924583
Si Si3 0.585295 0.262541 0.604786
Si Si4 0.649153 0.378750 0.203250
Si Si5 0.192729 0.986690 0.572937
Si Si6 0.991713 0.521375 0.270159
Si Si7 0.000000 0.500000 0.500000
O O1 0.620717 0.281004 0.152937
O O2 0.300479 0.263619 0.204369
O O3 0.886551 0.794506 0.197916
O O4 0.722110 0.076436 0.013409
O O5 0.556962 0.312545 0.833868
O O6 0.010370 0.792121 0.857762
O O7 0.500000 0.000000 0.000000
O O8 0.500000 0.500000 0.500000
O O9 0.286798 0.397217 0.706899
O O10 0.885327 0.094140 0.617208
O O11 0.656668 0.089007 0.552264
O O12 0.600084 0.277486 0.341277
O O13 0.131509 0.210098 0.567230
O O14 0.012686 0.466930 0.391591
#
# Coordination Sequence:
#
# PCOD9067870 Si02
#       7
#     2   2   2   2   2   2   1
#     4  12  27  50  78 109 147 203 251 318 384 444
#     4  12  29  52  78 114 152 193 259 325 384 458
#     4  11  26  46  70 108 160 205 248 312 381 465
#     4  12  27  51  81 111 149 201 256 315 386 454
#     4  11  27  47  76 111 157 205 254 313 381 458
#     4  12  27  44  79 110 154 198 255 309 373 459
#     4  12  24  50  70 118 152 196 258 302 374 450
#
# _framework density 26.653358999999998
#
# number of rings (size 3 to 8) (size 9 to 14) (size 15 to 20)
#    0.000    0.308    3.077    4.154    8.615    1.231 
#    0.000    0.000    0.000    0.000    0.000    0.000 
#    0.000    0.000    0.000    0.000    0.000    0.000 
#
# Total GULP energy -72780.254049 kJ/mol
# GULP energy per Si atom -5598.481081 kJ/mol
# Density = 2.659269 g / cm^3
# Si number density = 26.653359 Si / 1000 Ang^3
#
#
#
# Elastic Constant Matrix: (Units=GPa)
#
#
# Indices 1 2 3 4 5 6 
#
# 1 73.8558 9.3539 8.3033 -6.8855 5.6431 5.0644
# 2 9.3539 124.5566 48.3217 -7.6894 4.4553 -1.7258
# 3 8.3033 48.3217 105.5410 -13.2881 29.4771 0.5216
# 4 -6.8855 -7.6894 -13.2881 56.3666 0.7353 -8.6518
# 5 5.6431 4.4553 29.4771 0.7353 46.2695 4.1391
# 6 5.0644 -1.7258 0.5216 -8.6518 4.1391 53.0174
#
#
#
# Elastic Compliance Matrix: (Units=1/GPa)
#
#
# Indices 1 2 3 4 5 6 
#
# 1 0.013979 -0.000887 -0.000092 0.001429 -0.001493 -0.001014
# 2 -0.000887 0.010031 -0.005196 0.000047 0.002427 0.000280
# 3 -0.000092 -0.005196 0.014754 0.003012 -0.009015 0.000890
# 4 0.001429 0.000047 0.003012 0.019154 -0.002686 0.003171
# 5 -0.001493 0.002427 -0.009015 -0.002686 0.027551 -0.002279
# 6 -0.001014 0.000280 0.000890 0.003171 -0.002279 0.019654
#
#
# Mechanical properties :
#
#
# Convention : Reuss Voigt Hill
#
# Bulk Modulus (GPa) = 37.85753 48.43460 43.14607
# Shear Modulus (GPa) = 39.59532 46.99568 43.29550
#
# Velocity S-wave (km/s) = 3.85849 4.20362 4.03475
# Velocity P-wave (km/s) = 5.83824 6.46313 6.15862
#
# Compressibility (1/GPa) = 0.02641483
#
# Stress axis : x y z
#
# Youngs Moduli (GPa) = 71.53426 99.69223 67.77779
#
# Poissons Ratio (x) = 0.08838 0.00623
# Poissons Ratio (y) = 0.06342 0.35219
# Poissons Ratio (z) = 0.00658 0.51802
#
# Static dielectric constant tensor:
#      x y z
#    x 2.179570 -0.089500 -0.072500 
#    y -0.089500 2.039710 0.027750 
#    z -0.072500 0.027750 2.087850 
# 
# From -- ./inp_files/297182.got.cif
#   From: 2010.05.17/outbox.cif.g08.bks.cpg/sg2_149_cif.got.tgz:297182.got - 2010.06.03 11:33:40.
