data_PCOD9067488
_publ_section_title
;
Structure prediction by ZEFSAII (Michael W. Deem and Ramdas Pophale) SiO2 
 PCOD9067488
Probable space group: P -1
;
_chemical_formula_sum "Si O2"
_cell_formula_units_Z 16
_cell_length_a 11.505770
_cell_length_b 9.230142
_cell_length_c 9.373830
_cell_angle_alpha 90.645631
_cell_angle_beta 131.994493
_cell_angle_gamma 94.764794
_cell_volume 734.298638
_symmetry_space_group_name_H-M "P -1"
_symmetry_group_IT_number 2
_symmetry_cell_setting 'triclinic'
loop_
_space_group_symop_operation_xyz
x,y,z
-x,-y,-z
loop_
_atom_site_type_symbol
_atom_site_label
_atom_site_fract_x
_atom_site_fract_y
_atom_site_fract_z
Si Si1 0.589667 0.126947 0.795523
Si Si2 0.933815 0.617656 0.837325
Si Si3 0.943968 0.165283 0.587129
Si Si4 0.593094 0.434503 0.946558
Si Si5 0.102688 0.885399 0.791446
Si Si6 0.636138 0.136002 0.508722
Si Si7 0.058241 0.471276 0.700954
Si Si8 0.405350 0.374823 0.324414
O O1 0.541941 0.276339 0.828867
O O2 0.675441 0.140928 0.710261
O O3 0.436034 0.017273 0.623881
O O4 0.716039 0.073250 0.009137
O O5 0.771513 0.658018 0.764473
O O6 0.031340 0.763610 0.848814
O O7 0.920086 0.515273 0.687356
O O8 0.000000 0.500000 0.000000
O O9 0.911596 0.159651 0.389512
O O10 0.785735 0.192275 0.538608
O O11 0.074097 0.301691 0.727000
O O12 0.003167 0.022532 0.703433
O O13 0.595719 0.553873 0.828550
O O14 0.500000 0.500000 0.000000
O O15 0.776161 0.433197 0.135837
O O16 0.495979 0.235479 0.389856
O O17 0.000000 0.500000 0.500000
O O18 0.500000 0.500000 0.500000
#
# Coordination Sequence:
#
# PCOD9067488 Si02
#       8
#     2   2   2   2   2   2   2   2
#     4  11  25  50  68 109 144 191 242 295 372 431
#     4  12  25  46  73 102 145 189 243 303 354 431
#     4  11  27  47  72 109 142 195 246 296 367 433
#     4  12  28  46  73 108 145 188 243 302 366 434
#     4  11  26  47  73 104 148 191 243 301 364 434
#     4  11  28  46  74 105 149 191 240 303 364 437
#     4  12  25  46  73 104 142 192 245 299 363 428
#     4  12  26  45  71 107 143 192 243 298 366 428
#
# _framework density 21.7895
#
# number of rings (size 3 to 8) (size 9 to 14) (size 15 to 20)
#    0.000    0.500    5.000    0.750   12.250    3.000 
#    0.000    0.000    0.000    0.000    0.000    0.000 
#    0.000    0.000    0.000    0.000    0.000    0.000 
#
# Total GULP energy -89254.316573 kJ/mol
# GULP energy per Si atom -5578.394786 kJ/mol
# Density = 2.173991 g / cm^3
# Si number density = 21.789500 Si / 1000 Ang^3
#
#
#
# Elastic Constant Matrix: (Units=GPa)
#
#
# Indices 1 2 3 4 5 6 
#
# 1 120.6772 41.7888 27.6287 3.3963 -12.5717 -15.3372
# 2 41.7888 132.5143 46.9858 9.0644 -2.4646 -7.8905
# 3 27.6287 46.9858 97.3676 -4.0957 -14.4499 -3.9176
# 4 3.3963 9.0644 -4.0957 43.5453 -4.0417 -4.6431
# 5 -12.5717 -2.4646 -14.4499 -4.0417 31.2757 -3.6076
# 6 -15.3372 -7.8905 -3.9176 -4.6431 -3.6076 33.8870
#
#
#
# Elastic Compliance Matrix: (Units=1/GPa)
#
#
# Indices 1 2 3 4 5 6 
#
# 1 0.010395 -0.002672 -0.000838 0.000534 0.004169 0.004503
# 2 -0.002672 0.010170 -0.004672 -0.002609 -0.002772 -0.000034
# 3 -0.000838 -0.004672 0.013866 0.003051 0.006236 0.001218
# 4 0.000534 -0.002609 0.003051 0.024638 0.005052 0.003900
# 5 0.004169 -0.002772 0.006236 0.005052 0.037735 0.006672
# 6 0.004503 -0.000034 0.001218 0.003900 0.006672 0.032925
#
#
# Mechanical properties :
#
#
# Convention : Reuss Voigt Hill
#
# Bulk Modulus (GPa) = 55.34969 64.81843 60.08406
# Shear Modulus (GPa) = 32.86973 37.35200 35.11086
#
# Velocity S-wave (km/s) = 3.88817 4.14481 4.01854
# Velocity P-wave (km/s) = 6.75384 7.26072 7.01186
#
# Compressibility (1/GPa) = 0.01806695
#
# Stress axis : x y z
#
# Youngs Moduli (GPa) = 96.19772 98.32382 72.12127
#
# Poissons Ratio (x) = 0.26271 0.06044
# Poissons Ratio (y) = 0.25703 0.33697
# Poissons Ratio (z) = 0.08062 0.45939
#
# Static dielectric constant tensor:
#      x y z
#    x 1.765450 0.003150 -0.012070 
#    y 0.003150 1.850350 0.051300 
#    z -0.012070 0.051300 1.831090 
# 
# From -- ./inp_files/244232.got.cif
#   From: 2010.05.17/outbox.cif.g08.bks.cpg/sg2_123_cif.got.tgz:244232.got - 2010.06.03 11:33:40.
