data_PCOD9067469
_publ_section_title
;
Structure prediction by ZEFSAII (Michael W. Deem and Ramdas Pophale) SiO2 
 PCOD9067469
Probable space group: P -1
;
_chemical_formula_sum "Si O2"
_cell_formula_units_Z 13
_cell_length_a 9.376600
_cell_length_b 17.271409
_cell_length_c 5.461780
_cell_angle_alpha 101.449569
_cell_angle_beta 82.519905
_cell_angle_gamma 40.914227
_cell_volume 510.822680
_symmetry_space_group_name_H-M "P -1"
_symmetry_group_IT_number 2
_symmetry_cell_setting 'triclinic'
loop_
_space_group_symop_operation_xyz
x,y,z
-x,-y,-z
loop_
_atom_site_type_symbol
_atom_site_label
_atom_site_fract_x
_atom_site_fract_y
_atom_site_fract_z
Si Si1 0.500000 0.500000 0.000000
Si Si2 0.259377 0.869681 0.480575
Si Si3 0.635893 0.627342 0.864610
Si Si4 0.096110 0.362101 0.474112
Si Si5 0.300818 0.692144 0.636397
Si Si6 0.031116 0.679147 0.928014
Si Si7 0.425037 0.121434 0.545610
O O1 0.574064 0.409641 0.678678
O O2 0.213184 0.611755 0.068825
O O3 0.236614 0.809932 0.648367
O O4 0.359946 0.911405 0.553379
O O5 0.464686 0.744401 0.172231
O O6 0.000000 0.000000 0.500000
O O7 0.709711 0.658005 0.659189
O O8 0.477434 0.622881 0.795710
O O9 0.906557 0.480928 0.787399
O O10 0.246293 0.219453 0.424631
O O11 0.921259 0.414150 0.324515
O O12 0.074773 0.741020 0.808269
O O13 0.758408 0.780619 0.130116
O O14 0.500000 0.000000 0.500000
#
# Coordination Sequence:
#
# PCOD9067469 Si02
#       7
#     1   2   2   2   2   2   2
#     4  12  26  48  80 124 152 196 256 322 402 458
#     4  12  30  51  75 113 158 210 261 320 388 472
#     4  11  25  49  79 117 155 201 260 328 397 460
#     4  11  25  49  79 117 155 201 260 328 397 460
#     4  12  27  47  76 115 158 197 251 322 391 468
#     4  12  27  47  76 115 158 197 251 322 391 468
#     4  12  30  51  75 113 158 210 261 320 388 472
#
# _framework density 25.449141000000001
#
# number of rings (size 3 to 8) (size 9 to 14) (size 15 to 20)
#    0.000    0.308    4.615    2.308   12.923    3.077 
#    0.000    0.000    0.000    0.000    0.000    0.000 
#    0.000    0.000    0.000    0.000    0.000    0.000 
#
# Total GULP energy -72477.754531 kJ/mol
# GULP energy per Si atom -5575.211887 kJ/mol
# Density = 2.539122 g / cm^3
# Si number density = 25.449141 Si / 1000 Ang^3
#
#
#
# Elastic Constant Matrix: (Units=GPa)
#
#
# Indices 1 2 3 4 5 6 
#
# 1 180.1953 41.6550 -2.2354 -13.1762 -4.4330 8.4350
# 2 41.6550 105.7580 -3.5183 6.2097 9.0144 5.9924
# 3 -2.2354 -3.5183 33.8949 -12.9667 5.0741 -9.2445
# 4 -13.1762 6.2097 -12.9667 23.9408 -1.0626 0.6556
# 5 -4.4330 9.0144 5.0741 -1.0626 55.5054 -4.9570
# 6 8.4350 5.9924 -9.2445 0.6556 -4.9570 55.6370
#
#
#
# Elastic Compliance Matrix: (Units=1/GPa)
#
#
# Indices 1 2 3 4 5 6 
#
# 1 0.006709 -0.002962 0.002058 0.005625 0.000906 -0.000342
# 2 -0.002962 0.011132 -0.000953 -0.005101 -0.002148 -0.001040
# 3 0.002058 -0.000953 0.040313 0.022943 -0.002391 0.006006
# 4 0.005625 -0.005101 0.022943 0.058562 0.000558 0.002868
# 5 0.000906 -0.002148 -0.002391 0.000558 0.018788 0.001364
# 6 -0.000342 -0.001040 0.006006 0.002868 0.001364 0.019223
#
#
# Mechanical properties :
#
#
# Convention : Reuss Voigt Hill
#
# Bulk Modulus (GPa) = 18.36899 43.51674 30.94287
# Shear Modulus (GPa) = 28.31438 45.94643 37.13041
#
# Velocity S-wave (km/s) = 3.33917 4.25364 3.82384
# Velocity P-wave (km/s) = 4.70109 6.42349 5.62856
#
# Compressibility (1/GPa) = 0.05443956
#
# Stress axis : x y z
#
# Youngs Moduli (GPa) = 149.04282 89.83031 24.80603
#
# Poissons Ratio (x) = 0.26611 -0.05106
# Poissons Ratio (y) = 0.44152 0.02365
# Poissons Ratio (z) = -0.30676 0.08563
#
# Static dielectric constant tensor:
#      x y z
#    x 1.817100 -0.132700 0.152700 
#    y -0.132700 1.861680 0.077530 
#    z 0.152700 0.077530 2.070220 
# 
# From -- ./inp_files/26513.got.cif
#   From: 2010.05.17/outbox.cif.g08.bks.cpg/sg2_14_cif.got.tgz:26513.got - 2010.06.03 11:33:40.
