data_PCOD9067267
_publ_section_title
;
Structure prediction by ZEFSAII (Michael W. Deem and Ramdas Pophale) SiO2 
 PCOD9067267
Probable space group: P -1
;
_chemical_formula_sum "Si O2"
_cell_formula_units_Z 11
_cell_length_a 14.366718
_cell_length_b 19.027235
_cell_length_c 5.265992
_cell_angle_alpha 117.440713
_cell_angle_beta 71.627303
_cell_angle_gamma 157.139591
_cell_volume 470.644176
_symmetry_space_group_name_H-M "P -1"
_symmetry_group_IT_number 2
_symmetry_cell_setting 'triclinic'
loop_
_space_group_symop_operation_xyz
x,y,z
-x,-y,-z
loop_
_atom_site_type_symbol
_atom_site_label
_atom_site_fract_x
_atom_site_fract_y
_atom_site_fract_z
Si Si1 0.649491 0.051681 0.772298
Si Si2 0.430169 0.697794 0.743534
Si Si3 0.220560 0.455492 0.027579
Si Si4 0.500000 0.500000 0.000000
Si Si5 0.715110 0.260414 0.825042
Si Si6 0.010699 0.953635 0.161727
O O1 0.732972 0.179654 0.703529
O O2 0.449811 0.847323 0.462991
O O3 0.917664 0.215659 0.895567
O O4 0.500000 0.000000 0.000000
O O5 0.290671 0.560429 0.387435
O O6 0.721197 0.889608 0.803732
O O7 0.306597 0.565423 0.880457
O O8 0.418168 0.783668 0.924525
O O9 0.381991 0.495277 0.974227
O O10 0.228796 0.281721 0.013738
O O11 0.000000 0.500000 0.000000
O O12 0.000000 0.000000 0.500000
O O13 0.000000 0.000000 0.000000
#
# Coordination Sequence:
#
# PCOD9067267 Si02
#       6
#     2   2   2   1   2   2
#     4  11  27  46  74 116 148 202 259 315 385 478
#     4  12  26  49  77 112 154 205 254 330 385 472
#     4  12  28  48  78 113 156 203 267 314 399 460
#     4  12  28  50  80 110 154 212 256 330 386 460
#     4  11  25  48  76 107 154 197 250 317 393 454
#     4  12  26  50  74 111 152 200 266 319 390 460
#
# _framework density 23.372223000000002
#
# number of rings (size 3 to 8) (size 9 to 14) (size 15 to 20)
#    0.000    0.364    5.455    1.091    7.636    5.818 
#    0.000    0.000    0.000    0.000    0.000    0.000 
#    0.000    0.000    0.000    0.000    0.000    0.000 
#
# Total GULP energy -61253.950858 kJ/mol
# GULP energy per Si atom -5568.540987 kJ/mol
# Density = 2.331903 g / cm^3
# Si number density = 23.372223 Si / 1000 Ang^3
#
#
#
# Elastic Constant Matrix: (Units=GPa)
#
#
# Indices 1 2 3 4 5 6 
#
# 1 109.7085 19.9422 32.0352 -0.1091 6.3121 19.3428
# 2 19.9422 146.5893 66.3245 15.3241 13.7010 25.8481
# 3 32.0352 66.3245 140.4964 9.6004 30.8465 17.5192
# 4 -0.1091 15.3241 9.6004 46.4541 -0.5440 11.2476
# 5 6.3121 13.7010 30.8465 -0.5440 18.3452 -1.4642
# 6 19.3428 25.8481 17.5192 11.2476 -1.4642 77.7679
#
#
#
# Elastic Compliance Matrix: (Units=1/GPa)
#
#
# Indices 1 2 3 4 5 6 
#
# 1 0.010119 -0.000191 -0.001987 0.001018 -0.000139 -0.002156
# 2 -0.000191 0.009133 -0.003777 -0.001782 -0.000609 -0.001891
# 3 -0.001987 -0.003777 0.014151 -0.001535 -0.020463 -0.001601
# 4 0.001018 -0.001782 -0.001535 0.023106 0.004041 -0.002581
# 5 -0.000139 -0.000609 -0.020463 0.004041 0.090015 0.005957
# 6 -0.002156 -0.001891 -0.001601 -0.002581 0.005957 0.014870
#
#
# Mechanical properties :
#
#
# Convention : Reuss Voigt Hill
#
# Bulk Modulus (GPa) = 46.52560 70.37756 58.45158
# Shear Modulus (GPa) = 27.70556 47.07961 37.39258
#
# Velocity S-wave (km/s) = 3.44671 4.49301 4.00418
# Velocity P-wave (km/s) = 5.98242 7.55600 6.81478
#
# Compressibility (1/GPa) = 0.02149354
#
# Stress axis : x y z
#
# Youngs Moduli (GPa) = 98.82255 109.49075 70.66603
#
# Poissons Ratio (x) = 0.02088 0.14044
# Poissons Ratio (y) = 0.01884 0.26689
# Poissons Ratio (z) = 0.19640 0.41353
#
# Static dielectric constant tensor:
#      x y z
#    x 1.955270 -0.115120 0.033040 
#    y -0.115120 1.904300 -0.015380 
#    z 0.033040 -0.015380 1.906100 
# 
# From -- ./inp_files/100287.got.cif
#   From: 2010.05.17/outbox.cif.g08.bks.cpg/sg2_51_cif.got.tgz:100287.got - 2010.06.03 11:33:40.
