data_PCOD9067643
_publ_section_title
;
Structure prediction by ZEFSAII (Michael W. Deem and Ramdas Pophale) SiO2 
 PCOD9067643
Probable space group: P -1
;
_chemical_formula_sum "Si O2"
_cell_formula_units_Z 14
_cell_length_a 7.307236
_cell_length_b 11.098224
_cell_length_c 12.640828
_cell_angle_alpha 145.451110
_cell_angle_beta 112.891629
_cell_angle_gamma 82.192792
_cell_volume 501.050928
_symmetry_space_group_name_H-M "P -1"
_symmetry_group_IT_number 2
_symmetry_cell_setting 'triclinic'
loop_
_space_group_symop_operation_xyz
x,y,z
-x,-y,-z
loop_
_atom_site_type_symbol
_atom_site_label
_atom_site_fract_x
_atom_site_fract_y
_atom_site_fract_z
Si Si1 0.948631 0.320225 0.451962
Si Si2 0.526246 0.827743 0.705862
Si Si3 0.352866 0.631421 0.897707
Si Si4 0.073810 0.656647 0.026314
Si Si5 0.802831 0.021940 0.535503
Si Si6 0.518041 0.305373 0.630798
Si Si7 0.142867 0.132500 0.028570
O O1 0.724661 0.296006 0.435094
O O2 0.000000 0.500000 0.500000
O O3 0.152790 0.434705 0.655239
O O4 0.887533 0.071454 0.207099
O O5 0.590860 0.760396 0.556696
O O6 0.631641 0.763052 0.786227
O O7 0.596536 0.103654 0.926536
O O8 0.274810 0.616124 0.990010
O O9 0.552004 0.565834 0.855871
O O10 0.703799 0.197361 0.588373
O O11 0.000000 0.500000 0.000000
O O12 0.126673 0.891646 0.268689
O O13 0.605366 0.803443 0.366575
O O14 0.000000 0.000000 0.500000
O O15 0.940073 0.686383 0.916532
O O16 0.000000 0.000000 0.000000
#
# Coordination Sequence:
#
# PCOD9067643 Si02
#       7
#     2   2   2   2   2   2   2
#     4  12  27  50  84 126 170 229 289 371 448 520
#     4  12  27  53  85 127 174 225 294 371 442 532
#     4  12  26  54  82 126 177 222 294 364 444 530
#     4  12  27  47  84 126 171 235 291 363 444 520
#     4  11  25  52  79 120 179 230 291 366 431 530
#     4  11  27  50  84 125 172 230 297 359 443 532
#     4  12  24  52  84 120 178 226 293 370 437 531
#
# _framework density 27.941269999999999
#
# number of rings (size 3 to 8) (size 9 to 14) (size 15 to 20)
#    0.000    0.286    4.286    3.000    6.000    1.714 
#    2.571    3.571    0.000    0.000    0.000    0.000 
#    0.000    0.000    0.000    0.000    0.000    0.000 
#
# Total GULP energy -78331.687049 kJ/mol
# GULP energy per Si atom -5595.120503 kJ/mol
# Density = 2.787767 g / cm^3
# Si number density = 27.941270 Si / 1000 Ang^3
#
#
#
# Elastic Constant Matrix: (Units=GPa)
#
#
# Indices 1 2 3 4 5 6 
#
# 1 176.7061 75.7071 62.0833 -6.9146 -26.7620 18.4043
# 2 75.7071 196.4803 57.3021 -4.2778 -4.7400 -9.6512
# 3 62.0833 57.3021 152.5893 -20.2771 -13.6069 -4.9645
# 4 -6.9146 -4.2778 -20.2771 54.3921 0.4547 2.1783
# 5 -26.7620 -4.7400 -13.6069 0.4547 66.0828 1.3131
# 6 18.4043 -9.6512 -4.9645 2.1783 1.3131 57.0913
#
#
#
# Elastic Compliance Matrix: (Units=1/GPa)
#
#
# Indices 1 2 3 4 5 6 
#
# 1 0.008380 -0.002670 -0.002251 0.000130 0.002806 -0.003418
# 2 -0.002670 0.006609 -0.001477 -0.000438 -0.000946 0.001888
# 3 -0.002251 -0.001477 0.008481 0.002710 0.000689 0.001094
# 4 0.000130 -0.000438 0.002710 0.019399 0.000458 -0.000631
# 5 0.002806 -0.000946 0.000689 0.000458 0.016367 -0.001398
# 6 -0.003418 0.001888 0.001094 -0.000631 -0.001398 0.019088
#
#
# Mechanical properties :
#
#
# Convention : Reuss Voigt Hill
#
# Bulk Modulus (GPa) = 93.67284 101.77341 97.72313
# Shear Modulus (GPa) = 52.81106 57.55876 55.18491
#
# Velocity S-wave (km/s) = 4.35221 4.54364 4.44895
# Velocity P-wave (km/s) = 7.67160 8.00183 7.83845
#
# Compressibility (1/GPa) = 0.01067545
#
# Stress axis : x y z
#
# Youngs Moduli (GPa) = 119.33705 151.29950 117.91181
#
# Poissons Ratio (x) = 0.40394 0.26537
# Poissons Ratio (y) = 0.31861 0.17414
# Poissons Ratio (z) = 0.26857 0.22345
#
# Static dielectric constant tensor:
#      x y z
#    x 2.434950 -0.086230 0.121620 
#    y -0.086230 2.249730 0.170070 
#    z 0.121620 0.170070 2.534620 
# 
# From -- ./inp_files/505839.got.cif
#   From: 2010.05.17/outbox.cif.g08.bks.cpg/sg2_253_cif.got.tgz:505839.got - 2010.06.03 11:33:40.
