data_PCOD9067995
_publ_section_title
;
Structure prediction by ZEFSAII (Michael W. Deem and Ramdas Pophale) SiO2 
 PCOD9067995
Probable space group: P -1
;
_chemical_formula_sum "Si O2"
_cell_formula_units_Z 13
_cell_length_a 9.744348
_cell_length_b 7.222653
_cell_length_c 9.566566
_cell_angle_alpha 92.434043
_cell_angle_beta 47.635191
_cell_angle_gamma 92.381927
_cell_volume 496.952059
_symmetry_space_group_name_H-M "P -1"
_symmetry_group_IT_number 2
_symmetry_cell_setting 'triclinic'
loop_
_space_group_symop_operation_xyz
x,y,z
-x,-y,-z
loop_
_atom_site_type_symbol
_atom_site_label
_atom_site_fract_x
_atom_site_fract_y
_atom_site_fract_z
Si Si1 0.819811 0.903141 0.052972
Si Si2 0.591690 0.637002 0.657102
Si Si3 0.748528 0.246080 0.949226
Si Si4 0.535120 0.235732 0.551396
Si Si5 0.000000 0.500000 0.000000
Si Si6 0.007063 0.223854 0.519159
Si Si7 0.909779 0.327046 0.286859
O O1 0.632709 0.872911 0.264753
O O2 0.769578 0.026919 0.958784
O O3 0.913292 0.705705 0.942736
O O4 0.000000 0.000000 0.000000
O O5 0.460122 0.691564 0.878578
O O6 0.570714 0.419046 0.628846
O O7 0.518100 0.733630 0.570800
O O8 0.797944 0.709213 0.549165
O O9 0.866576 0.351118 0.991592
O O10 0.839733 0.279802 0.738093
O O11 0.749102 0.169522 0.395859
O O12 0.842116 0.494846 0.243443
O O13 0.986512 0.324449 0.387631
O O14 0.000000 0.000000 0.500000
#
# Coordination Sequence:
#
# PCOD9067995 Si02
#       7
#     2   2   2   2   1   2   2
#     4  12  24  42  77 114 150 199 259 319 372 445
#     4  11  26  47  76 112 152 204 253 319 375 457
#     4  12  26  46  79 110 155 198 253 319 375 457
#     4  11  26  46  78 115 149 200 264 314 379 445
#     4  12  24  48  78 112 148 194 258 314 376 440
#     4  12  29  50  77 113 162 202 246 310 400 455
#     4  12  27  49  77 113 151 202 252 318 379 455
#
# _framework density 26.159465999999998
#
# number of rings (size 3 to 8) (size 9 to 14) (size 15 to 20)
#    0.000    0.308    4.615    2.769    6.462    5.538 
#    0.000    2.308    0.000    0.000    0.000    0.000 
#    0.000    0.000    0.000    0.000    0.000    0.000 
#
# Total GULP energy -72621.801995 kJ/mol
# GULP energy per Si atom -5586.292461 kJ/mol
# Density = 2.609993 g / cm^3
# Si number density = 26.159466 Si / 1000 Ang^3
#
#
#
# Elastic Constant Matrix: (Units=GPa)
#
#
# Indices 1 2 3 4 5 6 
#
# 1 100.3648 31.6348 58.7842 -6.3145 16.2810 27.2488
# 2 31.6348 129.7423 45.4753 -1.8110 -5.5418 5.6263
# 3 58.7842 45.4753 230.6214 -15.2620 1.8680 12.2177
# 4 -6.3145 -1.8110 -15.2620 50.1406 0.4961 -7.1082
# 5 16.2810 -5.5418 1.8680 0.4961 55.9752 -3.7097
# 6 27.2488 5.6263 12.2177 -7.1082 -3.7097 34.2632
#
#
#
# Elastic Compliance Matrix: (Units=1/GPa)
#
#
# Indices 1 2 3 4 5 6 
#
# 1 0.017066 -0.002778 -0.003120 -0.000654 -0.005976 -0.012787
# 2 -0.002778 0.008796 -0.001125 -0.000205 0.001805 0.001318
# 3 -0.003120 -0.001125 0.005379 0.001353 0.000678 0.001102
# 4 -0.000654 -0.000205 0.001353 0.020892 0.000233 0.004431
# 5 -0.005976 0.001805 0.000678 0.000233 0.020185 0.006449
# 6 -0.012787 0.001318 0.001102 0.004431 0.006449 0.040363
#
#
# Mechanical properties :
#
#
# Convention : Reuss Voigt Hill
#
# Bulk Modulus (GPa) = 58.14920 81.39080 69.77000
# Shear Modulus (GPa) = 37.74798 49.73141 43.73969
#
# Velocity S-wave (km/s) = 3.80280 4.36488 4.09350
# Velocity P-wave (km/s) = 6.44660 7.52222 7.00508
#
# Compressibility (1/GPa) = 0.01719714
#
# Stress axis : x y z
#
# Youngs Moduli (GPa) = 58.59459 113.68706 185.91571
#
# Poissons Ratio (x) = 0.31578 0.58004
# Poissons Ratio (y) = 0.16275 0.20907
# Poissons Ratio (z) = 0.18281 0.12784
#
# Static dielectric constant tensor:
#      x y z
#    x 2.341940 -0.417430 -0.000050 
#    y -0.417430 2.565380 -0.003980 
#    z -0.000050 -0.003980 2.241350 
# 
# From -- ./inp_files/159052.got.cif
#   From: 2010.05.17/outbox.cif.g08.bks.cpg/sg2_80_cif.got.tgz:159052.got - 2010.06.03 11:33:40.
