data_PCOD9067485
_publ_section_title
;
Structure prediction by ZEFSAII (Michael W. Deem and Ramdas Pophale) SiO2 
 PCOD9067485
Probable space group: P -1
;
_chemical_formula_sum "Si O2"
_cell_formula_units_Z 14
_cell_length_a 26.530285
_cell_length_b 8.857979
_cell_length_c 19.836989
_cell_angle_alpha 145.529735
_cell_angle_beta 167.114389
_cell_angle_gamma 35.315415
_cell_volume 585.581675
_symmetry_space_group_name_H-M "P -1"
_symmetry_group_IT_number 2
_symmetry_cell_setting 'triclinic'
loop_
_space_group_symop_operation_xyz
x,y,z
-x,-y,-z
loop_
_atom_site_type_symbol
_atom_site_label
_atom_site_fract_x
_atom_site_fract_y
_atom_site_fract_z
Si Si1 0.087174 0.773852 0.188828
Si Si2 0.675970 0.055294 0.689715
Si Si3 0.463098 0.270261 0.731408
Si Si4 0.634800 0.155302 0.179519
Si Si5 0.131126 0.865772 0.715890
Si Si6 0.416157 0.387167 0.276899
Si Si7 0.737170 0.719042 0.375422
O O1 0.347212 0.696243 0.482041
O O2 0.095282 0.056601 0.343605
O O3 0.000000 0.500000 0.000000
O O4 0.913097 0.876906 0.941778
O O5 0.574566 0.961609 0.453728
O O6 0.500000 0.000000 0.500000
O O7 0.707617 0.365931 0.835720
O O8 0.344729 0.551693 0.654923
O O9 0.351287 0.237244 0.647061
O O10 0.736061 0.265490 0.093454
O O11 0.872494 0.982855 0.415313
O O12 0.477395 0.220014 0.932213
O O13 0.500000 0.000000 0.000000
O O14 0.836079 0.407800 0.386383
O O15 0.264773 0.136278 0.985117
O O16 0.500000 0.500000 0.500000
#
# Coordination Sequence:
#
# PCOD9067485 Si02
#       7
#     2   2   2   2   2   2   2
#     4  12  28  49  78 110 161 198 254 334 387 453
#     4  12  28  48  77 113 151 205 260 316 396 463
#     4  11  26  49  74 111 153 198 262 313 384 466
#     4  11  28  46  77 114 153 207 256 316 391 452
#     4  11  25  49  83 109 159 199 259 318 382 462
#     4  12  26  47  78 116 151 206 260 314 390 463
#     4  11  27  50  75 117 154 202 264 312 385 471
#
# _framework density 23.907851999999998
#
# number of rings (size 3 to 8) (size 9 to 14) (size 15 to 20)
#    0.000    0.571    4.286    1.714    6.000    9.143 
#    0.000    0.000    0.000    0.000    0.000    0.000 
#    0.000    0.000    0.000    0.000    0.000    0.000 
#
# Total GULP energy -78133.789314 kJ/mol
# GULP energy per Si atom -5580.984951 kJ/mol
# Density = 2.385344 g / cm^3
# Si number density = 23.907852 Si / 1000 Ang^3
#
#
#
# Elastic Constant Matrix: (Units=GPa)
#
#
# Indices 1 2 3 4 5 6 
#
# 1 81.1834 68.8196 41.9961 7.8807 8.1186 -8.2556
# 2 68.8196 234.3562 57.1412 6.8964 13.5480 4.6148
# 3 41.9961 57.1412 103.1198 6.4840 5.2087 2.1325
# 4 7.8807 6.8964 6.4840 59.2953 -0.0060 -5.3205
# 5 8.1186 13.5480 5.2087 -0.0060 23.6166 9.3712
# 6 -8.2556 4.6148 2.1325 -5.3205 9.3712 20.8566
#
#
#
# Elastic Compliance Matrix: (Units=1/GPa)
#
#
# Indices 1 2 3 4 5 6 
#
# 1 0.021852 -0.004664 -0.006122 -0.000408 -0.009170 0.014324
# 2 -0.004664 0.006056 -0.001363 -0.000197 -0.000415 -0.002910
# 3 -0.006122 -0.001363 0.013001 -0.000851 0.001794 -0.004474
# 4 -0.000408 -0.000197 -0.000851 0.017497 -0.001599 0.005151
# 5 -0.009170 -0.000415 0.001794 -0.001599 0.057169 -0.029816
# 6 0.014324 -0.002910 -0.004474 0.005151 -0.029816 0.069428
#
#
# Mechanical properties :
#
#
# Convention : Reuss Voigt Hill
#
# Bulk Modulus (GPa) = 60.20093 83.84144 72.02119
# Shear Modulus (GPa) = 23.27337 37.46721 30.37029
#
# Velocity S-wave (km/s) = 3.12342 3.96302 3.56800
# Velocity P-wave (km/s) = 6.18407 7.48902 6.86761
#
# Compressibility (1/GPa) = 0.01661104
#
# Stress axis : x y z
#
# Youngs Moduli (GPa) = 45.76299 165.12498 76.91549
#
# Poissons Ratio (x) = 0.77016 0.47089
# Poissons Ratio (y) = 0.21344 0.10482
# Poissons Ratio (z) = 0.28017 0.22503
#
# Static dielectric constant tensor:
#      x y z
#    x 1.951300 -0.004100 -0.018700 
#    y -0.004100 2.006690 0.078670 
#    z -0.018700 0.078670 1.962430 
# 
# From -- ./inp_files/602521.got.cif
#   From: 2010.05.17/outbox.cif.g08.bks.cpg/sg2_302_cif.got.tgz:602521.got - 2010.06.03 11:33:40.
