data_PCOD9067373
_publ_section_title
;
Structure prediction by ZEFSAII (Michael W. Deem and Ramdas Pophale) SiO2 
 PCOD9067373
Probable space group: P -1
;
_chemical_formula_sum "Si O2"
_cell_formula_units_Z 13
_cell_length_a 15.157190
_cell_length_b 7.088753
_cell_length_c 11.819107
_cell_angle_alpha 93.207154
_cell_angle_beta 149.844150
_cell_angle_gamma 77.858190
_cell_volume 602.825522
_symmetry_space_group_name_H-M "P -1"
_symmetry_group_IT_number 2
_symmetry_cell_setting 'triclinic'
loop_
_space_group_symop_operation_xyz
x,y,z
-x,-y,-z
loop_
_atom_site_type_symbol
_atom_site_label
_atom_site_fract_x
_atom_site_fract_y
_atom_site_fract_z
Si Si1 0.099154 0.867265 0.869973
Si Si2 0.500000 0.500000 0.500000
Si Si3 0.397089 0.828499 0.007005
Si Si4 0.679842 0.069974 0.335933
Si Si5 0.623663 0.487256 0.387580
Si Si6 0.064295 0.364657 0.178015
Si Si7 0.303561 0.966085 0.302913
O O1 0.226729 0.863215 0.904270
O O2 0.101858 0.663714 0.932236
O O3 0.165745 0.993264 0.043229
O O4 0.889652 0.944559 0.594711
O O5 0.521674 0.572010 0.395432
O O6 0.364656 0.730672 0.391839
O O7 0.336162 0.871958 0.812104
O O8 0.521544 0.606350 0.168784
O O9 0.529038 0.960050 0.187555
O O10 0.635409 0.264284 0.369150
O O11 0.818153 0.527908 0.616188
O O12 0.189256 0.141922 0.267716
O O13 0.000000 0.500000 0.000000
O O14 0.500000 0.000000 0.500000
#
# Coordination Sequence:
#
# PCOD9067373 Si02
#       7
#     2   1   2   2   2   2   2
#     4  12  24  46  71 103 141 188 244 294 359 429
#     4  12  24  40  74 104 142 186 236 288 358 438
#     4  11  25  49  73 103 138 188 248 301 357 420
#     4  11  26  49  75  99 142 190 244 307 354 415
#     4  12  24  45  70 105 145 188 234 296 364 431
#     4  12  25  44  68 108 152 191 232 294 366 438
#     4  12  25  44  69 103 148 189 234 286 358 436
#
# _framework density 21.565111999999999
#
# number of rings (size 3 to 8) (size 9 to 14) (size 15 to 20)
#    0.000    0.308    4.615    4.154    2.154    0.000 
#    2.769    0.769    0.000    0.000    0.000    0.000 
#    0.000    0.000    0.000    0.000    0.000    0.000 
#
# Total GULP energy -72395.837140 kJ/mol
# GULP energy per Si atom -5568.910549 kJ/mol
# Density = 2.151603 g / cm^3
# Si number density = 21.565112 Si / 1000 Ang^3
#
#
#
# Elastic Constant Matrix: (Units=GPa)
#
#
# Indices 1 2 3 4 5 6 
#
# 1 145.5311 37.4649 50.6814 15.3592 4.9596 26.3696
# 2 37.4649 84.8812 38.0095 -10.8426 -1.7036 -10.2078
# 3 50.6814 38.0095 128.1251 21.5211 -4.1564 19.1031
# 4 15.3592 -10.8426 21.5211 38.3813 5.7002 -9.5420
# 5 4.9596 -1.7036 -4.1564 5.7002 33.1669 -1.3419
# 6 26.3696 -10.2078 19.1031 -9.5420 -1.3419 27.3819
#
#
#
# Elastic Compliance Matrix: (Units=1/GPa)
#
#
# Indices 1 2 3 4 5 6 
#
# 1 0.025076 -0.031100 0.015850 -0.043311 0.001582 -0.061816
# 2 -0.031100 0.063810 -0.035478 0.077336 -0.005554 0.105168
# 3 0.015850 -0.035478 0.030992 -0.051449 0.005792 -0.067757
# 4 -0.043311 0.077336 -0.051449 0.133894 -0.012842 0.152464
# 5 0.001582 -0.005554 0.005792 -0.012842 0.032135 -0.010535
# 6 -0.061816 0.105168 -0.067757 0.152464 -0.010535 0.235143
#
#
# Mechanical properties :
#
#
# Convention : Reuss Voigt Hill
#
# Bulk Modulus (GPa) = 54.28565 67.87210 61.07888
# Shear Modulus (GPa) = 7.95358 35.27812 21.61585
#
# Velocity S-wave (km/s) = 1.92254 4.04900 3.16943
# Velocity P-wave (km/s) = 5.49143 7.30757 6.46361
#
# Compressibility (1/GPa) = 0.01842108
#
# Stress axis : x y z
#
# Youngs Moduli (GPa) = 39.87891 15.67148 32.26599
#
# Poissons Ratio (x) = 0.48739 -0.51142
# Poissons Ratio (y) = 1.24025 1.14475
# Poissons Ratio (z) = -0.63208 0.55600
#
# Static dielectric constant tensor:
#      x y z
#    x 1.808190 0.025390 0.024130 
#    y 0.025390 1.768140 -0.018770 
#    z 0.024130 -0.018770 1.828420 
# 
# From -- ./inp_files/442025.got.cif
#   From: 2010.05.17/outbox.cif.g08.bks.cpg/sg2_222_cif.got.tgz:442025.got - 2010.06.03 11:33:40.
