data_PCOD9067965
_publ_section_title
;
Structure prediction by ZEFSAII (Michael W. Deem and Ramdas Pophale) SiO2 
 PCOD9067965
Probable space group: P -1
;
_chemical_formula_sum "Si O2"
_cell_formula_units_Z 13
_cell_length_a 9.318894
_cell_length_b 11.784327
_cell_length_c 11.662804
_cell_angle_alpha 35.693845
_cell_angle_beta 42.129414
_cell_angle_gamma 61.083988
_cell_volume 477.630861
_symmetry_space_group_name_H-M "P -1"
_symmetry_group_IT_number 2
_symmetry_cell_setting 'triclinic'
loop_
_space_group_symop_operation_xyz
x,y,z
-x,-y,-z
loop_
_atom_site_type_symbol
_atom_site_label
_atom_site_fract_x
_atom_site_fract_y
_atom_site_fract_z
Si Si1 0.290112 0.351821 0.309250
Si Si2 0.000000 0.500000 0.000000
Si Si3 0.134360 0.077290 0.971721
Si Si4 0.945152 0.523388 0.277472
Si Si5 0.389203 0.822341 0.121675
Si Si6 0.440992 0.675623 0.601060
Si Si7 0.774475 0.971634 0.584021
O O1 0.394749 0.310511 0.401171
O O2 0.220338 0.151501 0.434098
O O3 0.121574 0.487783 0.293672
O O4 0.500000 0.500000 0.000000
O O5 0.998957 0.447727 0.184643
O O6 0.746285 0.535788 0.136411
O O7 0.027260 0.240276 0.951320
O O8 0.391620 0.212078 0.687513
O O9 0.163567 0.878772 0.175330
O O10 0.000000 0.000000 0.000000
O O11 0.705108 0.394086 0.580249
O O12 0.556838 0.855457 0.886532
O O13 0.500000 0.000000 0.000000
O O14 0.255827 0.804712 0.615926
O O15 0.000000 0.000000 0.500000
#
# Coordination Sequence:
#
# PCOD9067965 Si02
#       7
#     2   1   2   2   2   2   2
#     4  12  26  46  72 110 149 197 252 313 385 454
#     4  12  26  48  74 112 148 200 256 314 396 452
#     4  11  28  50  76 110 151 202 259 318 388 462
#     4  12  28  48  79 109 154 202 256 325 385 467
#     4  11  26  49  76 113 151 196 255 315 387 462
#     4  11  26  46  76 107 155 198 255 315 385 463
#     4  11  26  48  78 111 155 201 253 316 383 465
#
# _framework density 27.217672
#
# number of rings (size 3 to 8) (size 9 to 14) (size 15 to 20)
#    0.000    0.615    1.538    5.077    6.462    8.615 
#    0.000    0.769    0.000    0.000    0.000    0.000 
#    0.000    0.000    0.000    0.000    0.000    0.000 
#
# Total GULP energy -72588.298275 kJ/mol
# GULP energy per Si atom -5583.715252 kJ/mol
# Density = 2.715572 g / cm^3
# Si number density = 27.217672 Si / 1000 Ang^3
#
#
#
# Elastic Constant Matrix: (Units=GPa)
#
#
# Indices 1 2 3 4 5 6 
#
# 1 175.6458 21.1126 -2.2024 -10.3873 -4.4419 -18.3323
# 2 21.1126 82.9414 7.5258 -12.4425 1.3931 -17.9833
# 3 -2.2024 7.5258 129.4940 22.1967 15.9534 -14.4430
# 4 -10.3873 -12.4425 22.1967 51.5373 -7.9252 1.6169
# 5 -4.4419 1.3931 15.9534 -7.9252 48.9216 -4.0455
# 6 -18.3323 -17.9833 -14.4430 1.6169 -4.0455 46.3712
#
#
#
# Elastic Compliance Matrix: (Units=1/GPa)
#
#
# Indices 1 2 3 4 5 6 
#
# 1 0.006115 -0.000969 0.000113 0.001020 0.000887 0.002118
# 2 -0.000969 0.013928 -0.001023 0.003587 0.000814 0.004646
# 3 0.000113 -0.001023 0.009330 -0.004871 -0.003593 0.002410
# 4 0.001020 0.003587 -0.004871 0.023400 0.005364 -0.000071
# 5 0.000887 0.000814 -0.003593 0.005364 0.022649 0.001336
# 6 0.002118 0.004646 0.002410 -0.000071 0.001336 0.025074
#
#
# Mechanical properties :
#
#
# Convention : Reuss Voigt Hill
#
# Bulk Modulus (GPa) = 39.04186 48.99480 44.01833
# Shear Modulus (GPa) = 44.32875 53.47571 48.90223
#
# Velocity S-wave (km/s) = 4.04006 4.43735 4.24336
# Velocity P-wave (km/s) = 6.01151 6.65534 6.34160
#
# Compressibility (1/GPa) = 0.02561353
#
# Stress axis : x y z
#
# Youngs Moduli (GPa) = 163.53130 71.79785 107.17986
#
# Poissons Ratio (x) = 0.06960 -0.01207
# Poissons Ratio (y) = 0.15852 0.10965
# Poissons Ratio (z) = -0.01841 0.07345
#
# Static dielectric constant tensor:
#      x y z
#    x 2.018240 -0.177650 0.212550 
#    y -0.177650 2.070720 0.195870 
#    z 0.212550 0.195870 1.747550 
# 
# From -- ./inp_files/182106.got.cif
#   From: 2010.05.17/outbox.cif.g08.bks.cpg/sg2_92_cif.got.tgz:182106.got - 2010.06.03 11:33:40.
