data_PCOD9067637
_publ_section_title
;
Structure prediction by ZEFSAII (Michael W. Deem and Ramdas Pophale) SiO2 
 PCOD9067637
Probable space group: P -1
;
_chemical_formula_sum "Si O2"
_cell_formula_units_Z 14
_cell_length_a 20.528406
_cell_length_b 5.297736
_cell_length_c 5.322143
_cell_angle_alpha 86.166558
_cell_angle_beta 110.672909
_cell_angle_gamma 115.966603
_cell_volume 484.213208
_symmetry_space_group_name_H-M "P -1"
_symmetry_group_IT_number 2
_symmetry_cell_setting 'triclinic'
loop_
_space_group_symop_operation_xyz
x,y,z
-x,-y,-z
loop_
_atom_site_type_symbol
_atom_site_label
_atom_site_fract_x
_atom_site_fract_y
_atom_site_fract_z
Si Si1 0.635949 0.368961 0.725988
Si Si2 0.932424 0.093729 0.913260
Si Si3 0.722405 0.811667 0.192663
Si Si4 0.136013 0.666290 0.854419
Si Si5 0.500000 0.000000 0.500000
Si Si6 0.210773 0.472972 0.357433
Si Si7 0.432088 0.352385 0.718336
Si Si8 0.000000 0.500000 0.500000
O O1 0.708034 0.366349 0.688075
O O2 0.567385 0.370216 0.450046
O O3 0.576450 0.112452 0.819894
O O4 0.672058 0.665988 0.892343
O O5 0.933859 0.242709 0.178301
O O6 0.948812 0.286692 0.679822
O O7 0.846208 0.837690 0.805237
O O8 0.000000 0.000000 0.000000
O O9 0.761570 0.605266 0.338444
O O10 0.657794 0.793498 0.303446
O O11 0.790976 0.114988 0.210271
O O12 0.163595 0.632225 0.171151
O O13 0.077202 0.398463 0.642917
O O14 0.549386 0.857167 0.410951
O O15 0.500000 0.500000 0.000000
#
# Coordination Sequence:
#
# PCOD9067637 Si02
#       8
#     2   2   2   2   1   2   2   1
#     4  11  26  49  74 118 159 205 274 337 397 496
#     4  12  26  47  72 113 158 200 264 340 395 491
#     4  11  25  52  78 112 166 208 262 345 405 476
#     4  12  27  48  77 111 154 207 274 326 405 497
#     4  12  26  48  82 118 162 214 276 334 406 498
#     4  11  26  47  73 114 155 209 262 332 410 481
#     4  11  26  50  78 117 166 210 272 340 407 483
#     4  12  26  46  76 112 142 210 260 324 414 470
#
# _framework density 28.912883000000001
#
# number of rings (size 3 to 8) (size 9 to 14) (size 15 to 20)
#    0.000    0.571    5.714    0.857    2.000    3.429 
#    5.143    0.000    0.000    0.000    0.000    0.000 
#    0.000    0.000    0.000    0.000    0.000    0.000 
#
# Total GULP energy -78041.671125 kJ/mol
# GULP energy per Si atom -5574.405080 kJ/mol
# Density = 2.884708 g / cm^3
# Si number density = 28.912883 Si / 1000 Ang^3
#
#
#
# Elastic Constant Matrix: (Units=GPa)
#
#
# Indices 1 2 3 4 5 6 
#
# 1 174.6634 94.2294 82.2357 -6.2775 23.4738 31.7033
# 2 94.2294 151.2338 37.3260 5.4416 10.8149 40.4979
# 3 82.2357 37.3260 150.0733 -13.3806 22.2002 3.8525
# 4 -6.2775 5.4416 -13.3806 50.9680 10.1593 13.5561
# 5 23.4738 10.8149 22.2002 10.1593 47.0608 5.8145
# 6 31.7033 40.4979 3.8525 13.5561 5.8145 85.9473
#
#
#
# Elastic Compliance Matrix: (Units=1/GPa)
#
#
# Indices 1 2 3 4 5 6 
#
# 1 0.011421 -0.005525 -0.004301 0.001790 -0.002596 -0.001523
# 2 -0.005525 0.010771 0.000202 -0.001160 0.000796 -0.002917
# 3 -0.004301 0.000202 0.009607 0.002339 -0.003049 0.000898
# 4 0.001790 -0.001160 0.002339 0.022717 -0.006216 -0.003381
# 5 -0.002596 0.000796 -0.003049 -0.006216 0.025141 -0.000001
# 6 -0.001523 -0.002917 0.000898 -0.003381 -0.000001 0.014064
#
#
# Mechanical properties :
#
#
# Convention : Reuss Voigt Hill
#
# Bulk Modulus (GPa) = 79.68102 100.39475 90.03788
# Shear Modulus (GPa) = 42.67902 54.27386 48.47644
#
# Velocity S-wave (km/s) = 3.84620 4.33731 4.09912
# Velocity P-wave (km/s) = 6.88064 7.73832 7.32205
#
# Compressibility (1/GPa) = 0.01255004
#
# Stress axis : x y z
#
# Youngs Moduli (GPa) = 87.55691 92.84225 104.09457
#
# Poissons Ratio (x) = 0.51299 0.44776
# Poissons Ratio (y) = 0.48379 -0.02108
# Poissons Ratio (z) = 0.37662 -0.01880
#
# Static dielectric constant tensor:
#      x y z
#    x 2.278060 -0.105850 0.090660 
#    y -0.105850 2.531730 -0.013950 
#    z 0.090660 -0.013950 2.648420 
# 
# From -- ./inp_files/8004.got.cif
#   From: 2010.05.17/outbox.cif.g08.bks.cpg/sg2_5_cif.got.tgz:8004.got - 2010.06.03 11:33:40.
