data_PCOD9067826
_publ_section_title
;
Structure prediction by ZEFSAII (Michael W. Deem and Ramdas Pophale) SiO2 
 PCOD9067826
Probable space group: P -1
;
_chemical_formula_sum "Si O2"
_cell_formula_units_Z 13
_cell_length_a 5.402920
_cell_length_b 15.053594
_cell_length_c 8.072748
_cell_angle_alpha 127.527385
_cell_angle_beta 63.767335
_cell_angle_gamma 103.267334
_cell_volume 466.351931
_symmetry_space_group_name_H-M "P -1"
_symmetry_group_IT_number 2
_symmetry_cell_setting 'triclinic'
loop_
_space_group_symop_operation_xyz
x,y,z
-x,-y,-z
loop_
_atom_site_type_symbol
_atom_site_label
_atom_site_fract_x
_atom_site_fract_y
_atom_site_fract_z
Si Si1 0.880155 0.885948 0.166630
Si Si2 0.401900 0.886625 0.817817
Si Si3 0.357959 0.356004 0.509058
Si Si4 0.049787 0.694631 0.158848
Si Si5 0.000000 0.500000 0.500000
Si Si6 0.443726 0.465517 0.161366
Si Si7 0.314101 0.876215 0.455310
O O1 0.551450 0.872983 0.241694
O O2 0.987062 0.793829 0.161739
O O3 0.888290 0.014146 0.374087
O O4 0.075178 0.879236 0.942561
O O5 0.546752 0.770211 0.706873
O O6 0.449763 0.886714 0.607384
O O7 0.500000 0.000000 0.000000
O O8 0.159981 0.416001 0.503369
O O9 0.621176 0.432515 0.567794
O O10 0.207261 0.358604 0.736826
O O11 0.170819 0.761007 0.356901
O O12 0.299164 0.609515 0.936818
O O13 0.148820 0.416118 0.210684
O O14 0.500000 0.500000 0.000000
#
# Coordination Sequence:
#
# PCOD9067826 Si02
#       7
#     2   2   2   2   1   2   2
#     4  11  26  45  75 105 148 189 242 295 369 428
#     4  12  27  49  75 109 147 191 244 299 366 433
#     4  12  27  51  74 109 152 191 248 307 359 440
#     4  12  25  48  77 104 148 192 242 299 369 430
#     4  12  28  48  78 104 154 190 252 298 368 430
#     4  12  27  49  75 108 144 195 244 302 369 432
#     4  11  26  48  72 109 148 190 239 304 359 438
#
# _framework density 27.875941999999998
#
# number of rings (size 3 to 8) (size 9 to 14) (size 15 to 20)
#    0.000    0.308    3.077    4.615    4.308    1.231 
#    2.769    0.000    0.000    0.000    0.000    0.000 
#    0.000    0.000    0.000    0.000    0.000    0.000 
#
# Total GULP energy -72725.795750 kJ/mol
# GULP energy per Si atom -5594.291981 kJ/mol
# Density = 2.781250 g / cm^3
# Si number density = 27.875942 Si / 1000 Ang^3
#
#
#
# Elastic Constant Matrix: (Units=GPa)
#
#
# Indices 1 2 3 4 5 6 
#
# 1 106.4547 46.5424 49.8361 26.6435 -1.7301 -14.3037
# 2 46.5424 147.7114 61.2409 6.6854 -8.8765 -23.6929
# 3 49.8361 61.2409 146.6543 14.9552 -33.9054 1.3922
# 4 26.6435 6.6854 14.9552 67.0823 16.5048 -15.0541
# 5 -1.7301 -8.8765 -33.9054 16.5048 65.3690 7.2536
# 6 -14.3037 -23.6929 1.3922 -15.0541 7.2536 50.8997
#
#
#
# Elastic Compliance Matrix: (Units=1/GPa)
#
#
# Indices 1 2 3 4 5 6 
#
# 1 0.013112 -0.002355 -0.003356 -0.003582 -0.001005 0.001764
# 2 -0.002355 0.009758 -0.004042 0.002486 -0.002018 0.005014
# 3 -0.003356 -0.004042 0.011688 -0.003759 0.006956 -0.005247
# 4 -0.003582 0.002486 -0.003759 0.020476 -0.007699 0.007407
# 5 -0.001005 -0.002018 0.006956 -0.007699 0.021295 -0.006724
# 6 0.001764 0.005014 -0.005247 0.007407 -0.006724 0.025768
#
#
# Mechanical properties :
#
#
# Convention : Reuss Voigt Hill
#
# Bulk Modulus (GPa) = 66.43728 79.56215 72.99972
# Shear Modulus (GPa) = 39.48755 52.88360 46.18557
#
# Velocity S-wave (km/s) = 3.76779 4.36030 4.07483
# Velocity P-wave (km/s) = 6.54318 7.34528 6.95580
#
# Compressibility (1/GPa) = 0.01505179
#
# Stress axis : x y z
#
# Youngs Moduli (GPa) = 76.26881 102.47549 85.55426
#
# Poissons Ratio (x) = 0.24137 0.28710
# Poissons Ratio (y) = 0.17964 0.34582
# Poissons Ratio (z) = 0.25594 0.41422
#
# Static dielectric constant tensor:
#      x y z
#    x -1.191050 -2.465940 1.464550 
#    y -2.465940 0.259340 1.058420 
#    z 1.464550 1.058420 1.561770 
# 
# From -- ./inp_files/26629.got.cif
#   From: 2010.05.17/outbox.cif.g08.bks.cpg/sg2_14_cif.got.tgz:26629.got - 2010.06.03 11:33:40.
