data_PCOD9067700
_publ_section_title
;
Structure prediction by ZEFSAII (Michael W. Deem and Ramdas Pophale) SiO2 
 PCOD9067700
Probable space group: P -1
;
_chemical_formula_sum "Si O2"
_cell_formula_units_Z 16
_cell_length_a 8.815029
_cell_length_b 9.392326
_cell_length_c 12.837816
_cell_angle_alpha 100.749181
_cell_angle_beta 46.166920
_cell_angle_gamma 105.320498
_cell_volume 739.469707
_symmetry_space_group_name_H-M "P -1"
_symmetry_group_IT_number 2
_symmetry_cell_setting 'triclinic'
loop_
_space_group_symop_operation_xyz
x,y,z
-x,-y,-z
loop_
_atom_site_type_symbol
_atom_site_label
_atom_site_fract_x
_atom_site_fract_y
_atom_site_fract_z
Si Si1 0.998391 0.882934 0.895131
Si Si2 0.507702 0.064352 0.390939
Si Si3 0.723969 0.325104 0.840046
Si Si4 0.789298 0.043164 0.657930
Si Si5 0.994650 0.438948 0.109844
Si Si6 0.502289 0.614051 0.607227
Si Si7 0.300709 0.184837 0.152427
Si Si8 0.216690 0.460431 0.343567
O O1 0.243474 0.899584 0.749016
O O2 0.917118 0.713259 0.945136
O O3 0.852125 0.910645 0.871929
O O4 0.000000 0.000000 0.000000
O O5 0.418025 0.216469 0.442804
O O6 0.500000 0.000000 0.500000
O O7 0.374811 0.950297 0.357245
O O8 0.829616 0.193242 0.725406
O O9 0.675025 0.414518 0.772589
O O10 0.881523 0.440503 0.852696
O O11 0.518517 0.257697 0.999500
O O12 0.673535 0.916244 0.774803
O O13 0.000000 0.000000 0.500000
O O14 0.744781 0.400520 0.248705
O O15 0.000000 0.500000 0.000000
O O16 0.500000 0.500000 0.500000
O O17 0.634344 0.569633 0.635961
O O18 0.180717 0.311327 0.271321
O O19 0.000000 0.500000 0.500000
#
# Coordination Sequence:
#
# PCOD9067700 Si02
#       8
#     2   2   2   2   2   2   2   2
#     4  11  26  46  71 102 142 186 233 294 353 420
#     4  11  26  48  70 103 143 185 237 289 356 424
#     4  12  27  45  75 105 143 193 237 298 357 423
#     4  12  27  47  74 105 142 190 241 297 357 427
#     4  11  26  44  70 104 142 183 235 288 357 423
#     4  11  26  44  73 102 142 185 233 296 352 421
#     4  12  25  48  72 105 145 186 247 294 355 428
#     4  12  25  46  73 104 144 186 242 294 357 423
#
# _framework density 21.637125999999999
#
# number of rings (size 3 to 8) (size 9 to 14) (size 15 to 20)
#    0.000    0.500    2.500    4.500   10.500    1.000 
#    0.000    0.000    0.000    0.000    0.000    0.000 
#    0.000    0.000    0.000    0.000    0.000    0.000 
#
# Total GULP energy -89541.022841 kJ/mol
# GULP energy per Si atom -5596.313928 kJ/mol
# Density = 2.158788 g / cm^3
# Si number density = 21.637126 Si / 1000 Ang^3
#
#
#
# Elastic Constant Matrix: (Units=GPa)
#
#
# Indices 1 2 3 4 5 6 
#
# 1 149.4135 45.5959 62.1396 -7.8331 20.9754 5.7846
# 2 45.5959 125.9709 70.2299 12.6459 22.3569 1.9497
# 3 62.1396 70.2299 129.7881 0.1550 23.7301 -2.8427
# 4 -7.8331 12.6459 0.1550 38.4548 0.9088 13.1382
# 5 20.9754 22.3569 23.7301 0.9088 41.6990 -3.9937
# 6 5.7846 1.9497 -2.8427 13.1382 -3.9937 39.7227
#
#
#
# Elastic Compliance Matrix: (Units=1/GPa)
#
#
# Indices 1 2 3 4 5 6 
#
# 1 0.009066 -0.001344 -0.003253 0.003320 -0.002331 -0.002820
# 2 -0.001344 0.012457 -0.005592 -0.004411 -0.002688 0.000373
# 3 -0.003253 -0.005592 0.012778 0.000794 -0.002545 0.001144
# 4 0.003320 -0.004411 0.000794 0.031891 -0.001497 -0.010908
# 5 -0.002331 -0.002688 -0.002545 -0.001497 0.028425 0.003642
# 6 -0.002820 0.000373 0.001144 -0.010908 0.003642 0.029623
#
#
# Mechanical properties :
#
#
# Convention : Reuss Voigt Hill
#
# Bulk Modulus (GPa) = 71.82557 84.56705 78.19631
# Shear Modulus (GPa) = 33.49907 39.12245 36.31076
#
# Velocity S-wave (km/s) = 3.93901 4.25681 4.10099
# Velocity P-wave (km/s) = 7.34543 7.95799 7.65784
#
# Compressibility (1/GPa) = 0.01392262
#
# Stress axis : x y z
#
# Youngs Moduli (GPa) = 110.29772 80.27880 78.26193
#
# Poissons Ratio (x) = 0.10789 0.25459
# Poissons Ratio (y) = 0.14824 0.43764
# Poissons Ratio (z) = 0.35880 0.44892
#
# Static dielectric constant tensor:
#      x y z
#    x 1.768140 -0.032860 0.019370 
#    y -0.032860 1.846960 -0.007450 
#    z 0.019370 -0.007450 1.775940 
# 
# From -- ./inp_files/382511.got.cif
#   From: 2010.05.17/outbox.cif.g08.bks.cpg/sg2_192_cif.got.tgz:382511.got - 2010.06.03 11:33:40.
