data_PCOD9067242
_publ_section_title
;
Structure prediction by ZEFSAII (Michael W. Deem and Ramdas Pophale) SiO2 
 PCOD9067242
Probable space group: P -1
;
_chemical_formula_sum "Si O2"
_cell_formula_units_Z 16
_cell_length_a 5.573369
_cell_length_b 12.371994
_cell_length_c 14.370753
_cell_angle_alpha 119.742762
_cell_angle_beta 86.788006
_cell_angle_gamma 57.693476
_cell_volume 653.847952
_symmetry_space_group_name_H-M "P -1"
_symmetry_group_IT_number 2
_symmetry_cell_setting 'triclinic'
loop_
_space_group_symop_operation_xyz
x,y,z
-x,-y,-z
loop_
_atom_site_type_symbol
_atom_site_label
_atom_site_fract_x
_atom_site_fract_y
_atom_site_fract_z
Si Si1 0.313783 0.233095 0.538450
Si Si2 0.357063 0.285183 0.078183
Si Si3 0.743394 0.005558 0.798462
Si Si4 0.542540 0.173111 0.231481
Si Si5 0.678630 0.506462 0.256977
Si Si6 0.346635 0.097545 0.681973
Si Si7 0.295002 0.584937 0.131988
Si Si8 0.673602 0.502195 0.583272
O O1 0.323583 0.373819 0.624649
O O2 0.293405 0.173374 0.613720
O O3 0.996656 0.325404 0.525481
O O4 0.590909 0.069581 0.408301
O O5 0.552026 0.191677 0.127673
O O6 0.281339 0.453739 0.124612
O O7 0.010708 0.352323 0.142113
O O8 0.531500 0.165664 0.936567
O O9 0.615631 0.908642 0.783395
O O10 0.107378 0.915515 0.773979
O O11 0.644428 0.051826 0.712210
O O12 0.310185 0.354186 0.360638
O O13 0.465142 0.609820 0.217156
O O14 0.539187 0.447416 0.299437
O O15 0.039900 0.240929 0.807299
O O16 0.500000 0.500000 0.000000
O O17 0.500000 0.500000 0.500000
#
# Coordination Sequence:
#
# PCOD9067242 Si02
#       8
#     2   2   2   2   2   2   2   2
#     4  11  25  48  75 104 153 197 258 324 396 462
#     4  12  26  49  75 110 154 203 260 323 396 464
#     4  12  30  45  78 113 156 208 258 326 392 470
#     4  12  26  51  73 114 155 201 264 321 394 469
#     4  12  23  46  77 110 146 206 252 326 388 461
#     4  11  25  51  69 114 152 196 263 319 392 471
#     4  12  27  47  80 112 154 205 259 322 389 473
#     4  12  26  47  78 109 149 205 261 320 396 470
#
# _framework density 24.470521000000002
#
# number of rings (size 3 to 8) (size 9 to 14) (size 15 to 20)
#    0.000    0.250    5.000    3.000    7.000    2.000 
#    0.000    0.000    0.000    0.000    0.000    0.000 
#    0.000    0.000    0.000    0.000    0.000    0.000 
#
# Total GULP energy -89598.840828 kJ/mol
# GULP energy per Si atom -5599.927552 kJ/mol
# Density = 2.441483 g / cm^3
# Si number density = 24.470521 Si / 1000 Ang^3
#
#
#
# Elastic Constant Matrix: (Units=GPa)
#
#
# Indices 1 2 3 4 5 6 
#
# 1 81.4642 48.7026 12.8490 6.3543 -6.2898 -13.1635
# 2 48.7026 128.6594 33.5625 0.4575 1.0958 -29.5689
# 3 12.8490 33.5625 98.5628 10.5412 -2.8302 -2.8530
# 4 6.3543 0.4575 10.5412 53.3548 -0.8841 5.8074
# 5 -6.2898 1.0958 -2.8302 -0.8841 45.0315 -4.8628
# 6 -13.1635 -29.5689 -2.8530 5.8074 -4.8628 41.3283
#
#
#
# Elastic Compliance Matrix: (Units=1/GPa)
#
#
# Indices 1 2 3 4 5 6 
#
# 1 0.016394 -0.005908 0.000217 -0.002077 0.002580 0.001605
# 2 -0.005908 0.012403 -0.003336 0.000526 -0.000612 0.006616
# 3 0.000217 -0.003336 0.011467 -0.002127 0.000666 -0.001148
# 4 -0.002077 0.000526 -0.002127 0.019753 -0.000400 -0.003255
# 5 0.002580 -0.000612 0.000666 -0.000400 0.022960 0.003188
# 6 0.001605 0.006616 -0.001148 -0.003255 0.003188 0.030194
#
#
# Mechanical properties :
#
#
# Convention : Reuss Voigt Hill
#
# Bulk Modulus (GPa) = 45.02373 55.43495 50.22934
# Shear Modulus (GPa) = 36.06816 42.18107 39.12462
#
# Velocity S-wave (km/s) = 3.84336 4.15631 4.00290
# Velocity P-wave (km/s) = 6.17530 6.76285 6.47574
#
# Compressibility (1/GPa) = 0.02221051
#
# Stress axis : x y z
#
# Youngs Moduli (GPa) = 60.99939 80.62700 87.20950
#
# Poissons Ratio (x) = 0.47635 -0.01895
# Poissons Ratio (y) = 0.36039 0.29089
# Poissons Ratio (z) = -0.01325 0.26893
#
# Static dielectric constant tensor:
#      x y z
#    x 1.999350 0.018420 0.009640 
#    y 0.018420 1.994280 -0.008430 
#    z 0.009640 -0.008430 1.905370 
# 
# From -- ./inp_files/484399.got.cif
#   From: 2010.05.17/outbox.cif.g08.bks.cpg/sg2_243_cif.got.tgz:484399.got - 2010.06.03 11:33:40.
