data_PCOD9067081
_publ_section_title
;
Structure prediction by ZEFSAII (Michael W. Deem and Ramdas Pophale) SiO2 
 PCOD9067081
Probable space group: P -1
;
_chemical_formula_sum "Si O2"
_cell_formula_units_Z 16
_cell_length_a 7.419424
_cell_length_b 16.621640
_cell_length_c 7.477043
_cell_angle_alpha 123.197435
_cell_angle_beta 54.351030
_cell_angle_gamma 112.015753
_cell_volume 624.889743
_symmetry_space_group_name_H-M "P -1"
_symmetry_group_IT_number 2
_symmetry_cell_setting 'triclinic'
loop_
_space_group_symop_operation_xyz
x,y,z
-x,-y,-z
loop_
_atom_site_type_symbol
_atom_site_label
_atom_site_fract_x
_atom_site_fract_y
_atom_site_fract_z
Si Si1 0.156738 0.580184 0.607733
Si Si2 0.515771 0.753707 0.977865
Si Si3 0.113198 0.010894 0.674718
Si Si4 0.342481 0.940984 0.156873
Si Si5 0.397855 0.751300 0.456286
Si Si6 0.477690 0.545855 0.782476
Si Si7 0.026521 0.150316 0.193310
Si Si8 0.744459 0.624394 0.088983
O O1 0.269057 0.652213 0.482395
O O2 0.338664 0.512134 0.493606
O O3 0.000000 0.500000 0.500000
O O4 0.998018 0.635337 0.895105
O O5 0.425506 0.836587 0.010817
O O6 0.432519 0.769951 0.247812
O O7 0.424038 0.646442 0.850781
O O8 0.785361 0.761248 0.809369
O O9 0.915606 0.060988 0.752052
O O10 0.330973 0.002072 0.421538
O O11 0.146441 0.073938 0.909688
O O12 0.016966 0.904097 0.660593
O O13 0.500000 0.000000 0.000000
O O14 0.647011 0.723953 0.334008
O O15 0.217578 0.826204 0.705943
O O16 0.293650 0.464159 0.858513
O O17 0.601018 0.588869 0.950629
#
# Coordination Sequence:
#
# PCOD9067081 Si02
#       8
#     2   2   2   2   2   2   2   2
#     4   9  14  25  41  66 113 144 167 212 273 309
#     4  11  20  31  54  81 107 142 186 219 269 322
#     4  10  24  40  56  78 108 141 183 228 279 321
#     4  11  22  42  58  76 107 147 179 227 278 324
#     4  10  18  28  47  79 112 141 176 223 264 319
#     4   8  15  24  40  71 106 140 171 216 261 316
#     4  11  21  36  56  83 108 138 183 232 268 322
#     4   8  14  25  40  67 111 144 168 208 275 312
#
# _framework density 25.604517000000001
#
# number of rings (size 3 to 8) (size 9 to 14) (size 15 to 20)
#    0.000    2.250    2.500    4.500    0.000    1.500 
#    0.000    0.000    0.000    0.000    0.000    3.500 
#    0.000   61.000    0.000    1.375    0.000    0.000 
#
# Total GULP energy -89354.856720 kJ/mol
# GULP energy per Si atom -5584.678545 kJ/mol
# Density = 2.554624 g / cm^3
# Si number density = 25.604517 Si / 1000 Ang^3
#
#
#
# Elastic Constant Matrix: (Units=GPa)
#
#
# Indices 1 2 3 4 5 6 
#
# 1 64.1779 30.0163 23.9110 -1.3343 -27.5955 -10.1436
# 2 30.0163 170.7396 64.0315 -7.2852 -23.6499 -32.2474
# 3 23.9110 64.0315 177.9686 -7.0503 -40.7068 -5.1178
# 4 -1.3343 -7.2852 -7.0503 36.0252 2.2954 -11.3985
# 5 -27.5955 -23.6499 -40.7068 2.2954 35.2477 10.7730
# 6 -10.1436 -32.2474 -5.1178 -11.3985 10.7730 22.5853
#
#
#
# Elastic Compliance Matrix: (Units=1/GPa)
#
#
# Indices 1 2 3 4 5 6 
#
# 1 0.024678 -0.003164 0.002551 -0.001884 0.021509 -0.004067
# 2 -0.003164 0.011590 -0.004373 0.008745 -0.007012 0.021895
# 3 0.002551 -0.004373 0.009529 -0.003324 0.013691 -0.011147
# 4 -0.001884 0.008745 -0.003324 0.041962 -0.014023 0.038754
# 5 0.021509 -0.007012 0.013691 -0.014023 0.068546 -0.037022
# 6 -0.004067 0.021895 -0.011147 0.038754 -0.037022 0.108403
#
#
# Mechanical properties :
#
#
# Convention : Reuss Voigt Hill
#
# Bulk Modulus (GPa) = 27.91347 72.08929 50.00138
# Shear Modulus (GPa) = 17.44463 38.43347 27.93905
#
# Velocity S-wave (km/s) = 2.61302 3.87853 3.30688
# Velocity P-wave (km/s) = 4.47541 6.94791 5.84392
#
# Compressibility (1/GPa) = 0.03582499
#
# Stress axis : x y z
#
# Youngs Moduli (GPa) = 40.52223 86.28029 104.94426
#
# Poissons Ratio (x) = 0.27302 -0.26772
# Poissons Ratio (y) = 0.12823 0.45889
# Poissons Ratio (z) = -0.10338 0.37728
#
# Static dielectric constant tensor:
#      x y z
#    x 2.235270 -0.035560 0.185710 
#    y -0.035560 2.004620 0.052200 
#    z 0.185710 0.052200 2.257600 
# 
# From -- ./inp_files/270585.got.cif
#   From: 2010.05.17/outbox.cif.g08.bks.cpg/sg2_136_cif.got.tgz:270585.got - 2010.06.03 11:33:40.
