data_PCOD9067516
_publ_section_title
;
Structure prediction by ZEFSAII (Michael W. Deem and Ramdas Pophale) SiO2 
 PCOD9067516
Probable space group: P -1
;
_chemical_formula_sum "Si O2"
_cell_formula_units_Z 13
_cell_length_a 9.444179
_cell_length_b 11.460851
_cell_length_c 8.860231
_cell_angle_alpha 141.229968
_cell_angle_beta 79.083669
_cell_angle_gamma 111.304515
_cell_volume 552.199633
_symmetry_space_group_name_H-M "P -1"
_symmetry_group_IT_number 2
_symmetry_cell_setting 'triclinic'
loop_
_space_group_symop_operation_xyz
x,y,z
-x,-y,-z
loop_
_atom_site_type_symbol
_atom_site_label
_atom_site_fract_x
_atom_site_fract_y
_atom_site_fract_z
Si Si1 0.740596 0.352526 0.446812
Si Si2 0.133171 0.522459 0.876925
Si Si3 0.633079 0.029696 0.382134
Si Si4 0.975017 0.081084 0.422599
Si Si5 0.500000 0.500000 0.500000
Si Si6 0.984306 0.256538 0.123903
Si Si7 0.530003 0.412498 0.065907
O O1 0.636979 0.199835 0.435710
O O2 0.635386 0.395203 0.380507
O O3 0.852260 0.568652 0.702378
O O4 0.866260 0.246246 0.272772
O O5 0.299451 0.593901 0.988163
O O6 0.095845 0.301407 0.595576
O O7 0.105543 0.669854 0.911721
O O8 0.000000 0.500000 0.000000
O O9 0.804309 0.087316 0.468999
O O10 0.500000 0.000000 0.500000
O O11 0.590857 0.808045 0.100953
O O12 0.000000 0.000000 0.500000
O O13 0.992143 0.938136 0.141477
O O14 0.523007 0.525181 0.335897
O O15 0.500000 0.500000 0.000000
#
# Coordination Sequence:
#
# PCOD9067516 Si02
#       7
#     2   2   2   2   1   2   2
#     4  11  26  50  75 109 159 208 259 334 387 473
#     4  12  24  47  76 109 152 204 265 318 388 472
#     4  12  27  47  76 115 157 206 260 326 400 473
#     4  12  25  43  79 111 144 204 262 321 390 465
#     4  12  26  48  76 108 156 210 256 320 410 456
#     4  11  25  50  75 109 154 199 267 323 388 459
#     4  12  28  49  75 114 158 206 259 330 397 470
#
# _framework density 23.542207999999999
#
# number of rings (size 3 to 8) (size 9 to 14) (size 15 to 20)
#    0.000    0.308    4.615    3.692    2.154    2.462 
#    0.000    0.000    0.000    0.000    0.000    0.000 
#    0.000    0.000    0.000    0.000    0.000    0.000 
#
# Total GULP energy -72503.807333 kJ/mol
# GULP energy per Si atom -5577.215949 kJ/mol
# Density = 2.348863 g / cm^3
# Si number density = 23.542208 Si / 1000 Ang^3
#
#
#
# Elastic Constant Matrix: (Units=GPa)
#
#
# Indices 1 2 3 4 5 6 
#
# 1 128.9136 63.4625 19.2091 7.6187 14.4092 -30.6610
# 2 63.4625 129.8144 35.5525 -4.7146 5.2283 -11.8246
# 3 19.2091 35.5525 113.0646 4.0081 -19.6675 3.1163
# 4 7.6187 -4.7146 4.0081 41.1040 5.1510 -0.8243
# 5 14.4092 5.2283 -19.6675 5.1510 39.9492 -5.0639
# 6 -30.6610 -11.8246 3.1163 -0.8243 -5.0639 50.4238
#
#
#
# Elastic Compliance Matrix: (Units=1/GPa)
#
#
# Indices 1 2 3 4 5 6 
#
# 1 0.012399 -0.005144 -0.001152 -0.002240 -0.003312 0.006035
# 2 -0.005144 0.011150 -0.002971 0.002698 -0.001469 -0.000433
# 3 -0.001152 -0.002971 0.011200 -0.002051 0.006395 -0.001481
# 4 -0.002240 0.002698 -0.002051 0.025736 -0.003946 -0.000578
# 5 -0.003312 -0.001469 0.006395 -0.003946 0.030102 0.000205
# 6 0.006035 -0.000433 -0.001481 -0.000578 0.000205 0.023503
#
#
# Mechanical properties :
#
#
# Convention : Reuss Voigt Hill
#
# Bulk Modulus (GPa) = 61.67457 67.58232 64.62845
# Shear Modulus (GPa) = 36.22400 43.19998 39.71199
#
# Velocity S-wave (km/s) = 3.92686 4.28834 4.11157
# Velocity P-wave (km/s) = 6.84212 7.29993 7.07473
#
# Compressibility (1/GPa) = 0.01621414
#
# Stress axis : x y z
#
# Youngs Moduli (GPa) = 80.64956 89.68922 89.28202
#
# Poissons Ratio (x) = 0.46139 0.10286
# Poissons Ratio (y) = 0.41489 0.26527
# Poissons Ratio (z) = 0.09292 0.26648
#
# Static dielectric constant tensor:
#      x y z
#    x 1.896910 0.055860 -0.063850 
#    y 0.055860 1.948100 -0.108020 
#    z -0.063850 -0.108020 2.101390 
# 
# From -- ./inp_files/183554.got.cif
#   From: 2010.05.17/outbox.cif.g08.bks.cpg/sg2_92_cif.got.tgz:183554.got - 2010.06.03 11:33:40.
