data_PCOD9067673
_publ_section_title
;
Structure prediction by ZEFSAII (Michael W. Deem and Ramdas Pophale) SiO2 
 PCOD9067673
Probable space group: P -1
;
_chemical_formula_sum "Si O2"
_cell_formula_units_Z 14
_cell_length_a 5.016138
_cell_length_b 15.603836
_cell_length_c 7.493483
_cell_angle_alpha 97.692072
_cell_angle_beta 104.073884
_cell_angle_gamma 115.942367
_cell_volume 491.803947
_symmetry_space_group_name_H-M "P -1"
_symmetry_group_IT_number 2
_symmetry_cell_setting 'triclinic'
loop_
_space_group_symop_operation_xyz
x,y,z
-x,-y,-z
loop_
_atom_site_type_symbol
_atom_site_label
_atom_site_fract_x
_atom_site_fract_y
_atom_site_fract_z
Si Si1 0.514774 0.232393 0.882877
Si Si2 0.355479 0.060598 0.394424
Si Si3 0.676410 0.423415 0.787002
Si Si4 0.353915 0.276735 0.232223
Si Si5 0.256981 0.914739 0.064573
Si Si6 0.283105 0.507704 0.777325
Si Si7 0.940698 0.813430 0.490586
O O1 0.720292 0.330064 0.826831
O O2 0.569756 0.140575 0.831022
O O3 0.177093 0.211731 0.740908
O O4 0.561659 0.259554 0.107347
O O5 0.127113 0.096000 0.450364
O O6 0.693621 0.155628 0.416952
O O7 0.500000 0.000000 0.500000
O O8 0.159927 0.980698 0.188655
O O9 0.346641 0.421227 0.695017
O O10 0.920271 0.479273 0.683684
O O11 0.720336 0.477899 0.003340
O O12 0.446784 0.388174 0.225971
O O13 0.314753 0.267139 0.436532
O O14 0.028055 0.177412 0.103444
O O15 0.500000 0.000000 0.000000
#
# Coordination Sequence:
#
# PCOD9067673 Si02
#       7
#     2   2   2   2   2   2   2
#     4  11  26  43  72 100 137 184 230 282 343 411
#     4  12  25  44  67  94 138 181 232 282 334 396
#     4   9  20  38  66  99 129 174 223 276 338 409
#     4  11  26  43  71 101 140 181 229 286 342 407
#     4  12  25  42  67  99 138 179 232 280 336 406
#     4   9  20  38  66  98 133 171 221 279 342 399
#     4  12  27  46  68 101 138 183 230 283 339 408
#
# _framework density 28.466626000000002
#
# number of rings (size 3 to 8) (size 9 to 14) (size 15 to 20)
#    0.000    1.143    2.857    2.143   12.000    1.143 
#    0.000    1.429    0.000    0.000    0.000    0.000 
#    0.000    0.000    0.000    0.000    0.000    0.000 
#
# Total GULP energy -78094.166242 kJ/mol
# GULP energy per Si atom -5578.154732 kJ/mol
# Density = 2.840183 g / cm^3
# Si number density = 28.466626 Si / 1000 Ang^3
#
#
#
# Elastic Constant Matrix: (Units=GPa)
#
#
# Indices 1 2 3 4 5 6 
#
# 1 125.5721 43.7800 -3.7055 -3.2129 -12.4335 -4.1575
# 2 43.7800 171.3563 13.2428 -11.6301 -12.8934 4.3549
# 3 -3.7055 13.2428 76.3537 -10.9679 -12.7326 -9.3790
# 4 -3.2129 -11.6301 -10.9679 37.9333 5.9746 -15.3369
# 5 -12.4335 -12.8934 -12.7326 5.9746 35.5478 6.9021
# 6 -4.1575 4.3549 -9.3790 -15.3369 6.9021 54.1311
#
#
#
# Elastic Compliance Matrix: (Units=1/GPa)
#
#
# Indices 1 2 3 4 5 6 
#
# 1 0.009086 -0.002227 0.001446 0.000464 0.002631 0.000923
# 2 -0.002227 0.006667 -0.000992 0.001076 0.001245 -0.000733
# 3 0.001446 -0.000992 0.015202 0.005104 0.004003 0.003760
# 4 0.000464 0.001076 0.005104 0.033509 -0.005390 0.011015
# 5 0.002631 0.001245 0.004003 -0.005390 0.032797 -0.004914
# 6 0.000923 -0.000733 0.003760 0.011015 -0.004914 0.023002
#
#
# Mechanical properties :
#
#
# Convention : Reuss Voigt Hill
#
# Bulk Modulus (GPa) = 36.48643 53.32407 44.90525
# Shear Modulus (GPa) = 37.60951 46.85343 42.23147
#
# Velocity S-wave (km/s) = 3.63875 4.06138 3.85586
# Velocity P-wave (km/s) = 5.52259 6.38482 5.96929
#
# Compressibility (1/GPa) = 0.02740745
#
# Stress axis : x y z
#
# Youngs Moduli (GPa) = 110.06425 149.99633 65.78190
#
# Poissons Ratio (x) = 0.33405 -0.09512
# Poissons Ratio (y) = 0.24512 0.06527
# Poissons Ratio (z) = -0.15915 0.14883
#
# Static dielectric constant tensor:
#      x y z
#    x 2.282550 0.135740 0.203830 
#    y 0.135740 2.310020 0.109310 
#    z 0.203830 0.109310 2.571970 
# 
# From -- ./inp_files/105022.got.cif
#   From: 2010.05.17/outbox.cif.g08.bks.cpg/sg2_53_cif.got.tgz:105022.got - 2010.06.03 11:33:40.
