data_PCOD9067715
_publ_section_title
;
Structure prediction by ZEFSAII (Michael W. Deem and Ramdas Pophale) SiO2 
 PCOD9067715
Probable space group: P -1
;
_chemical_formula_sum "Si O2"
_cell_formula_units_Z 14
_cell_length_a 16.266792
_cell_length_b 5.181844
_cell_length_c 9.271934
_cell_angle_alpha 55.356266
_cell_angle_beta 68.542945
_cell_angle_gamma 69.960212
_cell_volume 589.083057
_symmetry_space_group_name_H-M "P -1"
_symmetry_group_IT_number 2
_symmetry_cell_setting 'triclinic'
loop_
_space_group_symop_operation_xyz
x,y,z
-x,-y,-z
loop_
_atom_site_type_symbol
_atom_site_label
_atom_site_fract_x
_atom_site_fract_y
_atom_site_fract_z
Si Si1 0.757002 0.961401 0.702867
Si Si2 0.278777 0.178564 0.815074
Si Si3 0.468199 0.879522 0.712197
Si Si4 0.785409 0.110556 0.331847
Si Si5 0.579673 0.755600 0.959149
Si Si6 0.832647 0.261678 0.804320
Si Si7 0.013126 0.118125 0.617405
O O1 0.671472 0.884320 0.865421
O O2 0.823859 0.622591 0.749143
O O3 0.730422 0.074002 0.524080
O O4 0.799921 0.228423 0.671714
O O5 0.236967 0.515006 0.805212
O O6 0.386641 0.139543 0.745652
O O7 0.242232 0.122104 0.696303
O O8 0.237426 0.905551 0.011018
O O9 0.550849 0.760467 0.806677
O O10 0.500000 0.000000 0.500000
O O11 0.419445 0.571404 0.852311
O O12 0.889756 0.021999 0.337132
O O13 0.500000 0.000000 0.000000
O O14 0.933335 0.065944 0.794524
O O15 0.000000 0.500000 0.500000
O O16 0.000000 0.000000 0.500000
#
# Coordination Sequence:
#
# PCOD9067715 Si02
#       7
#     2   2   2   2   2   2   2
#     4  12  24  45  72 103 136 187 239 284 354 422
#     4  12  27  45  67 105 146 180 230 291 365 419
#     4  11  26  47  69 103 144 187 238 303 359 420
#     4  12  26  43  72 104 138 185 235 286 355 430
#     4  11  26  44  73 104 138 190 247 294 356 436
#     4  12  24  45  73  98 144 186 223 299 350 418
#     4  12  23  45  72 106 137 179 242 291 347 419
#
# _framework density 23.765750000000001
#
# number of rings (size 3 to 8) (size 9 to 14) (size 15 to 20)
#    0.000    0.286    4.286    4.286    6.000    1.714 
#    0.000    0.000    0.000    0.000    0.000    0.000 
#    0.000    0.000    0.000    0.000    0.000    0.000 
#
# Total GULP energy -78285.985947 kJ/mol
# GULP energy per Si atom -5591.856139 kJ/mol
# Density = 2.371166 g / cm^3
# Si number density = 23.765750 Si / 1000 Ang^3
#
#
#
# Elastic Constant Matrix: (Units=GPa)
#
#
# Indices 1 2 3 4 5 6 
#
# 1 107.0458 30.5403 10.9812 7.6347 1.1220 -3.1370
# 2 30.5403 110.8373 4.9564 0.4822 4.0902 -6.3093
# 3 10.9812 4.9564 117.0384 9.1188 -0.7810 0.3199
# 4 7.6347 0.4822 9.1188 35.2273 -8.5498 -4.0001
# 5 1.1220 4.0902 -0.7810 -8.5498 37.0352 11.5009
# 6 -3.1370 -6.3093 0.3199 -4.0001 11.5009 33.9203
#
#
#
# Elastic Compliance Matrix: (Units=1/GPa)
#
#
# Indices 1 2 3 4 5 6 
#
# 1 0.010375 -0.002771 -0.000695 -0.002140 -0.000647 0.000418
# 2 -0.002771 0.009978 -0.000209 0.000375 -0.001617 0.002194
# 3 -0.000695 -0.000209 0.008790 -0.002205 -0.000158 -0.000392
# 4 -0.002140 0.000375 -0.002205 0.031208 0.006787 0.001272
# 5 -0.000647 -0.001617 -0.000158 0.006787 0.031995 -0.010407
# 6 0.000418 0.002194 -0.000392 0.001272 -0.010407 0.033610
#
#
# Mechanical properties :
#
#
# Convention : Reuss Voigt Hill
#
# Bulk Modulus (GPa) = 45.88226 47.54194 46.71210
# Shear Modulus (GPa) = 35.56966 40.46612 38.01789
#
# Velocity S-wave (km/s) = 3.87289 4.13086 4.00395
# Velocity P-wave (km/s) = 6.27272 6.54216 6.40886
#
# Compressibility (1/GPa) = 0.02179492
#
# Stress axis : x y z
#
# Youngs Moduli (GPa) = 96.38314 100.22060 113.76530
#
# Poissons Ratio (x) = 0.27769 0.07905
# Poissons Ratio (y) = 0.26706 0.02373
# Poissons Ratio (z) = 0.06697 0.02090
#
# Static dielectric constant tensor:
#      x y z
#    x 1.964850 0.009140 0.031280 
#    y 0.009140 1.962280 0.022460 
#    z 0.031280 0.022460 1.976430 
# 
# From -- ./inp_files/48777.got.cif
#   From: 2010.05.17/outbox.cif.g08.bks.cpg/sg2_25_cif.got.tgz:48777.got - 2010.06.03 11:33:40.
