data_PCOD9067812
_publ_section_title
;
Structure prediction by ZEFSAII (Michael W. Deem and Ramdas Pophale) SiO2 
 PCOD9067812
Probable space group: P -1
;
_chemical_formula_sum "Si O2"
_cell_formula_units_Z 14
_cell_length_a 4.863852
_cell_length_b 17.336578
_cell_length_c 7.061167
_cell_angle_alpha 79.978152
_cell_angle_beta 71.796746
_cell_angle_gamma 70.656949
_cell_volume 532.033951
_symmetry_space_group_name_H-M "P -1"
_symmetry_group_IT_number 2
_symmetry_cell_setting 'triclinic'
loop_
_space_group_symop_operation_xyz
x,y,z
-x,-y,-z
loop_
_atom_site_type_symbol
_atom_site_label
_atom_site_fract_x
_atom_site_fract_y
_atom_site_fract_z
Si Si1 0.806596 0.211751 0.261383
Si Si2 0.573925 0.785780 0.013723
Si Si3 0.223956 0.961707 0.585441
Si Si4 0.252330 0.391022 0.815879
Si Si5 0.761322 0.375335 0.414684
Si Si6 0.265070 0.451302 0.211256
Si Si7 0.780764 0.036929 0.903971
O O1 0.589087 0.243452 0.115744
O O2 0.707737 0.135912 0.391914
O O3 0.806231 0.282703 0.378396
O O4 0.152890 0.180930 0.129497
O O5 0.729764 0.704857 0.137257
O O6 0.325478 0.863230 0.122044
O O7 0.135577 0.977463 0.351813
O O8 0.500000 0.000000 0.500000
O O9 0.140070 0.971359 0.857038
O O10 0.528507 0.395525 0.625575
O O11 0.943890 0.455289 0.782239
O O12 0.296653 0.420143 0.004256
O O13 0.068351 0.397539 0.374055
O O14 0.585018 0.430531 0.254559
O O15 0.500000 0.000000 0.000000
#
# Coordination Sequence:
#
# PCOD9067812 Si02
#       7
#     2   2   2   2   2   2   2
#     4  12  24  46  67  98 142 180 226 296 356 411
#     4  12  24  46  68 100 136 180 237 291 349 424
#     4  12  26  43  67  99 137 180 232 287 346 417
#     4  11  26  45  74 105 139 190 238 288 359 432
#     4  12  25  47  71 104 143 187 233 297 355 420
#     4  11  26  47  71 103 144 184 238 295 352 423
#     4  12  23  45  69  94 129 185 232 274 350 418
#
# _framework density 26.314111
#
# number of rings (size 3 to 8) (size 9 to 14) (size 15 to 20)
#    0.000    0.286    5.714    2.571    2.000    5.714 
#    0.000    0.000    0.000    0.000    0.000    0.000 
#    0.000    0.000    0.000    0.000    0.000    0.000 
#
# Total GULP energy -78466.718668 kJ/mol
# GULP energy per Si atom -5604.765619 kJ/mol
# Density = 2.625422 g / cm^3
# Si number density = 26.314111 Si / 1000 Ang^3
#
#
#
# Elastic Constant Matrix: (Units=GPa)
#
#
# Indices 1 2 3 4 5 6 
#
# 1 108.1971 42.4176 11.9619 10.4236 0.0695 15.1833
# 2 42.4176 213.7477 42.7057 6.7386 -4.6695 -17.1462
# 3 11.9619 42.7057 153.9139 11.8503 -12.8725 0.7537
# 4 10.4236 6.7386 11.8503 35.9828 6.9940 -8.1767
# 5 0.0695 -4.6695 -12.8725 6.9940 46.9185 -0.7255
# 6 15.1833 -17.1462 0.7537 -8.1767 -0.7255 35.4735
#
#
#
# Elastic Compliance Matrix: (Units=1/GPa)
#
#
# Indices 1 2 3 4 5 6 
#
# 1 0.011852 -0.002861 0.000310 -0.004791 0.000380 -0.007559
# 2 -0.002861 0.005862 -0.001514 0.001211 0.000059 0.004371
# 3 0.000310 -0.001514 0.007327 -0.003045 0.002287 -0.001675
# 4 -0.004791 0.001211 -0.003045 0.033364 -0.005522 0.010278
# 5 0.000380 0.000059 0.002287 -0.005522 0.022754 -0.000990
# 6 -0.007559 0.004371 -0.001675 0.010278 -0.000990 0.035923
#
#
# Mechanical properties :
#
#
# Convention : Reuss Voigt Hill
#
# Bulk Modulus (GPa) = 59.12911 74.44769 66.78840
# Shear Modulus (GPa) = 38.21226 48.92652 43.56939
#
# Velocity S-wave (km/s) = 3.81485 4.31667 4.07350
# Velocity P-wave (km/s) = 6.47483 7.29371 6.89643
#
# Compressibility (1/GPa) = 0.01691214
#
# Stress axis : x y z
#
# Youngs Moduli (GPa) = 84.37567 170.57996 136.48197
#
# Poissons Ratio (x) = 0.48802 -0.04237
# Poissons Ratio (y) = 0.24140 0.20663
# Poissons Ratio (z) = -0.02619 0.25825
#
# Static dielectric constant tensor:
#      x y z
#    x 2.072340 -0.025440 0.215930 
#    y -0.025440 2.016240 -0.015720 
#    z 0.215930 -0.015720 2.527630 
# 
# From -- ./inp_files/136210.got.cif
#   From: 2010.05.17/outbox.cif.g08.bks.cpg/sg2_69_cif.got.tgz:136210.got - 2010.06.03 11:33:40.
