data_PCOD9067975
_publ_section_title
;
Structure prediction by ZEFSAII (Michael W. Deem and Ramdas Pophale) SiO2 
 PCOD9067975
Probable space group: P -1
;
_chemical_formula_sum "Si O2"
_cell_formula_units_Z 12
_cell_length_a 4.958637
_cell_length_b 23.540873
_cell_length_c 11.883550
_cell_angle_alpha 158.120438
_cell_angle_beta 113.467531
_cell_angle_gamma 62.792580
_cell_volume 458.321891
_symmetry_space_group_name_H-M "P -1"
_symmetry_group_IT_number 2
_symmetry_cell_setting 'triclinic'
loop_
_space_group_symop_operation_xyz
x,y,z
-x,-y,-z
loop_
_atom_site_type_symbol
_atom_site_label
_atom_site_fract_x
_atom_site_fract_y
_atom_site_fract_z
Si Si1 0.718022 0.505691 0.651152
Si Si2 0.603723 0.566955 0.327843
Si Si3 0.159109 0.051261 0.798009
Si Si4 0.300258 0.355689 0.759592
Si Si5 0.184743 0.024103 0.183417
Si Si6 0.383207 0.852555 0.257796
O O1 0.500000 0.500000 0.500000
O O2 0.643003 0.409026 0.569277
O O3 0.075727 0.452800 0.594698
O O4 0.637608 0.691150 0.010432
O O5 0.605822 0.668598 0.401508
O O6 0.565049 0.408142 0.966820
O O7 0.888349 0.174842 0.916671
O O8 0.474210 0.089301 0.953979
O O9 0.246515 0.913772 0.467312
O O10 0.011222 0.996921 0.781615
O O11 0.232135 0.197893 0.501656
O O12 0.000000 0.500000 0.000000
O O13 0.000000 0.000000 0.000000
O O14 0.500000 0.000000 0.500000
#
# Coordination Sequence:
#
# PCOD9067975 Si02
#       6
#     2   2   2   2   2   2
#     4  12  28  48  72 109 150 186 235 301 367 420
#     4  11  26  47  74 107 143 191 239 293 354 434
#     4  11  26  47  74 107 143 191 239 293 354 434
#     4  11  26  46  77 105 137 190 247 290 351 427
#     4  12  28  48  72 109 150 186 235 301 367 420
#     4  11  26  46  77 105 137 190 247 290 351 427
#
# _framework density 26.182469999999999
#
# number of rings (size 3 to 8) (size 9 to 14) (size 15 to 20)
#    0.000    0.667    3.333    2.000   14.000    1.333 
#    6.000    0.000    0.000    0.000    0.000    0.000 
#    0.000    0.000    0.000    0.000    0.000    0.000 
#
# Total GULP energy -67293.689882 kJ/mol
# GULP energy per Si atom -5607.807490 kJ/mol
# Density = 2.612288 g / cm^3
# Si number density = 26.182470 Si / 1000 Ang^3
#
#
#
# Elastic Constant Matrix: (Units=GPa)
#
#
# Indices 1 2 3 4 5 6 
#
# 1 158.8794 52.1402 30.2488 -8.4911 20.2928 10.0821
# 2 52.1402 126.6733 29.8599 -40.4829 12.5566 4.0886
# 3 30.2488 29.8599 79.2885 -5.9867 14.3958 -5.5612
# 4 -8.4911 -40.4829 -5.9867 57.9752 -15.4423 3.1848
# 5 20.2928 12.5566 14.3958 -15.4423 30.5253 -12.8105
# 6 10.0821 4.0886 -5.5612 3.1848 -12.8105 68.9173
#
#
#
# Elastic Compliance Matrix: (Units=1/GPa)
#
#
# Indices 1 2 3 4 5 6 
#
# 1 0.008366 -0.003374 -0.001210 -0.002697 -0.005841 -0.002083
# 2 -0.003374 0.012593 -0.003350 0.008749 0.002905 -0.000388
# 3 -0.001210 -0.003350 0.015287 -0.002592 -0.006087 0.000598
# 4 -0.002697 0.008749 -0.002592 0.026107 0.012991 0.000875
# 5 -0.005841 0.002905 -0.006087 0.012991 0.048502 0.008606
# 6 -0.002083 -0.000388 0.000598 0.000875 0.008606 0.016445
#
#
# Mechanical properties :
#
#
# Convention : Reuss Voigt Hill
#
# Bulk Modulus (GPa) = 49.07141 65.48210 57.27675
# Shear Modulus (GPa) = 33.34206 48.32304 40.83255
#
# Velocity S-wave (km/s) = 3.57241 4.30074 3.95338
# Velocity P-wave (km/s) = 5.98322 7.05166 6.53930
#
# Compressibility (1/GPa) = 0.02037847
#
# Stress axis : x y z
#
# Youngs Moduli (GPa) = 119.53440 79.40854 65.41630
#
# Poissons Ratio (x) = 0.26792 0.07916
# Poissons Ratio (y) = 0.40330 0.21911
# Poissons Ratio (z) = 0.14465 0.26598
#
# Static dielectric constant tensor:
#      x y z
#    x 2.020890 -0.038320 -0.012810 
#    y -0.038320 2.109870 0.023280 
#    z -0.012810 0.023280 2.072890 
# 
# From -- ./inp_files/371180.got.cif
#   From: 2010.05.17/outbox.cif.g08.bks.cpg/sg2_186_cif.got.tgz:371180.got - 2010.06.03 11:33:40.
