data_PCOD9067315
_publ_section_title
;
Structure prediction by ZEFSAII (Michael W. Deem and Ramdas Pophale) SiO2 
 PCOD9067315
Probable space group: P -1
;
_chemical_formula_sum "Si O2"
_cell_formula_units_Z 14
_cell_length_a 10.798531
_cell_length_b 7.175067
_cell_length_c 9.283581
_cell_angle_alpha 90.723787
_cell_angle_beta 124.316970
_cell_angle_gamma 92.933260
_cell_volume 592.557997
_symmetry_space_group_name_H-M "P -1"
_symmetry_group_IT_number 2
_symmetry_cell_setting 'triclinic'
loop_
_space_group_symop_operation_xyz
x,y,z
-x,-y,-z
loop_
_atom_site_type_symbol
_atom_site_label
_atom_site_fract_x
_atom_site_fract_y
_atom_site_fract_z
Si Si1 0.211860 0.402280 0.747783
Si Si2 0.111204 0.945458 0.941832
Si Si3 0.151381 0.130253 0.454827
Si Si4 0.850782 0.470348 0.991540
Si Si5 0.675215 0.551927 0.615322
Si Si6 0.291875 0.741698 0.598970
Si Si7 0.583251 0.843772 0.961605
O O1 0.132673 0.253375 0.586038
O O2 0.232364 0.599920 0.683301
O O3 0.126064 0.437557 0.838034
O O4 0.369062 0.319489 0.900002
O O5 0.000818 0.912541 0.733257
O O6 0.181124 0.749907 0.018276
O O7 0.256209 0.078520 0.996685
O O8 0.000000 0.000000 0.000000
O O9 0.264598 0.261571 0.428536
O O10 0.779662 0.061858 0.459283
O O11 0.728408 0.557628 0.813853
O O12 0.000000 0.500000 0.000000
O O13 0.500000 0.500000 0.500000
O O14 0.736477 0.377191 0.566575
O O15 0.466282 0.782245 0.758795
O O16 0.500000 0.000000 0.000000
#
# Coordination Sequence:
#
# PCOD9067315 Si02
#       7
#     2   2   2   2   2   2   2
#     4  11  26  49  81 107 154 195 262 314 382 458
#     4  12  28  48  77 111 159 204 253 314 389 462
#     4  11  26  51  73 114 152 200 257 315 389 454
#     4  12  25  50  74 111 153 201 253 316 389 455
#     4  11  26  46  77 110 151 196 256 318 376 455
#     4  11  25  48  78 110 151 198 257 316 381 455
#     4  12  25  48  77 112 149 202 255 313 382 457
#
# _framework density 23.626380999999999
#
# number of rings (size 3 to 8) (size 9 to 14) (size 15 to 20)
#    0.000    0.571    2.857    3.857    4.000    2.857 
#    2.571    0.000    0.000    0.000    0.000    0.000 
#    0.000    0.000    0.000    0.000    0.000    0.000 
#
# Total GULP energy -78449.941526 kJ/mol
# GULP energy per Si atom -5603.567252 kJ/mol
# Density = 2.357261 g / cm^3
# Si number density = 23.626381 Si / 1000 Ang^3
#
#
#
# Elastic Constant Matrix: (Units=GPa)
#
#
# Indices 1 2 3 4 5 6 
#
# 1 137.8774 70.7661 70.3271 7.7025 -9.5967 0.1950
# 2 70.7661 191.7002 68.3289 -10.8337 -10.5457 -0.5860
# 3 70.3271 68.3289 161.0392 4.4008 -10.5578 11.3247
# 4 7.7025 -10.8337 4.4008 36.7291 -0.1912 4.3086
# 5 -9.5967 -10.5457 -10.5578 -0.1912 40.4188 8.7516
# 6 0.1950 -0.5860 11.3247 4.3086 8.7516 33.7166
#
#
#
# Elastic Compliance Matrix: (Units=1/GPa)
#
#
# Indices 1 2 3 4 5 6 
#
# 1 0.010648 -0.002833 -0.003418 -0.002801 0.000615 0.001235
# 2 -0.002833 0.007116 -0.001832 0.002891 0.000674 0.000211
# 3 -0.003418 -0.001832 0.008845 -0.000478 0.001750 -0.003376
# 4 -0.002801 0.002891 -0.000478 0.029167 0.000912 -0.003737
# 5 0.000615 0.000674 0.001750 0.000912 0.027204 -0.007757
# 6 0.001235 0.000211 -0.003376 -0.003737 -0.007757 0.033280
#
#
# Mechanical properties :
#
#
# Convention : Reuss Voigt Hill
#
# Bulk Modulus (GPa) = 95.75672 101.05121 98.40396
# Shear Modulus (GPa) = 36.78993 40.91923 38.85458
#
# Velocity S-wave (km/s) = 3.95036 4.16616 4.05969
# Velocity P-wave (km/s) = 7.83739 8.12440 7.98219
#
# Compressibility (1/GPa) = 0.01044313
#
# Stress axis : x y z
#
# Youngs Moduli (GPa) = 93.91605 140.52103 113.06109
#
# Poissons Ratio (x) = 0.39810 0.38643
# Poissons Ratio (y) = 0.26607 0.20713
# Poissons Ratio (z) = 0.32100 0.25743
#
# Static dielectric constant tensor:
#      x y z
#    x 1.930080 0.041690 -0.035390 
#    y 0.041690 1.964130 0.010290 
#    z -0.035390 0.010290 1.850270 
# 
# From -- ./inp_files/157895.got.cif
#   From: 2010.05.17/outbox.cif.g08.bks.cpg/sg2_79_cif.got.tgz:157895.got - 2010.06.03 11:33:40.
