data_PCOD9067642
_publ_section_title
;
Structure prediction by ZEFSAII (Michael W. Deem and Ramdas Pophale) SiO2 
 PCOD9067642
Probable space group: P -1
;
_chemical_formula_sum "Si O2"
_cell_formula_units_Z 16
_cell_length_a 7.321532
_cell_length_b 7.942010
_cell_length_c 11.757368
_cell_angle_alpha 92.898635
_cell_angle_beta 115.607116
_cell_angle_gamma 99.337521
_cell_volume 602.722549
_symmetry_space_group_name_H-M "P -1"
_symmetry_group_IT_number 2
_symmetry_cell_setting 'triclinic'
loop_
_space_group_symop_operation_xyz
x,y,z
-x,-y,-z
loop_
_atom_site_type_symbol
_atom_site_label
_atom_site_fract_x
_atom_site_fract_y
_atom_site_fract_z
Si Si1 0.524701 0.901550 0.280362
Si Si2 0.946667 0.579798 0.325365
Si Si3 0.013996 0.177281 0.077178
Si Si4 0.239933 0.375597 0.962684
Si Si5 0.078222 0.792745 0.592417
Si Si6 0.408594 0.768347 0.004442
Si Si7 0.578007 0.350950 0.582169
Si Si8 0.723738 0.881178 0.658295
O O1 0.723595 0.052514 0.358958
O O2 0.486506 0.886567 0.136364
O O3 0.528215 0.715982 0.330100
O O4 0.323899 0.946921 0.292291
O O5 0.870796 0.382399 0.342130
O O6 0.178640 0.589792 0.342157
O O7 0.820169 0.630579 0.186756
O O8 0.982170 0.714733 0.443721
O O9 0.204676 0.214878 0.216834
O O10 0.048171 0.315656 0.991142
O O11 0.803429 0.180269 0.089041
O O12 0.000000 0.000000 0.000000
O O13 0.399218 0.248199 0.023408
O O14 0.343237 0.571152 0.021647
O O15 0.906302 0.870497 0.618477
O O16 0.500000 0.500000 0.500000
O O17 0.487278 0.196597 0.465932
#
# Coordination Sequence:
#
# PCOD9067642 Si02
#       8
#     2   2   2   2   2   2   2   2
#     4  12  28  48  80 115 161 199 263 319 395 468
#     4  11  25  52  79 117 160 202 267 322 394 468
#     4  12  27  48  77 114 156 206 257 320 388 460
#     4  11  28  51  79 110 158 208 265 321 385 463
#     4  11  27  47  79 120 156 205 257 324 396 462
#     4  11  27  50  75 113 148 211 258 320 379 466
#     4  12  27  49  77 116 156 207 255 321 393 472
#     4  12  27  49  74 116 158 202 256 324 387 470
#
# _framework density 26.546213000000002
#
# number of rings (size 3 to 8) (size 9 to 14) (size 15 to 20)
#    0.000    0.500    3.750    2.250    5.250    4.000 
#    0.000    0.000    0.000    0.000    0.000    0.000 
#    0.000    0.000    0.000    0.000    0.000    0.000 
#
# Total GULP energy -89616.907170 kJ/mol
# GULP energy per Si atom -5601.056698 kJ/mol
# Density = 2.648579 g / cm^3
# Si number density = 26.546213 Si / 1000 Ang^3
#
#
#
# Elastic Constant Matrix: (Units=GPa)
#
#
# Indices 1 2 3 4 5 6 
#
# 1 114.1064 41.2605 27.4208 -0.4002 -4.2604 -4.7111
# 2 41.2605 100.9591 10.5006 1.0974 -3.0581 10.2583
# 3 27.4208 10.5006 125.4776 3.1490 4.8466 4.8754
# 4 -0.4002 1.0974 3.1490 40.7964 -6.5136 -7.1326
# 5 -4.2604 -3.0581 4.8466 -6.5136 34.3854 -5.2891
# 6 -4.7111 10.2583 4.8754 -7.1326 -5.2891 48.9260
#
#
#
# Elastic Compliance Matrix: (Units=1/GPa)
#
#
# Indices 1 2 3 4 5 6 
#
# 1 0.011131 -0.004535 -0.002258 0.001171 0.001920 0.002626
# 2 -0.004535 0.012069 0.000134 -0.000955 -0.000171 -0.003138
# 3 -0.002258 0.000134 0.008617 -0.001265 -0.001953 -0.001500
# 4 0.001171 -0.000955 -0.001265 0.026472 0.006014 0.004949
# 5 0.001920 -0.000171 -0.001953 0.006014 0.031441 0.004691
# 6 0.002626 -0.003138 -0.001500 0.004949 0.004691 0.022728
#
#
# Mechanical properties :
#
#
# Convention : Reuss Voigt Hill
#
# Bulk Modulus (GPa) = 54.06462 55.43408 54.74935
# Shear Modulus (GPa) = 37.89501 42.24565 40.07033
#
# Velocity S-wave (km/s) = 3.78234 3.99356 3.88939
# Velocity P-wave (km/s) = 6.28373 6.49555 6.39052
#
# Compressibility (1/GPa) = 0.01849638
#
# Stress axis : x y z
#
# Youngs Moduli (GPa) = 89.84174 82.85867 116.04503
#
# Poissons Ratio (x) = 0.37580 0.26208
# Poissons Ratio (y) = 0.40747 -0.01551
# Poissons Ratio (z) = 0.20290 -0.01108
#
# Static dielectric constant tensor:
#      x y z
#    x 2.082470 -0.002030 0.006530 
#    y -0.002030 2.181380 -0.056110 
#    z 0.006530 -0.056110 2.076320 
# 
# From -- ./inp_files/379691.got.cif
#   From: 2010.05.17/outbox.cif.g08.bks.cpg/sg2_190_cif.got.tgz:379691.got - 2010.06.03 11:33:40.
