data_PCOD9067220
_publ_section_title
;
Structure prediction by ZEFSAII (Michael W. Deem and Ramdas Pophale) SiO2 
 PCOD9067220
Probable space group: P -1
;
_chemical_formula_sum "Si O2"
_cell_formula_units_Z 16
_cell_length_a 13.141231
_cell_length_b 5.991163
_cell_length_c 14.326868
_cell_angle_alpha 97.916563
_cell_angle_beta 133.121605
_cell_angle_gamma 104.735051
_cell_volume 714.466308
_symmetry_space_group_name_H-M "P -1"
_symmetry_group_IT_number 2
_symmetry_cell_setting 'triclinic'
loop_
_space_group_symop_operation_xyz
x,y,z
-x,-y,-z
loop_
_atom_site_type_symbol
_atom_site_label
_atom_site_fract_x
_atom_site_fract_y
_atom_site_fract_z
Si Si1 0.411757 0.127213 0.838700
Si Si2 0.672044 0.046691 0.888885
Si Si3 0.544028 0.858980 0.600055
Si Si4 0.067851 0.791273 0.515641
Si Si5 0.016180 0.492290 0.119780
Si Si6 0.995707 0.144187 0.723983
Si Si7 0.352365 0.285826 0.994334
Si Si8 0.240993 0.360408 0.370966
O O1 0.535066 0.061811 0.861381
O O2 0.383564 0.105346 0.931197
O O3 0.244959 0.955876 0.674924
O O4 0.494180 0.435548 0.894632
O O5 0.634165 0.029370 0.755310
O O6 0.842545 0.280937 0.032876
O O7 0.675913 0.801207 0.921028
O O8 0.376118 0.623960 0.515567
O O9 0.654867 0.755148 0.617775
O O10 0.500000 0.000000 0.500000
O O11 0.053753 0.758875 0.393194
O O12 0.000000 0.500000 0.500000
O O13 0.000000 0.000000 0.500000
O O14 0.048600 0.752312 0.205339
O O15 0.146260 0.418841 0.234245
O O16 0.000000 0.500000 0.000000
O O17 0.185442 0.255171 0.850323
O O18 0.889577 0.836258 0.649873
#
# Coordination Sequence:
#
# PCOD9067220 Si02
#       8
#     2   2   2   2   2   2   2   2
#     4  11  27  47  74 109 151 193 250 318 379 464
#     4  12  26  43  76 103 146 195 250 311 389 451
#     4  11  27  48  70 107 145 197 249 315 382 460
#     4  12  31  51  81 115 158 209 262 319 396 471
#     4  12  27  46  74 110 148 197 256 320 386 463
#     4  12  26  47  75 110 151 201 253 318 386 466
#     4  11  25  48  74 107 150 196 252 308 390 456
#     4  11  26  47  74 100 155 191 252 310 389 459
#
# _framework density 22.394337
#
# number of rings (size 3 to 8) (size 9 to 14) (size 15 to 20)
#    0.000    0.500    3.750    2.625   12.250    2.000 
#    0.000    0.000    0.000    0.000    0.000    0.000 
#    0.000    0.000    0.000    0.000    0.000    0.000 
#
# Total GULP energy -89381.273054 kJ/mol
# GULP energy per Si atom -5586.329566 kJ/mol
# Density = 2.234337 g / cm^3
# Si number density = 22.394337 Si / 1000 Ang^3
#
#
#
# Elastic Constant Matrix: (Units=GPa)
#
#
# Indices 1 2 3 4 5 6 
#
# 1 58.7996 9.1644 25.2519 1.0994 14.3989 -7.6243
# 2 9.1644 73.7548 36.4727 13.8390 17.4620 14.8476
# 3 25.2519 36.4727 125.1905 15.7567 22.0097 0.2984
# 4 1.0994 13.8390 15.7567 37.8196 9.8711 6.7351
# 5 14.3989 17.4620 22.0097 9.8711 49.8930 -2.0364
# 6 -7.6243 14.8476 0.2984 6.7351 -2.0364 36.6498
#
#
#
# Elastic Compliance Matrix: (Units=1/GPa)
#
#
# Indices 1 2 3 4 5 6 
#
# 1 0.020068 -0.001030 -0.003217 0.001480 -0.004137 0.004116
# 2 -0.001030 0.018756 -0.004164 -0.002660 -0.004211 -0.007524
# 3 -0.003217 -0.004164 0.010460 -0.002537 -0.001674 0.001306
# 4 0.001480 -0.002660 -0.002537 0.030413 -0.004576 -0.004437
# 5 -0.004137 -0.004211 -0.001674 -0.004576 0.024479 0.003060
# 6 0.004116 -0.007524 0.001306 -0.004437 0.003060 0.032165
#
#
# Mechanical properties :
#
#
# Convention : Reuss Voigt Hill
#
# Bulk Modulus (GPa) = 30.80324 44.39142 37.59733
# Shear Modulus (GPa) = 30.49115 37.32955 33.91035
#
# Velocity S-wave (km/s) = 3.69393 4.08722 3.89554
# Velocity P-wave (km/s) = 5.65493 6.49149 6.08760
#
# Compressibility (1/GPa) = 0.03246411
#
# Stress axis : x y z
#
# Youngs Moduli (GPa) = 49.83067 53.31590 95.60193
#
# Poissons Ratio (x) = 0.05491 0.30752
# Poissons Ratio (y) = 0.05132 0.39804
# Poissons Ratio (z) = 0.16029 0.22198
#
# Static dielectric constant tensor:
#      x y z
#    x 1.842540 0.003710 0.008410 
#    y 0.003710 1.917810 0.004540 
#    z 0.008410 0.004540 1.755420 
# 
# From -- ./inp_files/101776.got.cif
#   From: 2010.05.17/outbox.cif.g08.bks.cpg/sg2_51_cif.got.tgz:101776.got - 2010.06.03 11:33:40.
