data_PCOD9067918
_publ_section_title
;
Structure prediction by ZEFSAII (Michael W. Deem and Ramdas Pophale) SiO2 
 PCOD9067918
Probable space group: P -1
;
_chemical_formula_sum "Si O2"
_cell_formula_units_Z 12
_cell_length_a 4.876434
_cell_length_b 14.051353
_cell_length_c 9.876842
_cell_angle_alpha 125.405568
_cell_angle_beta 63.175106
_cell_angle_gamma 117.953443
_cell_volume 471.836497
_symmetry_space_group_name_H-M "P -1"
_symmetry_group_IT_number 2
_symmetry_cell_setting 'triclinic'
loop_
_space_group_symop_operation_xyz
x,y,z
-x,-y,-z
loop_
_atom_site_type_symbol
_atom_site_label
_atom_site_fract_x
_atom_site_fract_y
_atom_site_fract_z
Si Si1 0.644236 0.630153 0.456428
Si Si2 0.919722 0.526524 0.844207
Si Si3 0.724449 0.694382 0.206379
Si Si4 0.747885 0.050127 0.181774
Si Si5 0.006399 0.673001 0.684111
Si Si6 0.003799 0.964826 0.312151
O O1 0.772041 0.516757 0.294469
O O2 0.765228 0.720593 0.378997
O O3 0.266715 0.605986 0.522814
O O4 0.773962 0.671649 0.609431
O O5 0.624283 0.403182 0.816632
O O6 0.863224 0.612664 0.806157
O O7 0.951463 0.614474 0.038056
O O8 0.797219 0.823626 0.225378
O O9 0.794414 0.186297 0.230395
O O10 0.628113 0.020232 0.800825
O O11 0.851790 0.043660 0.310071
O O12 0.000000 0.000000 0.000000
O O13 0.000000 0.000000 0.500000
#
# Coordination Sequence:
#
# PCOD9067918 Si02
#       6
#     2   2   2   2   2   2
#     4  12  25  47  70 108 143 188 240 294 368 429
#     4  11  26  46  73 108 147 189 237 300 367 434
#     4  11  26  47  73 108 148 190 238 298 368 432
#     4  12  27  50  75 108 146 196 248 302 364 432
#     4  12  26  46  75 105 144 190 242 302 358 432
#     4  12  27  49  78 108 148 193 248 303 363 434
#
# _framework density 25.432535000000001
#
# number of rings (size 3 to 8) (size 9 to 14) (size 15 to 20)
#    0.000    0.333    1.667    6.500    4.667    1.333 
#    0.000    0.000    0.000    0.000    0.000    0.000 
#    0.000    0.000    0.000    0.000    0.000    0.000 
#
# Total GULP energy -67260.040914 kJ/mol
# GULP energy per Si atom -5605.003410 kJ/mol
# Density = 2.537465 g / cm^3
# Si number density = 25.432535 Si / 1000 Ang^3
#
#
#
# Elastic Constant Matrix: (Units=GPa)
#
#
# Indices 1 2 3 4 5 6 
#
# 1 101.3501 60.1454 17.9458 -12.9446 1.3641 0.4802
# 2 60.1454 163.0964 23.9916 -9.9701 -8.4963 31.4819
# 3 17.9458 23.9916 70.0903 -3.0404 -2.2791 22.9497
# 4 -12.9446 -9.9701 -3.0404 36.2871 -11.0319 0.3699
# 5 1.3641 -8.4963 -2.2791 -11.0319 37.8584 -5.4062
# 6 0.4802 31.4819 22.9497 0.3699 -5.4062 34.6617
#
#
#
# Elastic Compliance Matrix: (Units=1/GPa)
#
#
# Indices 1 2 3 4 5 6 
#
# 1 0.014610 -0.006157 -0.004153 0.003055 -0.000113 0.008089
# 2 -0.006157 0.010279 0.001430 0.001329 0.001579 -0.009965
# 3 -0.004153 0.001430 0.019511 0.000631 -0.000198 -0.014197
# 4 0.003055 0.001329 0.000631 0.031947 0.009459 -0.000533
# 5 -0.000113 0.001579 -0.000198 0.009459 0.029985 0.003275
# 6 0.008089 -0.009965 -0.014197 -0.000533 0.003275 0.047706
#
#
# Mechanical properties :
#
#
# Convention : Reuss Voigt Hill
#
# Bulk Modulus (GPa) = 37.53963 59.85585 48.69774
# Shear Modulus (GPa) = 27.67386 37.25836 32.46611
#
# Velocity S-wave (km/s) = 3.30226 3.83167 3.57677
# Velocity P-wave (km/s) = 5.41594 6.56977 6.02056
#
# Compressibility (1/GPa) = 0.02663852
#
# Stress axis : x y z
#
# Youngs Moduli (GPa) = 68.44850 97.28887 51.25437
#
# Poissons Ratio (x) = 0.59904 0.21285
# Poissons Ratio (y) = 0.42146 -0.07330
# Poissons Ratio (z) = 0.28426 -0.13913
#
# Static dielectric constant tensor:
#      x y z
#    x 1.987860 -0.010260 0.000860 
#    y -0.010260 2.034970 -0.033570 
#    z 0.000860 -0.033570 2.055700 
# 
# From -- ./inp_files/129808.got.cif
#   From: 2010.05.17/outbox.cif.g08.bks.cpg/sg2_65_cif.got.tgz:129808.got - 2010.06.03 11:33:40.
