data_PCOD9067891
_publ_section_title
;
Structure prediction by ZEFSAII (Michael W. Deem and Ramdas Pophale) SiO2 
 PCOD9067891
Probable space group: P -1
;
_chemical_formula_sum "Si O2"
_cell_formula_units_Z 14
_cell_length_a 8.965358
_cell_length_b 12.223032
_cell_length_c 14.721200
_cell_angle_alpha 150.720838
_cell_angle_beta 52.484529
_cell_angle_gamma 117.745531
_cell_volume 616.775014
_symmetry_space_group_name_H-M "P -1"
_symmetry_group_IT_number 2
_symmetry_cell_setting 'triclinic'
loop_
_space_group_symop_operation_xyz
x,y,z
-x,-y,-z
loop_
_atom_site_type_symbol
_atom_site_label
_atom_site_fract_x
_atom_site_fract_y
_atom_site_fract_z
Si Si1 0.556523 0.228133 0.103908
Si Si2 0.183231 0.587827 0.709122
Si Si3 0.819561 0.038323 0.386694
Si Si4 0.790302 0.623437 0.983606
Si Si5 0.224540 0.075619 0.342998
Si Si6 0.369332 0.823687 0.268207
Si Si7 0.189921 0.613758 0.522073
O O1 0.701639 0.310809 0.181476
O O2 0.375112 0.423210 0.299177
O O3 0.657357 0.138540 0.908077
O O4 0.500000 0.000000 0.000000
O O5 0.195183 0.696515 0.684419
O O6 0.266324 0.319712 0.472814
O O7 0.965432 0.603965 0.834986
O O8 0.647901 0.127690 0.583031
O O9 0.813485 0.188152 0.406412
O O10 0.831671 0.780480 0.165005
O O11 0.007008 0.070336 0.395670
O O12 0.589493 0.745809 0.104796
O O13 0.747359 0.380145 0.854020
O O14 0.275123 0.041662 0.404813
O O15 0.000000 0.500000 0.500000
#
# Coordination Sequence:
#
# PCOD9067891 Si02
#       7
#     2   2   2   2   2   2   2
#     4  12  27  48  72 110 145 190 241 287 365 430
#     4  12  26  49  72 110 145 190 235 295 366 424
#     4  12  25  49  68 110 141 189 238 296 357 422
#     4  11  26  46  72 105 142 189 242 288 363 417
#     4  12  26  46  73 104 147 185 241 299 351 427
#     4  11  27  47  72 103 145 190 243 295 350 423
#     4  12  26  47  76 105 150 181 235 302 356 435
#
# _framework density 22.698713999999999
#
# number of rings (size 3 to 8) (size 9 to 14) (size 15 to 20)
#    0.000    0.286    5.714    1.286    8.000    2.286 
#    0.000    0.000    0.000    0.000    0.000    0.000 
#    0.000    0.000    0.000    0.000    0.000    0.000 
#
# Total GULP energy -78411.667864 kJ/mol
# GULP energy per Si atom -5600.833419 kJ/mol
# Density = 2.264705 g / cm^3
# Si number density = 22.698714 Si / 1000 Ang^3
#
#
#
# Elastic Constant Matrix: (Units=GPa)
#
#
# Indices 1 2 3 4 5 6 
#
# 1 77.0906 49.9743 17.6497 -9.8353 1.9954 7.3637
# 2 49.9743 71.6706 30.6549 -15.9364 -7.4616 -9.8846
# 3 17.6497 30.6549 95.1941 -24.9570 8.5320 16.1193
# 4 -9.8353 -15.9364 -24.9570 27.6125 8.6946 -0.8975
# 5 1.9954 -7.4616 8.5320 8.6946 44.4780 -0.4427
# 6 7.3637 -9.8846 16.1193 -0.8975 -0.4427 33.4476
#
#
#
# Elastic Compliance Matrix: (Units=1/GPa)
#
#
# Indices 1 2 3 4 5 6 
#
# 1 0.032669 -0.029197 0.008922 0.005117 -0.009276 -0.020106
# 2 -0.029197 0.045739 -0.015283 -0.000810 0.012346 0.027452
# 3 0.008922 -0.015283 0.022068 0.017130 -0.010713 -0.016798
# 4 0.005117 -0.000810 0.017130 0.057500 -0.014974 -0.008277
# 5 -0.009276 0.012346 -0.010713 -0.014974 0.030061 0.010850
# 6 -0.020106 0.027452 -0.016798 -0.008277 0.010850 0.050454
#
#
# Mechanical properties :
#
#
# Convention : Reuss Voigt Hill
#
# Bulk Modulus (GPa) = 34.05839 48.94590 41.50215
# Shear Modulus (GPa) = 15.65470 30.81939 23.23704
#
# Velocity S-wave (km/s) = 2.62901 3.68878 3.20303
# Velocity P-wave (km/s) = 4.92471 6.30499 5.65710
#
# Compressibility (1/GPa) = 0.02936134
#
# Stress axis : x y z
#
# Youngs Moduli (GPa) = 30.60973 21.86307 45.31457
#
# Poissons Ratio (x) = 0.63833 -0.40432
# Poissons Ratio (y) = 0.89370 0.69256
# Poissons Ratio (z) = -0.27312 0.33414
#
# Static dielectric constant tensor:
#      x y z
#    x 1.814620 0.007820 -0.003950 
#    y 0.007820 1.825240 -0.033490 
#    z -0.003950 -0.033490 1.859850 
# 
# From -- ./inp_files/271887.got.cif
#   From: 2010.05.17/outbox.cif.g08.bks.cpg/sg2_136_cif.got.tgz:271887.got - 2010.06.03 11:33:40.
