data_PCOD9067523
_publ_section_title
;
Structure prediction by ZEFSAII (Michael W. Deem and Ramdas Pophale) SiO2 
 PCOD9067523
Probable space group: P -1
;
_chemical_formula_sum "Si O2"
_cell_formula_units_Z 15
_cell_length_a 6.200317
_cell_length_b 26.588439
_cell_length_c 8.578340
_cell_angle_alpha 31.540306
_cell_angle_beta 71.855537
_cell_angle_gamma 58.587706
_cell_volume 602.770393
_symmetry_space_group_name_H-M "P -1"
_symmetry_group_IT_number 2
_symmetry_cell_setting 'triclinic'
loop_
_space_group_symop_operation_xyz
x,y,z
-x,-y,-z
loop_
_atom_site_type_symbol
_atom_site_label
_atom_site_fract_x
_atom_site_fract_y
_atom_site_fract_z
Si Si1 0.170552 0.181233 0.256538
Si Si2 0.747159 0.688386 0.583924
Si Si3 0.806233 0.132521 0.647700
Si Si4 0.632779 0.023899 0.756882
Si Si5 0.999382 0.510914 0.729506
Si Si6 0.586893 0.663939 0.204780
Si Si7 0.500000 0.500000 0.500000
Si Si8 0.032169 0.810194 0.069041
O O1 0.434927 0.064946 0.549167
O O2 0.974128 0.188500 0.417433
O O3 0.239657 0.278361 0.001999
O O4 0.081925 0.172138 0.127624
O O5 0.442370 0.787819 0.398926
O O6 0.924875 0.740642 0.365901
O O7 0.812994 0.595748 0.681859
O O8 0.856862 0.615317 0.908625
O O9 0.674336 0.122855 0.543268
O O10 0.000000 0.000000 0.000000
O O11 0.500000 0.000000 0.000000
O O12 0.907723 0.922684 0.901292
O O13 0.226378 0.538285 0.562768
O O14 0.789374 0.540643 0.559470
O O15 0.466255 0.625325 0.197556
O O16 0.345420 0.744945 0.155783
#
# Coordination Sequence:
#
# PCOD9067523 Si02
#       8
#     2   2   2   2   2   2   1   2
#     4  12  27  49  79 111 155 215 257 318 395 476
#     4  11  25  50  75 114 158 199 267 322 394 462
#     4  12  27  50  80 119 157 201 263 333 391 471
#     4  12  26  46  76 119 153 204 260 322 403 460
#     4  11  27  48  77 112 153 211 258 327 388 471
#     4  12  27  48  79 111 150 205 261 321 394 460
#     4  12  26  52  72 110 156 194 272 318 384 474
#     4  12  26  50  77 113 161 201 265 329 386 476
#
# _framework density 24.885099
#
# number of rings (size 3 to 8) (size 9 to 14) (size 15 to 20)
#    0.000    0.267    5.333    1.600    7.467    3.733 
#    0.000    0.000    0.000    0.000    0.000    0.000 
#    0.000    0.000    0.000    0.000    0.000    0.000 
#
# Total GULP energy -83704.406089 kJ/mol
# GULP energy per Si atom -5580.293739 kJ/mol
# Density = 2.482846 g / cm^3
# Si number density = 24.885099 Si / 1000 Ang^3
#
#
#
# Elastic Constant Matrix: (Units=GPa)
#
#
# Indices 1 2 3 4 5 6 
#
# 1 77.4849 38.5979 52.4269 10.1007 -4.1785 -34.9948
# 2 38.5979 163.7612 47.0266 -28.6669 -1.0935 -30.8385
# 3 52.4269 47.0266 118.7045 8.2112 2.3049 -29.4327
# 4 10.1007 -28.6669 8.2112 37.4919 -6.9296 -2.3598
# 5 -4.1785 -1.0935 2.3049 -6.9296 57.6627 1.9344
# 6 -34.9948 -30.8385 -29.4327 -2.3598 1.9344 43.9582
#
#
#
# Elastic Compliance Matrix: (Units=1/GPa)
#
#
# Indices 1 2 3 4 5 6 
#
# 1 0.025829 -0.002786 -0.006406 -0.006661 0.000807 0.013925
# 2 -0.002786 0.009701 -0.002417 0.009108 0.001059 0.003411
# 3 -0.006406 -0.002417 0.012883 -0.003104 -0.001456 0.001727
# 4 -0.006661 0.009108 -0.003104 0.036943 0.004227 0.000806
# 5 0.000807 0.001059 -0.001456 0.004227 0.017992 -0.000154
# 6 0.013925 0.003411 0.001727 0.000806 -0.000154 0.037434
#
#
# Mechanical properties :
#
#
# Convention : Reuss Voigt Hill
#
# Bulk Modulus (GPa) = 39.69329 70.67259 55.18294
# Shear Modulus (GPa) = 29.00236 42.61584 35.80910
#
# Velocity S-wave (km/s) = 3.41757 4.14273 3.79750
# Velocity P-wave (km/s) = 5.61768 7.16549 6.43826
#
# Compressibility (1/GPa) = 0.02519317
#
# Stress axis : x y z
#
# Youngs Moduli (GPa) = 38.71639 103.07841 77.62452
#
# Poissons Ratio (x) = 0.28723 0.49725
# Poissons Ratio (y) = 0.10788 0.18765
# Poissons Ratio (z) = 0.24801 0.24919
#
# Static dielectric constant tensor:
#      x y z
#    x 2.055140 0.028000 0.070570 
#    y 0.028000 1.998780 0.035360 
#    z 0.070570 0.035360 2.044820 
# 
# From -- ./inp_files/143044.got.cif
#   From: 2010.05.17/outbox.cif.g08.bks.cpg/sg2_72_cif.got.tgz:143044.got - 2010.06.03 11:33:40.
