data_PCOD9067903
_publ_section_title
;
Structure prediction by ZEFSAII (Michael W. Deem and Ramdas Pophale) SiO2 
 PCOD9067903
Probable space group: P -1
;
_chemical_formula_sum "Si O2"
_cell_formula_units_Z 16
_cell_length_a 8.474988
_cell_length_b 12.708078
_cell_length_c 9.263886
_cell_angle_alpha 87.843304
_cell_angle_beta 100.169823
_cell_angle_gamma 48.637299
_cell_volume 720.811821
_symmetry_space_group_name_H-M "P -1"
_symmetry_group_IT_number 2
_symmetry_cell_setting 'triclinic'
loop_
_space_group_symop_operation_xyz
x,y,z
-x,-y,-z
loop_
_atom_site_type_symbol
_atom_site_label
_atom_site_fract_x
_atom_site_fract_y
_atom_site_fract_z
Si Si1 0.491765 0.886890 0.319685
Si Si2 0.370686 0.397414 0.741770
Si Si3 0.153027 0.685226 0.535284
Si Si4 0.685192 0.210769 0.257256
Si Si5 0.279344 0.013554 0.576134
Si Si6 0.241163 0.440758 0.047844
Si Si7 0.179923 0.679999 0.199259
Si Si8 0.029981 0.097568 0.075981
O O1 0.628186 0.724602 0.300397
O O2 0.607974 0.946827 0.312715
O O3 0.441110 0.902684 0.482073
O O4 0.260846 0.993133 0.196942
O O5 0.221872 0.542381 0.616568
O O6 0.617745 0.329505 0.774755
O O7 0.300773 0.439273 0.893359
O O8 0.320984 0.698739 0.621703
O O9 0.135667 0.687581 0.360347
O O10 0.921368 0.836077 0.538488
O O11 0.446515 0.285604 0.155554
O O12 0.830544 0.195767 0.153088
O O13 0.794723 0.055502 0.343471
O O14 0.240743 0.544143 0.140965
O O15 0.000000 0.500000 0.000000
O O16 0.989775 0.809667 0.060214
O O17 0.000000 0.000000 0.000000
#
# Coordination Sequence:
#
# PCOD9067903 Si02
#       8
#     2   2   2   2   2   2   2   2
#     4  11  26  46  72 110 144 193 235 301 365 418
#     4  12  25  49  74 105 149 186 249 290 358 437
#     4  12  26  45  78 108 140 196 245 298 350 430
#     4  12  24  47  74 103 143 190 244 292 353 436
#     4  11  27  44  72 107 151 185 242 299 360 424
#     4  12  29  46  70 110 147 189 233 304 370 420
#     4  12  25  45  73 106 140 188 245 294 356 428
#     4  12  23  44  74 100 140 191 241 292 350 430
#
# _framework density 22.197194
#
# number of rings (size 3 to 8) (size 9 to 14) (size 15 to 20)
#    0.000    0.250    5.000    3.375    5.250    1.500 
#    0.000    1.875    0.000    0.000    0.000    0.000 
#    0.000    0.000    0.000    0.000    0.000    0.000 
#
# Total GULP energy -89520.897460 kJ/mol
# GULP energy per Si atom -5595.056091 kJ/mol
# Density = 2.214667 g / cm^3
# Si number density = 22.197194 Si / 1000 Ang^3
#
#
#
# Elastic Constant Matrix: (Units=GPa)
#
#
# Indices 1 2 3 4 5 6 
#
# 1 37.9165 16.4687 39.6242 -1.9507 21.7333 0.7433
# 2 16.4687 113.6354 64.1531 -6.5987 5.8066 14.5413
# 3 39.6242 64.1531 121.4974 6.3514 0.7782 13.4160
# 4 -1.9507 -6.5987 6.3514 50.5328 -6.4836 6.5772
# 5 21.7333 5.8066 0.7782 -6.4836 36.8676 1.3755
# 6 0.7433 14.5413 13.4160 6.5772 1.3755 31.5944
#
#
#
# Elastic Compliance Matrix: (Units=1/GPa)
#
#
# Indices 1 2 3 4 5 6 
#
# 1 0.088619 0.007560 -0.033791 0.000415 -0.053056 0.011008
# 2 0.007560 0.013993 -0.009653 0.002959 -0.005829 -0.002881
# 3 -0.033791 -0.009653 0.024975 -0.002291 0.020726 -0.005793
# 4 0.000415 0.002959 -0.002291 0.021560 0.003317 -0.005032
# 5 -0.053056 -0.005829 0.020726 0.003317 0.059768 -0.008163
# 6 0.011008 -0.002881 -0.005793 -0.005032 -0.008163 0.036581
#
#
# Mechanical properties :
#
#
# Convention : Reuss Voigt Hill
#
# Bulk Modulus (GPa) = 17.91519 57.06013 37.48766
# Shear Modulus (GPa) = 14.88675 33.98586 24.43630
#
# Velocity S-wave (km/s) = 2.59252 3.91716 3.32154
# Velocity P-wave (km/s) = 4.12916 6.79858 5.62453
#
# Compressibility (1/GPa) = 0.05581856
#
# Stress axis : x y z
#
# Youngs Moduli (GPa) = 11.28425 71.46680 40.04076
#
# Poissons Ratio (x) = -0.54029 1.35301
# Poissons Ratio (y) = -0.08531 0.38652
# Poissons Ratio (z) = 0.38130 0.68988
#
# Static dielectric constant tensor:
#      x y z
#    x 1.828650 -0.040470 0.007680 
#    y -0.040470 1.871220 -0.039390 
#    z 0.007680 -0.039390 1.828250 
# 
# From -- ./inp_files/182406.got.cif
#   From: 2010.05.17/outbox.cif.g08.bks.cpg/sg2_92_cif.got.tgz:182406.got - 2010.06.03 11:33:40.
