data_PCOD9067478
_publ_section_title
;
Structure prediction by ZEFSAII (Michael W. Deem and Ramdas Pophale) SiO2 
 PCOD9067478
Probable space group: P -1
;
_chemical_formula_sum "Si O2"
_cell_formula_units_Z 15
_cell_length_a 11.762318
_cell_length_b 13.141718
_cell_length_c 10.554461
_cell_angle_alpha 130.917841
_cell_angle_beta 36.602233
_cell_angle_gamma 146.498674
_cell_volume 536.413288
_symmetry_space_group_name_H-M "P -1"
_symmetry_group_IT_number 2
_symmetry_cell_setting 'triclinic'
loop_
_space_group_symop_operation_xyz
x,y,z
-x,-y,-z
loop_
_atom_site_type_symbol
_atom_site_label
_atom_site_fract_x
_atom_site_fract_y
_atom_site_fract_z
Si Si1 0.048819 0.380035 0.740470
Si Si2 0.119551 0.550522 0.292437
Si Si3 0.430962 0.014564 0.713320
Si Si4 0.000000 0.000000 0.000000
Si Si5 0.197746 0.244440 0.295955
Si Si6 0.454628 0.740729 0.825962
Si Si7 0.638995 0.622989 0.122888
Si Si8 0.327791 0.126356 0.518622
O O1 0.049152 0.486200 0.709394
O O2 0.111450 0.273701 0.527028
O O3 0.263650 0.529575 0.772037
O O4 0.758393 0.245655 0.949058
O O5 0.211367 0.443879 0.090650
O O6 0.000000 0.500000 0.500000
O O7 0.340102 0.773522 0.278548
O O8 0.460919 0.888372 0.657452
O O9 0.500000 0.000000 0.500000
O O10 0.150835 0.949191 0.901691
O O11 0.281575 0.218373 0.912115
O O12 0.397655 0.229617 0.154786
O O13 0.340225 0.423889 0.230076
O O14 0.933601 0.054329 0.319501
O O15 0.668367 0.866561 0.629649
O O16 0.647217 0.709913 0.319182
#
# Coordination Sequence:
#
# PCOD9067478 Si02
#       8
#     2   2   2   1   2   2   2   2
#     4  11  25  49  80 124 159 224 275 338 420 497
#     4  12  29  52  85 115 170 224 279 344 423 507
#     4  12  28  54  75 120 165 217 281 341 415 503
#     4  12  30  46  80 116 160 218 274 338 412 490
#     4  12  26  52  81 124 166 217 280 348 421 495
#     4  11  26  49  85 123 168 221 276 351 415 499
#     4  12  29  51  84 121 165 221 279 348 423 502
#     4  12  28  51  86 122 171 217 287 348 421 501
#
# _framework density 27.963512999999999
#
# number of rings (size 3 to 8) (size 9 to 14) (size 15 to 20)
#    0.000    0.267    5.333    1.600    7.467    1.067 
#    0.000    0.000    0.000    0.000    0.000    0.000 
#    0.000    0.000    0.000    0.000    0.000    0.000 
#
# Total GULP energy -83864.613574 kJ/mol
# GULP energy per Si atom -5590.974238 kJ/mol
# Density = 2.789987 g / cm^3
# Si number density = 27.963513 Si / 1000 Ang^3
#
#
#
# Elastic Constant Matrix: (Units=GPa)
#
#
# Indices 1 2 3 4 5 6 
#
# 1 131.0425 27.1985 21.9430 -1.0682 -13.5228 -7.1924
# 2 27.1985 177.5717 39.2679 1.6465 1.6002 -4.2325
# 3 21.9430 39.2679 174.9500 17.0866 -6.8387 -15.9620
# 4 -1.0682 1.6465 17.0866 46.5321 -1.3053 5.3712
# 5 -13.5228 1.6002 -6.8387 -1.3053 53.0332 -11.0510
# 6 -7.1924 -4.2325 -15.9620 5.3712 -11.0510 39.8166
#
#
#
# Elastic Compliance Matrix: (Units=1/GPa)
#
#
# Indices 1 2 3 4 5 6 
#
# 1 0.008315 -0.001132 -0.000557 0.000297 0.002466 0.001803
# 2 -0.001132 0.006090 -0.001305 0.000254 -0.000699 -0.000309
# 3 -0.000557 -0.001305 0.006692 -0.002754 0.001358 0.003192
# 4 0.000297 0.000254 -0.002754 0.022978 -0.000617 -0.004294
# 5 0.002466 -0.000699 0.001358 -0.000617 0.021094 0.006853
# 6 0.001803 -0.000309 0.003192 -0.004294 0.006853 0.029169
#
#
# Mechanical properties :
#
#
# Convention : Reuss Voigt Hill
#
# Bulk Modulus (GPa) = 66.18851 73.37588 69.78220
# Shear Modulus (GPa) = 47.45479 54.22002 50.83740
#
# Velocity S-wave (km/s) = 4.12397 4.40813 4.26842
# Velocity P-wave (km/s) = 6.81154 7.22535 7.02150
#
# Compressibility (1/GPa) = 0.01510836
#
# Stress axis : x y z
#
# Youngs Moduli (GPa) = 120.26160 164.19802 149.43253
#
# Poissons Ratio (x) = 0.18595 0.08321
# Poissons Ratio (y) = 0.13620 0.19504
# Poissons Ratio (z) = 0.06697 0.21431
#
# Static dielectric constant tensor:
#      x y z
#    x 2.389260 -0.391690 -0.557520 
#    y -0.391690 2.623750 0.369860 
#    z -0.557520 0.369860 2.608890 
# 
# From -- ./inp_files/433189.got.cif
#   From: 2010.05.17/outbox.cif.g08.bks.cpg/sg2_217_cif.got.tgz:433189.got - 2010.06.03 11:33:40.
