data_PCOD9067939
_publ_section_title
;
Structure prediction by ZEFSAII (Michael W. Deem and Ramdas Pophale) SiO2 
 PCOD9067939
Probable space group: P -1
;
_chemical_formula_sum "Si O2"
_cell_formula_units_Z 13
_cell_length_a 9.808108
_cell_length_b 12.755878
_cell_length_c 5.068978
_cell_angle_alpha 107.442372
_cell_angle_beta 112.804444
_cell_angle_gamma 66.342878
_cell_volume 527.614682
_symmetry_space_group_name_H-M "P -1"
_symmetry_group_IT_number 2
_symmetry_cell_setting 'triclinic'
loop_
_space_group_symop_operation_xyz
x,y,z
-x,-y,-z
loop_
_atom_site_type_symbol
_atom_site_label
_atom_site_fract_x
_atom_site_fract_y
_atom_site_fract_z
Si Si1 0.969242 0.126986 0.698908
Si Si2 0.495359 0.921760 0.189106
Si Si3 0.181068 0.274945 0.793485
Si Si4 0.216866 0.819282 0.890365
Si Si5 0.601212 0.400084 0.808039
Si Si6 0.000000 0.500000 0.500000
Si Si7 0.290016 0.442058 0.368252
O O1 0.927875 0.128580 0.976706
O O2 0.101682 0.184990 0.785547
O O3 0.826295 0.197565 0.454775
O O4 0.000000 0.000000 0.500000
O O5 0.645296 0.803851 0.224290
O O6 0.334116 0.893543 0.039919
O O7 0.500000 0.000000 0.500000
O O8 0.500000 0.000000 0.000000
O O9 0.069740 0.362498 0.565262
O O10 0.201483 0.364669 0.096807
O O11 0.304502 0.700903 0.011470
O O12 0.467509 0.369574 0.516234
O O13 0.699511 0.455724 0.735977
O O14 0.500000 0.500000 0.000000
O O15 0.179478 0.493758 0.569606
#
# Coordination Sequence:
#
# PCOD9067939 Si02
#       7
#     2   2   2   2   2   1   2
#     4  12  29  51  77 111 158 205 257 321 389 464
#     4  12  28  51  82 113 153 206 270 330 384 463
#     4  12  29  47  79 114 158 203 264 325 398 469
#     4  12  27  49  78 111 149 205 258 315 393 456
#     4  11  26  47  75 110 152 203 261 318 389 469
#     4  12  26  46  72 116 158 194 256 320 408 470
#     4  11  26  46  74 111 157 204 257 322 393 475
#
# _framework density 24.639196999999999
#
# number of rings (size 3 to 8) (size 9 to 14) (size 15 to 20)
#    0.000    0.308    0.000    7.385   17.231    0.000 
#    0.000    0.000    0.000    0.000    0.000    0.000 
#    0.000    0.000    0.000    0.000    0.000    0.000 
#
# Total GULP energy -72613.502520 kJ/mol
# GULP energy per Si atom -5585.654040 kJ/mol
# Density = 2.458312 g / cm^3
# Si number density = 24.639197 Si / 1000 Ang^3
#
#
#
# Elastic Constant Matrix: (Units=GPa)
#
#
# Indices 1 2 3 4 5 6 
#
# 1 139.4639 13.7886 7.5544 3.9595 11.3947 45.9591
# 2 13.7886 113.4018 4.2386 -27.8239 4.8708 14.9591
# 3 7.5544 4.2386 75.3531 1.6038 11.4304 4.4824
# 4 3.9595 -27.8239 1.6038 36.6732 13.2629 11.8672
# 5 11.3947 4.8708 11.4304 13.2629 24.4154 9.3540
# 6 45.9591 14.9591 4.4824 11.8672 9.3540 44.1851
#
#
#
# Elastic Compliance Matrix: (Units=1/GPa)
#
#
# Indices 1 2 3 4 5 6 
#
# 1 0.011580 0.002048 -0.000002 0.006113 -0.003943 -0.013545
# 2 0.002048 0.014567 0.000698 0.017567 -0.010002 -0.009733
# 3 -0.000002 0.000698 0.014475 0.003165 -0.008332 -0.000788
# 4 0.006113 0.017567 0.003165 0.058038 -0.031078 -0.021635
# 5 -0.003943 -0.010002 -0.008332 -0.031078 0.064410 0.003044
# 6 -0.013545 -0.009733 -0.000788 -0.021635 0.003044 0.045263
#
#
# Mechanical properties :
#
#
# Convention : Reuss Voigt Hill
#
# Bulk Modulus (GPa) = 21.68768 42.15355 31.92061
# Shear Modulus (GPa) = 22.91301 41.23055 32.07178
#
# Velocity S-wave (km/s) = 3.05280 4.09513 3.61176
# Velocity P-wave (km/s) = 4.60948 6.28534 5.51148
#
# Compressibility (1/GPa) = 0.04610912
#
# Stress axis : x y z
#
# Youngs Moduli (GPa) = 86.35312 68.64867 69.08331
#
# Poissons Ratio (x) = -0.14059 0.00017
# Poissons Ratio (y) = -0.17685 -0.04820
# Poissons Ratio (z) = 0.00021 -0.04789
#
# Static dielectric constant tensor:
#      x y z
#    x 2.899750 -0.655980 0.138950 
#    y -0.655980 2.385890 -0.084270 
#    z 0.138950 -0.084270 2.016510 
# 
# From -- ./inp_files/28587.got.cif
#   From: 2010.05.17/outbox.cif.g08.bks.cpg/sg2_15_cif.got.tgz:28587.got - 2010.06.03 11:33:40.
