data_PCOD9067218
_publ_section_title
;
Structure prediction by ZEFSAII (Michael W. Deem and Ramdas Pophale) SiO2 
 PCOD9067218
Probable space group: P -1
;
_chemical_formula_sum "Si O2"
_cell_formula_units_Z 16
_cell_length_a 8.480060
_cell_length_b 14.872412
_cell_length_c 14.949686
_cell_angle_alpha 134.389023
_cell_angle_beta 129.683566
_cell_angle_gamma 31.590091
_cell_volume 701.190399
_symmetry_space_group_name_H-M "P -1"
_symmetry_group_IT_number 2
_symmetry_cell_setting 'triclinic'
loop_
_space_group_symop_operation_xyz
x,y,z
-x,-y,-z
loop_
_atom_site_type_symbol
_atom_site_label
_atom_site_fract_x
_atom_site_fract_y
_atom_site_fract_z
Si Si1 0.872190 0.661096 0.497062
Si Si2 0.251513 0.777124 0.951775
Si Si3 0.117759 0.253860 0.099909
Si Si4 0.283243 0.697172 0.712106
Si Si5 0.773189 0.007611 0.190254
Si Si6 0.848118 0.038661 0.565749
Si Si7 0.088538 0.654183 0.384662
Si Si8 0.867916 0.582799 0.110163
O O1 0.512296 0.808115 0.462676
O O2 0.000000 0.500000 0.500000
O O3 0.991680 0.740006 0.633765
O O4 0.002661 0.603417 0.402310
O O5 0.387952 0.674484 0.834977
O O6 0.117866 0.709777 0.897285
O O7 0.512800 0.715565 0.065160
O O8 0.000000 0.000000 0.000000
O O9 0.425841 0.143642 0.189170
O O10 0.015412 0.419497 0.120791
O O11 0.172948 0.125855 0.953561
O O12 0.220059 0.863356 0.768150
O O13 0.556472 0.512410 0.626421
O O14 0.029081 0.907769 0.287364
O O15 0.000000 0.000000 0.500000
O O16 0.980098 0.842130 0.503400
O O17 0.925628 0.687275 0.255688
O O18 0.000000 0.500000 0.000000
#
# Coordination Sequence:
#
# PCOD9067218 Si02
#       8
#     2   2   2   2   2   2   2   2
#     4  12  30  49  78 111 147 199 251 308 379 448
#     4  12  27  45  73 112 147 197 247 309 369 445
#     4  11  26  46  78 105 149 198 245 314 359 452
#     4  12  25  48  76 107 153 196 250 307 376 440
#     4  11  25  48  74 107 147 194 254 301 377 429
#     4  12  30  48  76 112 147 197 245 312 376 449
#     4  12  27  50  77 106 152 198 247 315 369 448
#     4  12  27  48  73 112 150 195 250 305 383 440
#
# _framework density 22.818338000000001
#
# number of rings (size 3 to 8) (size 9 to 14) (size 15 to 20)
#    0.000    0.250    5.000    1.875   12.250    1.000 
#    0.000    0.000    0.000    0.000    0.000    0.000 
#    0.000    0.000    0.000    0.000    0.000    0.000 
#
# Total GULP energy -89526.378924 kJ/mol
# GULP energy per Si atom -5595.398683 kJ/mol
# Density = 2.276640 g / cm^3
# Si number density = 22.818338 Si / 1000 Ang^3
#
#
#
# Elastic Constant Matrix: (Units=GPa)
#
#
# Indices 1 2 3 4 5 6 
#
# 1 109.8239 27.9159 13.1609 -11.0177 -5.7633 -4.8217
# 2 27.9159 93.3402 15.2547 -6.8349 3.9890 -17.6614
# 3 13.1609 15.2547 115.6883 -19.0716 9.2167 -11.6967
# 4 -11.0177 -6.8349 -19.0716 38.6238 -5.8309 13.8563
# 5 -5.7633 3.9890 9.2167 -5.8309 45.0745 -6.1992
# 6 -4.8217 -17.6614 -11.6967 13.8563 -6.1992 38.1857
#
#
#
# Elastic Compliance Matrix: (Units=1/GPa)
#
#
# Indices 1 2 3 4 5 6 
#
# 1 0.010282 -0.003047 -0.000565 0.002753 0.001923 -0.000971
# 2 -0.003047 0.012769 -0.000910 -0.001157 -0.000721 0.005545
# 3 -0.000565 -0.000910 0.009670 0.003957 -0.001345 0.000816
# 4 0.002753 -0.001157 0.003957 0.032515 0.002424 -0.010381
# 5 0.001923 -0.000721 -0.001345 0.002424 0.023416 0.002419
# 6 -0.000971 0.005545 0.000816 -0.010381 0.002419 0.033039
#
#
# Mechanical properties :
#
#
# Convention : Reuss Voigt Hill
#
# Bulk Modulus (GPa) = 42.23554 47.94618 45.09086
# Shear Modulus (GPa) = 36.06752 41.87817 38.97284
#
# Velocity S-wave (km/s) = 3.98004 4.28867 4.13723
# Velocity P-wave (km/s) = 6.29846 6.75140 6.52886
#
# Compressibility (1/GPa) = 0.02367674
#
# Stress axis : x y z
#
# Youngs Moduli (GPa) = 97.25501 78.31587 103.41116
#
# Poissons Ratio (x) = 0.23864 0.05847
# Poissons Ratio (y) = 0.29634 0.09408
# Poissons Ratio (z) = 0.05499 0.07125
#
# Static dielectric constant tensor:
#      x y z
#    x 1.787080 0.001160 -0.027940 
#    y 0.001160 1.854190 0.002450 
#    z -0.027940 0.002450 1.854670 
# 
# From -- ./inp_files/297648.got.cif
#   From: 2010.05.17/outbox.cif.g08.bks.cpg/sg2_149_cif.got.tgz:297648.got - 2010.06.03 11:33:40.
