data_PCOD9067174
_publ_section_title
;
Structure prediction by ZEFSAII (Michael W. Deem and Ramdas Pophale) SiO2 
 PCOD9067174
Probable space group: P -1
;
_chemical_formula_sum "Si O2"
_cell_formula_units_Z 12
_cell_length_a 12.956240
_cell_length_b 24.860081
_cell_length_c 5.434467
_cell_angle_alpha 82.031947
_cell_angle_beta 75.791405
_cell_angle_gamma 18.125312
_cell_volume 501.212512
_symmetry_space_group_name_H-M "P -1"
_symmetry_group_IT_number 2
_symmetry_cell_setting 'triclinic'
loop_
_space_group_symop_operation_xyz
x,y,z
-x,-y,-z
loop_
_atom_site_type_symbol
_atom_site_label
_atom_site_fract_x
_atom_site_fract_y
_atom_site_fract_z
Si Si1 0.341659 0.015013 0.575440
Si Si2 0.188557 0.892504 0.710683
Si Si3 0.194491 0.321994 0.442827
Si Si4 0.199906 0.774284 0.576283
Si Si5 0.782003 0.512465 0.060890
Si Si6 0.419833 0.600759 0.966771
O O1 0.148808 0.088517 0.388978
O O2 0.500000 0.000000 0.500000
O O3 0.614707 0.831170 0.574572
O O4 0.990885 0.187668 0.847979
O O5 0.540264 0.757681 0.607605
O O6 0.170946 0.835985 0.750164
O O7 0.000000 0.000000 0.500000
O O8 0.000000 0.000000 0.000000
O O9 0.030097 0.407320 0.211020
O O10 0.925310 0.460998 0.744997
O O11 0.386914 0.714943 0.275841
O O12 0.459669 0.605177 0.666506
O O13 0.711102 0.484303 0.054726
O O14 0.500000 0.500000 0.000000
#
# Coordination Sequence:
#
# PCOD9067174 Si02
#       6
#     2   2   2   2   2   2
#     4  11  26  42  74 107 143 190 250 297 364 431
#     4  12  26  47  76 110 150 190 242 305 366 431
#     4  12  25  47  73 111 144 193 242 303 354 441
#     4  11  26  48  74 106 150 195 244 299 374 433
#     4  11  26  46  72 107 150 185 247 292 372 425
#     4  11  25  48  72 103 153 195 239 304 367 434
#
# _framework density 23.941942000000001
#
# number of rings (size 3 to 8) (size 9 to 14) (size 15 to 20)
#    0.000    0.667    3.333    3.000    7.000    3.333 
#    0.000    0.000    0.000    0.000    0.000    0.000 
#    0.000    0.000    0.000    0.000    0.000    0.000 
#
# Total GULP energy -66874.486122 kJ/mol
# GULP energy per Si atom -5572.873844 kJ/mol
# Density = 2.388745 g / cm^3
# Si number density = 23.941942 Si / 1000 Ang^3
#
#
#
# Elastic Constant Matrix: (Units=GPa)
#
#
# Indices 1 2 3 4 5 6 
#
# 1 201.9024 56.8122 42.1617 -3.3894 8.4226 -29.4699
# 2 56.8122 100.4027 25.2147 -30.4008 4.7183 -17.8466
# 3 42.1617 25.2147 142.9001 -9.8636 -1.4051 -11.4461
# 4 -3.3894 -30.4008 -9.8636 34.2919 -5.1801 9.2372
# 5 8.4226 4.7183 -1.4051 -5.1801 31.4311 -2.0168
# 6 -29.4699 -17.8466 -11.4461 9.2372 -2.0168 63.6505
#
#
#
# Elastic Compliance Matrix: (Units=1/GPa)
#
#
# Indices 1 2 3 4 5 6 
#
# 1 0.006804 -0.004373 -0.001382 -0.004488 -0.001823 0.002269
# 2 -0.004373 0.017039 -0.000662 0.014483 0.001008 0.000564
# 3 -0.001382 -0.000662 0.007669 0.001550 0.001091 0.000364
# 4 -0.004488 0.014483 0.001550 0.043982 0.006094 -0.003928
# 5 -0.001823 0.001008 0.001091 0.006094 0.033193 -0.000198
# 6 0.002269 0.000564 0.000364 -0.003928 -0.000198 0.017549
#
#
# Mechanical properties :
#
#
# Convention : Reuss Voigt Hill
#
# Bulk Modulus (GPa) = 53.53563 77.06473 65.30018
# Shear Modulus (GPa) = 34.41302 47.27581 40.84442
#
# Velocity S-wave (km/s) = 3.79536 4.44847 4.13483
# Velocity P-wave (km/s) = 6.45100 7.65789 7.08021
#
# Compressibility (1/GPa) = 0.01867915
#
# Stress axis : x y z
#
# Youngs Moduli (GPa) = 146.97718 58.69060 130.39292
#
# Poissons Ratio (x) = 0.25664 0.18017
# Poissons Ratio (y) = 0.64271 0.08626
# Poissons Ratio (z) = 0.20309 0.03882
#
# Static dielectric constant tensor:
#      x y z
#    x 2.093900 -0.067700 -0.024880 
#    y -0.067700 1.983450 0.058410 
#    z -0.024880 0.058410 2.048320 
# 
# From -- ./inp_files/28793.got.cif
#   From: 2010.05.17/outbox.cif.g08.bks.cpg/sg2_15_cif.got.tgz:28793.got - 2010.06.03 11:33:40.
