data_PCOD9067913
_publ_section_title
;
Structure prediction by ZEFSAII (Michael W. Deem and Ramdas Pophale) SiO2 
 PCOD9067913
Probable space group: P -1
;
_chemical_formula_sum "Si O2"
_cell_formula_units_Z 12
_cell_length_a 10.568119
_cell_length_b 13.385495
_cell_length_c 12.988854
_cell_angle_alpha 158.261520
_cell_angle_beta 68.557084
_cell_angle_gamma 123.380476
_cell_volume 501.447550
_symmetry_space_group_name_H-M "P -1"
_symmetry_group_IT_number 2
_symmetry_cell_setting 'triclinic'
loop_
_space_group_symop_operation_xyz
x,y,z
-x,-y,-z
loop_
_atom_site_type_symbol
_atom_site_label
_atom_site_fract_x
_atom_site_fract_y
_atom_site_fract_z
Si Si1 0.017124 0.248736 0.818410
Si Si2 0.286334 0.277877 0.444815
Si Si3 0.482523 0.565651 0.288567
Si Si4 0.870332 0.621409 0.725911
Si Si5 0.191121 0.722405 0.795573
Si Si6 0.401269 0.770066 0.211507
O O1 0.874146 0.033094 0.740121
O O2 0.209355 0.469371 0.014302
O O3 0.000000 0.000000 0.500000
O O4 0.000000 0.500000 0.000000
O O5 0.444116 0.461289 0.652209
O O6 0.235818 0.513125 0.647404
O O7 0.301595 0.098940 0.170935
O O8 0.284952 0.413373 0.207687
O O9 0.590025 0.968477 0.619724
O O10 0.516800 0.388265 0.020200
O O11 0.788975 0.340910 0.390169
O O12 0.992228 0.581410 0.721039
O O13 0.000000 0.000000 0.000000
O O14 0.500000 0.000000 0.500000
#
# Coordination Sequence:
#
# PCOD9067913 Si02
#       6
#     2   2   2   2   2   2
#     4  12  23  46  73 104 150 191 238 294 366 433
#     4  12  24  45  76 107 140 192 243 296 363 433
#     4  12  28  47  74 107 149 188 246 309 360 431
#     4  11  27  51  72 105 149 190 242 304 373 435
#     4  11  26  46  73 106 139 192 240 296 367 434
#     4  12  27  47  71 111 148 196 243 301 363 435
#
# _framework density 23.930720999999998
#
# number of rings (size 3 to 8) (size 9 to 14) (size 15 to 20)
#    0.000    0.333    5.000    2.500    7.000    1.333 
#    0.000    0.000    0.000    0.000    0.000    0.000 
#    0.000    0.000    0.000    0.000    0.000    0.000 
#
# Total GULP energy -67286.539608 kJ/mol
# GULP energy per Si atom -5607.211634 kJ/mol
# Density = 2.387625 g / cm^3
# Si number density = 23.930721 Si / 1000 Ang^3
#
#
#
# Elastic Constant Matrix: (Units=GPa)
#
#
# Indices 1 2 3 4 5 6 
#
# 1 144.1196 27.7828 26.8606 0.0615 -26.5171 -7.3857
# 2 27.7828 79.4251 13.2310 1.6038 -7.2854 19.5481
# 3 26.8606 13.2310 110.8453 -15.7686 -17.3467 17.0595
# 4 0.0615 1.6038 -15.7686 43.5989 -3.2986 -3.2912
# 5 -26.5171 -7.2854 -17.3467 -3.2986 51.7093 -1.9254
# 6 -7.3857 19.5481 17.0595 -3.2912 -1.9254 40.1984
#
#
#
# Elastic Compliance Matrix: (Units=1/GPa)
#
#
# Indices 1 2 3 4 5 6 
#
# 1 0.008833 -0.003512 -0.001809 0.000057 0.003591 0.004275
# 2 -0.003512 0.015933 0.000108 -0.001179 0.000087 -0.008532
# 3 -0.001809 0.000108 0.011178 0.003909 0.002913 -0.004669
# 4 0.000057 -0.001179 0.003909 0.024686 0.002789 0.001080
# 5 0.003591 0.000087 0.002913 0.002789 0.022373 0.000681
# 6 0.004275 -0.008532 -0.004669 0.001080 0.000681 0.031913
#
#
# Mechanical properties :
#
#
# Convention : Reuss Voigt Hill
#
# Bulk Modulus (GPa) = 39.19046 52.23764 45.71405
# Shear Modulus (GPa) = 37.35609 44.86904 41.11256
#
# Velocity S-wave (km/s) = 3.95525 4.33477 4.14935
# Velocity P-wave (km/s) = 6.10498 6.85053 6.48847
#
# Compressibility (1/GPa) = 0.02551641
#
# Stress axis : x y z
#
# Youngs Moduli (GPa) = 113.21623 62.76425 89.46491
#
# Poissons Ratio (x) = 0.22045 0.16185
# Poissons Ratio (y) = 0.39765 -0.00968
# Poissons Ratio (z) = 0.20482 -0.00679
#
# Static dielectric constant tensor:
#      x y z
#    x 1.914260 -0.009250 0.018170 
#    y -0.009250 1.899010 -0.003900 
#    z 0.018170 -0.003900 1.889060 
# 
# From -- ./inp_files/29415.got.cif
#   From: 2010.05.17/outbox.cif.g08.bks.cpg/sg2_15_cif.got.tgz:29415.got - 2010.06.03 11:33:40.
