data_PCOD9067344
_publ_section_title
;
Structure prediction by ZEFSAII (Michael W. Deem and Ramdas Pophale) SiO2 
 PCOD9067344
Probable space group: P -1
;
_chemical_formula_sum "Si O2"
_cell_formula_units_Z 14
_cell_length_a 9.435044
_cell_length_b 8.180762
_cell_length_c 9.409672
_cell_angle_alpha 82.471405
_cell_angle_beta 89.635995
_cell_angle_gamma 48.096435
_cell_volume 532.647461
_symmetry_space_group_name_H-M "P -1"
_symmetry_group_IT_number 2
_symmetry_cell_setting 'triclinic'
loop_
_space_group_symop_operation_xyz
x,y,z
-x,-y,-z
loop_
_atom_site_type_symbol
_atom_site_label
_atom_site_fract_x
_atom_site_fract_y
_atom_site_fract_z
Si Si1 0.904266 0.534167 0.813756
Si Si2 0.566609 0.265957 0.984679
Si Si3 0.316611 0.326736 0.721119
Si Si4 0.676614 0.526632 0.585725
Si Si5 0.633950 0.066384 0.301621
Si Si6 0.985914 0.044163 0.661594
Si Si7 0.942149 0.827233 0.923643
O O1 0.790456 0.576087 0.669410
O O2 0.831071 0.754495 0.869523
O O3 0.119231 0.419296 0.781622
O O4 0.918330 0.368345 0.940686
O O5 0.449443 0.288731 0.849705
O O6 0.791423 0.066937 0.970861
O O7 0.500000 0.500000 0.000000
O O8 0.540732 0.180575 0.137346
O O9 0.289839 0.480394 0.580126
O O10 0.393552 0.105950 0.660590
O O11 0.460916 0.736068 0.606843
O O12 0.772295 0.281882 0.663058
O O13 0.857635 0.937513 0.310264
O O14 0.027764 0.859088 0.786358
O O15 0.000000 0.000000 0.500000
#
# Coordination Sequence:
#
# PCOD9067344 Si02
#       7
#     2   2   2   2   2   2   2
#     4  11  25  48  82 111 148 206 261 316 382 456
#     4  12  28  48  76 113 155 199 258 318 382 460
#     4  12  26  50  78 113 156 202 260 318 378 459
#     4  12  27  49  81 111 156 202 254 319 390 450
#     4  12  28  49  77 115 152 204 262 310 384 460
#     4  12  29  49  76 114 160 199 252 319 390 458
#     4  11  26  49  78 109 156 200 259 312 389 450
#
# _framework density 26.283801
#
# number of rings (size 3 to 8) (size 9 to 14) (size 15 to 20)
#    0.000    0.286    2.857    3.857   12.000    2.857 
#    0.000    0.000    0.000    0.000    0.000    0.000 
#    0.000    0.000    0.000    0.000    0.000    0.000 
#
# Total GULP energy -78565.036812 kJ/mol
# GULP energy per Si atom -5611.788344 kJ/mol
# Density = 2.622398 g / cm^3
# Si number density = 26.283801 Si / 1000 Ang^3
#
#
#
# Elastic Constant Matrix: (Units=GPa)
#
#
# Indices 1 2 3 4 5 6 
#
# 1 83.4513 24.8305 38.4633 -8.0484 16.3192 7.9160
# 2 24.8305 149.9442 25.3246 8.8848 -7.8560 13.0869
# 3 38.4633 25.3246 164.8407 -10.2087 2.3439 12.5072
# 4 -8.0484 8.8848 -10.2087 44.8968 1.7596 -5.6263
# 5 16.3192 -7.8560 2.3439 1.7596 49.5334 4.7605
# 6 7.9160 13.0869 12.5072 -5.6263 4.7605 36.6938
#
#
#
# Elastic Compliance Matrix: (Units=1/GPa)
#
#
# Indices 1 2 3 4 5 6 
#
# 1 0.015432 -0.002476 -0.002949 0.002758 -0.005405 -0.000317
# 2 -0.002476 0.007692 -0.000590 -0.002534 0.002414 -0.002710
# 3 -0.002949 -0.000590 0.007008 0.000971 0.000654 -0.001478
# 4 0.002758 -0.002534 0.000971 0.024094 -0.002598 0.004009
# 5 -0.005405 0.002414 0.000654 -0.002598 0.022727 -0.003265
# 6 -0.000317 -0.002710 -0.001478 0.004009 -0.003265 0.029830
#
#
# Mechanical properties :
#
#
# Convention : Reuss Voigt Hill
#
# Bulk Modulus (GPa) = 55.24053 63.94145 59.59099
# Shear Modulus (GPa) = 40.04914 46.86600 43.45757
#
# Velocity S-wave (km/s) = 3.90772 4.22723 4.07061
# Velocity P-wave (km/s) = 6.43607 6.94306 6.69436
#
# Compressibility (1/GPa) = 0.01810265
#
# Stress axis : x y z
#
# Youngs Moduli (GPa) = 64.80049 130.00516 142.69297
#
# Poissons Ratio (x) = 0.32195 0.42075
# Poissons Ratio (y) = 0.16048 0.08412
# Poissons Ratio (z) = 0.19108 0.07664
#
# Static dielectric constant tensor:
#      x y z
#    x 2.034870 -0.028010 -0.011940 
#    y -0.028010 2.129890 0.053780 
#    z -0.011940 0.053780 1.979030 
# 
# From -- ./inp_files/243994.got.cif
#   From: 2010.05.17/outbox.cif.g08.bks.cpg/sg2_122_cif.got.tgz:243994.got - 2010.06.03 11:33:40.
