data_PCOD9067032
_publ_section_title
;
Structure prediction by ZEFSAII (Michael W. Deem and Ramdas Pophale) SiO2 
 PCOD9067032
Probable space group: P -1
;
_chemical_formula_sum "Si O2"
_cell_formula_units_Z 14
_cell_length_a 11.665679
_cell_length_b 9.078218
_cell_length_c 8.498092
_cell_angle_alpha 128.085947
_cell_angle_beta 119.759531
_cell_angle_gamma 70.791933
_cell_volume 614.596268
_symmetry_space_group_name_H-M "P -1"
_symmetry_group_IT_number 2
_symmetry_cell_setting 'triclinic'
loop_
_space_group_symop_operation_xyz
x,y,z
-x,-y,-z
loop_
_atom_site_type_symbol
_atom_site_label
_atom_site_fract_x
_atom_site_fract_y
_atom_site_fract_z
Si Si1 0.765467 0.582220 0.433904
Si Si2 0.879197 0.231136 0.812642
Si Si3 0.059912 0.533077 0.253628
Si Si4 0.358792 0.698989 0.082844
Si Si5 0.154803 0.159061 0.607864
Si Si6 0.554283 0.956421 0.183713
Si Si7 0.497109 0.354741 0.543985
O O1 0.873407 0.469678 0.534484
O O2 0.820931 0.749741 0.484513
O O3 0.656035 0.664023 0.531796
O O4 0.700594 0.444833 0.174551
O O5 0.841430 0.392051 0.762753
O O6 0.765880 0.203599 0.846885
O O7 0.902754 0.041556 0.605668
O O8 0.002327 0.330221 0.044950
O O9 0.939609 0.686768 0.271438
O O10 0.456533 0.832231 0.141357
O O11 0.436453 0.595192 0.211073
O O12 0.296756 0.130621 0.770670
O O13 0.560051 0.156804 0.404533
O O14 0.500000 0.000000 0.000000
O O15 0.500000 0.500000 0.500000
#
# Coordination Sequence:
#
# PCOD9067032 Si02
#       7
#     2   2   2   2   2   2   2
#     4  12  26  44  75 107 148 192 247 301 370 440
#     4  11  25  47  76 100 150 193 250 303 364 435
#     4  11  27  50  71 110 144 202 249 299 371 438
#     4  12  24  47  73 109 149 191 242 310 371 439
#     4  12  25  48  74 105 149 190 246 306 361 445
#     4  12  28  46  75 113 145 194 247 305 383 441
#     4  12  25  45  73 107 149 192 246 305 375 438
#
# _framework density 22.779181000000001
#
# number of rings (size 3 to 8) (size 9 to 14) (size 15 to 20)
#    0.000    0.286    4.286    4.286    4.000    2.857 
#    2.571    0.000    0.000    0.000    0.000    0.000 
#    0.000    0.000    0.000    0.000    0.000    0.000 
#
# Total GULP energy -78308.167406 kJ/mol
# GULP energy per Si atom -5593.440529 kJ/mol
# Density = 2.272733 g / cm^3
# Si number density = 22.779181 Si / 1000 Ang^3
#
#
#
# Elastic Constant Matrix: (Units=GPa)
#
#
# Indices 1 2 3 4 5 6 
#
# 1 97.8969 37.3861 24.4294 -11.6940 -2.0367 5.7038
# 2 37.3861 116.0180 61.3934 -29.5614 10.0373 10.0795
# 3 24.4294 61.3934 143.1028 -14.2497 11.4729 3.9931
# 4 -11.6940 -29.5614 -14.2497 41.3985 9.4338 -4.1003
# 5 -2.0367 10.0373 11.4729 9.4338 26.5835 6.2585
# 6 5.7038 10.0795 3.9931 -4.1003 6.2585 53.2333
#
#
#
# Elastic Compliance Matrix: (Units=1/GPa)
#
#
# Indices 1 2 3 4 5 6 
#
# 1 0.011881 -0.003722 -0.000668 -0.000283 0.002912 -0.000882
# 2 -0.003722 0.015417 -0.004331 0.010178 -0.007731 -0.000503
# 3 -0.000668 -0.004331 0.009220 0.000570 -0.002730 0.000565
# 4 -0.000283 0.010178 0.000570 0.035811 -0.017496 0.002876
# 5 0.002912 -0.007731 -0.002730 -0.017496 0.049515 -0.005813
# 6 -0.000882 -0.000503 0.000565 0.002876 -0.005813 0.019837
#
#
# Mechanical properties :
#
#
# Convention : Reuss Voigt Hill
#
# Bulk Modulus (GPa) = 52.42704 67.04840 59.73772
# Shear Modulus (GPa) = 30.21433 39.83033 35.02233
#
# Velocity S-wave (km/s) = 3.64593 4.18609 3.92531
# Velocity P-wave (km/s) = 6.38663 7.27066 6.84293
#
# Compressibility (1/GPa) = 0.01907413
#
# Stress axis : x y z
#
# Youngs Moduli (GPa) = 84.16531 64.86471 108.45784
#
# Poissons Ratio (x) = 0.24146 0.07249
# Poissons Ratio (y) = 0.31330 0.46976
# Poissons Ratio (z) = 0.05625 0.28094
#
# Static dielectric constant tensor:
#      x y z
#    x 1.926830 -0.006580 0.000720 
#    y -0.006580 1.838810 -0.008530 
#    z 0.000720 -0.008530 1.848950 
# 
# From -- ./inp_files/246180.got.cif
#   From: 2010.05.17/outbox.cif.g08.bks.cpg/sg2_124_cif.got.tgz:246180.got - 2010.06.03 11:33:40.
