data_PCOD9067157
_publ_section_title
;
Structure prediction by ZEFSAII (Michael W. Deem and Ramdas Pophale) SiO2 
 PCOD9067157
Probable space group: P -1
;
_chemical_formula_sum "Si O2"
_cell_formula_units_Z 14
_cell_length_a 8.882441
_cell_length_b 8.834587
_cell_length_c 8.737616
_cell_angle_alpha 110.998662
_cell_angle_beta 71.467114
_cell_angle_gamma 107.146589
_cell_volume 594.120170
_symmetry_space_group_name_H-M "P -1"
_symmetry_group_IT_number 2
_symmetry_cell_setting 'triclinic'
loop_
_space_group_symop_operation_xyz
x,y,z
-x,-y,-z
loop_
_atom_site_type_symbol
_atom_site_label
_atom_site_fract_x
_atom_site_fract_y
_atom_site_fract_z
Si Si1 0.565029 0.140901 0.150013
Si Si2 0.655303 0.009508 0.565855
Si Si3 0.475978 0.519785 0.828367
Si Si4 0.169369 0.355913 0.311067
Si Si5 0.924643 0.331196 0.668132
Si Si6 0.815330 0.930982 0.011303
Si Si7 0.193928 0.243194 0.742406
O O1 0.585620 0.311108 0.117498
O O2 0.432520 0.106884 0.312878
O O3 0.728198 0.083165 0.124441
O O4 0.500000 0.000000 0.000000
O O5 0.757144 0.192440 0.648394
O O6 0.500000 0.000000 0.500000
O O7 0.786853 0.918945 0.415010
O O8 0.648101 0.540086 0.693855
O O9 0.347947 0.389792 0.724614
O O10 0.500000 0.500000 0.000000
O O11 0.100318 0.479184 0.260678
O O12 0.049186 0.326471 0.483665
O O13 0.196729 0.179315 0.176719
O O14 0.024404 0.289973 0.768807
O O15 0.771146 0.797133 0.109225
O O16 0.000000 0.000000 0.000000
#
# Coordination Sequence:
#
# PCOD9067157 Si02
#       7
#     2   2   2   2   2   2   2
#     4  12  27  46  76 108 141 198 241 302 366 429
#     4  12  26  48  75 109 151 191 247 302 366 441
#     4  12  26  49  75 107 150 189 252 301 364 439
#     4  11  25  48  71 105 153 194 242 301 367 435
#     4  11  28  45  74 109 149 194 242 305 368 431
#     4  12  27  45  71 106 148 188 245 300 362 436
#     4  12  26  46  75 108 144 197 240 302 368 425
#
# _framework density 23.564256
#
# number of rings (size 3 to 8) (size 9 to 14) (size 15 to 20)
#    0.000    0.286    4.286    3.000    6.000    4.000 
#    0.000    0.000    0.000    0.000    0.000    0.000 
#    0.000    0.000    0.000    0.000    0.000    0.000 
#
# Total GULP energy -78140.412659 kJ/mol
# GULP energy per Si atom -5581.458047 kJ/mol
# Density = 2.351062 g / cm^3
# Si number density = 23.564256 Si / 1000 Ang^3
#
#
#
# Elastic Constant Matrix: (Units=GPa)
#
#
# Indices 1 2 3 4 5 6 
#
# 1 132.8375 35.4974 -4.8009 -10.1702 1.4879 -8.9047
# 2 35.4974 96.2960 4.6762 2.9646 5.1534 -9.6781
# 3 -4.8009 4.6762 50.8333 -5.2277 -4.4741 -13.3935
# 4 -10.1702 2.9646 -5.2277 25.8004 -1.7622 3.1294
# 5 1.4879 5.1534 -4.4741 -1.7622 34.3181 -0.5641
# 6 -8.9047 -9.6781 -13.3935 3.1294 -0.5641 55.2193
#
#
#
# Elastic Compliance Matrix: (Units=1/GPa)
#
#
# Indices 1 2 3 4 5 6 
#
# 1 0.008901 -0.003429 0.001924 0.004205 0.000613 0.001069
# 2 -0.003429 0.012074 -0.001605 -0.003366 -0.002024 0.001344
# 3 0.001924 -0.001605 0.022177 0.005043 0.003393 0.005157
# 4 0.004205 -0.003366 0.005043 0.042166 0.003128 -0.001046
# 5 0.000613 -0.002024 0.003393 0.003128 0.030031 0.000696
# 6 0.001069 0.001344 0.005157 -0.001046 0.000696 0.019835
#
#
# Mechanical properties :
#
#
# Convention : Reuss Voigt Hill
#
# Bulk Modulus (GPa) = 27.07682 38.96802 33.02242
# Shear Modulus (GPa) = 32.52803 39.37384 35.95094
#
# Velocity S-wave (km/s) = 3.71940 4.09212 3.91020
# Velocity P-wave (km/s) = 5.47365 6.23699 5.86775
#
# Compressibility (1/GPa) = 0.03693196
#
# Stress axis : x y z
#
# Youngs Moduli (GPa) = 112.35162 82.82446 45.09090
#
# Poissons Ratio (x) = 0.28403 -0.08676
# Poissons Ratio (y) = 0.38529 0.07236
# Poissons Ratio (z) = -0.21618 0.13291
#
# Static dielectric constant tensor:
#      x y z
#    x 1.882320 0.057650 0.084580 
#    y 0.057650 1.850480 -0.003620 
#    z 0.084580 -0.003620 1.841180 
# 
# From -- ./inp_files/159591.got.cif
#   From: 2010.05.17/outbox.cif.g08.bks.cpg/sg2_80_cif.got.tgz:159591.got - 2010.06.03 11:33:40.
