data_PCOD9067224
_publ_section_title
;
Structure prediction by ZEFSAII (Michael W. Deem and Ramdas Pophale) SiO2 
 PCOD9067224
Probable space group: P -1
;
_chemical_formula_sum "Si O2"
_cell_formula_units_Z 12
_cell_length_a 9.767812
_cell_length_b 8.805427
_cell_length_c 7.664610
_cell_angle_alpha 97.718269
_cell_angle_beta 62.470928
_cell_angle_gamma 120.030290
_cell_volume 502.059224
_symmetry_space_group_name_H-M "P -1"
_symmetry_group_IT_number 2
_symmetry_cell_setting 'triclinic'
loop_
_space_group_symop_operation_xyz
x,y,z
-x,-y,-z
loop_
_atom_site_type_symbol
_atom_site_label
_atom_site_fract_x
_atom_site_fract_y
_atom_site_fract_z
Si Si1 0.759250 0.061264 0.394848
Si Si2 0.932337 0.790105 0.514320
Si Si3 0.406175 0.813155 0.744677
Si Si4 0.578480 0.690751 0.896161
Si Si5 0.194285 0.167085 0.896118
Si Si6 0.870888 0.556210 0.184194
O O1 0.734039 0.129931 0.233260
O O2 0.938130 0.204223 0.405290
O O3 0.588843 0.989504 0.609248
O O4 0.743129 0.873975 0.328238
O O5 0.726477 0.703051 0.674740
O O6 0.954539 0.692838 0.317631
O O7 0.000000 0.000000 0.500000
O O8 0.450183 0.753848 0.893640
O O9 0.309696 0.620384 0.675574
O O10 0.500000 0.500000 0.000000
O O11 0.689275 0.821932 0.007053
O O12 0.184700 0.343068 0.907236
O O13 0.000000 0.000000 0.000000
O O14 0.000000 0.500000 0.000000
#
# Coordination Sequence:
#
# PCOD9067224 Si02
#       6
#     2   2   2   2   2   2
#     4  11  25  48  74 108 146 199 247 309 370 450
#     4  12  24  49  80 104 146 205 250 296 378 449
#     4  11  26  47  68 111 150 188 250 315 369 433
#     4  12  25  43  74 113 145 191 244 308 373 442
#     4  12  23  44  73 104 146 194 245 295 377 443
#     4  12  27  47  74 108 150 194 253 313 368 440
#
# _framework density 23.90156
#
# number of rings (size 3 to 8) (size 9 to 14) (size 15 to 20)
#    0.000    0.333    6.667    1.000    2.333    2.667 
#    6.000    0.000    0.000    0.000    0.000    0.000 
#    0.000    0.000    0.000    0.000    0.000    0.000 
#
# Total GULP energy -66893.916796 kJ/mol
# GULP energy per Si atom -5574.493066 kJ/mol
# Density = 2.384716 g / cm^3
# Si number density = 23.901560 Si / 1000 Ang^3
#
#
#
# Elastic Constant Matrix: (Units=GPa)
#
#
# Indices 1 2 3 4 5 6 
#
# 1 153.6917 38.0248 34.5290 14.6669 44.0801 2.5515
# 2 38.0248 117.7316 33.9759 2.6087 16.9781 1.4886
# 3 34.5290 33.9759 80.9751 10.0509 14.4014 0.6660
# 4 14.6669 2.6087 10.0509 56.2621 10.4732 10.3958
# 5 44.0801 16.9781 14.4014 10.4732 34.7943 0.3944
# 6 2.5515 1.4886 0.6660 10.3958 0.3944 34.8960
#
#
#
# Elastic Compliance Matrix: (Units=1/GPa)
#
#
# Indices 1 2 3 4 5 6 
#
# 1 0.010744 -0.001143 -0.001916 -0.000023 -0.012247 -0.000555
# 2 -0.001143 0.010197 -0.003487 0.000993 -0.002377 -0.000554
# 3 -0.001916 -0.003487 0.015137 -0.001853 -0.001585 0.000570
# 4 -0.000023 0.000993 -0.001853 0.020231 -0.005710 -0.005968
# 5 -0.012247 -0.002377 -0.001585 -0.005710 0.047765 0.002188
# 6 -0.000555 -0.000554 0.000570 -0.005968 0.002188 0.030463
#
#
# Mechanical properties :
#
#
# Convention : Reuss Voigt Hill
#
# Bulk Modulus (GPa) = 43.50691 62.82862 53.16777
# Shear Modulus (GPa) = 32.19761 41.58173 36.88967
#
# Velocity S-wave (km/s) = 3.67426 4.17551 3.93288
# Velocity P-wave (km/s) = 6.02016 7.04201 6.55104
#
# Compressibility (1/GPa) = 0.02298485
#
# Stress axis : x y z
#
# Youngs Moduli (GPa) = 93.07706 98.06569 66.06407
#
# Poissons Ratio (x) = 0.11213 0.12658
# Poissons Ratio (y) = 0.10643 0.23037
# Poissons Ratio (z) = 0.17834 0.34196
#
# Static dielectric constant tensor:
#      x y z
#    x 1.995240 0.043190 -0.044180 
#    y 0.043190 1.880050 -0.054260 
#    z -0.044180 -0.054260 2.034710 
# 
# From -- ./inp_files/154558.got.cif
#   From: 2010.05.17/outbox.cif.g08.bks.cpg/sg2_78_cif.got.tgz:154558.got - 2010.06.03 11:33:40.
