data_PCOD9067990
_publ_section_title
;
Structure prediction by ZEFSAII (Michael W. Deem and Ramdas Pophale) SiO2 
 PCOD9067990
Probable space group: P -1
;
_chemical_formula_sum "Si O2"
_cell_formula_units_Z 13
_cell_length_a 6.286419
_cell_length_b 17.488404
_cell_length_c 10.513583
_cell_angle_alpha 150.724108
_cell_angle_beta 67.781986
_cell_angle_gamma 115.255099
_cell_volume 511.158986
_symmetry_space_group_name_H-M "P -1"
_symmetry_group_IT_number 2
_symmetry_cell_setting 'triclinic'
loop_
_space_group_symop_operation_xyz
x,y,z
-x,-y,-z
loop_
_atom_site_type_symbol
_atom_site_label
_atom_site_fract_x
_atom_site_fract_y
_atom_site_fract_z
Si Si1 0.783764 0.890621 0.318765
Si Si2 0.904929 0.163438 0.254066
Si Si3 0.044202 0.424476 0.125293
Si Si4 0.574286 0.969718 0.234922
Si Si5 0.269881 0.673739 0.714555
Si Si6 0.314698 0.432072 0.674348
Si Si7 0.500000 0.500000 0.000000
O O1 0.763807 0.917245 0.211368
O O2 0.567202 0.937327 0.505356
O O3 0.808364 0.713831 0.091528
O O4 0.000000 0.000000 0.500000
O O5 0.833706 0.231987 0.236731
O O6 0.112740 0.295268 0.460831
O O7 0.674185 0.099738 0.295995
O O8 0.000000 0.000000 0.000000
O O9 0.251150 0.544775 0.181047
O O10 0.930382 0.427921 0.296213
O O11 0.801573 0.411161 0.082124
O O12 0.420664 0.813253 0.974206
O O13 0.449331 0.572832 0.465957
O O14 0.355986 0.411773 0.782555
#
# Coordination Sequence:
#
# PCOD9067990 Si02
#       7
#     2   2   2   2   2   2   1
#     4  11  26  46  79 111 156 208 262 326 386 467
#     4  12  27  48  80 119 158 200 266 326 395 462
#     4  12  29  51  78 113 158 209 267 317 402 465
#     4  11  26  46  77 121 154 203 260 329 394 460
#     4  12  27  50  82 118 156 207 262 333 391 470
#     4  12  30  51  78 116 158 215 257 329 392 476
#     4  12  32  52  76 110 160 212 260 326 388 476
#
# _framework density 25.432397999999999
#
# number of rings (size 3 to 8) (size 9 to 14) (size 15 to 20)
#    0.000    0.308    3.077    3.231    8.615    2.462 
#    0.000    0.000    0.000    0.000    0.000    0.000 
#    0.000    0.000    0.000    0.000    0.000    0.000 
#
# Total GULP energy -72438.270535 kJ/mol
# GULP energy per Si atom -5572.174657 kJ/mol
# Density = 2.537451 g / cm^3
# Si number density = 25.432398 Si / 1000 Ang^3
#
#
#
# Elastic Constant Matrix: (Units=GPa)
#
#
# Indices 1 2 3 4 5 6 
#
# 1 152.9242 58.1267 57.8187 -18.9499 -13.5942 -16.4656
# 2 58.1267 121.6804 38.3578 -24.1014 -5.7278 -10.1349
# 3 57.8187 38.3578 100.1668 -17.5529 2.1673 -12.4936
# 4 -18.9499 -24.1014 -17.5529 40.8945 -5.6685 -11.1121
# 5 -13.5942 -5.7278 2.1673 -5.6685 64.1724 -13.7642
# 6 -16.4656 -10.1349 -12.4936 -11.1121 -13.7642 52.6528
#
#
#
# Elastic Compliance Matrix: (Units=1/GPa)
#
#
# Indices 1 2 3 4 5 6 
#
# 1 0.009918 -0.002598 -0.003977 0.002554 0.002861 0.002945
# 2 -0.002598 0.011391 -0.001552 0.005784 0.001598 0.002650
# 3 -0.003977 -0.001552 0.013838 0.003742 -0.000609 0.002371
# 4 0.002554 0.005784 0.003742 0.034779 0.006545 0.011851
# 5 0.002861 0.001598 -0.000609 0.006545 0.018490 0.007273
# 6 0.002945 0.002650 0.002371 0.011851 0.007273 0.025388
#
#
# Mechanical properties :
#
#
# Convention : Reuss Voigt Hill
#
# Bulk Modulus (GPa) = 52.93477 75.93086 64.43281
# Shear Modulus (GPa) = 36.66819 46.24183 41.45501
#
# Velocity S-wave (km/s) = 3.80121 4.26869 4.04172
# Velocity P-wave (km/s) = 6.33441 7.36318 6.86808
#
# Compressibility (1/GPa) = 0.01889118
#
# Stress axis : x y z
#
# Youngs Moduli (GPa) = 100.82229 87.79205 72.26383
#
# Poissons Ratio (x) = 0.22812 0.28740
# Poissons Ratio (y) = 0.26198 0.11218
# Poissons Ratio (z) = 0.40098 0.13629
#
# Static dielectric constant tensor:
#      x y z
#    x 2.033270 -0.064620 -0.071020 
#    y -0.064620 1.840220 0.037890 
#    z -0.071020 0.037890 2.113170 
# 
# From -- ./inp_files/135939.got.cif
#   From: 2010.05.17/outbox.cif.g08.bks.cpg/sg2_68_cif.got.tgz:135939.got - 2010.06.03 11:33:40.
