data_PCOD9067522
_publ_section_title
;
Structure prediction by ZEFSAII (Michael W. Deem and Ramdas Pophale) SiO2 
 PCOD9067522
Probable space group: P -1
;
_chemical_formula_sum "Si O2"
_cell_formula_units_Z 12
_cell_length_a 9.151001
_cell_length_b 11.616351
_cell_length_c 9.017716
_cell_angle_alpha 119.207936
_cell_angle_beta 99.002404
_cell_angle_gamma 39.082411
_cell_volume 482.530917
_symmetry_space_group_name_H-M "P -1"
_symmetry_group_IT_number 2
_symmetry_cell_setting 'triclinic'
loop_
_space_group_symop_operation_xyz
x,y,z
-x,-y,-z
loop_
_atom_site_type_symbol
_atom_site_label
_atom_site_fract_x
_atom_site_fract_y
_atom_site_fract_z
Si Si1 0.813727 0.527336 0.415539
Si Si2 0.771155 0.608439 0.127794
Si Si3 0.870944 0.260529 0.493105
Si Si4 0.707220 0.945915 0.349539
Si Si5 0.947676 0.929379 0.136875
Si Si6 0.435030 0.673185 0.901773
O O1 0.861798 0.486062 0.222352
O O2 0.833670 0.377943 0.415780
O O3 0.000000 0.500000 0.500000
O O4 0.531702 0.788170 0.545573
O O5 0.628799 0.850828 0.291726
O O6 0.592258 0.644694 0.026157
O O7 0.000000 0.500000 0.000000
O O8 0.915943 0.078918 0.335205
O O9 0.631619 0.455253 0.687900
O O10 0.115595 0.138253 0.540178
O O11 0.880460 0.851840 0.173958
O O12 0.740505 0.103588 0.085561
O O13 0.229628 0.733282 0.992522
#
# Coordination Sequence:
#
# PCOD9067522 Si02
#       6
#     2   2   2   2   2   2
#     4  12  26  47  77 112 149 204 251 316 385 452
#     4  12  26  49  75 115 151 196 258 321 379 451
#     4  12  25  52  78 110 157 200 259 310 385 458
#     4  12  26  48  77 113 150 199 258 313 383 452
#     4  11  27  48  78 115 156 205 251 318 380 462
#     4  11  25  50  75 114 153 202 259 309 382 453
#
# _framework density 24.868872
#
# number of rings (size 3 to 8) (size 9 to 14) (size 15 to 20)
#    0.000    0.333    5.000    2.500    2.333    4.000 
#    0.000    0.000    0.000    0.000    0.000    0.000 
#    0.000    0.000    0.000    0.000    0.000    0.000 
#
# Total GULP energy -67380.097926 kJ/mol
# GULP energy per Si atom -5615.008160 kJ/mol
# Density = 2.481227 g / cm^3
# Si number density = 24.868872 Si / 1000 Ang^3
#
#
#
# Elastic Constant Matrix: (Units=GPa)
#
#
# Indices 1 2 3 4 5 6 
#
# 1 138.2522 75.8024 81.0340 -12.2668 -8.0945 -0.3416
# 2 75.8024 137.9537 57.3699 -17.9745 -5.8412 -18.1277
# 3 81.0340 57.3699 164.1829 -21.1892 -15.9693 -7.2921
# 4 -12.2668 -17.9745 -21.1892 49.4879 -5.1486 2.5380
# 5 -8.0945 -5.8412 -15.9693 -5.1486 46.5862 5.0831
# 6 -0.3416 -18.1277 -7.2921 2.5380 5.0831 58.7902
#
#
#
# Elastic Compliance Matrix: (Units=1/GPa)
#
#
# Indices 1 2 3 4 5 6 
#
# 1 0.012922 -0.005553 -0.004607 -0.000660 0.000136 -0.002192
# 2 -0.005553 0.011351 -0.000782 0.002253 0.000083 0.003266
# 3 -0.004607 -0.000782 0.009266 0.002776 0.002525 0.000543
# 4 -0.000660 0.002253 0.002776 0.022440 0.003627 -0.000247
# 5 0.000136 0.000083 0.002525 0.003627 0.022963 -0.001802
# 6 -0.002192 0.003266 0.000543 -0.000247 -0.001802 0.018238
#
#
# Mechanical properties :
#
#
# Convention : Reuss Voigt Hill
#
# Bulk Modulus (GPa) = 85.79121 96.53348 91.16234
# Shear Modulus (GPa) = 40.66764 46.05170 43.35967
#
# Velocity S-wave (km/s) = 4.04825 4.30790 4.18009
# Velocity P-wave (km/s) = 7.51155 7.97780 7.74818
#
# Compressibility (1/GPa) = 0.01165621
#
# Stress axis : x y z
#
# Youngs Moduli (GPa) = 77.38890 88.09535 107.92469
#
# Poissons Ratio (x) = 0.48916 0.49717
# Poissons Ratio (y) = 0.42971 0.08440
# Poissons Ratio (z) = 0.35650 0.06889
#
# Static dielectric constant tensor:
#      x y z
#    x 1.898500 0.022220 -0.007730 
#    y 0.022220 1.927840 0.061110 
#    z -0.007730 0.061110 2.108660 
# 
# From -- ./inp_files/183876.got.cif
#   From: 2010.05.17/outbox.cif.g08.bks.cpg/sg2_92_cif.got.tgz:183876.got - 2010.06.03 11:33:40.
