data_PCOD9067905
_publ_section_title
;
Structure prediction by ZEFSAII (Michael W. Deem and Ramdas Pophale) SiO2 
 PCOD9067905
Probable space group: P -1
;
_chemical_formula_sum "Si O2"
_cell_formula_units_Z 16
_cell_length_a 21.041153
_cell_length_b 13.059403
_cell_length_c 9.761906
_cell_angle_alpha 152.647641
_cell_angle_beta 129.988070
_cell_angle_gamma 37.805334
_cell_volume 738.639801
_symmetry_space_group_name_H-M "P -1"
_symmetry_group_IT_number 2
_symmetry_cell_setting 'triclinic'
loop_
_space_group_symop_operation_xyz
x,y,z
-x,-y,-z
loop_
_atom_site_type_symbol
_atom_site_label
_atom_site_fract_x
_atom_site_fract_y
_atom_site_fract_z
Si Si1 0.529346 0.672141 0.649537
Si Si2 0.300019 0.243589 0.667071
Si Si3 0.754622 0.431278 0.761492
Si Si4 0.130499 0.527539 0.269053
Si Si5 0.480175 0.322267 0.667835
Si Si6 0.106348 0.143114 0.589445
Si Si7 0.114660 0.209179 0.357983
Si Si8 0.756857 0.424201 0.286810
O O1 0.500000 0.500000 0.500000
O O2 0.654014 0.481329 0.618345
O O3 0.498997 0.655606 0.435101
O O4 0.500000 0.000000 0.000000
O O5 0.219482 0.180707 0.440006
O O6 0.266074 0.482491 0.792182
O O7 0.426602 0.001859 0.542581
O O8 0.281579 0.307616 0.880186
O O9 0.831826 0.363006 0.663985
O O10 0.810600 0.185424 0.657343
O O11 0.202268 0.442903 0.402130
O O12 0.009562 0.754268 0.413797
O O13 0.135662 0.285817 0.908549
O O14 0.358120 0.452991 0.668071
O O15 0.500000 0.500000 0.000000
O O16 0.106656 0.210922 0.513214
O O17 0.000000 0.500000 0.500000
O O18 0.148396 0.917413 0.989866
#
# Coordination Sequence:
#
# PCOD9067905 Si02
#       8
#     2   2   2   2   2   2   2   2
#     4  12  30  50  80 116 156 204 262 325 391 471
#     4  12  26  46  77 104 153 199 254 310 391 469
#     4  12  25  46  78 104 148 199 255 313 390 474
#     4  11  26  46  72 110 147 188 261 317 390 446
#     4  12  27  49  74 114 151 201 258 324 390 468
#     4  11  26  47  74 104 148 199 249 322 387 473
#     4  12  27  46  73 109 148 196 251 310 390 464
#     4  12  27  48  74 110 148 197 253 318 385 461
#
# _framework density 21.661436999999999
#
# number of rings (size 3 to 8) (size 9 to 14) (size 15 to 20)
#    0.000    0.250    6.250    1.500    7.000    6.000 
#    0.000    0.000    0.000    0.000    0.000    0.000 
#    0.000    0.000    0.000    0.000    0.000    0.000 
#
# Total GULP energy -89171.221251 kJ/mol
# GULP energy per Si atom -5573.201328 kJ/mol
# Density = 2.161213 g / cm^3
# Si number density = 21.661437 Si / 1000 Ang^3
#
#
#
# Elastic Constant Matrix: (Units=GPa)
#
#
# Indices 1 2 3 4 5 6 
#
# 1 134.3152 24.1476 44.5580 -0.7090 -2.9924 0.6043
# 2 24.1476 191.7330 41.8211 0.8595 0.0955 -7.5998
# 3 44.5580 41.8211 71.6634 -16.0259 -9.2229 -10.1382
# 4 -0.7090 0.8595 -16.0259 39.5330 -3.1758 -1.5352
# 5 -2.9924 0.0955 -9.2229 -3.1758 28.6564 -9.1841
# 6 0.6043 -7.5998 -10.1382 -1.5352 -9.1841 37.3044
#
#
#
# Elastic Compliance Matrix: (Units=1/GPa)
#
#
# Indices 1 2 3 4 5 6 
#
# 1 0.009961 0.000384 -0.008000 -0.003428 -0.002914 -0.003116
# 2 0.000384 0.006171 -0.004656 -0.002190 -0.001906 -0.000574
# 3 -0.008000 -0.004656 0.027553 0.012552 0.012748 0.010324
# 4 -0.003428 -0.002190 0.012552 0.031372 0.009280 0.006596
# 5 -0.002914 -0.001906 0.012748 0.009280 0.044353 0.014425
# 6 -0.003116 -0.000574 0.010324 0.006596 0.014425 0.033369
#
#
# Mechanical properties :
#
#
# Convention : Reuss Voigt Hill
#
# Bulk Modulus (GPa) = 52.24263 68.75164 60.49714
# Shear Modulus (GPa) = 27.21792 40.24444 33.73118
#
# Velocity S-wave (km/s) = 3.54858 4.31499 3.95042
# Velocity P-wave (km/s) = 6.40001 7.52553 6.98547
#
# Compressibility (1/GPa) = 0.01914146
#
# Stress axis : x y z
#
# Youngs Moduli (GPa) = 100.39108 162.05252 36.29311
#
# Poissons Ratio (x) = -0.06218 0.29034
# Poissons Ratio (y) = -0.03852 0.16898
# Poissons Ratio (z) = 0.80310 0.75450
#
# Static dielectric constant tensor:
#      x y z
#    x 2.112060 -0.258520 -0.146040 
#    y -0.258520 1.947770 0.195010 
#    z -0.146040 0.195010 1.950430 
# 
# From -- ./inp_files/346540.got.cif
#   From: 2010.05.17/outbox.cif.g08.bks.cpg/sg2_174_cif.got.tgz:346540.got - 2010.06.03 11:33:40.
