data_PCOD9067001
_publ_section_title
;
Structure prediction by ZEFSAII (Michael W. Deem and Ramdas Pophale) SiO2 
 PCOD9067001
Probable space group: P -1
;
_chemical_formula_sum "Si O2"
_cell_formula_units_Z 15
_cell_length_a 12.210299
_cell_length_b 11.556043
_cell_length_c 5.728476
_cell_angle_alpha 78.243365
_cell_angle_beta 58.085286
_cell_angle_gamma 54.276762
_cell_volume 550.529232
_symmetry_space_group_name_H-M "P -1"
_symmetry_group_IT_number 2
_symmetry_cell_setting 'triclinic'
loop_
_space_group_symop_operation_xyz
x,y,z
-x,-y,-z
loop_
_atom_site_type_symbol
_atom_site_label
_atom_site_fract_x
_atom_site_fract_y
_atom_site_fract_z
Si Si1 0.459279 0.116401 0.693550
Si Si2 0.841847 0.835078 0.851309
Si Si3 0.274838 0.584843 0.786339
Si Si4 0.000000 0.000000 0.500000
Si Si5 0.270286 0.404213 0.503896
Si Si6 0.256546 0.853987 0.567192
Si Si7 0.040036 0.329809 0.706423
Si Si8 0.478756 0.635879 0.089687
O O1 0.342555 0.281511 0.670974
O O2 0.619374 0.106401 0.560675
O O3 0.500000 0.000000 0.500000
O O4 0.344625 0.098732 0.994184
O O5 0.908561 0.746651 0.570401
O O6 0.895799 0.761210 0.081381
O O7 0.902723 0.936468 0.741524
O O8 0.240855 0.549734 0.582489
O O9 0.268896 0.729362 0.761062
O O10 0.439716 0.439123 0.727312
O O11 0.145799 0.592702 0.093692
O O12 0.919012 0.015146 0.328200
O O13 0.110753 0.424484 0.602476
O O14 0.409628 0.333209 0.185366
O O15 0.305552 0.771756 0.288208
O O16 0.500000 0.500000 0.000000
#
# Coordination Sequence:
#
# PCOD9067001 Si02
#       8
#     2   2   2   1   2   2   2   2
#     4  11  27  51  81 113 162 217 276 336 406 488
#     4  11  28  54  76 122 156 219 270 336 403 489
#     4  12  25  48  77 116 159 206 267 342 407 484
#     4  12  30  48  84 108 168 212 278 330 410 478
#     4  11  25  47  74 119 154 212 263 334 410 483
#     4  12  26  51  76 118 161 212 275 341 408 491
#     4  11  27  48  80 112 169 202 269 331 416 487
#     4  12  25  43  78 111 156 203 267 337 408 482
#
# _framework density 27.246507000000001
#
# number of rings (size 3 to 8) (size 9 to 14) (size 15 to 20)
#    0.000    0.533    4.000    2.400   11.200    2.667 
#    0.000    0.000    0.000    0.000    0.000    0.000 
#    0.000    0.000    0.000    0.000    0.000    0.000 
#
# Total GULP energy -83614.110267 kJ/mol
# GULP energy per Si atom -5574.274018 kJ/mol
# Density = 2.718449 g / cm^3
# Si number density = 27.246507 Si / 1000 Ang^3
#
#
#
# Elastic Constant Matrix: (Units=GPa)
#
#
# Indices 1 2 3 4 5 6 
#
# 1 154.0610 31.2826 8.5290 -20.8423 -5.8316 37.2537
# 2 31.2826 66.1815 6.5202 -20.6274 8.1554 33.5039
# 3 8.5290 6.5202 136.0748 -7.1165 -13.2161 23.4293
# 4 -20.8423 -20.6274 -7.1165 48.5157 19.7418 -6.9561
# 5 -5.8316 8.1554 -13.2161 19.7418 46.2519 -14.2303
# 6 37.2537 33.5039 23.4293 -6.9561 -14.2303 44.9162
#
#
#
# Elastic Compliance Matrix: (Units=1/GPa)
#
#
# Indices 1 2 3 4 5 6 
#
# 1 0.009252 0.005092 0.001164 0.007054 -0.006415 -0.013019
# 2 0.005092 0.056799 0.004575 0.035417 -0.040513 -0.056328
# 3 0.001164 0.004575 0.008562 0.003399 -0.002463 -0.009098
# 4 0.007054 0.035417 0.003399 0.048757 -0.036947 -0.038197
# 5 -0.006415 -0.040513 -0.002463 -0.036947 0.058271 0.049565
# 6 -0.013019 -0.056328 -0.009098 -0.038197 0.049565 0.089611
#
#
# Mechanical properties :
#
#
# Convention : Reuss Voigt Hill
#
# Bulk Modulus (GPa) = 10.38698 49.88676 30.13687
# Shear Modulus (GPa) = 17.75052 48.60246 33.17649
#
# Velocity S-wave (km/s) = 2.55518 4.22809 3.49326
# Velocity P-wave (km/s) = 3.53917 6.49499 5.23023
#
# Compressibility (1/GPa) = 0.09627434
#
# Stress axis : x y z
#
# Youngs Moduli (GPa) = 108.08210 17.60601 116.79914
#
# Poissons Ratio (x) = -0.08965 -0.13590
# Poissons Ratio (y) = -0.55036 -0.53438
# Poissons Ratio (z) = -0.12576 -0.08055
#
# Static dielectric constant tensor:
#      x y z
#    x 2.394960 -0.087210 0.071220 
#    y -0.087210 2.182050 -0.027880 
#    z 0.071220 -0.027880 2.090220 
# 
# From -- ./inp_files/69559.got.cif
#   From: 2010.05.17/outbox.cif.g08.bks.cpg/sg2_35_cif.got.tgz:69559.got - 2010.06.03 11:33:40.
