data_PCOD9067649
_publ_section_title
;
Structure prediction by ZEFSAII (Michael W. Deem and Ramdas Pophale) SiO2 
 PCOD9067649
Probable space group: P -1
;
_chemical_formula_sum "Si O2"
_cell_formula_units_Z 11
_cell_length_a 14.832089
_cell_length_b 6.575654
_cell_length_c 11.606780
_cell_angle_alpha 113.768323
_cell_angle_beta 150.237575
_cell_angle_gamma 55.697201
_cell_volume 453.832145
_symmetry_space_group_name_H-M "P -1"
_symmetry_group_IT_number 2
_symmetry_cell_setting 'triclinic'
loop_
_space_group_symop_operation_xyz
x,y,z
-x,-y,-z
loop_
_atom_site_type_symbol
_atom_site_label
_atom_site_fract_x
_atom_site_fract_y
_atom_site_fract_z
Si Si1 0.231082 0.940761 0.777541
Si Si2 0.220259 0.272060 0.220012
Si Si3 0.500000 0.500000 0.500000
Si Si4 0.228832 0.040244 0.407046
Si Si5 0.458366 0.243166 0.124778
Si Si6 0.231564 0.791826 0.003004
O O1 0.405862 0.776294 0.840684
O O2 0.272511 0.809685 0.918005
O O3 0.000000 0.000000 0.500000
O O4 0.266455 0.189225 0.878998
O O5 0.392878 0.326319 0.371431
O O6 0.244080 0.222368 0.370965
O O7 0.000000 0.500000 0.000000
O O8 0.241786 0.018828 0.128993
O O9 0.281983 0.766072 0.353005
O O10 0.388142 0.977521 0.673049
O O11 0.997922 0.167059 0.227150
O O12 0.385082 0.517006 0.163801
#
# Coordination Sequence:
#
# PCOD9067649 Si02
#       6
#     2   2   1   2   2   2
#     4  11  25  53  77 112 151 198 252 312 381 449
#     4  12  28  50  74 113 155 200 254 305 376 454
#     4  12  26  48  72 104 152 202 244 304 374 436
#     4  12  26  47  78 113 151 202 253 309 377 449
#     4  11  27  50  78 113 153 195 253 316 376 443
#     4  12  26  49  81 111 154 202 252 312 375 448
#
# _framework density 24.238035
#
# number of rings (size 3 to 8) (size 9 to 14) (size 15 to 20)
#    0.000    0.364    3.636    3.818    5.091    2.182 
#    6.545    0.000    0.000    0.000    0.000    0.000 
#    0.000    0.000    0.000    0.000    0.000    0.000 
#
# Total GULP energy -61483.146000 kJ/mol
# GULP energy per Si atom -5589.376909 kJ/mol
# Density = 2.418287 g / cm^3
# Si number density = 24.238035 Si / 1000 Ang^3
#
#
#
# Elastic Constant Matrix: (Units=GPa)
#
#
# Indices 1 2 3 4 5 6 
#
# 1 170.1194 28.1569 59.0106 -10.1922 12.7078 34.6007
# 2 28.1569 119.1772 55.8918 -8.3817 21.9999 4.0541
# 3 59.0106 55.8918 139.0922 -1.2713 26.2439 28.8473
# 4 -10.1922 -8.3817 -1.2713 51.7677 15.5997 1.5853
# 5 12.7078 21.9999 26.2439 15.5997 47.3409 0.9456
# 6 34.6007 4.0541 28.8473 1.5853 0.9456 37.6664
#
#
#
# Elastic Compliance Matrix: (Units=1/GPa)
#
#
# Indices 1 2 3 4 5 6 
#
# 1 0.008010 -0.000480 -0.001612 0.002134 -0.001614 -0.006122
# 2 -0.000480 0.011207 -0.004044 0.002685 -0.003768 0.002314
# 3 -0.001612 -0.004044 0.011789 0.000848 -0.004362 -0.007039
# 4 0.002134 0.002685 0.000848 0.023284 -0.009891 -0.003630
# 5 -0.001614 -0.003768 -0.004362 -0.009891 0.028887 0.004920
# 6 -0.006122 0.002314 -0.007039 -0.003630 0.004920 0.037343
#
#
# Mechanical properties :
#
#
# Convention : Reuss Voigt Hill
#
# Bulk Modulus (GPa) = 53.37835 79.38972 66.38403
# Shear Modulus (GPa) = 35.96188 46.37697 41.16942
#
# Velocity S-wave (km/s) = 3.85606 4.37898 4.12581
# Velocity P-wave (km/s) = 6.47271 7.64151 7.08126
#
# Compressibility (1/GPa) = 0.01873419
#
# Stress axis : x y z
#
# Youngs Moduli (GPa) = 124.83962 89.23381 84.82662
#
# Poissons Ratio (x) = 0.04286 0.13671
# Poissons Ratio (y) = 0.05997 0.34301
# Poissons Ratio (z) = 0.20120 0.36083
#
# Static dielectric constant tensor:
#      x y z
#    x 1.832450 -0.014320 0.012640 
#    y -0.014320 1.892920 -0.023390 
#    z 0.012640 -0.023390 1.909040 
# 
# From -- ./inp_files/93865.got.cif
#   From: 2010.05.17/outbox.cif.g08.bks.cpg/sg2_47_cif.got.tgz:93865.got - 2010.06.03 11:33:40.
