data_PCOD9067928
_publ_section_title
;
Structure prediction by ZEFSAII (Michael W. Deem and Ramdas Pophale) SiO2 
 PCOD9067928
Probable space group: P -1
;
_chemical_formula_sum "Si O2"
_cell_formula_units_Z 16
_cell_length_a 15.761099
_cell_length_b 15.999342
_cell_length_c 5.201480
_cell_angle_alpha 115.658718
_cell_angle_beta 121.368981
_cell_angle_gamma 34.804224
_cell_volume 639.181358
_symmetry_space_group_name_H-M "P -1"
_symmetry_group_IT_number 2
_symmetry_cell_setting 'triclinic'
loop_
_space_group_symop_operation_xyz
x,y,z
-x,-y,-z
loop_
_atom_site_type_symbol
_atom_site_label
_atom_site_fract_x
_atom_site_fract_y
_atom_site_fract_z
Si Si1 0.118999 0.999211 0.188765
Si Si2 0.189754 0.355891 0.121372
Si Si3 0.462413 0.178848 0.679316
Si Si4 0.332349 0.106209 0.672678
Si Si5 0.999661 0.717404 0.650888
Si Si6 0.395104 0.571658 0.679948
Si Si7 0.698410 0.157873 0.218840
Si Si8 0.810273 0.456195 0.777054
O O1 0.252821 0.884559 0.462763
O O2 0.175126 0.976323 0.955414
O O3 0.035435 0.154542 0.335078
O O4 0.000000 0.000000 0.000000
O O5 0.286618 0.313899 0.471756
O O6 0.245642 0.398163 0.074961
O O7 0.262878 0.203082 0.953366
O O8 0.000000 0.500000 0.000000
O O9 0.447840 0.103371 0.751838
O O10 0.574565 0.056301 0.460797
O O11 0.542193 0.212928 0.969236
O O12 0.162070 0.213137 0.416018
O O13 0.075838 0.617551 0.387431
O O14 0.112790 0.634717 0.961712
O O15 0.500000 0.500000 0.500000
O O16 0.299691 0.736207 0.725915
O O17 0.310092 0.534926 0.488483
O O18 0.500000 0.500000 0.000000
#
# Coordination Sequence:
#
# PCOD9067928 Si02
#       8
#     2   2   2   2   2   2   2   2
#     4  12  25  46  76 109 147 192 250 308 374 448
#     4  12  26  46  75 108 152 200 254 311 378 455
#     4  11  27  46  74 111 149 202 251 319 378 451
#     4  11  26  46  74 104 154 192 258 309 383 436
#     4  12  25  47  73 108 150 191 248 311 379 440
#     4  12  26  47  71 105 149 194 247 304 375 454
#     4  12  26  46  75 108 147 196 248 308 376 446
#     4  12  27  45  75 107 149 195 247 309 375 450
#
# _framework density 25.032021
#
# number of rings (size 3 to 8) (size 9 to 14) (size 15 to 20)
#    0.000    0.250    2.500    6.000    5.250    2.000 
#    0.000    0.000    0.000    0.000    0.000    0.000 
#    0.000    0.000    0.000    0.000    0.000    0.000 
#
# Total GULP energy -89401.263931 kJ/mol
# GULP energy per Si atom -5587.578996 kJ/mol
# Density = 2.497505 g / cm^3
# Si number density = 25.032021 Si / 1000 Ang^3
#
#
#
# Elastic Constant Matrix: (Units=GPa)
#
#
# Indices 1 2 3 4 5 6 
#
# 1 108.3718 12.7928 45.5122 -0.6940 27.0902 -6.8572
# 2 12.7928 76.9923 12.9295 11.0138 -4.3470 6.8048
# 3 45.5122 12.9295 132.9101 -6.7029 7.2353 -2.2804
# 4 -0.6940 11.0138 -6.7029 37.8860 5.2312 -4.9851
# 5 27.0902 -4.3470 7.2353 5.2312 56.0115 5.7148
# 6 -6.8572 6.8048 -2.2804 -4.9851 5.7148 44.5406
#
#
#
# Elastic Compliance Matrix: (Units=1/GPa)
#
#
# Indices 1 2 3 4 5 6 
#
# 1 0.012870 -0.002384 -0.003693 0.001574 -0.006401 0.003154
# 2 -0.002384 0.014892 -0.001159 -0.005535 0.003358 -0.003752
# 3 -0.003693 -0.001159 0.008979 0.001841 0.000341 0.000231
# 4 0.001574 -0.005535 0.001841 0.029683 -0.004722 0.005110
# 5 -0.006401 0.003358 0.000341 -0.004722 0.022101 -0.004845
# 6 0.003154 -0.003752 0.000231 0.005110 -0.004845 0.024716
#
#
# Mechanical properties :
#
#
# Convention : Reuss Voigt Hill
#
# Bulk Modulus (GPa) = 44.90312 51.19370 48.04841
# Shear Modulus (GPa) = 36.99991 44.15695 40.57843
#
# Velocity S-wave (km/s) = 3.84878 4.20458 4.03061
# Velocity P-wave (km/s) = 6.14232 6.63830 6.39512
#
# Compressibility (1/GPa) = 0.02227017
#
# Stress axis : x y z
#
# Youngs Moduli (GPa) = 77.70262 67.15035 111.36499
#
# Poissons Ratio (x) = 0.16005 0.41128
# Poissons Ratio (y) = 0.18521 0.12905
# Poissons Ratio (z) = 0.28696 0.07782
#
# Static dielectric constant tensor:
#      x y z
#    x 2.055510 0.035250 0.141460 
#    y 0.035250 2.164780 0.287370 
#    z 0.141460 0.287370 2.317160 
# 
# From -- ./inp_files/111696.got.cif
#   From: 2010.05.17/outbox.cif.g08.bks.cpg/sg2_56_cif.got.tgz:111696.got - 2010.06.03 11:33:40.
