data_PCOD9067440
_publ_section_title
;
Structure prediction by ZEFSAII (Michael W. Deem and Ramdas Pophale) SiO2 
 PCOD9067440
Probable space group: P -1
;
_chemical_formula_sum "Si O2"
_cell_formula_units_Z 11
_cell_length_a 9.092643
_cell_length_b 8.630490
_cell_length_c 11.996626
_cell_angle_alpha 39.650485
_cell_angle_beta 133.153844
_cell_angle_gamma 112.282978
_cell_volume 415.679832
_symmetry_space_group_name_H-M "P -1"
_symmetry_group_IT_number 2
_symmetry_cell_setting 'triclinic'
loop_
_space_group_symop_operation_xyz
x,y,z
-x,-y,-z
loop_
_atom_site_type_symbol
_atom_site_label
_atom_site_fract_x
_atom_site_fract_y
_atom_site_fract_z
Si Si1 0.899936 0.774678 0.202275
Si Si2 0.262050 0.689650 0.285289
Si Si3 0.155404 0.278476 0.344115
Si Si4 0.218449 0.945266 0.783377
Si Si5 0.406534 0.513845 0.819262
Si Si6 0.500000 0.000000 0.500000
O O1 0.815976 0.540042 0.261518
O O2 0.146907 0.702631 0.337034
O O3 0.848044 0.880166 0.240217
O O4 0.770013 0.018089 0.924105
O O5 0.500000 0.500000 0.500000
O O6 0.119078 0.573546 0.194660
O O7 0.334742 0.208244 0.382350
O O8 0.949656 0.207297 0.239864
O O9 0.229320 0.111989 0.587673
O O10 0.442836 0.728054 0.035849
O O11 0.409319 0.779039 0.626001
O O12 0.500000 0.500000 0.000000
#
# Coordination Sequence:
#
# PCOD9067440 Si02
#       6
#     2   2   2   2   2   1
#     4  11  27  49  77 114 161 207 256 332 394 455
#     4  11  26  48  78 117 153 206 266 322 391 476
#     4  11  26  47  76 114 150 208 263 317 390 471
#     4  11  25  49  77 111 160 202 262 326 389 463
#     4  12  25  50  78 115 158 206 258 324 391 470
#     4  12  28  44  80 110 148 208 258 312 390 460
#
# _framework density 26.462675000000001
#
# number of rings (size 3 to 8) (size 9 to 14) (size 15 to 20)
#    0.000    0.727    1.818    3.818    5.091    6.545 
#    0.000    0.000    0.000    0.000    0.000    0.000 
#    0.000    0.000    0.000    0.000    0.000    0.000 
#
# Total GULP energy -61548.068608 kJ/mol
# GULP energy per Si atom -5595.278964 kJ/mol
# Density = 2.640244 g / cm^3
# Si number density = 26.462675 Si / 1000 Ang^3
#
#
#
# Elastic Constant Matrix: (Units=GPa)
#
#
# Indices 1 2 3 4 5 6 
#
# 1 151.5700 41.8557 44.9937 -5.8253 4.7659 2.5824
# 2 41.8557 132.6353 36.3415 -13.7533 -19.4197 20.5420
# 3 44.9937 36.3415 95.8720 -27.6336 5.7763 22.3315
# 4 -5.8253 -13.7533 -27.6336 41.3508 6.1666 -5.8473
# 5 4.7659 -19.4197 5.7763 6.1666 42.5177 -24.6164
# 6 2.5824 20.5420 22.3315 -5.8473 -24.6164 55.2662
#
#
#
# Elastic Compliance Matrix: (Units=1/GPa)
#
#
# Indices 1 2 3 4 5 6 
#
# 1 0.008256 -0.001945 -0.004159 -0.002018 0.000119 0.001857
# 2 -0.001945 0.009742 -0.003011 0.000198 0.005014 -0.000059
# 3 -0.004159 -0.003011 0.020237 0.012152 -0.011657 -0.010770
# 4 -0.002018 0.000198 0.012152 0.032685 -0.009302 -0.005575
# 5 0.000119 0.005014 -0.011657 -0.009302 0.040161 0.019745
# 6 0.001857 -0.000059 -0.010770 -0.005575 0.019745 0.030586
#
#
# Mechanical properties :
#
#
# Convention : Reuss Voigt Hill
#
# Bulk Modulus (GPa) = 49.98725 69.60657 59.79691
# Shear Modulus (GPa) = 30.01794 44.95271 37.48532
#
# Velocity S-wave (km/s) = 3.37167 4.12603 3.76777
# Velocity P-wave (km/s) = 5.83851 7.00425 6.44778
#
# Compressibility (1/GPa) = 0.02000510
#
# Stress axis : x y z
#
# Youngs Moduli (GPa) = 121.11700 102.64589 49.41343
#
# Poissons Ratio (x) = 0.19970 0.20551
# Poissons Ratio (y) = 0.23563 0.14879
# Poissons Ratio (z) = 0.50372 0.30908
#
# Static dielectric constant tensor:
#      x y z
#    x 2.031000 -0.011550 -0.007930 
#    y -0.011550 2.021600 0.061490 
#    z -0.007930 0.061490 2.104140 
# 
# From -- ./inp_files/241209.got.cif
#   From: 2010.05.17/outbox.cif.g08.bks.cpg/sg2_121_cif.got.tgz:241209.got - 2010.06.03 11:33:40.
