data_PCOD9067609
_publ_section_title
;
Structure prediction by ZEFSAII (Michael W. Deem and Ramdas Pophale) SiO2 
 PCOD9067609
Probable space group: P -1
;
_chemical_formula_sum "Si O2"
_cell_formula_units_Z 13
_cell_length_a 9.902687
_cell_length_b 12.036014
_cell_length_c 5.727415
_cell_angle_alpha 122.584092
_cell_angle_beta 93.178166
_cell_angle_gamma 69.558224
_cell_volume 531.314947
_symmetry_space_group_name_H-M "P -1"
_symmetry_group_IT_number 2
_symmetry_cell_setting 'triclinic'
loop_
_space_group_symop_operation_xyz
x,y,z
-x,-y,-z
loop_
_atom_site_type_symbol
_atom_site_label
_atom_site_fract_x
_atom_site_fract_y
_atom_site_fract_z
Si Si1 0.264269 0.209409 0.001889
Si Si2 0.213456 0.893790 0.130984
Si Si3 0.500000 0.000000 0.500000
Si Si4 0.543377 0.165714 0.261483
Si Si5 0.357525 0.634821 0.217430
Si Si6 0.032914 0.171037 0.234003
Si Si7 0.105872 0.529301 0.225029
O O1 0.383291 0.188975 0.191481
O O2 0.148360 0.141756 0.999283
O O3 0.182023 0.378607 0.181229
O O4 0.358452 0.154243 0.712151
O O5 0.277300 0.770410 0.189843
O O6 0.105567 0.060683 0.329639
O O7 0.358243 0.901956 0.034343
O O8 0.113776 0.846488 0.888452
O O9 0.569076 0.067449 0.377731
O O10 0.584625 0.298649 0.485070
O O11 0.233796 0.573987 0.187361
O O12 0.500000 0.500000 0.000000
O O13 0.990016 0.332973 0.482823
O O14 0.000000 0.500000 0.000000
#
# Coordination Sequence:
#
# PCOD9067609 Si02
#       7
#     2   2   1   2   2   2   2
#     4  12  28  47  78 111 154 201 251 323 378 450
#     4  11  25  51  76 110 147 203 250 322 383 441
#     4  12  26  48  76 112 148 194 266 306 378 456
#     4  12  26  47  76 110 151 196 253 321 379 449
#     4  12  28  47  75 112 152 199 257 313 379 457
#     4  11  26  50  76 108 156 199 254 311 388 452
#     4  12  28  48  75 114 153 207 252 311 381 459
#
# _framework density 24.467597000000001
#
# number of rings (size 3 to 8) (size 9 to 14) (size 15 to 20)
#    0.000    0.308    3.077    4.615    8.615    1.846 
#    0.000    0.000    0.000    0.000    0.000    0.000 
#    0.000    0.000    0.000    0.000    0.000    0.000 
#
# Total GULP energy -72478.634164 kJ/mol
# GULP energy per Si atom -5575.279551 kJ/mol
# Density = 2.441191 g / cm^3
# Si number density = 24.467597 Si / 1000 Ang^3
#
#
#
# Elastic Constant Matrix: (Units=GPa)
#
#
# Indices 1 2 3 4 5 6 
#
# 1 154.3325 31.5875 19.8350 -3.9699 -4.9124 13.7444
# 2 31.5875 132.8196 12.4340 15.6276 -11.6485 3.4711
# 3 19.8350 12.4340 58.4066 21.8430 -12.7922 -13.0392
# 4 -3.9699 15.6276 21.8430 35.7483 0.7947 -9.6907
# 5 -4.9124 -11.6485 -12.7922 0.7947 50.5599 2.0160
# 6 13.7444 3.4711 -13.0392 -9.6907 2.0160 43.3267
#
#
#
# Elastic Compliance Matrix: (Units=1/GPa)
#
#
# Indices 1 2 3 4 5 6 
#
# 1 0.007733 -0.001844 -0.004354 0.003588 -0.000721 -0.002780
# 2 -0.001844 0.008674 0.000823 -0.004830 0.002145 -0.001042
# 3 -0.004354 0.000823 0.027135 -0.016059 0.006662 0.005580
# 4 0.003588 -0.004830 -0.016059 0.041494 -0.005637 0.003959
# 5 -0.000721 0.002145 0.006662 -0.005637 0.021986 -0.000222
# 6 -0.002780 -0.001042 0.005580 0.003959 -0.000222 0.026621
#
#
# Mechanical properties :
#
#
# Convention : Reuss Voigt Hill
#
# Bulk Modulus (GPa) = 30.49438 52.58575 41.54006
# Shear Modulus (GPa) = 32.19057 44.70714 38.44885
#
# Velocity S-wave (km/s) = 3.63111 4.27921 3.96841
# Velocity P-wave (km/s) = 5.48363 6.77895 6.16540
#
# Compressibility (1/GPa) = 0.03279293
#
# Stress axis : x y z
#
# Youngs Moduli (GPa) = 129.30800 115.28412 36.85227
#
# Poissons Ratio (x) = 0.21262 0.16045
# Poissons Ratio (y) = 0.23848 -0.03033
# Poissons Ratio (z) = 0.56299 -0.09489
#
# Static dielectric constant tensor:
#      x y z
#    x 2.439830 -0.201680 0.379670 
#    y -0.201680 2.005730 -0.157580 
#    z 0.379670 -0.157580 2.325710 
# 
# From -- ./inp_files/28920.got.cif
#   From: 2010.05.17/outbox.cif.g08.bks.cpg/sg2_15_cif.got.tgz:28920.got - 2010.06.03 11:33:40.
