data_PCOD9067625
_publ_section_title
;
Structure prediction by ZEFSAII (Michael W. Deem and Ramdas Pophale) SiO2 
 PCOD9067625
Probable space group: P -1
;
_chemical_formula_sum "Si O2"
_cell_formula_units_Z 14
_cell_length_a 18.323132
_cell_length_b 5.270413
_cell_length_c 6.779522
_cell_angle_alpha 107.546821
_cell_angle_beta 56.476792
_cell_angle_gamma 93.006403
_cell_volume 515.019278
_symmetry_space_group_name_H-M "P -1"
_symmetry_group_IT_number 2
_symmetry_cell_setting 'triclinic'
loop_
_space_group_symop_operation_xyz
x,y,z
-x,-y,-z
loop_
_atom_site_type_symbol
_atom_site_label
_atom_site_fract_x
_atom_site_fract_y
_atom_site_fract_z
Si Si1 0.794229 0.043376 0.180319
Si Si2 0.469000 0.319087 0.628906
Si Si3 0.294739 0.679236 0.973331
Si Si4 0.531456 0.678655 0.870757
Si Si5 0.950484 0.301894 0.156236
Si Si6 0.144218 0.412953 0.302080
Si Si7 0.714834 0.835699 0.642245
O O1 0.852539 0.267075 0.215943
O O2 0.756280 0.899404 0.387692
O O3 0.715563 0.176175 0.187450
O O4 0.858336 0.822164 0.906540
O O5 0.487426 0.375816 0.364160
O O6 0.500000 0.000000 0.500000
O O7 0.362415 0.407736 0.809919
O O8 0.490583 0.372424 0.858514
O O9 0.197832 0.624300 0.165200
O O10 0.325829 0.877463 0.134925
O O11 0.639336 0.647875 0.702934
O O12 0.500000 0.000000 0.000000
O O13 0.937444 0.427643 0.422774
O O14 0.000000 0.500000 0.000000
O O15 0.000000 0.000000 0.000000
O O16 0.208673 0.273258 0.344381
#
# Coordination Sequence:
#
# PCOD9067625 Si02
#       7
#     2   2   2   2   2   2   2
#     4  11  28  50  85 122 158 219 278 332 423 496
#     4  12  29  48  71 114 165 210 277 349 414 474
#     4  11  26  50  82 114 165 217 283 347 399 506
#     4  12  26  48  76 108 157 218 274 342 418 467
#     4  12  29  54  84 123 169 209 263 341 422 512
#     4  11  27  50  83 118 165 212 280 333 410 505
#     4  11  25  51  81 116 162 220 285 345 406 496
#
# _framework density 27.183451000000002
#
# number of rings (size 3 to 8) (size 9 to 14) (size 15 to 20)
#    0.000    0.571    2.857    2.571   12.000    2.286 
#    0.000    0.000    0.000    0.000    0.000    0.000 
#    0.000    0.000    0.000    0.000    0.000    0.000 
#
# Total GULP energy -78546.455640 kJ/mol
# GULP energy per Si atom -5610.461117 kJ/mol
# Density = 2.712158 g / cm^3
# Si number density = 27.183451 Si / 1000 Ang^3
#
#
#
# Elastic Constant Matrix: (Units=GPa)
#
#
# Indices 1 2 3 4 5 6 
#
# 1 113.7359 58.4313 66.6689 1.9043 30.1096 24.5145
# 2 58.4313 193.6650 110.8642 -24.0394 12.1729 -5.2690
# 3 66.6689 110.8642 241.3765 9.8998 29.1831 14.8630
# 4 1.9043 -24.0394 9.8998 85.9038 5.1235 4.0805
# 5 30.1096 12.1729 29.1831 5.1235 58.6806 4.1106
# 6 24.5145 -5.2690 14.8630 4.0805 4.1106 54.3194
#
#
#
# Elastic Compliance Matrix: (Units=1/GPa)
#
#
# Indices 1 2 3 4 5 6 
#
# 1 0.013958 -0.003361 -0.001282 -0.000505 -0.005375 -0.005830
# 2 -0.003361 0.008446 -0.003389 0.002615 0.001221 0.002975
# 3 -0.001282 -0.003389 0.006386 -0.001501 -0.001595 -0.001264
# 4 -0.000505 0.002615 -0.001501 0.012595 -0.000636 -0.000006
# 5 -0.005375 0.001221 -0.001595 -0.000636 0.020290 0.001493
# 6 -0.005830 0.002975 -0.001264 -0.000006 0.001493 0.021563
#
#
# Mechanical properties :
#
#
# Convention : Reuss Voigt Hill
#
# Bulk Modulus (GPa) = 78.57714 113.41181 95.99447
# Shear Modulus (GPa) = 48.28790 60.63496 54.46143
#
# Velocity S-wave (km/s) = 4.21927 4.72803 4.48088
# Velocity P-wave (km/s) = 7.25985 8.46269 7.88424
#
# Compressibility (1/GPa) = 0.01272635
#
# Stress axis : x y z
#
# Youngs Moduli (GPa) = 71.64096 118.39266 156.59295
#
# Poissons Ratio (x) = 0.39790 0.20078
# Poissons Ratio (y) = 0.24078 0.53073
# Poissons Ratio (z) = 0.09186 0.40126
#
# Static dielectric constant tensor:
#      x y z
#    x 2.153740 -0.021500 0.049670 
#    y -0.021500 2.057090 -0.002320 
#    z 0.049670 -0.002320 2.173320 
# 
# From -- ./inp_files/7839.got.cif
#   From: 2010.05.17/outbox.cif.g08.bks.cpg/sg2_4_cif.got.tgz:7839.got - 2010.06.03 11:33:40.
