data_PCOD9067583
_publ_section_title
;
Structure prediction by ZEFSAII (Michael W. Deem and Ramdas Pophale) SiO2 
 PCOD9067583
Probable space group: P -1
;
_chemical_formula_sum "Si O2"
_cell_formula_units_Z 12
_cell_length_a 10.114636
_cell_length_b 10.807046
_cell_length_c 7.175143
_cell_angle_alpha 56.433460
_cell_angle_beta 66.679337
_cell_angle_gamma 40.686294
_cell_volume 425.647063
_symmetry_space_group_name_H-M "P -1"
_symmetry_group_IT_number 2
_symmetry_cell_setting 'triclinic'
loop_
_space_group_symop_operation_xyz
x,y,z
-x,-y,-z
loop_
_atom_site_type_symbol
_atom_site_label
_atom_site_fract_x
_atom_site_fract_y
_atom_site_fract_z
Si Si1 0.818767 0.310489 0.982048
Si Si2 0.311736 0.061429 0.437248
Si Si3 0.657151 0.292633 0.454680
Si Si4 0.780016 0.081711 0.911732
Si Si5 0.898777 0.436181 0.507961
Si Si6 0.363858 0.235491 0.950788
O O1 0.284425 0.643947 0.802239
O O2 0.805436 0.162536 0.010637
O O3 0.754178 0.466123 0.721813
O O4 0.058313 0.167941 0.991097
O O5 0.098251 0.193737 0.550943
O O6 0.370712 0.859201 0.478503
O O7 0.500000 0.000000 0.500000
O O8 0.249633 0.239140 0.180292
O O9 0.500000 0.500000 0.500000
O O10 0.823053 0.142968 0.648078
O O11 0.548105 0.202569 0.945871
O O12 0.772533 0.583833 0.276738
O O13 0.000000 0.500000 0.500000
O O14 0.500000 0.000000 0.000000
#
# Coordination Sequence:
#
# PCOD9067583 Si02
#       6
#     2   2   2   2   2   2
#     4  11  26  53  80 120 175 221 288 361 434 527
#     4  12  26  53  90 127 176 225 293 363 434 522
#     4  12  29  51  87 126 168 229 287 358 439 519
#     4  11  25  50  82 121 167 227 286 353 442 510
#     4  12  29  50  85 128 168 232 289 362 441 515
#     4  12  25  50  82 124 170 225 289 353 430 526
#
# _framework density 28.192371999999999
#
# number of rings (size 3 to 8) (size 9 to 14) (size 15 to 20)
#    0.000    0.333    1.667    7.000    2.333    2.000 
#    0.000    0.000    0.000    0.000    0.000    0.000 
#    0.000    0.000    0.000    0.000    0.000    0.000 
#
# Total GULP energy -67125.360615 kJ/mol
# GULP energy per Si atom -5593.780051 kJ/mol
# Density = 2.812820 g / cm^3
# Si number density = 28.192372 Si / 1000 Ang^3
#
#
#
# Elastic Constant Matrix: (Units=GPa)
#
#
# Indices 1 2 3 4 5 6 
#
# 1 144.7361 63.8769 54.8632 2.8270 0.5240 6.5066
# 2 63.8769 172.7200 80.8839 9.7965 1.9682 2.2409
# 3 54.8632 80.8839 260.5483 18.9726 -24.2963 -21.5922
# 4 2.8270 9.7965 18.9726 62.1633 -12.6576 -2.6979
# 5 0.5240 1.9682 -24.2963 -12.6576 57.0249 6.7520
# 6 6.5066 2.2409 -21.5922 -2.6979 6.7520 39.1577
#
#
#
# Elastic Compliance Matrix: (Units=1/GPa)
#
#
# Indices 1 2 3 4 5 6 
#
# 1 0.008593 -0.002606 -0.001196 0.000259 -0.000218 -0.001883
# 2 -0.002606 0.007754 -0.001989 -0.000772 -0.001149 -0.000963
# 3 -0.001196 -0.001989 0.005158 -0.000721 0.001786 0.002799
# 4 0.000259 -0.000772 -0.000721 0.017137 0.003499 0.000181
# 5 -0.000218 -0.001149 0.001786 0.003499 0.019353 -0.002009
# 6 -0.001883 -0.000963 0.002799 0.000181 -0.002009 0.027808
#
#
# Mechanical properties :
#
#
# Convention : Reuss Voigt Hill
#
# Bulk Modulus (GPa) = 100.76278 108.58359 104.67318
# Shear Modulus (GPa) = 49.65578 56.89454 53.27516
#
# Velocity S-wave (km/s) = 4.20136 4.49718 4.35179
# Velocity P-wave (km/s) = 7.70415 8.09722 7.90313
#
# Compressibility (1/GPa) = 0.00992430
#
# Stress axis : x y z
#
# Youngs Moduli (GPa) = 116.37815 128.96090 193.85864
#
# Poissons Ratio (x) = 0.33603 0.23178
# Poissons Ratio (y) = 0.30324 0.38563
# Poissons Ratio (z) = 0.13915 0.25653
#
# Static dielectric constant tensor:
#      x y z
#    x 2.306110 -0.086750 -0.041670 
#    y -0.086750 2.551150 -0.052430 
#    z -0.041670 -0.052430 2.326130 
# 
# From -- ./inp_files/174521.got.cif
#   From: 2010.05.17/outbox.cif.g08.bks.cpg/sg2_88_cif.got.tgz:174521.got - 2010.06.03 11:33:40.
