data_PCOD9067611
_publ_section_title
;
Structure prediction by ZEFSAII (Michael W. Deem and Ramdas Pophale) SiO2 
 PCOD9067611
Probable space group: P -1
;
_chemical_formula_sum "Si O2"
_cell_formula_units_Z 12
_cell_length_a 5.352459
_cell_length_b 19.066380
_cell_length_c 7.648965
_cell_angle_alpha 129.547521
_cell_angle_beta 111.500546
_cell_angle_gamma 96.884597
_cell_volume 487.445488
_symmetry_space_group_name_H-M "P -1"
_symmetry_group_IT_number 2
_symmetry_cell_setting 'triclinic'
loop_
_space_group_symop_operation_xyz
x,y,z
-x,-y,-z
loop_
_atom_site_type_symbol
_atom_site_label
_atom_site_fract_x
_atom_site_fract_y
_atom_site_fract_z
Si Si1 0.241686 0.799977 0.951948
Si Si2 0.868996 0.572614 0.662024
Si Si3 0.817931 0.738428 0.469467
Si Si4 0.127271 0.619675 0.182799
Si Si5 0.320877 0.115238 0.490233
Si Si6 0.654408 0.926127 0.960744
O O1 0.520221 0.841494 0.948361
O O2 0.017740 0.677960 0.747940
O O3 0.019876 0.821686 0.803307
O O4 0.413853 0.864192 0.271380
O O5 0.500000 0.500000 0.500000
O O6 0.000000 0.500000 0.500000
O O7 0.027623 0.622315 0.964562
O O8 0.983505 0.673611 0.351400
O O9 0.773262 0.794226 0.375912
O O10 0.576500 0.871120 0.663828
O O11 0.490043 0.666280 0.354178
O O12 0.000000 0.500000 0.000000
O O13 0.006072 0.006004 0.234720
O O14 0.500000 0.000000 0.000000
#
# Coordination Sequence:
#
# PCOD9067611 Si02
#       6
#     2   2   2   2   2   2
#     4  12  26  48  81 111 157 212 261 327 404 470
#     4  12  27  48  74 118 155 203 270 319 390 478
#     4  12  25  48  74 113 151 205 258 320 393 471
#     4  12  25  48  75 106 161 201 261 334 386 455
#     4  11  26  50  76 114 160 206 264 333 397 481
#     4  11  25  51  76 115 160 202 271 329 403 481
#
# _framework density 24.618138999999999
#
# number of rings (size 3 to 8) (size 9 to 14) (size 15 to 20)
#    0.000    0.333    3.333    5.000    0.000    2.000 
#    6.000    0.000    0.000    0.000    0.000    0.000 
#    0.000    0.000    0.000    0.000    0.000    0.000 
#
# Total GULP energy -66972.840795 kJ/mol
# GULP energy per Si atom -5581.070066 kJ/mol
# Density = 2.456211 g / cm^3
# Si number density = 24.618139 Si / 1000 Ang^3
#
#
#
# Elastic Constant Matrix: (Units=GPa)
#
#
# Indices 1 2 3 4 5 6 
#
# 1 145.9197 34.8646 78.2499 7.7694 7.5771 16.8621
# 2 34.8646 129.7570 44.8670 2.2956 0.9779 27.1704
# 3 78.2499 44.8670 150.8933 -14.8383 25.1630 8.5360
# 4 7.7694 2.2956 -14.8383 72.0746 -0.1104 13.5906
# 5 7.5771 0.9779 25.1630 -0.1104 49.5544 5.5191
# 6 16.8621 27.1704 8.5360 13.5906 5.5191 42.0233
#
#
#
# Elastic Compliance Matrix: (Units=1/GPa)
#
#
# Indices 1 2 3 4 5 6 
#
# 1 0.010144 -0.000322 -0.005450 -0.001754 0.001484 -0.002383
# 2 -0.000322 0.010011 -0.002754 0.000309 0.001935 -0.006138
# 3 -0.005450 -0.002754 0.011292 0.002718 -0.005002 0.001452
# 4 -0.001754 0.000309 0.002718 0.015557 -0.000526 -0.005011
# 5 0.001484 0.001935 -0.005002 -0.000526 0.022861 -0.003663
# 6 -0.002383 -0.006138 0.001452 -0.005011 -0.003663 0.030528
#
#
# Mechanical properties :
#
#
# Convention : Reuss Voigt Hill
#
# Bulk Modulus (GPa) = 69.47667 82.50367 75.99017
# Shear Modulus (GPa) = 40.90155 50.63633 45.76894
#
# Velocity S-wave (km/s) = 4.08050 4.54019 4.31647
# Velocity P-wave (km/s) = 7.10518 7.81477 7.46841
#
# Compressibility (1/GPa) = 0.01439332
#
# Stress axis : x y z
#
# Youngs Moduli (GPa) = 98.57759 99.89030 88.56066
#
# Poissons Ratio (x) = 0.03221 0.48264
# Poissons Ratio (y) = 0.03179 0.24394
# Poissons Ratio (z) = 0.53723 0.27515
#
# Static dielectric constant tensor:
#      x y z
#    x 2.137730 0.014980 -0.013610 
#    y 0.014980 1.703390 0.018280 
#    z -0.013610 0.018280 1.963990 
# 
# From -- ./inp_files/140362.got.cif
#   From: 2010.05.17/outbox.cif.g08.bks.cpg/sg2_71_cif.got.tgz:140362.got - 2010.06.03 11:33:40.
