data_PCOD9067541
_publ_section_title
;
Structure prediction by ZEFSAII (Michael W. Deem and Ramdas Pophale) SiO2 
 PCOD9067541
Probable space group: P -1
;
_chemical_formula_sum "Si O2"
_cell_formula_units_Z 15
_cell_length_a 8.796035
_cell_length_b 16.606074
_cell_length_c 20.269203
_cell_angle_alpha 159.163221
_cell_angle_beta 42.134513
_cell_angle_gamma 127.793399
_cell_volume 665.364669
_symmetry_space_group_name_H-M "P -1"
_symmetry_group_IT_number 2
_symmetry_cell_setting 'triclinic'
loop_
_space_group_symop_operation_xyz
x,y,z
-x,-y,-z
loop_
_atom_site_type_symbol
_atom_site_label
_atom_site_fract_x
_atom_site_fract_y
_atom_site_fract_z
Si Si1 0.761457 0.808473 0.945664
Si Si2 0.127036 0.694574 0.099000
Si Si3 0.480494 0.776484 0.877214
Si Si4 0.328009 0.649205 0.610172
Si Si5 0.514424 0.243196 0.770101
Si Si6 0.370454 0.600308 0.288313
Si Si7 0.000000 0.000000 0.500000
Si Si8 0.062178 0.072060 0.791442
O O1 0.623314 0.782469 0.903279
O O2 0.725553 0.618320 0.864322
O O3 0.047358 0.724667 0.778018
O O4 0.648641 0.091116 0.215246
O O5 0.152500 0.814068 0.251006
O O6 0.005166 0.894581 0.238422
O O7 0.376406 0.535340 0.864141
O O8 0.000000 0.500000 0.000000
O O9 0.607739 0.529454 0.608849
O O10 0.192985 0.821361 0.009077
O O11 0.500000 0.000000 0.000000
O O12 0.500000 0.500000 0.500000
O O13 0.559091 0.270735 0.698681
O O14 0.268014 0.192514 0.826221
O O15 0.749307 0.043295 0.571032
O O16 0.500000 0.500000 0.000000
O O17 0.190017 0.787196 0.538431
#
# Coordination Sequence:
#
# PCOD9067541 Si02
#       8
#     2   2   2   2   2   2   1   2
#     4  11  26  48  76 110 142 197 243 307 375 439
#     4  12  23  45  70 103 141 189 242 295 359 432
#     4  12  25  50  79 108 147 194 248 308 373 437
#     4  11  25  50  77 106 150 187 248 310 369 441
#     4  12  25  46  69 106 149 192 247 304 363 442
#     4  12  24  44  73 102 149 189 241 304 367 435
#     4  12  24  44  72  98 142 198 238 292 362 428
#     4  12  26  46  74 107 147 201 247 303 373 440
#
# _framework density 22.544028999999998
#
# number of rings (size 3 to 8) (size 9 to 14) (size 15 to 20)
#    0.000    0.267    6.667    2.400    0.000    1.067 
#    7.200    0.000    0.000    0.000    0.000    0.000 
#    0.000    0.000    0.000    0.000    0.000    0.000 
#
# Total GULP energy -83532.282921 kJ/mol
# GULP energy per Si atom -5568.818861 kJ/mol
# Density = 2.249272 g / cm^3
# Si number density = 22.544029 Si / 1000 Ang^3
#
#
#
# Elastic Constant Matrix: (Units=GPa)
#
#
# Indices 1 2 3 4 5 6 
#
# 1 92.3072 23.0325 24.7282 -0.3023 -17.4836 9.5998
# 2 23.0325 115.7205 31.1334 11.1145 -6.2901 20.8225
# 3 24.7282 31.1334 156.1274 10.5704 -8.4434 13.7310
# 4 -0.3023 11.1145 10.5704 27.9971 12.5749 -0.4114
# 5 -17.4836 -6.2901 -8.4434 12.5749 48.3008 -8.2890
# 6 9.5998 20.8225 13.7310 -0.4114 -8.2890 25.5973
#
#
#
# Elastic Compliance Matrix: (Units=1/GPa)
#
#
# Indices 1 2 3 4 5 6 
#
# 1 0.012478 -0.001619 -0.001278 -0.000551 0.003987 -0.001395
# 2 -0.001619 0.011070 -0.000940 -0.004395 0.000496 -0.007803
# 3 -0.001278 -0.000940 0.007253 -0.002874 0.001026 -0.002360
# 4 -0.000551 -0.004395 -0.002874 0.044152 -0.012424 0.002010
# 5 0.003987 0.000496 0.001026 -0.012424 0.026652 0.005982
# 6 -0.001395 -0.007803 -0.002360 0.002010 0.005982 0.049173
#
#
# Mechanical properties :
#
#
# Convention : Reuss Voigt Hill
#
# Bulk Modulus (GPa) = 43.24171 57.99371 50.61771
# Shear Modulus (GPa) = 30.09147 39.39644 34.74396
#
# Velocity S-wave (km/s) = 3.65744 4.18489 3.93002
# Velocity P-wave (km/s) = 6.08756 7.00939 6.56468
#
# Compressibility (1/GPa) = 0.02312582
#
# Stress axis : x y z
#
# Youngs Moduli (GPa) = 80.14047 90.33479 137.88153
#
# Poissons Ratio (x) = 0.14627 0.17620
# Poissons Ratio (y) = 0.12976 0.12966
# Poissons Ratio (z) = 0.10241 0.08495
#
# Static dielectric constant tensor:
#      x y z
#    x 1.822780 -0.008130 -0.021500 
#    y -0.008130 1.936250 0.028160 
#    z -0.021500 0.028160 1.841800 
# 
# From -- ./inp_files/591023.got.cif
#   From: 2010.05.17/outbox.cif.g08.bks.cpg/sg2_296_cif.got.tgz:591023.got - 2010.06.03 11:33:40.
