data_PCOD9067236
_publ_section_title
;
Structure prediction by ZEFSAII (Michael W. Deem and Ramdas Pophale) SiO2 
 PCOD9067236
Probable space group: P -1
;
_chemical_formula_sum "Si O2"
_cell_formula_units_Z 13
_cell_length_a 14.667558
_cell_length_b 8.372606
_cell_length_c 14.442942
_cell_angle_alpha 120.155028
_cell_angle_beta 19.530062
_cell_angle_gamma 119.576098
_cell_volume 511.453050
_symmetry_space_group_name_H-M "P -1"
_symmetry_group_IT_number 2
_symmetry_cell_setting 'triclinic'
loop_
_space_group_symop_operation_xyz
x,y,z
-x,-y,-z
loop_
_atom_site_type_symbol
_atom_site_label
_atom_site_fract_x
_atom_site_fract_y
_atom_site_fract_z
Si Si1 0.516757 0.120575 0.836296
Si Si2 0.800109 0.858790 0.206995
Si Si3 0.537902 0.315310 0.262334
Si Si4 0.011641 0.444645 0.723591
Si Si5 0.641563 0.191823 0.541357
Si Si6 0.000000 0.500000 0.000000
Si Si7 0.062985 0.304817 0.430949
O O1 0.487580 0.216139 0.791749
O O2 0.831081 0.154883 0.573917
O O3 0.441346 0.902702 0.837776
O O4 0.344761 0.231151 0.105756
O O5 0.543516 0.806906 0.372029
O O6 0.933260 0.677652 0.055366
O O7 0.729744 0.981119 0.398591
O O8 0.000000 0.000000 0.000000
O O9 0.224401 0.374704 0.577592
O O10 0.706263 0.387103 0.210717
O O11 0.705337 0.413816 0.044788
O O12 0.112999 0.653975 0.661997
O O13 0.050790 0.329390 0.559593
O O14 0.000000 0.500000 0.500000
#
# Coordination Sequence:
#
# PCOD9067236 Si02
#       7
#     2   2   2   2   2   1   2
#     4  12  28  48  78 113 151 199 253 326 378 462
#     4  11  25  48  74 114 151 209 256 327 383 483
#     4  12  29  48  75 113 156 196 251 319 391 456
#     4  12  27  49  76 109 152 203 250 320 383 459
#     4  11  26  46  78 108 157 197 263 312 398 450
#     4  12  26  46  80 110 156 200 266 306 398 462
#     4  12  27  47  80 110 146 199 265 310 386 462
#
# _framework density 25.41778
#
# number of rings (size 3 to 8) (size 9 to 14) (size 15 to 20)
#    0.000    0.308    3.077    4.154    8.615    5.538 
#    0.000    0.000    0.000    0.000    0.000    0.000 
#    0.000    0.000    0.000    0.000    0.000    0.000 
#
# Total GULP energy -72753.203375 kJ/mol
# GULP energy per Si atom -5596.400260 kJ/mol
# Density = 2.535993 g / cm^3
# Si number density = 25.417780 Si / 1000 Ang^3
#
#
#
# Elastic Constant Matrix: (Units=GPa)
#
#
# Indices 1 2 3 4 5 6 
#
# 1 73.5138 27.2354 -9.5901 -2.9613 -13.3436 14.1942
# 2 27.2354 157.5679 0.8637 -11.0474 -3.8160 -13.5250
# 3 -9.5901 0.8637 64.1516 -3.1915 5.3444 -8.2579
# 4 -2.9613 -11.0474 -3.1915 37.8534 3.2131 -4.6050
# 5 -13.3436 -3.8160 5.3444 3.2131 39.1752 4.6512
# 6 14.1942 -13.5250 -8.2579 -4.6050 4.6512 42.9152
#
#
#
# Elastic Compliance Matrix: (Units=1/GPa)
#
#
# Indices 1 2 3 4 5 6 
#
# 1 0.017704 -0.003636 0.001121 -0.001060 0.006513 -0.007605
# 2 -0.003636 0.007460 0.000090 0.002485 -0.001199 0.003968
# 3 0.001121 0.000090 0.016489 0.002114 -0.002426 0.003320
# 4 -0.001060 0.002485 0.002114 0.028116 -0.003297 0.004915
# 5 0.006513 -0.001199 -0.002426 -0.003297 0.029001 -0.006496
# 6 -0.007605 0.003968 0.003320 0.004915 -0.006496 0.028938
#
#
# Mechanical properties :
#
#
# Convention : Reuss Voigt Hill
#
# Bulk Modulus (GPa) = 27.17010 36.91683 32.04346
# Shear Modulus (GPa) = 34.52457 42.43705 38.48081
#
# Velocity S-wave (km/s) = 3.68949 4.09048 3.89515
# Velocity P-wave (km/s) = 5.37237 6.07165 5.73268
#
# Compressibility (1/GPa) = 0.03680517
#
# Stress axis : x y z
#
# Youngs Moduli (GPa) = 56.48444 134.04596 60.64570
#
# Poissons Ratio (x) = 0.48734 -0.06800
# Poissons Ratio (y) = 0.20536 -0.00548
# Poissons Ratio (z) = -0.06333 -0.01210
#
# Static dielectric constant tensor:
#      x y z
#    x 2.100940 0.062180 0.130830 
#    y 0.062180 1.981840 0.067540 
#    z 0.130830 0.067540 2.052460 
# 
# From -- ./inp_files/77495.got.cif
#   From: 2010.05.17/outbox.cif.g08.bks.cpg/sg2_39_cif.got.tgz:77495.got - 2010.06.03 11:33:40.
