data_PCOD9067076
_publ_section_title
;
Structure prediction by ZEFSAII (Michael W. Deem and Ramdas Pophale) SiO2 
 PCOD9067076
Probable space group: P -1
;
_chemical_formula_sum "Si O2"
_cell_formula_units_Z 14
_cell_length_a 11.870040
_cell_length_b 7.606631
_cell_length_c 7.967922
_cell_angle_alpha 88.571499
_cell_angle_beta 52.937189
_cell_angle_gamma 69.501157
_cell_volume 520.798086
_symmetry_space_group_name_H-M "P -1"
_symmetry_group_IT_number 2
_symmetry_cell_setting 'triclinic'
loop_
_space_group_symop_operation_xyz
x,y,z
-x,-y,-z
loop_
_atom_site_type_symbol
_atom_site_label
_atom_site_fract_x
_atom_site_fract_y
_atom_site_fract_z
Si Si1 0.283255 0.929955 0.438610
Si Si2 0.672130 0.073666 0.028022
Si Si3 0.962560 0.149389 0.828476
Si Si4 0.856640 0.340427 0.585217
Si Si5 0.642634 0.771839 0.860419
Si Si6 0.870036 0.444172 0.195786
Si Si7 0.522549 0.777154 0.485813
O O1 0.459915 0.825426 0.001278
O O2 0.210603 0.817848 0.388571
O O3 0.430984 0.768111 0.402437
O O4 0.313293 0.107873 0.327953
O O5 0.847533 0.050102 0.885415
O O6 0.680898 0.856919 0.996067
O O7 0.855250 0.974716 0.301798
O O8 0.967642 0.259997 0.647495
O O9 0.882945 0.279219 0.056066
O O10 0.733307 0.546390 0.757154
O O11 0.910244 0.378660 0.354244
O O12 0.420798 0.787336 0.740085
O O13 0.696683 0.616341 0.345491
O O14 0.000000 0.500000 0.000000
O O15 0.500000 0.000000 0.500000
#
# Coordination Sequence:
#
# PCOD9067076 Si02
#       7
#     2   2   2   2   2   2   2
#     4  12  27  53  77 118 161 210 267 328 398 478
#     4  11  25  47  77 115 163 205 267 327 405 476
#     4  12  29  51  80 119 164 210 269 331 401 473
#     4  12  27  51  85 112 161 209 268 333 392 475
#     4  11  25  49  75 119 156 209 271 323 398 483
#     4  12  29  52  81 124 157 210 276 327 407 480
#     4  12  25  48  79 112 163 207 261 338 390 477
#
# _framework density 26.881822
#
# number of rings (size 3 to 8) (size 9 to 14) (size 15 to 20)
#    0.000    0.286    4.286    3.000    4.000    7.429 
#    0.000    0.000    0.000    0.000    0.000    0.000 
#    0.000    0.000    0.000    0.000    0.000    0.000 
#
# Total GULP energy -78331.038008 kJ/mol
# GULP energy per Si atom -5595.074143 kJ/mol
# Density = 2.682064 g / cm^3
# Si number density = 26.881822 Si / 1000 Ang^3
#
#
#
# Elastic Constant Matrix: (Units=GPa)
#
#
# Indices 1 2 3 4 5 6 
#
# 1 59.0175 6.4289 32.7498 -11.8663 -21.4506 -19.6430
# 2 6.4289 77.9011 29.8096 18.1779 -11.0618 -15.1608
# 3 32.7498 29.8096 129.4895 6.1321 -10.8113 -20.7034
# 4 -11.8663 18.1779 6.1321 52.5687 -1.1196 2.3214
# 5 -21.4506 -11.0618 -10.8113 -1.1196 66.0114 2.4565
# 6 -19.6430 -15.1608 -20.7034 2.3214 2.4565 43.1155
#
#
#
# Elastic Compliance Matrix: (Units=1/GPa)
#
#
# Indices 1 2 3 4 5 6 
#
# 1 0.026900 0.001343 -0.005228 0.005968 0.007860 0.009448
# 2 0.001343 0.016373 -0.002836 -0.005203 0.002436 0.005149
# 3 -0.005228 -0.002836 0.009956 -0.001441 -0.000624 0.001515
# 4 0.005968 -0.005203 -0.001441 0.022412 0.001252 -0.001081
# 5 0.007860 0.002436 -0.000624 0.001252 0.017917 0.003049
# 6 0.009448 0.005149 0.001515 -0.001081 0.003049 0.029920
#
#
# Mechanical properties :
#
#
# Convention : Reuss Voigt Hill
#
# Bulk Modulus (GPa) = 25.13386 44.93163 35.03275
# Shear Modulus (GPa) = 33.29260 45.50046 39.39653
#
# Velocity S-wave (km/s) = 3.52302 4.11860 3.83240
# Velocity P-wave (km/s) = 5.09107 6.27439 5.71344
#
# Compressibility (1/GPa) = 0.03978696
#
# Stress axis : x y z
#
# Youngs Moduli (GPa) = 37.17406 61.07522 100.44050
#
# Poissons Ratio (x) = -0.08202 0.52515
# Poissons Ratio (y) = -0.04992 0.28484
# Poissons Ratio (z) = 0.19436 0.17320
#
# Static dielectric constant tensor:
#      x y z
#    x 2.112540 0.024230 0.068890 
#    y 0.024230 2.168380 -0.080630 
#    z 0.068890 -0.080630 2.275030 
# 
# From -- ./inp_files/290550.got.cif
#   From: 2010.05.17/outbox.cif.g08.bks.cpg/sg2_146_cif.got.tgz:290550.got - 2010.06.03 11:33:40.
