data_PCOD9067976
_publ_section_title
;
Structure prediction by ZEFSAII (Michael W. Deem and Ramdas Pophale) SiO2 
 PCOD9067976
Probable space group: P -1
;
_chemical_formula_sum "Si O2"
_cell_formula_units_Z 10
_cell_length_a 15.909585
_cell_length_b 9.350536
_cell_length_c 9.739539
_cell_angle_alpha 56.035146
_cell_angle_beta 33.472526
_cell_angle_gamma 32.616683
_cell_volume 376.898552
_symmetry_space_group_name_H-M "P -1"
_symmetry_group_IT_number 2
_symmetry_cell_setting 'triclinic'
loop_
_space_group_symop_operation_xyz
x,y,z
-x,-y,-z
loop_
_atom_site_type_symbol
_atom_site_label
_atom_site_fract_x
_atom_site_fract_y
_atom_site_fract_z
Si Si1 0.188316 0.628950 0.892029
Si Si2 0.330367 0.433447 0.305733
Si Si3 0.833312 0.718281 0.979158
Si Si4 0.979289 0.724020 0.395256
Si Si5 0.352922 0.670082 0.393754
O O1 0.300042 0.331838 0.872691
O O2 0.152168 0.749069 0.728395
O O3 0.376992 0.577488 0.752666
O O4 0.957316 0.800195 0.225098
O O5 0.249394 0.541111 0.200505
O O6 0.347378 0.580799 0.304046
O O7 0.599691 0.070926 0.141239
O O8 0.069191 0.573814 0.640813
O O9 0.000000 0.500000 0.000000
O O10 0.000000 0.500000 0.500000
O O11 0.750779 0.038003 0.619590
#
# Coordination Sequence:
#
# PCOD9067976 Si02
#       5
#     2   2   2   2   2
#     4  11  26  46  77 105 156 195 261 299 385 442
#     4  12  28  47  80 112 152 199 254 314 378 445
#     4  12  26  49  80 111 152 202 254 307 378 459
#     4  12  26  47  75 110 155 199 250 314 383 447
#     4  11  27  47  74 113 149 204 251 317 370 455
#
# _framework density 26.532339
#
# number of rings (size 3 to 8) (size 9 to 14) (size 15 to 20)
#    0.000    0.400    4.000    3.000    5.600    4.000 
#    0.000    0.000    0.000    0.000    0.000    0.000 
#    0.000    0.000    0.000    0.000    0.000    0.000 
#
# Total GULP energy -55970.549833 kJ/mol
# GULP energy per Si atom -5597.054983 kJ/mol
# Density = 2.647195 g / cm^3
# Si number density = 26.532339 Si / 1000 Ang^3
#
#
#
# Elastic Constant Matrix: (Units=GPa)
#
#
# Indices 1 2 3 4 5 6 
#
# 1 172.2061 47.4681 27.0787 5.2594 11.3027 29.0638
# 2 47.4681 138.6134 40.0460 30.0115 10.0265 19.9247
# 3 27.0787 40.0460 110.5763 6.5673 11.7331 1.8360
# 4 5.2594 30.0115 6.5673 52.8309 6.3804 7.0874
# 5 11.3027 10.0265 11.7331 6.3804 47.9514 -1.7695
# 6 29.0638 19.9247 1.8360 7.0874 -1.7695 63.4200
#
#
#
# Elastic Compliance Matrix: (Units=1/GPa)
#
#
# Indices 1 2 3 4 5 6 
#
# 1 0.006977 -0.001855 -0.000916 0.000993 -0.001265 -0.002734
# 2 -0.001855 0.009981 -0.002803 -0.004867 -0.000378 -0.001671
# 3 -0.000916 -0.002803 0.010429 0.000482 -0.001781 0.000895
# 4 0.000993 -0.004867 0.000482 0.022010 -0.002317 -0.001464
# 5 -0.001265 -0.000378 -0.001781 -0.002317 0.022036 0.001624
# 6 -0.002734 -0.001671 0.000895 -0.001464 0.001624 0.017729
#
#
# Mechanical properties :
#
#
# Convention : Reuss Voigt Hill
#
# Bulk Modulus (GPa) = 61.58705 72.28682 66.93694
# Shear Modulus (GPa) = 47.29391 53.29399 50.29395
#
# Velocity S-wave (km/s) = 4.22655 4.48665 4.35854
# Velocity P-wave (km/s) = 6.86154 7.35826 7.11424
#
# Compressibility (1/GPa) = 0.01623718
#
# Stress axis : x y z
#
# Youngs Moduli (GPa) = 143.33832 100.19357 95.89022
#
# Poissons Ratio (x) = 0.18584 0.08783
# Poissons Ratio (y) = 0.26587 0.26883
# Poissons Ratio (z) = 0.13130 0.28089
#
# Static dielectric constant tensor:
#      x y z
#    x 2.114310 -0.044620 0.015780 
#    y -0.044620 2.071880 -0.083650 
#    z 0.015780 -0.083650 2.218110 
# 
# From -- ./inp_files/15786.got.cif
#   From: 2010.05.17/outbox.cif.g08.bks.cpg/sg2_8_cif.got.tgz:15786.got - 2010.06.03 11:33:40.
