data_PCOD9067757
_publ_section_title
;
Structure prediction by ZEFSAII (Michael W. Deem and Ramdas Pophale) SiO2 
 PCOD9067757
Probable space group: P -1
;
_chemical_formula_sum "Si O2"
_cell_formula_units_Z 12
_cell_length_a 13.800283
_cell_length_b 4.979168
_cell_length_c 13.407047
_cell_angle_alpha 57.641123
_cell_angle_beta 41.410872
_cell_angle_gamma 58.406799
_cell_volume 502.219512
_symmetry_space_group_name_H-M "P -1"
_symmetry_group_IT_number 2
_symmetry_cell_setting 'triclinic'
loop_
_space_group_symop_operation_xyz
x,y,z
-x,-y,-z
loop_
_atom_site_type_symbol
_atom_site_label
_atom_site_fract_x
_atom_site_fract_y
_atom_site_fract_z
Si Si1 0.892300 0.817877 0.796921
Si Si2 0.694026 0.793469 0.302808
Si Si3 0.616005 0.701726 0.596003
Si Si4 0.416231 0.716290 0.112383
Si Si5 0.854282 0.380236 0.090830
Si Si6 0.056271 0.343985 0.594393
O O1 0.755248 0.107599 0.811985
O O2 0.985518 0.620546 0.673993
O O3 0.997860 0.020516 0.730425
O O4 0.836085 0.562156 0.962152
O O5 0.533138 0.022522 0.357425
O O6 0.820862 0.016818 0.173818
O O7 0.675560 0.612476 0.456091
O O8 0.731005 0.547208 0.232348
O O9 0.571368 0.450135 0.756638
O O10 0.764699 0.767832 0.520633
O O11 0.500000 0.500000 0.000000
O O12 0.500000 0.000000 0.000000
O O13 0.000000 0.500000 0.000000
O O14 0.000000 0.500000 0.500000
#
# Coordination Sequence:
#
# PCOD9067757 Si02
#       6
#     2   2   2   2   2   2
#     4  12  25  44  69 103 137 177 232 280 342 407
#     4  11  26  45  70 104 133 187 222 284 340 404
#     4  11  26  46  71  98 144 175 235 278 342 409
#     4  12  26  43  68  98 135 179 220 282 344 399
#     4  12  24  46  72 101 140 176 233 278 341 406
#     4  12  25  44  69 103 138 183 227 281 342 404
#
# _framework density 23.893933000000001
#
# number of rings (size 3 to 8) (size 9 to 14) (size 15 to 20)
#    0.000    0.333    1.667    7.000    0.000    5.333 
#    0.000    0.000    0.000    0.000    0.000    0.000 
#    0.000    0.000    0.000    0.000    0.000    0.000 
#
# Total GULP energy -67138.793390 kJ/mol
# GULP energy per Si atom -5594.899449 kJ/mol
# Density = 2.383955 g / cm^3
# Si number density = 23.893933 Si / 1000 Ang^3
#
#
#
# Elastic Constant Matrix: (Units=GPa)
#
#
# Indices 1 2 3 4 5 6 
#
# 1 93.8994 32.7655 37.0408 -0.7982 3.4810 -18.9149
# 2 32.7655 112.4844 38.0833 2.2124 4.1117 21.4955
# 3 37.0408 38.0833 133.6823 -23.6136 18.9851 -10.0446
# 4 -0.7982 2.2124 -23.6136 29.8816 -10.2164 -6.3679
# 5 3.4810 4.1117 18.9851 -10.2164 55.8027 -9.8253
# 6 -18.9149 21.4955 -10.0446 -6.3679 -9.8253 40.2169
#
#
#
# Elastic Compliance Matrix: (Units=1/GPa)
#
#
# Indices 1 2 3 4 5 6 
#
# 1 0.015763 -0.006475 -0.001470 0.003112 0.002613 0.011638
# 2 -0.006475 0.015672 -0.005022 -0.009697 -0.003469 -0.015059
# 3 -0.001470 -0.005022 0.011797 0.010921 -0.000395 0.006572
# 4 0.003112 -0.009697 0.010921 0.050327 0.009480 0.019659
# 5 0.002613 -0.003469 -0.000395 0.009480 0.021602 0.009763
# 6 0.011638 -0.015059 0.006572 0.019659 0.009763 0.045527
#
#
# Mechanical properties :
#
#
# Convention : Reuss Voigt Hill
#
# Bulk Modulus (GPa) = 57.80919 61.76059 59.78489
# Shear Modulus (GPa) = 25.98910 40.65866 33.32388
#
# Velocity S-wave (km/s) = 3.30159 4.12956 3.73856
# Velocity P-wave (km/s) = 6.22741 6.97435 6.61144
#
# Compressibility (1/GPa) = 0.01729829
#
# Stress axis : x y z
#
# Youngs Moduli (GPa) = 63.44063 63.80917 84.76384
#
# Poissons Ratio (x) = 0.41314 0.12460
# Poissons Ratio (y) = 0.41075 0.42571
# Poissons Ratio (z) = 0.09325 0.32047
#
# Static dielectric constant tensor:
#      x y z
#    x 1.952440 -0.029790 -0.116610 
#    y -0.029790 1.858700 0.012420 
#    z -0.116610 0.012420 1.916420 
# 
# From -- ./inp_files/524925.got.cif
#   From: 2010.05.17/outbox.cif.g08.bks.cpg/sg2_263_cif.got.tgz:524925.got - 2010.06.03 11:33:40.
