data_PCOD9067275
_publ_section_title
;
Structure prediction by ZEFSAII (Michael W. Deem and Ramdas Pophale) SiO2 
 PCOD9067275
Probable space group: P -1
;
_chemical_formula_sum "Si O2"
_cell_formula_units_Z 14
_cell_length_a 20.193323
_cell_length_b 14.469136
_cell_length_c 11.957436
_cell_angle_alpha 31.521758
_cell_angle_beta 31.360443
_cell_angle_gamma 19.430136
_cell_volume 581.961053
_symmetry_space_group_name_H-M "P -1"
_symmetry_group_IT_number 2
_symmetry_cell_setting 'triclinic'
loop_
_space_group_symop_operation_xyz
x,y,z
-x,-y,-z
loop_
_atom_site_type_symbol
_atom_site_label
_atom_site_fract_x
_atom_site_fract_y
_atom_site_fract_z
Si Si1 0.671667 0.423919 0.763406
Si Si2 0.926585 0.121095 0.108415
Si Si3 0.810510 0.859431 0.893993
Si Si4 0.866571 0.557211 0.315552
Si Si5 0.129577 0.399101 0.307397
Si Si6 0.465311 0.511012 0.360490
Si Si7 0.438235 0.173603 0.801761
O O1 0.679756 0.630920 0.543575
O O2 0.615513 0.441925 0.697169
O O3 0.500000 0.500000 0.000000
O O4 0.892784 0.127055 0.807709
O O5 0.710822 0.252384 0.292869
O O6 0.872631 0.387387 0.923669
O O7 0.000000 0.000000 0.000000
O O8 0.000714 0.699459 0.703765
O O9 0.634156 0.191924 0.778295
O O10 0.819395 0.799167 0.074905
O O11 0.750293 0.731778 0.068826
O O12 0.011805 0.437328 0.334749
O O13 0.000000 0.500000 0.500000
O O14 0.363588 0.066437 0.317907
O O15 0.385380 0.434318 0.627090
O O16 0.500000 0.000000 0.000000
#
# Coordination Sequence:
#
# PCOD9067275 Si02
#       7
#     2   2   2   2   2   2   2
#     4  12  26  45  74 109 154 204 252 316 387 463
#     4  12  25  46  71 111 152 198 255 307 384 463
#     4  11  25  48  76 112 151 203 259 318 387 457
#     4  11  25  49  74 109 157 198 260 323 380 466
#     4  12  26  45  74 108 152 197 253 321 383 457
#     4  12  26  48  78 111 155 198 257 320 385 459
#     4  12  25  48  74 110 150 199 256 318 384 459
#
# _framework density 24.056591999999998
#
# number of rings (size 3 to 8) (size 9 to 14) (size 15 to 20)
#    0.000    0.286    5.714    3.429    0.000    2.286 
#    0.000    2.143    0.000    0.000    0.000    0.000 
#    0.000    0.000    0.000    0.000    0.000    0.000 
#
# Total GULP energy -78260.224646 kJ/mol
# GULP energy per Si atom -5590.016046 kJ/mol
# Density = 2.400184 g / cm^3
# Si number density = 24.056592 Si / 1000 Ang^3
#
#
#
# Elastic Constant Matrix: (Units=GPa)
#
#
# Indices 1 2 3 4 5 6 
#
# 1 100.6359 4.9992 26.2334 -4.2301 2.2439 -27.1212
# 2 4.9992 63.2997 32.8657 -16.6834 3.6230 -11.5080
# 3 26.2334 32.8657 153.0506 -8.8283 -8.6295 -3.3288
# 4 -4.2301 -16.6834 -8.8283 38.2199 -1.8534 2.6345
# 5 2.2439 3.6230 -8.6295 -1.8534 49.9457 -6.5146
# 6 -27.1212 -11.5080 -3.3288 2.6345 -6.5146 32.0327
#
#
#
# Elastic Compliance Matrix: (Units=1/GPa)
#
#
# Indices 1 2 3 4 5 6 
#
# 1 0.013892 0.002868 -0.002626 0.001341 0.000393 0.012489
# 2 0.002868 0.021748 -0.004560 0.008094 -0.001034 0.008891
# 3 -0.002626 -0.004560 0.007976 -0.000180 0.001465 -0.002720
# 4 0.001341 0.008094 -0.000180 0.029718 0.000648 0.001712
# 5 0.000393 -0.001034 0.001465 0.000648 0.020919 0.004315
# 6 0.012489 0.008891 -0.002720 0.001712 0.004315 0.045441
#
#
# Mechanical properties :
#
#
# Convention : Reuss Voigt Hill
#
# Bulk Modulus (GPa) = 28.58733 49.46475 39.02604
# Shear Modulus (GPa) = 31.25207 40.89884 36.07546
#
# Velocity S-wave (km/s) = 3.60822 4.12771 3.87668
# Velocity P-wave (km/s) = 5.41001 6.58208 6.02462
#
# Compressibility (1/GPa) = 0.03498053
#
# Stress axis : x y z
#
# Youngs Moduli (GPa) = 71.98242 45.98185 125.37500
#
# Poissons Ratio (x) = -0.13186 0.32921
# Poissons Ratio (y) = -0.20642 0.57166
# Poissons Ratio (z) = 0.18901 0.20966
#
# Static dielectric constant tensor:
#      x y z
#    x 3.476340 -1.094130 0.165890 
#    y -1.094130 2.714610 -0.068030 
#    z 0.165890 -0.068030 1.992420 
# 
# From -- ./inp_files/457593.got.cif
#   From: 2010.05.17/outbox.cif.g08.bks.cpg/sg2_229_cif.got.tgz:457593.got - 2010.06.03 11:33:40.
