data_PCOD9067323
_publ_section_title
;
Structure prediction by ZEFSAII (Michael W. Deem and Ramdas Pophale) SiO2 
 PCOD9067323
Probable space group: P -1
;
_chemical_formula_sum "Si O2"
_cell_formula_units_Z 12
_cell_length_a 8.347778
_cell_length_b 8.588015
_cell_length_c 11.216524
_cell_angle_alpha 43.883421
_cell_angle_beta 57.236063
_cell_angle_gamma 74.337817
_cell_volume 458.676667
_symmetry_space_group_name_H-M "P -1"
_symmetry_group_IT_number 2
_symmetry_cell_setting 'triclinic'
loop_
_space_group_symop_operation_xyz
x,y,z
-x,-y,-z
loop_
_atom_site_type_symbol
_atom_site_label
_atom_site_fract_x
_atom_site_fract_y
_atom_site_fract_z
Si Si1 0.830250 0.256342 0.100877
Si Si2 0.160633 0.950670 0.554434
Si Si3 0.531889 0.580028 0.806356
Si Si4 0.834792 0.475713 0.344747
Si Si5 0.722789 0.247900 0.746681
Si Si6 0.660980 0.921466 0.147659
O O1 0.929256 0.148035 0.228990
O O2 0.683848 0.389348 0.152912
O O3 0.705427 0.059782 0.175838
O O4 0.500000 0.500000 0.000000
O O5 0.254078 0.757437 0.559657
O O6 0.318727 0.178067 0.390702
O O7 0.000000 0.000000 0.500000
O O8 0.617046 0.408219 0.783202
O O9 0.970643 0.419799 0.864296
O O10 0.864951 0.399832 0.510143
O O11 0.710454 0.672636 0.281974
O O12 0.552794 0.107207 0.807051
O O13 0.792680 0.076568 0.906765
#
# Coordination Sequence:
#
# PCOD9067323 Si02
#       6
#     2   2   2   2   2   2
#     4  12  26  51  78 118 158 208 262 321 394 473
#     4  12  29  49  79 116 158 210 264 327 394 461
#     4  12  25  51  80 115 156 210 265 317 391 473
#     4  12  27  48  78 116 160 202 259 324 393 464
#     4  11  26  48  84 112 160 202 269 318 395 462
#     4  11  25  48  78 117 155 208 259 324 391 463
#
# _framework density 26.162220000000001
#
# number of rings (size 3 to 8) (size 9 to 14) (size 15 to 20)
#    0.000    0.333    1.667    6.000    4.667    0.667 
#    0.000    0.000    0.000    0.000    0.000    0.000 
#    0.000    0.000    0.000    0.000    0.000    0.000 
#
# Total GULP energy -67291.965109 kJ/mol
# GULP energy per Si atom -5607.663759 kJ/mol
# Density = 2.610267 g / cm^3
# Si number density = 26.162220 Si / 1000 Ang^3
#
#
#
# Elastic Constant Matrix: (Units=GPa)
#
#
# Indices 1 2 3 4 5 6 
#
# 1 56.1628 -4.1071 42.8620 12.5552 14.1688 18.5088
# 2 -4.1071 135.3832 57.5620 4.7938 -1.9009 20.9966
# 3 42.8620 57.5620 216.9527 26.0307 17.6864 11.8025
# 4 12.5552 4.7938 26.0307 55.1879 8.5462 0.0676
# 5 14.1688 -1.9009 17.6864 8.5462 60.4983 2.6095
# 6 18.5088 20.9966 11.8025 0.0676 2.6095 41.6915
#
#
#
# Elastic Compliance Matrix: (Units=1/GPa)
#
#
# Indices 1 2 3 4 5 6 
#
# 1 0.028838 0.005482 -0.005643 -0.003769 -0.003808 -0.013721
# 2 0.005482 0.010017 -0.003344 -0.000590 0.000375 -0.006554
# 3 -0.005643 -0.003344 0.006716 -0.001498 -0.000636 0.002330
# 4 -0.003769 -0.000590 -0.001498 0.019984 -0.001627 0.002464
# 5 -0.003808 0.000375 -0.000636 -0.001627 0.017824 0.000569
# 6 -0.013721 -0.006554 0.002330 0.002464 0.000569 0.032679
#
#
# Mechanical properties :
#
#
# Convention : Reuss Voigt Hill
#
# Bulk Modulus (GPa) = 25.93238 66.79248 46.36243
# Shear Modulus (GPa) = 36.78587 52.28766 44.53677
#
# Velocity S-wave (km/s) = 3.75383 4.47541 4.13041
# Velocity P-wave (km/s) = 5.35929 7.23127 6.36448
#
# Compressibility (1/GPa) = 0.03856183
#
# Stress axis : x y z
#
# Youngs Moduli (GPa) = 34.67669 99.82809 148.89491
#
# Poissons Ratio (x) = -0.54726 0.84018
# Poissons Ratio (y) = -0.19010 0.49791
# Poissons Ratio (z) = 0.19567 0.33383
#
# Static dielectric constant tensor:
#      x y z
#    x 2.122090 -0.058500 -0.022090 
#    y -0.058500 2.017310 -0.019930 
#    z -0.022090 -0.019930 2.114140 
# 
# From -- ./inp_files/375390.got.cif
#   From: 2010.05.17/outbox.cif.g08.bks.cpg/sg2_188_cif.got.tgz:375390.got - 2010.06.03 11:33:40.
