data_PCOD9067378
_publ_section_title
;
Structure prediction by ZEFSAII (Michael W. Deem and Ramdas Pophale) SiO2 
 PCOD9067378
Probable space group: P -1
;
_chemical_formula_sum "Si O2"
_cell_formula_units_Z 10
_cell_length_a 15.325191
_cell_length_b 4.929104
_cell_length_c 12.229399
_cell_angle_alpha 115.708043
_cell_angle_beta 150.882562
_cell_angle_gamma 56.513419
_cell_volume 372.252403
_symmetry_space_group_name_H-M "P -1"
_symmetry_group_IT_number 2
_symmetry_cell_setting 'triclinic'
loop_
_space_group_symop_operation_xyz
x,y,z
-x,-y,-z
loop_
_atom_site_type_symbol
_atom_site_label
_atom_site_fract_x
_atom_site_fract_y
_atom_site_fract_z
Si Si1 0.780029 0.543254 0.743987
Si Si2 0.192624 0.420652 0.477453
Si Si3 0.778204 0.454134 0.087512
Si Si4 0.700645 0.179216 0.166124
Si Si5 0.494030 0.788686 0.649669
O O1 0.769360 0.552377 0.603586
O O2 0.636118 0.819787 0.715971
O O3 0.683575 0.277004 0.613632
O O4 0.000000 0.500000 0.000000
O O5 0.183809 0.722166 0.594562
O O6 0.995808 0.364713 0.267751
O O7 0.382746 0.099306 0.658333
O O8 0.780959 0.191748 0.134242
O O9 0.712930 0.814772 0.135215
O O10 0.632217 0.515285 0.836654
O O11 0.500000 0.500000 0.000000
#
# Coordination Sequence:
#
# PCOD9067378 Si02
#       5
#     2   2   2   2   2
#     4  11  25  49  73 108 148 198 258 312 376 443
#     4  12  26  45  77 104 154 196 249 311 380 445
#     4  12  27  48  76 116 148 201 248 310 379 456
#     4  12  26  47  78 109 156 195 249 308 382 450
#     4  11  26  47  76 108 148 200 253 313 377 449
#
# _framework density 26.863491
#
# number of rings (size 3 to 8) (size 9 to 14) (size 15 to 20)
#    0.000    0.400    4.000    3.600    5.600    0.800 
#    0.000    0.000    0.000    0.000    0.000    0.000 
#    0.000    0.000    0.000    0.000    0.000    0.000 
#
# Total GULP energy -55996.847788 kJ/mol
# GULP energy per Si atom -5599.684779 kJ/mol
# Density = 2.680235 g / cm^3
# Si number density = 26.863491 Si / 1000 Ang^3
#
#
#
# Elastic Constant Matrix: (Units=GPa)
#
#
# Indices 1 2 3 4 5 6 
#
# 1 144.1228 21.2206 51.2312 -5.4947 12.5767 -15.5263
# 2 21.2206 96.5769 29.1051 10.8663 5.4808 -15.7603
# 3 51.2312 29.1051 165.7258 6.1958 16.2938 -13.2902
# 4 -5.4947 10.8663 6.1958 43.8056 -10.6553 2.7912
# 5 12.5767 5.4808 16.2938 -10.6553 64.4863 -6.7160
# 6 -15.5263 -15.7603 -13.2902 2.7912 -6.7160 43.6591
#
#
#
# Elastic Compliance Matrix: (Units=1/GPa)
#
#
# Indices 1 2 3 4 5 6 
#
# 1 0.008148 -0.000965 -0.002208 0.001331 -0.000552 0.001707
# 2 -0.000965 0.011975 -0.001321 -0.003299 -0.000657 0.003687
# 3 -0.002208 -0.001321 0.007203 -0.001364 -0.001419 0.000799
# 4 0.001331 -0.003299 -0.001364 0.025188 0.004311 -0.002080
# 5 -0.000552 -0.000657 -0.001419 0.004311 0.016893 0.001458
# 6 0.001707 0.003687 0.000799 -0.002080 0.001458 0.025444
#
#
# Mechanical properties :
#
#
# Convention : Reuss Voigt Hill
#
# Bulk Modulus (GPa) = 54.53024 67.72661 61.12843
# Shear Modulus (GPa) = 45.47452 50.71477 48.09464
#
# Velocity S-wave (km/s) = 4.11883 4.34968 4.23583
# Velocity P-wave (km/s) = 6.55460 7.10580 6.83576
#
# Compressibility (1/GPa) = 0.01833845
#
# Stress axis : x y z
#
# Youngs Moduli (GPa) = 122.72529 83.50853 138.82464
#
# Poissons Ratio (x) = 0.08057 0.30653
# Poissons Ratio (y) = 0.11840 0.18341
# Poissons Ratio (z) = 0.27099 0.11033
#
# Static dielectric constant tensor:
#      x y z
#    x 2.068030 -0.015850 -0.011170 
#    y -0.015850 2.225150 0.029340 
#    z -0.011170 0.029340 2.123650 
# 
# From -- ./inp_files/4724.got.cif
#   From: 2010.05.17/outbox.cif.g08.bks.cpg/sg2_3_cif.got.tgz:4724.got - 2010.06.03 11:33:40.
