data_PCOD9067008
_publ_section_title
;
Structure prediction by ZEFSAII (Michael W. Deem and Ramdas Pophale) SiO2 
 PCOD9067008
Probable space group: P -1
;
_chemical_formula_sum "Si O2"
_cell_formula_units_Z 15
_cell_length_a 18.448203
_cell_length_b 14.747382
_cell_length_c 11.570309
_cell_angle_alpha 29.297402
_cell_angle_beta 152.566112
_cell_angle_gamma 157.560198
_cell_volume 529.082327
_symmetry_space_group_name_H-M "P -1"
_symmetry_group_IT_number 2
_symmetry_cell_setting 'triclinic'
loop_
_space_group_symop_operation_xyz
x,y,z
-x,-y,-z
loop_
_atom_site_type_symbol
_atom_site_label
_atom_site_fract_x
_atom_site_fract_y
_atom_site_fract_z
Si Si1 0.612356 0.626697 0.706575
Si Si2 0.548533 0.361499 0.143925
Si Si3 0.638915 0.021384 0.385149
Si Si4 0.901748 0.143213 0.946185
Si Si5 0.000000 0.500000 0.500000
Si Si6 0.189060 0.593620 0.342986
Si Si7 0.448465 0.719232 0.179681
Si Si8 0.948362 0.076214 0.457632
O O1 0.740155 0.899050 0.640802
O O2 0.437638 0.624450 0.397862
O O3 0.656349 0.519475 0.784202
O O4 0.548884 0.447097 0.921870
O O5 0.761384 0.442432 0.413342
O O6 0.351282 0.069397 0.195307
O O7 0.500000 0.500000 0.000000
O O8 0.415522 0.814248 0.362362
O O9 0.779327 0.259280 0.399467
O O10 0.627635 0.137650 0.123831
O O11 0.005130 0.306293 0.797392
O O12 0.931401 0.311496 0.906420
O O13 0.973339 0.998464 0.246795
O O14 0.063534 0.356716 0.346070
O O15 0.697958 0.911323 0.287471
O O16 0.000000 0.000000 0.500000
#
# Coordination Sequence:
#
# PCOD9067008 Si02
#       8
#     2   2   2   2   1   2   2   2
#     4  11  25  47  75 106 148 196 246 313 365 448
#     4  12  21  47  76 105 146 199 248 305 375 439
#     4  12  25  51  74 108 152 196 245 310 376 446
#     4  12  27  47  73 111 152 191 253 312 370 450
#     4  12  30  46  74 114 152 190 244 322 372 442
#     4  12  26  45  81 109 147 205 250 305 382 447
#     4  11  28  46  75 112 148 203 247 300 388 441
#     4  12  27  50  75 112 151 198 257 311 363 454
#
# _framework density 28.350974999999998
#
# number of rings (size 3 to 8) (size 9 to 14) (size 15 to 20)
#    0.000    0.267    4.000    4.000    7.467    3.200 
#    0.000    2.000    0.000    0.000    0.000    0.000 
#    0.000    0.000    0.000    0.000    0.000    0.000 
#
# Total GULP energy -83894.013954 kJ/mol
# GULP energy per Si atom -5592.934264 kJ/mol
# Density = 2.828645 g / cm^3
# Si number density = 28.350975 Si / 1000 Ang^3
#
#
#
# Elastic Constant Matrix: (Units=GPa)
#
#
# Indices 1 2 3 4 5 6 
#
# 1 118.2514 34.0939 21.2002 -13.5416 -8.1576 -5.0573
# 2 34.0939 191.0633 23.9482 -25.1268 -1.0284 -3.4564
# 3 21.2002 23.9482 114.1965 -19.3409 -10.6941 2.9283
# 4 -13.5416 -25.1268 -19.3409 53.3106 -10.6394 5.1776
# 5 -8.1576 -1.0284 -10.6941 -10.6394 61.6409 1.8141
# 6 -5.0573 -3.4564 2.9283 5.1776 1.8141 39.5697
#
#
#
# Elastic Compliance Matrix: (Units=1/GPa)
#
#
# Indices 1 2 3 4 5 6 
#
# 1 0.009330 -0.001303 -0.001107 0.001517 0.001256 0.000905
# 2 -0.001303 0.005837 -0.000585 0.002241 0.000208 0.000084
# 3 -0.001107 -0.000585 0.009952 0.003648 0.002244 -0.001509
# 4 0.001517 0.002241 0.003648 0.022800 0.004897 -0.003088
# 5 0.001256 0.000208 0.002244 0.004897 0.017670 -0.001438
# 6 0.000905 0.000084 -0.001509 -0.003088 -0.001438 0.025976
#
#
# Mechanical properties :
#
#
# Convention : Reuss Voigt Hill
#
# Bulk Modulus (GPa) = 52.28321 64.66622 58.47472
# Shear Modulus (GPa) = 48.10781 53.85551 50.98166
#
# Velocity S-wave (km/s) = 4.12377 4.36317 4.24516
# Velocity P-wave (km/s) = 6.41525 6.94562 6.68570
#
# Compressibility (1/GPa) = 0.01912660
#
# Stress axis : x y z
#
# Youngs Moduli (GPa) = 107.18211 171.31540 100.48385
#
# Poissons Ratio (x) = 0.22331 0.11128
# Poissons Ratio (y) = 0.13971 0.05881
# Poissons Ratio (z) = 0.11870 0.10026
#
# Static dielectric constant tensor:
#      x y z
#    x 2.721410 0.082210 0.026140 
#    y 0.082210 2.238920 0.073900 
#    z 0.026140 0.073900 2.228710 
# 
# From -- ./inp_files/471887.got.cif
#   From: 2010.05.17/outbox.cif.g08.bks.cpg/sg2_236_cif.got.tgz:471887.got - 2010.06.03 11:33:40.
