data_PCOD9067291
_publ_section_title
;
Structure prediction by ZEFSAII (Michael W. Deem and Ramdas Pophale) SiO2 
 PCOD9067291
Probable space group: P -1
;
_chemical_formula_sum "Si O2"
_cell_formula_units_Z 14
_cell_length_a 11.636651
_cell_length_b 5.759300
_cell_length_c 11.000633
_cell_angle_alpha 73.667432
_cell_angle_beta 106.408381
_cell_angle_gamma 125.009182
_cell_volume 572.560186
_symmetry_space_group_name_H-M "P -1"
_symmetry_group_IT_number 2
_symmetry_cell_setting 'triclinic'
loop_
_space_group_symop_operation_xyz
x,y,z
-x,-y,-z
loop_
_atom_site_type_symbol
_atom_site_label
_atom_site_fract_x
_atom_site_fract_y
_atom_site_fract_z
Si Si1 0.897407 0.535721 0.051025
Si Si2 0.159944 0.055244 0.173193
Si Si3 0.685196 0.040999 0.228604
Si Si4 0.426137 0.526298 0.595630
Si Si5 0.214290 0.396615 0.360197
Si Si6 0.963383 0.252619 0.428445
Si Si7 0.581892 0.996694 0.758652
O O1 0.780557 0.230751 0.117377
O O2 0.831386 0.678042 0.930320
O O3 0.002126 0.784274 0.141096
O O4 0.000000 0.500000 0.000000
O O5 0.182288 0.120872 0.314973
O O6 0.290679 0.042618 0.161447
O O7 0.803045 0.137183 0.356736
O O8 0.561498 0.106388 0.195886
O O9 0.605317 0.697822 0.272045
O O10 0.500000 0.500000 0.500000
O O11 0.277443 0.452216 0.506558
O O12 0.523275 0.836227 0.636161
O O13 0.071886 0.398720 0.325827
O O14 0.336900 0.665284 0.285064
O O15 0.000000 0.500000 0.500000
O O16 0.000000 0.000000 0.500000
#
# Coordination Sequence:
#
# PCOD9067291 Si02
#       7
#     2   2   2   2   2   2   2
#     4  11  27  52  78 101 144 194 262 326 390 452
#     4  11  25  48  77 105 137 202 252 323 384 458
#     4  12  27  44  71 111 147 197 253 314 389 459
#     4  12  24  42  69 109 152 193 237 300 375 466
#     4  12  25  46  72 105 154 200 254 304 390 456
#     4  12  28  44  72 111 158 203 261 318 384 468
#     4  12  25  43  74 107 151 199 249 306 389 463
#
# _framework density 24.451578000000001
#
# number of rings (size 3 to 8) (size 9 to 14) (size 15 to 20)
#    0.000    0.286    4.286    3.857    6.000    2.857 
#    0.000    5.000    0.000    0.000    0.000    0.000 
#    0.000    0.000    0.000    0.000    0.000    0.000 
#
# Total GULP energy -78184.276600 kJ/mol
# GULP energy per Si atom -5584.591186 kJ/mol
# Density = 2.439592 g / cm^3
# Si number density = 24.451578 Si / 1000 Ang^3
#
#
#
# Elastic Constant Matrix: (Units=GPa)
#
#
# Indices 1 2 3 4 5 6 
#
# 1 158.9701 22.5067 20.2517 -13.8917 3.4203 19.3545
# 2 22.5067 99.0385 25.0746 6.8883 -13.3413 10.5834
# 3 20.2517 25.0746 63.6058 -19.8432 10.7007 -4.5670
# 4 -13.8917 6.8883 -19.8432 52.0619 -0.6451 2.1474
# 5 3.4203 -13.3413 10.7007 -0.6451 49.2190 -5.3785
# 6 19.3545 10.5834 -4.5670 2.1474 -5.3785 39.0436
#
#
#
# Elastic Compliance Matrix: (Units=1/GPa)
#
#
# Indices 1 2 3 4 5 6 
#
# 1 0.007246 -0.001115 -0.001467 0.001663 -0.000867 -0.003672
# 2 -0.001115 0.013602 -0.007565 -0.004792 0.005011 -0.003065
# 3 -0.001467 -0.007565 0.023458 0.009300 -0.006477 0.004118
# 4 0.001663 -0.004792 0.009300 0.023799 -0.003144 -0.000180
# 5 -0.000867 0.005011 -0.006477 -0.003144 0.023288 0.001695
# 6 -0.003672 -0.003065 0.004118 -0.000180 0.001695 0.028989
#
#
# Mechanical properties :
#
#
# Convention : Reuss Voigt Hill
#
# Bulk Modulus (GPa) = 41.64638 50.80893 46.22766
# Shear Modulus (GPa) = 33.62932 44.98364 39.30648
#
# Velocity S-wave (km/s) = 3.71259 4.29383 4.01374
# Velocity P-wave (km/s) = 5.95373 6.73848 6.35822
#
# Compressibility (1/GPa) = 0.02401169
#
# Stress axis : x y z
#
# Youngs Moduli (GPa) = 138.00199 73.51946 42.62957
#
# Poissons Ratio (x) = 0.08200 0.06252
# Poissons Ratio (y) = 0.15393 0.32250
# Poissons Ratio (z) = 0.20239 0.55619
#
# Static dielectric constant tensor:
#      x y z
#    x 1.983090 0.038170 0.019820 
#    y 0.038170 2.021190 -0.075820 
#    z 0.019820 -0.075820 2.053030 
# 
# From -- ./inp_files/410134.got.cif
#   From: 2010.05.17/outbox.cif.g08.bks.cpg/sg2_206_cif.got.tgz:410134.got - 2010.06.03 11:33:40.
