data_PCOD9067531
_publ_section_title
;
Structure prediction by ZEFSAII (Michael W. Deem and Ramdas Pophale) SiO2 
 PCOD9067531
Probable space group: P -1
;
_chemical_formula_sum "Si O2"
_cell_formula_units_Z 12
_cell_length_a 18.221299
_cell_length_b 9.454742
_cell_length_c 6.813510
_cell_angle_alpha 131.571082
_cell_angle_beta 35.767854
_cell_angle_gamma 134.309719
_cell_volume 477.635381
_symmetry_space_group_name_H-M "P -1"
_symmetry_group_IT_number 2
_symmetry_cell_setting 'triclinic'
loop_
_space_group_symop_operation_xyz
x,y,z
-x,-y,-z
loop_
_atom_site_type_symbol
_atom_site_label
_atom_site_fract_x
_atom_site_fract_y
_atom_site_fract_z
Si Si1 0.703209 0.838278 0.143262
Si Si2 0.710758 0.181263 0.692616
Si Si3 0.077018 0.230190 0.114051
Si Si4 0.004958 0.458081 0.181178
Si Si5 0.371248 0.018231 0.913947
Si Si6 0.467768 0.583731 0.850517
O O1 0.740625 0.983661 0.005814
O O2 0.598789 0.628974 0.090744
O O3 0.643431 0.961404 0.534589
O O4 0.808978 0.784259 0.997872
O O5 0.865704 0.274860 0.375914
O O6 0.645785 0.326743 0.871119
O O7 0.684112 0.150413 0.953043
O O8 0.998049 0.342618 0.518105
O O9 0.113272 0.374927 0.972509
O O10 0.000000 0.000000 0.000000
O O11 0.000000 0.500000 0.000000
O O12 0.500000 0.000000 0.500000
O O13 0.417627 0.231733 0.125765
O O14 0.500000 0.500000 0.500000
#
# Coordination Sequence:
#
# PCOD9067531 Si02
#       6
#     2   2   2   2   2   2
#     4  12  25  46  74 113 147 202 248 303 380 446
#     4  12  25  49  74 111 154 190 252 317 365 443
#     4  11  25  50  76 110 149 192 254 319 367 447
#     4  11  27  51  78 110 149 198 250 313 378 445
#     4  12  26  46  78 108 152 202 248 305 372 444
#     4  12  24  48  75 108 154 195 248 310 370 439
#
# _framework density 25.123767000000001
#
# number of rings (size 3 to 8) (size 9 to 14) (size 15 to 20)
#    0.000    0.333    6.667    2.000    0.000    4.667 
#    0.000    0.000    0.000    0.000    0.000    0.000 
#    0.000    0.000    0.000    0.000    0.000    0.000 
#
# Total GULP energy -67062.371826 kJ/mol
# GULP energy per Si atom -5588.530986 kJ/mol
# Density = 2.506658 g / cm^3
# Si number density = 25.123767 Si / 1000 Ang^3
#
#
#
# Elastic Constant Matrix: (Units=GPa)
#
#
# Indices 1 2 3 4 5 6 
#
# 1 123.7230 23.0614 32.9671 -8.0979 31.5365 -28.2723
# 2 23.0614 120.1654 50.9655 14.6921 21.1444 -10.9867
# 3 32.9671 50.9655 90.3419 23.9739 20.8587 -14.4092
# 4 -8.0979 14.6921 23.9739 63.3142 -11.5339 11.3562
# 5 31.5365 21.1444 20.8587 -11.5339 48.8744 -3.7116
# 6 -28.2723 -10.9867 -14.4092 11.3562 -3.7116 54.5578
#
#
#
# Elastic Compliance Matrix: (Units=1/GPa)
#
#
# Indices 1 2 3 4 5 6 
#
# 1 0.011275 0.000218 -0.002126 0.000223 -0.006040 0.004868
# 2 0.000218 0.011292 -0.005211 -0.001369 -0.003043 0.001089
# 3 -0.002126 -0.005211 0.019001 -0.008108 -0.006082 0.004141
# 4 0.000223 -0.001369 -0.008108 0.021903 0.008601 -0.006276
# 5 -0.006040 -0.003043 -0.006082 0.008601 0.029913 -0.005105
# 6 0.004868 0.001089 0.004141 -0.006276 -0.005105 0.023124
#
#
# Mechanical properties :
#
#
# Convention : Reuss Voigt Hill
#
# Bulk Modulus (GPa) = 36.58672 60.91316 48.74994
# Shear Modulus (GPa) = 35.75160 48.49835 42.12497
#
# Velocity S-wave (km/s) = 3.77638 4.39837 4.09919
# Velocity P-wave (km/s) = 5.79733 7.07758 6.46920
#
# Compressibility (1/GPa) = 0.02733232
#
# Stress axis : x y z
#
# Youngs Moduli (GPa) = 88.69272 88.55596 52.62953
#
# Poissons Ratio (x) = -0.01934 0.11187
# Poissons Ratio (y) = -0.01937 0.27423
# Poissons Ratio (z) = 0.18853 0.46143
#
# Static dielectric constant tensor:
#      x y z
#    x 2.102750 -0.017390 -0.036730 
#    y -0.017390 2.242220 -0.026610 
#    z -0.036730 -0.026610 1.998130 
# 
# From -- ./inp_files/107742.got.cif
#   From: 2010.05.17/outbox.cif.g08.bks.cpg/sg2_54_cif.got.tgz:107742.got - 2010.06.03 11:33:40.
