data_PCOD9067582
_publ_section_title
;
Structure prediction by ZEFSAII (Michael W. Deem and Ramdas Pophale) SiO2 
 PCOD9067582
Probable space group: P -1
;
_chemical_formula_sum "Si O2"
_cell_formula_units_Z 10
_cell_length_a 8.678987
_cell_length_b 8.350021
_cell_length_c 9.057612
_cell_angle_alpha 88.700490
_cell_angle_beta 57.046750
_cell_angle_gamma 125.998171
_cell_volume 384.786626
_symmetry_space_group_name_H-M "P -1"
_symmetry_group_IT_number 2
_symmetry_cell_setting 'triclinic'
loop_
_space_group_symop_operation_xyz
x,y,z
-x,-y,-z
loop_
_atom_site_type_symbol
_atom_site_label
_atom_site_fract_x
_atom_site_fract_y
_atom_site_fract_z
Si Si1 0.586843 0.327027 0.855958
Si Si2 0.695203 0.055729 0.754935
Si Si3 0.969833 0.159961 0.318383
Si Si4 0.865170 0.248736 0.095723
Si Si5 0.295464 0.283266 0.720640
O O1 0.458756 0.297617 0.766746
O O2 0.744091 0.578000 0.831737
O O3 0.780854 0.290569 0.747825
O O4 0.370685 0.119756 0.085801
O O5 0.880102 0.101157 0.533984
O O6 0.411508 0.917897 0.836320
O O7 0.871578 0.941007 0.289824
O O8 0.817339 0.192122 0.294488
O O9 0.078455 0.258164 0.916454
O O10 0.000000 0.500000 0.000000
O O11 0.500000 0.500000 0.500000
#
# Coordination Sequence:
#
# PCOD9067582 Si02
#       5
#     2   2   2   2   2
#     4  11  27  49  80 116 160 196 266 315 383 458
#     4  11  25  50  82 116 157 203 258 320 383 459
#     4  12  26  51  82 111 156 206 257 315 389 453
#     4  12  25  50  80 112 155 207 257 316 387 462
#     4  12  30  51  79 115 159 204 258 320 388 458
#
# _framework density 25.988429
#
# number of rings (size 3 to 8) (size 9 to 14) (size 15 to 20)
#    0.000    0.400    4.000    3.000    2.800    4.800 
#    0.000    0.000    0.000    0.000    0.000    0.000 
#    0.000    0.000    0.000    0.000    0.000    0.000 
#
# Total GULP energy -55970.072378 kJ/mol
# GULP energy per Si atom -5597.007238 kJ/mol
# Density = 2.592928 g / cm^3
# Si number density = 25.988429 Si / 1000 Ang^3
#
#
#
# Elastic Constant Matrix: (Units=GPa)
#
#
# Indices 1 2 3 4 5 6 
#
# 1 122.8029 56.3600 60.0310 -19.4835 27.8334 11.3507
# 2 56.3600 207.9007 48.0092 -23.5224 6.1264 -7.5153
# 3 60.0310 48.0092 170.8898 -20.1593 40.8521 -3.4059
# 4 -19.4835 -23.5224 -20.1593 33.0393 3.0001 5.7923
# 5 27.8334 6.1264 40.8521 3.0001 43.8290 0.5619
# 6 11.3507 -7.5153 -3.4059 5.7923 0.5619 44.9887
#
#
#
# Elastic Compliance Matrix: (Units=1/GPa)
#
#
# Indices 1 2 3 4 5 6 
#
# 1 0.013004 -0.002394 -0.001603 0.006400 -0.006809 -0.004541
# 2 -0.002394 0.005884 -0.000897 0.001883 0.001389 0.001259
# 3 -0.001603 -0.000897 0.009023 0.004532 -0.007583 0.000449
# 4 0.006400 0.001883 0.004532 0.040217 -0.011227 -0.005995
# 5 -0.006809 0.001389 -0.007583 -0.011227 0.034751 0.002387
# 6 -0.004541 0.001259 0.000449 -0.005995 0.002387 0.024360
#
#
# Mechanical properties :
#
#
# Convention : Reuss Voigt Hill
#
# Bulk Modulus (GPa) = 55.18041 92.26599 73.72320
# Shear Modulus (GPa) = 34.94808 46.85092 40.89950
#
# Velocity S-wave (km/s) = 3.67107 4.25050 3.97137
# Velocity P-wave (km/s) = 6.26480 7.72456 7.03266
#
# Compressibility (1/GPa) = 0.01812238
#
# Stress axis : x y z
#
# Youngs Moduli (GPa) = 76.89764 169.95810 110.82780
#
# Poissons Ratio (x) = 0.40696 0.17769
# Poissons Ratio (y) = 0.18413 0.09937
# Poissons Ratio (z) = 0.12329 0.15239
#
# Static dielectric constant tensor:
#      x y z
#    x 2.068310 -0.094710 -0.030460 
#    y -0.094710 2.199610 0.125990 
#    z -0.030460 0.125990 2.089430 
# 
# From -- ./inp_files/153695.got.cif
#   From: 2010.05.17/outbox.cif.g08.bks.cpg/sg2_77_cif.got.tgz:153695.got - 2010.06.03 11:33:40.
