data_PCOD9067170
_publ_section_title
;
Structure prediction by ZEFSAII (Michael W. Deem and Ramdas Pophale) SiO2 
 PCOD9067170
Probable space group: P -1
;
_chemical_formula_sum "Si O2"
_cell_formula_units_Z 12
_cell_length_a 13.425264
_cell_length_b 12.836486
_cell_length_c 6.735992
_cell_angle_alpha 73.566146
_cell_angle_beta 101.048003
_cell_angle_gamma 148.687944
_cell_volume 575.712036
_symmetry_space_group_name_H-M "P -1"
_symmetry_group_IT_number 2
_symmetry_cell_setting 'triclinic'
loop_
_space_group_symop_operation_xyz
x,y,z
-x,-y,-z
loop_
_atom_site_type_symbol
_atom_site_label
_atom_site_fract_x
_atom_site_fract_y
_atom_site_fract_z
Si Si1 0.285025 0.346569 0.960377
Si Si2 0.912224 0.328627 0.698896
Si Si3 0.686240 0.985289 0.519038
Si Si4 0.705996 0.410329 0.216563
Si Si5 0.977891 0.049678 0.663903
Si Si6 0.298022 0.816720 0.910370
O O1 0.301390 0.485984 0.965936
O O2 0.181588 0.255161 0.749902
O O3 0.148295 0.142363 0.139134
O O4 0.500000 0.500000 0.000000
O O5 0.000000 0.500000 0.500000
O O6 0.727605 0.106395 0.649715
O O7 0.858963 0.321246 0.899850
O O8 0.079207 0.391942 0.723709
O O9 0.842402 0.030742 0.569656
O O10 0.712555 0.084655 0.282210
O O11 0.467635 0.747397 0.605263
O O12 0.707101 0.298032 0.158086
O O13 0.000000 0.000000 0.500000
O O14 0.500000 0.000000 0.000000
#
# Coordination Sequence:
#
# PCOD9067170 Si02
#       6
#     2   2   2   2   2   2
#     4  11  25  48  72 100 141 186 234 290 352 408
#     4  12  25  44  70 101 141 181 229 281 352 414
#     4  12  25  46  69 101 143 179 229 293 345 409
#     4  12  24  45  70 100 139 183 227 284 345 412
#     4  11  27  46  73 103 139 185 239 292 346 416
#     4  12  26  43  71 108 140 181 228 285 349 417
#
# _framework density 20.843755000000002
#
# number of rings (size 3 to 8) (size 9 to 14) (size 15 to 20)
#    0.000    0.333    6.667    2.000    2.333    2.000 
#    3.000    0.000    0.000    0.000    0.000    0.000 
#    0.000    0.000    0.000    0.000    0.000    0.000 
#
# Total GULP energy -66912.268835 kJ/mol
# GULP energy per Si atom -5576.022403 kJ/mol
# Density = 2.079631 g / cm^3
# Si number density = 20.843755 Si / 1000 Ang^3
#
#
#
# Elastic Constant Matrix: (Units=GPa)
#
#
# Indices 1 2 3 4 5 6 
#
# 1 147.4901 39.4945 83.2656 -2.9414 20.5989 10.7780
# 2 39.4945 104.1071 44.9893 -4.0866 -8.0670 20.3100
# 3 83.2656 44.9893 125.0336 7.8671 13.5302 5.4040
# 4 -2.9414 -4.0866 7.8671 26.8221 -6.7655 2.6480
# 5 20.5989 -8.0670 13.5302 -6.7655 42.2941 -4.1826
# 6 10.7780 20.3100 5.4040 2.6480 -4.1826 39.7263
#
#
#
# Elastic Compliance Matrix: (Units=1/GPa)
#
#
# Indices 1 2 3 4 5 6 
#
# 1 0.011821 -0.001137 -0.007151 0.002555 -0.003494 -0.002191
# 2 -0.001137 0.013894 -0.004858 0.005269 0.005012 -0.005957
# 3 -0.007151 -0.004858 0.015186 -0.007027 -0.003180 0.002492
# 4 0.002555 0.005269 -0.007027 0.042993 0.008450 -0.004408
# 5 -0.003494 0.005012 -0.003180 0.008450 0.028798 0.001287
# 6 -0.002191 -0.005957 0.002492 -0.004408 0.001287 0.028903
#
#
# Mechanical properties :
#
#
# Convention : Reuss Voigt Hill
#
# Bulk Modulus (GPa) = 68.45330 79.12551 73.78940
# Shear Modulus (GPa) = 28.94239 35.69393 32.31816
#
# Velocity S-wave (km/s) = 3.73035 4.14267 3.94191
# Velocity P-wave (km/s) = 7.17402 7.80551 7.49641
#
# Compressibility (1/GPa) = 0.01460850
#
# Stress axis : x y z
#
# Youngs Moduli (GPa) = 84.59755 71.97438 65.84811
#
# Poissons Ratio (x) = 0.08185 0.47086
# Poissons Ratio (y) = 0.09621 0.31991
# Poissons Ratio (z) = 0.60493 0.34968
#
# Static dielectric constant tensor:
#      x y z
#    x 1.497610 -0.105970 -0.116880 
#    y -0.105970 1.749840 -0.036670 
#    z -0.116880 -0.036670 1.687480 
# 
# From -- ./inp_files/96842.got.cif
#   From: 2010.05.17/outbox.cif.g08.bks.cpg/sg2_49_cif.got.tgz:96842.got - 2010.06.03 11:33:40.
