data_PCOD9067458
_publ_section_title
;
Structure prediction by ZEFSAII (Michael W. Deem and Ramdas Pophale) SiO2 
 PCOD9067458
Probable space group: P -1
;
_chemical_formula_sum "Si O2"
_cell_formula_units_Z 12
_cell_length_a 8.671417
_cell_length_b 9.447282
_cell_length_c 12.639582
_cell_angle_alpha 36.723922
_cell_angle_beta 58.747821
_cell_angle_gamma 76.281478
_cell_volume 495.924298
_symmetry_space_group_name_H-M "P -1"
_symmetry_group_IT_number 2
_symmetry_cell_setting 'triclinic'
loop_
_space_group_symop_operation_xyz
x,y,z
-x,-y,-z
loop_
_atom_site_type_symbol
_atom_site_label
_atom_site_fract_x
_atom_site_fract_y
_atom_site_fract_z
Si Si1 0.075510 0.359887 0.936017
Si Si2 0.559879 0.405686 0.198406
Si Si3 0.302865 0.262702 0.717308
Si Si4 0.173133 0.183758 0.588776
Si Si5 0.486006 0.110300 0.181682
Si Si6 0.951660 0.221688 0.444359
O O1 0.234165 0.525060 0.862457
O O2 0.191648 0.264533 0.862966
O O3 0.986191 0.536799 0.798018
O O4 0.931464 0.116086 0.189249
O O5 0.392775 0.261796 0.426123
O O6 0.530104 0.237225 0.205284
O O7 0.531522 0.668951 0.019623
O O8 0.500000 0.500000 0.500000
O O9 0.178435 0.279661 0.649020
O O10 0.358854 0.012736 0.834652
O O11 0.061885 0.278627 0.482017
O O12 0.277886 0.886642 0.393040
O O13 0.000000 0.000000 0.500000
#
# Coordination Sequence:
#
# PCOD9067458 Si02
#       6
#     2   2   2   2   2   2
#     4  12  28  51  76 111 154 198 251 307 374 449
#     4  11  25  49  79 112 149 200 246 315 371 442
#     4  12  26  50  74 109 154 202 247 305 373 456
#     4  12  27  48  76 112 148 199 247 309 376 436
#     4  11  25  49  78 113 153 194 254 306 380 444
#     4  12  26  46  74 116 149 190 254 313 369 440
#
# _framework density 24.197244000000001
#
# number of rings (size 3 to 8) (size 9 to 14) (size 15 to 20)
#    0.000    0.333    6.667    0.500    4.667    3.333 
#    3.000    0.000    0.000    0.000    0.000    0.000 
#    0.000    0.000    0.000    0.000    0.000    0.000 
#
# Total GULP energy -67387.159917 kJ/mol
# GULP energy per Si atom -5615.596660 kJ/mol
# Density = 2.414217 g / cm^3
# Si number density = 24.197244 Si / 1000 Ang^3
#
#
#
# Elastic Constant Matrix: (Units=GPa)
#
#
# Indices 1 2 3 4 5 6 
#
# 1 115.2480 11.1672 26.0262 -14.2576 19.5853 43.2015
# 2 11.1672 93.2281 -4.8725 -0.0633 11.9914 -1.0506
# 3 26.0262 -4.8725 146.5605 -7.3002 -0.0769 11.0434
# 4 -14.2576 -0.0633 -7.3002 30.6588 -1.8461 0.7857
# 5 19.5853 11.9914 -0.0769 -1.8461 50.9462 -10.3484
# 6 43.2015 -1.0506 11.0434 0.7857 -10.3484 50.7707
#
#
#
# Elastic Compliance Matrix: (Units=1/GPa)
#
#
# Indices 1 2 3 4 5 6 
#
# 1 0.018437 -0.001187 -0.001597 0.008034 -0.010083 -0.017545
# 2 -0.001187 0.011165 0.000499 -0.000552 -0.002044 0.000725
# 3 -0.001597 0.000499 0.007181 0.001003 0.000523 -0.000102
# 4 0.008034 -0.000552 0.001003 0.036604 -0.003318 -0.008308
# 5 -0.010083 -0.002044 0.000523 -0.003318 0.026693 0.013916
# 6 -0.017545 0.000725 -0.000102 -0.008308 0.013916 0.037628
#
#
# Mechanical properties :
#
#
# Convention : Reuss Voigt Hill
#
# Bulk Modulus (GPa) = 31.04295 46.63092 38.83694
# Shear Modulus (GPa) = 32.67637 47.98952 40.33295
#
# Velocity S-wave (km/s) = 3.67879 4.45822 4.08713
# Velocity P-wave (km/s) = 5.55892 6.76860 6.19337
#
# Compressibility (1/GPa) = 0.03221343
#
# Stress axis : x y z
#
# Youngs Moduli (GPa) = 54.23928 89.56307 139.25385
#
# Poissons Ratio (x) = 0.10633 0.22233
# Poissons Ratio (y) = 0.06439 -0.06947
# Poissons Ratio (z) = 0.08660 -0.04468
#
# Static dielectric constant tensor:
#      x y z
#    x 1.934640 -0.022050 0.000750 
#    y -0.022050 1.902320 -0.011180 
#    z 0.000750 -0.011180 1.891220 
# 
# From -- ./inp_files/184980.got.cif
#   From: 2010.05.17/outbox.cif.g08.bks.cpg/sg2_93_cif.got.tgz:184980.got - 2010.06.03 11:33:40.
