data_PCOD9067172
_publ_section_title
;
Structure prediction by ZEFSAII (Michael W. Deem and Ramdas Pophale) SiO2 
 PCOD9067172
Probable space group: P -1
;
_chemical_formula_sum "Si O2"
_cell_formula_units_Z 16
_cell_length_a 16.828965
_cell_length_b 9.879777
_cell_length_c 11.876902
_cell_angle_alpha 30.684198
_cell_angle_beta 128.066615
_cell_angle_gamma 133.205647
_cell_volume 732.469619
_symmetry_space_group_name_H-M "P -1"
_symmetry_group_IT_number 2
_symmetry_cell_setting 'triclinic'
loop_
_space_group_symop_operation_xyz
x,y,z
-x,-y,-z
loop_
_atom_site_type_symbol
_atom_site_label
_atom_site_fract_x
_atom_site_fract_y
_atom_site_fract_z
Si Si1 0.099919 0.311124 0.850938
Si Si2 0.895640 0.958688 0.168117
Si Si3 0.895310 0.088996 0.544438
Si Si4 0.720081 0.168704 0.810642
Si Si5 0.627551 0.098175 0.021288
Si Si6 0.283404 0.324463 0.180681
Si Si7 0.445307 0.214596 0.240895
Si Si8 0.786838 0.832304 0.407668
O O1 0.138287 0.308324 0.757027
O O2 0.059226 0.568272 0.652810
O O3 0.201032 0.354581 0.991530
O O4 0.000000 0.000000 0.000000
O O5 0.846912 0.913347 0.282632
O O6 0.023979 0.046695 0.234110
O O7 0.840396 0.160227 0.921468
O O8 0.784032 0.970562 0.603190
O O9 0.870661 0.976618 0.477100
O O10 0.736027 0.493793 0.602432
O O11 0.652261 0.002963 0.764257
O O12 0.653391 0.034847 0.961840
O O13 0.687429 0.935211 0.262851
O O14 0.687524 0.427090 0.878039
O O15 0.500000 0.000000 0.000000
O O16 0.392088 0.326928 0.215627
O O17 0.500000 0.000000 0.500000
O O18 0.500000 0.500000 0.000000
#
# Coordination Sequence:
#
# PCOD9067172 Si02
#       8
#     2   2   2   2   2   2   2   2
#     4  12  26  46  71 107 147 191 248 304 384 454
#     4  11  26  43  72 103 146 189 243 298 381 454
#     4  12  26  46  72 107 146 196 245 310 380 459
#     4  11  26  46  72 103 147 190 250 306 378 454
#     4  11  25  48  72 102 142 191 255 311 380 447
#     4  12  26  46  76 107 149 192 251 319 372 460
#     4  12  31  51  78 113 153 203 257 322 394 456
#     4  11  26  45  70 107 143 192 246 314 373 459
#
# _framework density 21.843910000000001
#
# number of rings (size 3 to 8) (size 9 to 14) (size 15 to 20)
#    0.000    0.500    5.000    1.500   10.500    2.000 
#    0.000    0.000    0.000    0.000    0.000    0.000 
#    0.000    0.000    0.000    0.000    0.000    0.000 
#
# Total GULP energy -89309.683879 kJ/mol
# GULP energy per Si atom -5581.855242 kJ/mol
# Density = 2.179419 g / cm^3
# Si number density = 21.843910 Si / 1000 Ang^3
#
#
#
# Elastic Constant Matrix: (Units=GPa)
#
#
# Indices 1 2 3 4 5 6 
#
# 1 88.5423 2.6978 22.1198 2.6294 3.4439 -1.0921
# 2 2.6978 87.3090 22.1066 -0.9766 -1.9040 -14.6677
# 3 22.1198 22.1066 96.3835 -8.5057 8.7093 14.7219
# 4 2.6294 -0.9766 -8.5057 40.5002 -1.5650 -4.3146
# 5 3.4439 -1.9040 8.7093 -1.5650 26.5519 4.2093
# 6 -1.0921 -14.6677 14.7219 -4.3146 4.2093 38.0194
#
#
#
# Elastic Compliance Matrix: (Units=1/GPa)
#
#
# Indices 1 2 3 4 5 6 
#
# 1 0.012186 0.000734 -0.003288 -0.001299 -0.000819 0.001850
# 2 0.000734 0.013763 -0.004489 0.000130 0.001271 0.006943
# 3 -0.003288 -0.004489 0.013633 0.002151 -0.003209 -0.006506
# 4 -0.001299 0.000130 0.002151 0.025469 0.000657 0.001997
# 5 -0.000819 0.001271 -0.003209 0.000657 0.039359 -0.002574
# 6 0.001850 0.006943 -0.006506 0.001997 -0.002574 0.032065
#
#
# Mechanical properties :
#
#
# Convention : Reuss Voigt Hill
#
# Bulk Modulus (GPa) = 39.22109 40.67590 39.94849
# Shear Modulus (GPa) = 31.43463 36.03500 33.73481
#
# Velocity S-wave (km/s) = 3.79761 4.06601 3.93410
# Velocity P-wave (km/s) = 6.10108 6.38003 6.24212
#
# Compressibility (1/GPa) = 0.02549649
#
# Stress axis : x y z
#
# Youngs Moduli (GPa) = 82.05864 72.65778 73.35083
#
# Poissons Ratio (x) = -0.05337 0.24121
# Poissons Ratio (y) = -0.06027 0.32929
# Poissons Ratio (z) = 0.26984 0.32617
#
# Static dielectric constant tensor:
#      x y z
#    x 1.868370 -0.014440 -0.075710 
#    y -0.014440 1.764190 0.045790 
#    z -0.075710 0.045790 1.883420 
# 
# From -- ./inp_files/461763.got.cif
#   From: 2010.05.17/outbox.cif.g08.bks.cpg/sg2_231_cif.got.tgz:461763.got - 2010.06.03 11:33:40.
