data_PCOD9067447
_publ_section_title
;
Structure prediction by ZEFSAII (Michael W. Deem and Ramdas Pophale) SiO2 
 PCOD9067447
Probable space group: P -1
;
_chemical_formula_sum "Si O2"
_cell_formula_units_Z 16
_cell_length_a 8.961058
_cell_length_b 18.771841
_cell_length_c 13.155098
_cell_angle_alpha 146.378160
_cell_angle_beta 30.633161
_cell_angle_gamma 134.653443
_cell_volume 623.602854
_symmetry_space_group_name_H-M "P -1"
_symmetry_group_IT_number 2
_symmetry_cell_setting 'triclinic'
loop_
_space_group_symop_operation_xyz
x,y,z
-x,-y,-z
loop_
_atom_site_type_symbol
_atom_site_label
_atom_site_fract_x
_atom_site_fract_y
_atom_site_fract_z
Si Si1 0.065003 0.732785 0.986070
Si Si2 0.355366 0.400577 0.542529
Si Si3 0.288466 0.958450 0.662503
Si Si4 0.615988 0.634794 0.283654
Si Si5 0.240469 0.425155 0.199005
Si Si6 0.351111 0.916204 0.800264
Si Si7 0.790625 0.256822 0.685675
Si Si8 0.917692 0.982098 0.644332
O O1 0.927079 0.645043 0.875867
O O2 0.414803 0.718456 0.755021
O O3 0.919630 0.681778 0.114715
O O4 0.998502 0.884270 0.195715
O O5 0.500000 0.500000 0.500000
O O6 0.356510 0.429467 0.696951
O O7 0.026901 0.365570 0.668803
O O8 0.411858 0.971860 0.718531
O O9 0.238288 0.810163 0.486965
O O10 0.500000 0.000000 0.500000
O O11 0.472153 0.314468 0.975241
O O12 0.459338 0.539904 0.186331
O O13 0.412605 0.763710 0.573138
O O14 0.000000 0.500000 0.500000
O O15 0.981801 0.038470 0.932800
O O16 0.570652 0.964866 0.813236
O O17 0.932677 0.144981 0.542543
O O18 0.000000 0.000000 0.500000
#
# Coordination Sequence:
#
# PCOD9067447 Si02
#       8
#     2   2   2   2   2   2   2   2
#     4  12  27  51  84 119 170 218 270 342 430 488
#     4  12  28  51  81 120 160 226 281 341 407 497
#     4  11  27  46  80 119 171 213 265 335 412 501
#     4  12  26  51  82 115 167 215 279 343 404 498
#     4  12  29  53  81 118 161 223 285 344 410 496
#     4  11  25  49  77 123 164 212 271 332 412 490
#     4  12  28  49  82 119 167 213 277 341 417 491
#     4  12  25  49  83 124 164 214 266 343 416 504
#
# _framework density 25.657354000000002
#
# number of rings (size 3 to 8) (size 9 to 14) (size 15 to 20)
#    0.000    0.250    3.750    3.375    5.250    5.000 
#    0.000    0.000    0.000    0.000    0.000    0.000 
#    0.000    0.000    0.000    0.000    0.000    0.000 
#
# Total GULP energy -89650.976010 kJ/mol
# GULP energy per Si atom -5603.186001 kJ/mol
# Density = 2.559896 g / cm^3
# Si number density = 25.657354 Si / 1000 Ang^3
#
#
#
# Elastic Constant Matrix: (Units=GPa)
#
#
# Indices 1 2 3 4 5 6 
#
# 1 124.3842 59.4512 82.3126 -10.1267 -2.6682 -3.3623
# 2 59.4512 123.3003 39.2084 -5.3709 16.0078 -3.8685
# 3 82.3126 39.2084 171.9544 -7.4413 -8.4623 3.6026
# 4 -10.1267 -5.3709 -7.4413 49.5115 13.3785 11.7776
# 5 -2.6682 16.0078 -8.4623 13.3785 49.8303 -7.9516
# 6 -3.3623 -3.8685 3.6026 11.7776 -7.9516 48.7286
#
#
#
# Elastic Compliance Matrix: (Units=1/GPa)
#
#
# Indices 1 2 3 4 5 6 
#
# 1 0.014400 -0.005277 -0.005601 0.000905 0.001432 0.001004
# 2 -0.005277 0.011342 -0.000205 0.001441 -0.004431 -0.000520
# 3 -0.005601 -0.000205 0.008617 0.000044 0.001078 -0.000875
# 4 0.000905 0.001441 0.000044 0.024405 -0.008083 -0.007044
# 5 0.001432 -0.004431 0.001078 -0.008083 0.024827 0.005672
# 6 0.001004 -0.000520 -0.000875 -0.007044 0.005672 0.023243
#
#
# Mechanical properties :
#
#
# Convention : Reuss Voigt Hill
#
# Bulk Modulus (GPa) = 82.02044 86.84260 84.43152
# Shear Modulus (GPa) = 37.57611 45.52518 41.55064
#
# Velocity S-wave (km/s) = 3.83108 4.21688 4.02860
# Velocity P-wave (km/s) = 7.18377 7.59144 7.39042
#
# Compressibility (1/GPa) = 0.01219208
#
# Stress axis : x y z
#
# Youngs Moduli (GPa) = 69.44373 88.17162 116.05345
#
# Poissons Ratio (x) = 0.46529 0.65005
# Poissons Ratio (y) = 0.36646 0.02376
# Poissons Ratio (z) = 0.38897 0.01805
#
# Static dielectric constant tensor:
#      x y z
#    x 2.052720 -0.004570 -0.008080 
#    y -0.004570 2.064190 0.014900 
#    z -0.008080 0.014900 2.068160 
# 
# From -- ./inp_files/523942.got.cif
#   From: 2010.05.17/outbox.cif.g08.bks.cpg/sg2_262_cif.got.tgz:523942.got - 2010.06.03 11:33:40.
