data_PCOD9067493
_publ_section_title
;
Structure prediction by ZEFSAII (Michael W. Deem and Ramdas Pophale) SiO2 
 PCOD9067493
Probable space group: P -1
;
_chemical_formula_sum "Si O2"
_cell_formula_units_Z 14
_cell_length_a 12.057376
_cell_length_b 11.796976
_cell_length_c 12.144223
_cell_angle_alpha 36.947778
_cell_angle_beta 143.426532
_cell_angle_gamma 122.210525
_cell_volume 589.455176
_symmetry_space_group_name_H-M "P -1"
_symmetry_group_IT_number 2
_symmetry_cell_setting 'triclinic'
loop_
_space_group_symop_operation_xyz
x,y,z
-x,-y,-z
loop_
_atom_site_type_symbol
_atom_site_label
_atom_site_fract_x
_atom_site_fract_y
_atom_site_fract_z
Si Si1 0.067736 0.260317 0.956173
Si Si2 0.966611 0.037650 0.643981
Si Si3 0.438022 0.932176 0.791900
Si Si4 0.607217 0.186956 0.879950
Si Si5 0.129206 0.279795 0.751577
Si Si6 0.546258 0.808270 0.605667
Si Si7 0.363322 0.561810 0.512526
O O1 0.861395 0.426776 0.667749
O O2 0.109763 0.170912 0.936199
O O3 0.251315 0.333743 0.075550
O O4 0.062240 0.102837 0.168758
O O5 0.768760 0.107350 0.361093
O O6 0.030738 0.202244 0.633126
O O7 0.165487 0.922676 0.827652
O O8 0.482984 0.044991 0.847670
O O9 0.423378 0.099389 0.557470
O O10 0.640353 0.763236 0.053830
O O11 0.504903 0.342972 0.771534
O O12 0.619471 0.314843 0.679808
O O13 0.000000 0.500000 0.500000
O O14 0.407377 0.677577 0.564687
O O15 0.500000 0.000000 0.500000
#
# Coordination Sequence:
#
# PCOD9067493 Si02
#       7
#     2   2   2   2   2   2   2
#     4  10  20  31  52  76 101 136 168 199 254 304
#     4   9  19  32  56  73  96 140 169 206 251 300
#     4   9  18  32  51  72  99 137 167 206 249 300
#     4   8  16  32  47  76 105 127 168 209 252 291
#     4  11  22  33  48  76 109 132 165 211 254 304
#     4  10  18  28  48  77 106 131 165 207 248 300
#     4   9  18  29  48  75 108 133 159 211 252 296
#
# _framework density 23.750744999999998
#
# number of rings (size 3 to 8) (size 9 to 14) (size 15 to 20)
#    0.000    2.571    1.429    1.286    4.000    1.714 
#    0.000    5.714    0.000    3.429    0.000    6.000 
#    0.000    0.000    0.000    0.000    0.000    0.000 
#
# Total GULP energy -78139.371162 kJ/mol
# GULP energy per Si atom -5581.383654 kJ/mol
# Density = 2.369669 g / cm^3
# Si number density = 23.750745 Si / 1000 Ang^3
#
#
#
# Elastic Constant Matrix: (Units=GPa)
#
#
# Indices 1 2 3 4 5 6 
#
# 1 93.9050 47.7634 41.9407 15.9420 13.0939 -27.3849
# 2 47.7634 101.4754 101.6598 16.5180 19.5617 -15.7182
# 3 41.9407 101.6598 193.0457 27.4118 50.7896 -2.6789
# 4 15.9420 16.5180 27.4118 40.2308 3.4785 2.7238
# 5 13.0939 19.5617 50.7896 3.4785 40.1101 -2.5437
# 6 -27.3849 -15.7182 -2.6789 2.7238 -2.5437 34.0918
#
#
#
# Elastic Compliance Matrix: (Units=1/GPa)
#
#
# Indices 1 2 3 4 5 6 
#
# 1 0.018361 -0.006423 0.001247 -0.006038 -0.003148 0.012133
# 2 -0.006423 0.027626 -0.015346 0.000456 0.008458 0.006967
# 3 0.001247 -0.015346 0.017507 -0.004450 -0.015051 -0.005466
# 4 -0.006038 0.000456 -0.004450 0.030201 0.004316 -0.007080
# 5 -0.003148 0.008458 -0.015051 0.004316 0.040701 0.002880
# 6 0.012133 0.006967 -0.005466 -0.007080 0.002880 0.042642
#
#
# Mechanical properties :
#
#
# Convention : Reuss Voigt Hill
#
# Bulk Modulus (GPa) = 44.54246 85.68377 65.11311
# Shear Modulus (GPa) = 22.16655 36.02402 29.09529
#
# Velocity S-wave (km/s) = 3.05831 3.89878 3.50383
# Velocity P-wave (km/s) = 5.59159 7.51145 6.62147
#
# Compressibility (1/GPa) = 0.02245049
#
# Stress axis : x y z
#
# Youngs Moduli (GPa) = 54.46269 36.19747 57.12110
#
# Poissons Ratio (x) = 0.23248 -0.07123
# Poissons Ratio (y) = 0.34979 0.87659
# Poissons Ratio (z) = -0.06791 0.55549
#
# Static dielectric constant tensor:
#      x y z
#    x 2.009760 0.016100 -0.057240 
#    y 0.016100 1.890870 -0.007680 
#    z -0.057240 -0.007680 1.948050 
# 
# From -- ./inp_files/253285.got.cif
#   From: 2010.05.17/outbox.cif.g08.bks.cpg/sg2_127_cif.got.tgz:253285.got - 2010.06.03 11:33:40.
