data_PCOD9067382
_publ_section_title
;
Structure prediction by ZEFSAII (Michael W. Deem and Ramdas Pophale) SiO2 
 PCOD9067382
Probable space group: P -1
;
_chemical_formula_sum "Si O2"
_cell_formula_units_Z 13
_cell_length_a 12.295191
_cell_length_b 7.944433
_cell_length_c 9.160631
_cell_angle_alpha 48.125551
_cell_angle_beta 94.093613
_cell_angle_gamma 120.992707
_cell_volume 516.559744
_symmetry_space_group_name_H-M "P -1"
_symmetry_group_IT_number 2
_symmetry_cell_setting 'triclinic'
loop_
_space_group_symop_operation_xyz
x,y,z
-x,-y,-z
loop_
_atom_site_type_symbol
_atom_site_label
_atom_site_fract_x
_atom_site_fract_y
_atom_site_fract_z
Si Si1 0.735874 0.455190 0.642824
Si Si2 0.500000 0.500000 0.500000
Si Si3 0.006916 0.932149 0.205975
Si Si4 0.252189 0.982447 0.249286
Si Si5 0.695396 0.120167 0.400865
Si Si6 0.388302 0.506463 0.763598
Si Si7 0.864754 0.479614 0.954575
O O1 0.608239 0.467725 0.625150
O O2 0.682060 0.160742 0.723553
O O3 0.805660 0.463210 0.798081
O O4 0.864682 0.711964 0.407677
O O5 0.384108 0.352261 0.708119
O O6 0.100163 0.828912 0.258595
O O7 0.094562 0.228858 0.136386
O O8 0.000000 0.000000 0.000000
O O9 0.221647 0.923232 0.452574
O O10 0.352794 0.313458 0.012635
O O11 0.704630 0.389981 0.298784
O O12 0.541498 0.816999 0.579043
O O13 0.740850 0.190382 0.198705
O O14 0.000000 0.500000 0.000000
#
# Coordination Sequence:
#
# PCOD9067382 Si02
#       7
#     2   1   2   2   2   2   2
#     4  12  28  47  76 117 156 204 257 324 392 459
#     4  12  28  48  74 112 160 198 258 318 386 462
#     4  12  25  48  80 111 153 202 261 324 388 466
#     4  12  24  49  77 109 147 206 260 319 390 458
#     4  11  25  49  73 112 149 205 256 315 384 466
#     4  11  26  45  75 107 155 202 259 311 383 465
#     4  12  27  48  78 117 155 198 260 327 390 457
#
# _framework density 25.166499000000002
#
# number of rings (size 3 to 8) (size 9 to 14) (size 15 to 20)
#    0.000    0.308    3.077    5.077    6.462    3.077 
#    0.000    0.000    0.000    0.000    0.000    0.000 
#    0.000    0.000    0.000    0.000    0.000    0.000 
#
# Total GULP energy -72401.399865 kJ/mol
# GULP energy per Si atom -5569.338451 kJ/mol
# Density = 2.510922 g / cm^3
# Si number density = 25.166499 Si / 1000 Ang^3
#
#
#
# Elastic Constant Matrix: (Units=GPa)
#
#
# Indices 1 2 3 4 5 6 
#
# 1 142.2727 16.5301 62.6377 16.2794 9.2223 13.2522
# 2 16.5301 77.8941 64.7561 12.5606 10.3362 3.8170
# 3 62.6377 64.7561 222.3509 26.4592 6.7935 15.2622
# 4 16.2794 12.5606 26.4592 57.5899 7.1252 12.2077
# 5 9.2223 10.3362 6.7935 7.1252 33.5618 5.1644
# 6 13.2522 3.8170 15.2622 12.2077 5.1644 38.5249
#
#
#
# Elastic Compliance Matrix: (Units=1/GPa)
#
#
# Indices 1 2 3 4 5 6 
#
# 1 0.008297 0.000521 -0.002227 -0.000920 -0.001560 -0.001523
# 2 0.000521 0.017708 -0.005082 -0.001358 -0.004450 0.001107
# 3 -0.002227 -0.005082 0.006802 -0.001291 0.001257 -0.001184
# 4 -0.000920 -0.001358 -0.001291 0.019886 -0.002520 -0.005001
# 5 -0.001560 -0.004450 0.001257 -0.002520 0.032346 -0.003058
# 6 -0.001523 0.001107 -0.001184 -0.005001 -0.003058 0.028835
#
#
# Mechanical properties :
#
#
# Convention : Reuss Voigt Hill
#
# Bulk Modulus (GPa) = 52.00494 81.15172 66.57833
# Shear Modulus (GPa) = 37.35250 45.84159 41.59704
#
# Velocity S-wave (km/s) = 3.85673 4.27257 4.06997
# Velocity P-wave (km/s) = 6.36724 7.52700 6.97128
#
# Compressibility (1/GPa) = 0.01922894
#
# Stress axis : x y z
#
# Youngs Moduli (GPa) = 120.52427 56.47265 147.02619
#
# Poissons Ratio (x) = -0.02942 0.32749
# Poissons Ratio (y) = -0.06278 0.74721
# Poissons Ratio (z) = 0.26846 0.28700
#
# Static dielectric constant tensor:
#      x y z
#    x 2.021870 -0.038930 0.023370 
#    y -0.038930 2.083460 -0.010210 
#    z 0.023370 -0.010210 1.960250 
# 
# From -- ./inp_files/26937.got.cif
#   From: 2010.05.17/outbox.cif.g08.bks.cpg/sg2_14_cif.got.tgz:26937.got - 2010.06.03 11:33:40.
