data_PCOD9067498
_publ_section_title
;
Structure prediction by ZEFSAII (Michael W. Deem and Ramdas Pophale) SiO2 
 PCOD9067498
Probable space group: P -1
;
_chemical_formula_sum "Si O2"
_cell_formula_units_Z 16
_cell_length_a 11.634098
_cell_length_b 12.060561
_cell_length_c 12.357843
_cell_angle_alpha 37.672722
_cell_angle_beta 108.559410
_cell_angle_gamma 80.519683
_cell_volume 698.080824
_symmetry_space_group_name_H-M "P -1"
_symmetry_group_IT_number 2
_symmetry_cell_setting 'triclinic'
loop_
_space_group_symop_operation_xyz
x,y,z
-x,-y,-z
loop_
_atom_site_type_symbol
_atom_site_label
_atom_site_fract_x
_atom_site_fract_y
_atom_site_fract_z
Si Si1 0.052502 0.994336 0.840640
Si Si2 0.408808 0.766129 0.208502
Si Si3 0.246879 0.167684 0.352017
Si Si4 0.637082 0.665990 0.906243
Si Si5 0.125004 0.898283 0.515691
Si Si6 0.243909 0.229646 0.950022
Si Si7 0.765905 0.525961 0.444729
Si Si8 0.118010 0.502145 0.270210
O O1 0.956873 0.113243 0.604318
O O2 0.905404 0.211540 0.717166
O O3 0.231113 0.912368 0.978046
O O4 0.111719 0.722057 0.072403
O O5 0.500000 0.500000 0.500000
O O6 0.564933 0.684191 0.248456
O O7 0.353985 0.949526 0.150470
O O8 0.242789 0.343589 0.132815
O O9 0.191801 0.303045 0.348374
O O10 0.445421 0.883245 0.632603
O O11 0.145167 0.091798 0.350778
O O12 0.703524 0.395028 0.166710
O O13 0.640294 0.772058 0.937076
O O14 0.000000 0.000000 0.500000
O O15 0.179683 0.403886 0.690465
O O16 0.077969 0.345012 0.878505
O O17 0.779973 0.611768 0.497128
#
# Coordination Sequence:
#
# PCOD9067498 Si02
#       8
#     2   2   2   2   2   2   2   2
#     4  12  26  48  73 109 144 197 248 303 370 446
#     4  12  26  46  73 107 148 194 245 304 370 445
#     4  11  27  48  77 107 146 202 248 315 370 442
#     4  11  25  50  73 111 148 191 260 307 374 444
#     4  12  26  48  74 106 149 196 249 309 373 441
#     4  12  25  44  73 106 151 187 240 312 369 447
#     4  12  25  47  72 110 149 191 242 305 378 441
#     4  12  24  46  76 102 148 194 247 303 372 445
#
# _framework density 22.919982000000001
#
# number of rings (size 3 to 8) (size 9 to 14) (size 15 to 20)
#    0.000    0.250    3.750    5.250    0.000    2.500 
#    4.500    0.000    0.000    0.000    0.000    0.000 
#    0.000    0.000    0.000    0.000    0.000    0.000 
#
# Total GULP energy -89520.831564 kJ/mol
# GULP energy per Si atom -5595.051973 kJ/mol
# Density = 2.286782 g / cm^3
# Si number density = 22.919982 Si / 1000 Ang^3
#
#
#
# Elastic Constant Matrix: (Units=GPa)
#
#
# Indices 1 2 3 4 5 6 
#
# 1 102.4005 41.0135 24.6114 -5.4977 13.8936 -17.4481
# 2 41.0135 145.5503 28.2415 -4.6248 1.1585 -4.4067
# 3 24.6114 28.2415 72.3975 -3.4441 5.8646 -6.5809
# 4 -5.4977 -4.6248 -3.4441 44.5190 -1.1865 -6.1829
# 5 13.8936 1.1585 5.8646 -1.1865 49.8210 6.2400
# 6 -17.4481 -4.4067 -6.5809 -6.1829 6.2400 34.4766
#
#
#
# Elastic Compliance Matrix: (Units=1/GPa)
#
#
# Indices 1 2 3 4 5 6 
#
# 1 0.013424 -0.003023 -0.002298 0.002039 -0.004244 0.007103
# 2 -0.003023 0.008137 -0.002325 0.000168 0.001069 -0.001097
# 3 -0.002298 -0.002325 0.015839 0.000938 -0.001396 0.001984
# 4 0.002039 0.000168 0.000938 0.023561 -0.000824 0.005607
# 5 -0.004244 0.001069 -0.001396 -0.000824 0.022182 -0.006440
# 6 0.007103 -0.001097 0.001984 0.005607 -0.006440 0.035009
#
#
# Mechanical properties :
#
#
# Convention : Reuss Voigt Hill
#
# Bulk Modulus (GPa) = 45.23165 56.45345 50.84255
# Shear Modulus (GPa) = 35.50806 40.86213 38.18509
#
# Velocity S-wave (km/s) = 3.94028 4.22692 4.08612
# Velocity P-wave (km/s) = 6.36227 6.96467 6.67028
#
# Compressibility (1/GPa) = 0.02210841
#
# Stress axis : x y z
#
# Youngs Moduli (GPa) = 74.49229 122.89431 63.13651
#
# Poissons Ratio (x) = 0.37154 0.14508
# Poissons Ratio (y) = 0.22521 0.14678
# Poissons Ratio (z) = 0.17117 0.28570
#
# Static dielectric constant tensor:
#      x y z
#    x 1.905330 0.015070 0.043720 
#    y 0.015070 1.824120 -0.007930 
#    z 0.043720 -0.007930 2.142850 
# 
# From -- ./inp_files/427444.got.cif
#   From: 2010.05.17/outbox.cif.g08.bks.cpg/sg2_214_cif.got.tgz:427444.got - 2010.06.03 11:33:40.
