data_PCOD9067863
_publ_section_title
;
Structure prediction by ZEFSAII (Michael W. Deem and Ramdas Pophale) SiO2 
 PCOD9067863
Probable space group: P -1
;
_chemical_formula_sum "Si O2"
_cell_formula_units_Z 10
_cell_length_a 13.134956
_cell_length_b 12.875405
_cell_length_c 7.363715
_cell_angle_alpha 118.083596
_cell_angle_beta 119.755346
_cell_angle_gamma 22.648256
_cell_volume 416.016000
_symmetry_space_group_name_H-M "P -1"
_symmetry_group_IT_number 2
_symmetry_cell_setting 'triclinic'
loop_
_space_group_symop_operation_xyz
x,y,z
-x,-y,-z
loop_
_atom_site_type_symbol
_atom_site_label
_atom_site_fract_x
_atom_site_fract_y
_atom_site_fract_z
Si Si1 0.397181 0.727218 0.565763
Si Si2 0.024285 0.703772 0.219602
Si Si3 0.297443 0.784342 0.104989
Si Si4 0.652234 0.011741 0.824128
Si Si5 0.189298 0.260345 0.612018
O O1 0.500000 0.500000 0.500000
O O2 0.342937 0.780878 0.348303
O O3 0.657407 0.567287 0.722022
O O4 0.132228 0.029076 0.665600
O O5 0.050688 0.313899 0.694191
O O6 0.905023 0.761796 0.973832
O O7 0.368417 0.829652 0.077000
O O8 0.500000 0.500000 0.000000
O O9 0.000000 0.000000 0.000000
O O10 0.407840 0.153716 0.794702
O O11 0.677192 0.950748 0.585757
O O12 0.000000 0.500000 0.500000
#
# Coordination Sequence:
#
# PCOD9067863 Si02
#       5
#     2   2   2   2   2
#     4  12  25  46  70 106 146 185 235 293 351 425
#     4  12  26  46  73 104 145 182 240 292 353 422
#     4  12  25  44  73 103 141 185 233 290 352 420
#     4  11  26  46  70 107 140 189 238 290 359 413
#     4  11  26  46  74 101 146 188 240 296 344 430
#
# _framework density 24.037538000000001
#
# number of rings (size 3 to 8) (size 9 to 14) (size 15 to 20)
#    0.000    0.400    2.000    6.000    8.400    0.800 
#    0.000    0.000    0.000    0.000    0.000    0.000 
#    0.000    0.000    0.000    0.000    0.000    0.000 
#
# Total GULP energy -55985.680624 kJ/mol
# GULP energy per Si atom -5598.568062 kJ/mol
# Density = 2.398283 g / cm^3
# Si number density = 24.037538 Si / 1000 Ang^3
#
#
#
# Elastic Constant Matrix: (Units=GPa)
#
#
# Indices 1 2 3 4 5 6 
#
# 1 115.5526 4.7463 22.3258 -5.8680 16.9129 20.6235
# 2 4.7463 117.4143 35.5242 -12.9553 18.2432 -4.1829
# 3 22.3258 35.5242 115.9086 -30.5210 -0.8321 -1.7419
# 4 -5.8680 -12.9553 -30.5210 58.5313 5.0433 2.6446
# 5 16.9129 18.2432 -0.8321 5.0433 45.6326 -1.9320
# 6 20.6235 -4.1829 -1.7419 2.6446 -1.9320 38.5989
#
#
#
# Elastic Compliance Matrix: (Units=1/GPa)
#
#
# Indices 1 2 3 4 5 6 
#
# 1 0.010889 0.000859 -0.002282 0.000779 -0.004766 -0.006120
# 2 0.000859 0.010247 -0.003030 0.001160 -0.004590 0.000206
# 3 -0.002282 -0.003030 0.011284 0.004778 0.001784 0.001162
# 4 0.000779 0.001160 0.004778 0.020240 -0.002971 -0.001610
# 5 -0.004766 -0.004590 0.001784 -0.002971 0.026030 0.003636
# 6 -0.006120 0.000206 0.001162 -0.001610 0.003636 0.029544
#
#
# Mechanical properties :
#
#
# Convention : Reuss Voigt Hill
#
# Bulk Modulus (GPa) = 42.52792 52.67423 47.60107
# Shear Modulus (GPa) = 40.00626 47.63784 43.82205
#
# Velocity S-wave (km/s) = 4.08404 4.45658 4.27437
# Velocity P-wave (km/s) = 6.32217 6.96006 6.64877
#
# Compressibility (1/GPa) = 0.02351397
#
# Stress axis : x y z
#
# Youngs Moduli (GPa) = 91.83571 97.58481 88.61913
#
# Poissons Ratio (x) = -0.08378 0.20219
# Poissons Ratio (y) = -0.07885 0.26855
# Poissons Ratio (z) = 0.20953 0.29572
#
# Static dielectric constant tensor:
#      x y z
#    x 1.900680 0.029710 0.021410 
#    y 0.029710 1.926400 0.087440 
#    z 0.021410 0.087440 1.951540 
# 
# From -- ./inp_files/21783.got.cif
#   From: 2010.05.17/outbox.cif.g08.bks.cpg/sg2_11_cif.got.tgz:21783.got - 2010.06.03 11:33:40.
