data_PCOD9067257
_publ_section_title
;
Structure prediction by ZEFSAII (Michael W. Deem and Ramdas Pophale) SiO2 
 PCOD9067257
Probable space group: P -1
;
_chemical_formula_sum "Si O2"
_cell_formula_units_Z 13
_cell_length_a 10.751586
_cell_length_b 9.109818
_cell_length_c 8.639557
_cell_angle_alpha 52.183681
_cell_angle_beta 124.195278
_cell_angle_gamma 99.247212
_cell_volume 530.570626
_symmetry_space_group_name_H-M "P -1"
_symmetry_group_IT_number 2
_symmetry_cell_setting 'triclinic'
loop_
_space_group_symop_operation_xyz
x,y,z
-x,-y,-z
loop_
_atom_site_type_symbol
_atom_site_label
_atom_site_fract_x
_atom_site_fract_y
_atom_site_fract_z
Si Si1 0.576323 0.705867 0.001217
Si Si2 0.981656 0.534636 0.782459
Si Si3 0.500000 0.500000 0.500000
Si Si4 0.341100 0.895676 0.155228
Si Si5 0.819174 0.321727 0.573702
Si Si6 0.057569 0.095877 0.624600
Si Si7 0.326701 0.540481 0.047308
O O1 0.700611 0.522120 0.294015
O O2 0.404374 0.704477 0.937661
O O3 0.579424 0.648980 0.859750
O O4 0.620243 0.904104 0.918832
O O5 0.936114 0.376596 0.746023
O O6 0.876152 0.737231 0.511828
O O7 0.153333 0.561046 0.856867
O O8 0.000000 0.500000 0.000000
O O9 0.487608 0.727775 0.306029
O O10 0.357266 0.512003 0.267886
O O11 0.287900 0.786365 0.335731
O O12 0.194878 0.942584 0.907578
O O13 0.927688 0.187241 0.607474
O O14 0.000000 0.000000 0.500000
#
# Coordination Sequence:
#
# PCOD9067257 Si02
#       7
#     2   2   1   2   2   2   2
#     4  11  25  50  80 108 156 210 260 319 403 465
#     4  12  25  46  81 116 157 204 258 328 390 461
#     4  12  26  48  72 108 166 196 264 320 376 476
#     4  12  27  48  77 115 153 216 259 319 402 466
#     4  12  24  52  79 115 161 200 264 334 389 475
#     4  12  25  45  79 117 155 202 264 329 400 465
#     4  11  25  48  75 112 157 202 255 326 385 469
#
# _framework density 24.501919999999998
#
# number of rings (size 3 to 8) (size 9 to 14) (size 15 to 20)
#    0.000    0.308    4.615    4.615    0.000    2.462 
#    0.000    3.077    0.000    0.000    0.000    0.000 
#    0.000    0.000    0.000    0.000    0.000    0.000 
#
# Total GULP energy -72429.613151 kJ/mol
# GULP energy per Si atom -5571.508704 kJ/mol
# Density = 2.444615 g / cm^3
# Si number density = 24.501920 Si / 1000 Ang^3
#
#
#
# Elastic Constant Matrix: (Units=GPa)
#
#
# Indices 1 2 3 4 5 6 
#
# 1 60.6252 45.8568 18.7047 12.4944 -5.7879 8.9176
# 2 45.8568 187.7703 51.3667 9.5935 -5.5096 24.1867
# 3 18.7047 51.3667 120.8065 1.9161 2.0289 23.2254
# 4 12.4944 9.5935 1.9161 52.1073 5.7904 -2.9220
# 5 -5.7879 -5.5096 2.0289 5.7904 30.2508 4.7304
# 6 8.9176 24.1867 23.2254 -2.9220 4.7304 34.6008
#
#
#
# Elastic Compliance Matrix: (Units=1/GPa)
#
#
# Indices 1 2 3 4 5 6 
#
# 1 0.022061 -0.004303 -0.000984 -0.005192 0.004988 -0.003138
# 2 -0.004303 0.007340 -0.001897 -0.000550 0.001209 -0.002960
# 3 -0.000984 -0.001897 0.010254 -0.000043 -0.000392 -0.005253
# 4 -0.005192 -0.000550 -0.000043 0.021437 -0.005877 0.004365
# 5 0.004988 0.001209 -0.000392 -0.005877 0.036533 -0.007358
# 6 -0.003138 -0.002960 -0.005253 0.004365 -0.007358 0.036680
#
#
# Mechanical properties :
#
#
# Convention : Reuss Voigt Hill
#
# Bulk Modulus (GPa) = 39.54717 66.78425 53.16571
# Shear Modulus (GPa) = 31.82639 40.27669 36.05154
#
# Velocity S-wave (km/s) = 3.60798 4.05880 3.84001
# Velocity P-wave (km/s) = 5.79070 7.02005 6.43480
#
# Compressibility (1/GPa) = 0.02528626
#
# Stress axis : x y z
#
# Youngs Moduli (GPa) = 45.32970 136.23257 97.52262
#
# Poissons Ratio (x) = 0.58614 0.09601
# Poissons Ratio (y) = 0.19503 0.18504
# Poissons Ratio (z) = 0.04463 0.25849
#
# Static dielectric constant tensor:
#      x y z
#    x 1.930400 0.074300 0.112590 
#    y 0.074300 1.870950 -0.054190 
#    z 0.112590 -0.054190 1.995360 
# 
# From -- ./inp_files/204644.got.cif
#   From: 2010.05.17/outbox.cif.g08.bks.cpg/sg2_103_cif.got.tgz:204644.got - 2010.06.03 11:33:40.
