data_PCOD9067142
_publ_section_title
;
Structure prediction by ZEFSAII (Michael W. Deem and Ramdas Pophale) SiO2 
 PCOD9067142
Probable space group: P -1
;
_chemical_formula_sum "Si O2"
_cell_formula_units_Z 16
_cell_length_a 9.292697
_cell_length_b 13.978180
_cell_length_c 6.367610
_cell_angle_alpha 70.351887
_cell_angle_beta 101.682371
_cell_angle_gamma 71.658939
_cell_volume 694.029049
_symmetry_space_group_name_H-M "P -1"
_symmetry_group_IT_number 2
_symmetry_cell_setting 'triclinic'
loop_
_space_group_symop_operation_xyz
x,y,z
-x,-y,-z
loop_
_atom_site_type_symbol
_atom_site_label
_atom_site_fract_x
_atom_site_fract_y
_atom_site_fract_z
Si Si1 0.763445 0.291507 0.474457
Si Si2 0.717291 0.702252 0.673281
Si Si3 0.537139 0.607633 0.955384
Si Si4 0.145794 0.188345 0.050293
Si Si5 0.673943 0.000133 0.079776
Si Si6 0.002403 0.383532 0.516308
Si Si7 0.554525 0.252427 0.776679
Si Si8 0.957993 0.895460 0.533581
O O1 0.628806 0.299686 0.260157
O O2 0.681429 0.289237 0.671799
O O3 0.825513 0.389294 0.409446
O O4 0.921297 0.181963 0.548486
O O5 0.682119 0.606554 0.854027
O O6 0.724434 0.785073 0.794653
O O7 0.881556 0.658355 0.620681
O O8 0.573064 0.754067 0.425892
O O9 0.500000 0.500000 0.000000
O O10 0.544081 0.653865 0.152762
O O11 0.026775 0.173783 0.198281
O O12 0.223671 0.073182 0.030981
O O13 0.069643 0.291627 0.790554
O O14 0.776056 0.938540 0.359384
O O15 0.500000 0.000000 0.000000
O O16 0.648441 0.127976 0.982493
O O17 0.000000 0.500000 0.500000
O O18 0.000000 0.000000 0.500000
#
# Coordination Sequence:
#
# PCOD9067142 Si02
#       8
#     2   2   2   2   2   2   2   2
#     4  11  26  45  68 110 141 183 243 295 359 431
#     4  11  25  48  70 105 143 188 242 295 357 439
#     4  11  27  45  75 102 143 192 241 302 361 427
#     4  12  25  46  72 102 145 186 241 294 358 427
#     4  12  25  44  73 104 143 194 242 296 361 435
#     4  12  28  45  74 104 142 190 240 298 359 426
#     4  11  26  46  72 105 146 187 239 292 366 430
#     4  12  26  44  72 108 148 190 239 296 366 432
#
# _framework density 23.053791
#
# number of rings (size 3 to 8) (size 9 to 14) (size 15 to 20)
#    0.000    0.500    2.500    4.500    8.750    6.500 
#    0.000    0.000    0.000    0.000    0.000    0.000 
#    0.000    0.000    0.000    0.000    0.000    0.000 
#
# Total GULP energy -89547.297172 kJ/mol
# GULP energy per Si atom -5596.706073 kJ/mol
# Density = 2.300132 g / cm^3
# Si number density = 23.053791 Si / 1000 Ang^3
#
#
#
# Elastic Constant Matrix: (Units=GPa)
#
#
# Indices 1 2 3 4 5 6 
#
# 1 115.8993 6.3403 32.4137 0.8522 -20.9697 13.5332
# 2 6.3403 119.2165 28.6635 7.5720 -13.9024 14.9261
# 3 32.4137 28.6635 89.2847 11.1571 -14.7387 1.6117
# 4 0.8522 7.5720 11.1571 27.5057 9.3631 0.4448
# 5 -20.9697 -13.9024 -14.7387 9.3631 44.6434 0.7085
# 6 13.5332 14.9261 1.6117 0.4448 0.7085 39.5136
#
#
#
# Elastic Compliance Matrix: (Units=1/GPa)
#
#
# Indices 1 2 3 4 5 6 
#
# 1 0.010842 0.001361 -0.003432 -0.000825 0.004622 -0.004161
# 2 0.001361 0.010090 -0.002714 -0.002860 0.003552 -0.004198
# 3 -0.003432 -0.002714 0.014701 -0.006400 0.003713 0.001606
# 4 -0.000825 -0.002860 -0.006400 0.044049 -0.012651 0.001355
# 5 0.004622 0.003552 0.003713 -0.012651 0.029611 -0.003465
# 6 -0.004161 -0.004198 0.001606 0.001355 -0.003465 0.028300
#
#
# Mechanical properties :
#
#
# Convention : Reuss Voigt Hill
#
# Bulk Modulus (GPa) = 38.36819 51.02618 44.69718
# Shear Modulus (GPa) = 32.08231 39.46476 35.77353
#
# Velocity S-wave (km/s) = 3.73450 4.14195 3.94349
# Velocity P-wave (km/s) = 5.93922 6.71237 6.33760
#
# Compressibility (1/GPa) = 0.02606326
#
# Stress axis : x y z
#
# Youngs Moduli (GPa) = 92.23639 99.11151 68.02365
#
# Poissons Ratio (x) = -0.13488 0.23343
# Poissons Ratio (y) = -0.12552 0.18459
# Poissons Ratio (z) = 0.31652 0.26896
#
# Static dielectric constant tensor:
#      x y z
#    x 1.865250 0.017110 0.021890 
#    y 0.017110 1.843640 -0.018190 
#    z 0.021890 -0.018190 1.903250 
# 
# From -- ./inp_files/37553.got.cif
#   From: 2010.05.17/outbox.cif.g08.bks.cpg/sg2_19_cif.got.tgz:37553.got - 2010.06.03 11:33:40.
