data_PCOD9067133
_publ_section_title
;
Structure prediction by ZEFSAII (Michael W. Deem and Ramdas Pophale) SiO2 
 PCOD9067133
Probable space group: P -1
;
_chemical_formula_sum "Si O2"
_cell_formula_units_Z 14
_cell_length_a 20.633632
_cell_length_b 11.710646
_cell_length_c 12.211552
_cell_angle_alpha 50.223165
_cell_angle_beta 22.434818
_cell_angle_gamma 38.475827
_cell_volume 655.528455
_symmetry_space_group_name_H-M "P -1"
_symmetry_group_IT_number 2
_symmetry_cell_setting 'triclinic'
loop_
_space_group_symop_operation_xyz
x,y,z
-x,-y,-z
loop_
_atom_site_type_symbol
_atom_site_label
_atom_site_fract_x
_atom_site_fract_y
_atom_site_fract_z
Si Si1 0.728234 0.783273 0.801259
Si Si2 0.782174 0.219692 0.236314
Si Si3 0.588853 0.793937 0.236916
Si Si4 0.211654 0.593222 0.103055
Si Si5 0.621754 0.850828 0.500692
Si Si6 0.529788 0.566124 0.798662
Si Si7 0.854565 0.407105 0.199780
O O1 0.722954 0.618268 0.863713
O O2 0.943527 0.745634 0.442477
O O3 0.757978 0.751444 0.905611
O O4 0.500000 0.000000 0.000000
O O5 0.579629 0.220776 0.551797
O O6 0.811442 0.292372 0.257698
O O7 0.740431 0.361212 0.117264
O O8 0.000000 0.000000 0.000000
O O9 0.710019 0.628771 0.243180
O O10 0.442733 0.012095 0.378685
O O11 0.342057 0.613977 0.977697
O O12 0.522075 0.744155 0.729439
O O13 0.500000 0.000000 0.500000
O O14 0.885875 0.700134 0.154435
O O15 0.762933 0.418364 0.456195
O O16 0.500000 0.500000 0.000000
#
# Coordination Sequence:
#
# PCOD9067133 Si02
#       7
#     2   2   2   2   2   2   2
#     4  11  26  43  73 106 142 186 227 300 378 421
#     4  12  22  44  77 110 139 175 238 312 357 425
#     4  12  24  45  72 105 141 183 244 293 359 428
#     4  11  25  48  69 106 147 178 239 297 364 430
#     4  12  27  48  72 104 140 192 251 285 342 445
#     4  12  29  48  71 103 149 195 238 293 352 425
#     4  12  25  47  79 100 144 192 239 300 368 418
#
# _framework density 21.356815999999998
#
# number of rings (size 3 to 8) (size 9 to 14) (size 15 to 20)
#    0.000    0.286    5.714    2.571    4.000    0.000 
#    0.000    1.429    0.000    0.000    0.000    0.000 
#    0.000    0.000    0.000    0.000    0.000    0.000 
#
# Total GULP energy -78374.459913 kJ/mol
# GULP energy per Si atom -5598.175708 kJ/mol
# Density = 2.130821 g / cm^3
# Si number density = 21.356816 Si / 1000 Ang^3
#
#
#
# Elastic Constant Matrix: (Units=GPa)
#
#
# Indices 1 2 3 4 5 6 
#
# 1 95.7621 45.7062 42.2605 -13.6579 5.5370 20.3079
# 2 45.7062 129.3394 53.1394 2.3135 -6.7004 20.4624
# 3 42.2605 53.1394 95.4467 -3.7856 -3.1429 19.0975
# 4 -13.6579 2.3135 -3.7856 44.4029 -5.4244 -1.2757
# 5 5.5370 -6.7004 -3.1429 -5.4244 46.5382 -3.7763
# 6 20.3079 20.4624 19.0975 -1.2757 -3.7763 36.5374
#
#
#
# Elastic Compliance Matrix: (Units=1/GPa)
#
#
# Indices 1 2 3 4 5 6 
#
# 1 0.015538 -0.003289 -0.004002 0.004166 -0.002498 -0.004815
# 2 -0.003289 0.011105 -0.004347 -0.001859 0.001314 -0.002048
# 3 -0.004002 -0.004347 0.015361 0.000290 0.000654 -0.003292
# 4 0.004166 -0.001859 0.000290 0.024163 0.002043 -0.000371
# 5 -0.002498 0.001314 0.000654 0.002043 0.022476 0.002705
# 6 -0.004815 -0.002048 -0.003292 -0.000371 0.002705 0.033180
#
#
# Mechanical properties :
#
#
# Convention : Reuss Voigt Hill
#
# Bulk Modulus (GPa) = 53.39593 66.97338 60.18465
# Shear Modulus (GPa) = 33.03758 37.45851 35.24805
#
# Velocity S-wave (km/s) = 3.93738 4.19255 4.06696
# Velocity P-wave (km/s) = 6.76215 7.40702 7.09192
#
# Compressibility (1/GPa) = 0.01872802
#
# Stress axis : x y z
#
# Youngs Moduli (GPa) = 64.35756 90.04775 65.09881
#
# Poissons Ratio (x) = 0.29613 0.26055
# Poissons Ratio (y) = 0.21165 0.28300
# Poissons Ratio (z) = 0.25758 0.39147
#
# Static dielectric constant tensor:
#      x y z
#    x 1.777500 0.014570 0.018070 
#    y 0.014570 1.770160 0.021870 
#    z 0.018070 0.021870 1.759860 
# 
# From -- ./inp_files/223286.got.cif
#   From: 2010.05.17/outbox.cif.g08.bks.cpg/sg2_112_cif.got.tgz:223286.got - 2010.06.03 11:33:40.
