data_PCOD9067155
_publ_section_title
;
Structure prediction by ZEFSAII (Michael W. Deem and Ramdas Pophale) SiO2 
 PCOD9067155
Probable space group: P -1
;
_chemical_formula_sum "Si O2"
_cell_formula_units_Z 16
_cell_length_a 17.090744
_cell_length_b 8.461512
_cell_length_c 7.607028
_cell_angle_alpha 35.417156
_cell_angle_beta 88.068995
_cell_angle_gamma 88.279041
_cell_volume 637.155337
_symmetry_space_group_name_H-M "P -1"
_symmetry_group_IT_number 2
_symmetry_cell_setting 'triclinic'
loop_
_space_group_symop_operation_xyz
x,y,z
-x,-y,-z
loop_
_atom_site_type_symbol
_atom_site_label
_atom_site_fract_x
_atom_site_fract_y
_atom_site_fract_z
Si Si1 0.580635 0.152116 0.892141
Si Si2 0.443267 0.760951 0.779320
Si Si3 0.275800 0.730414 0.639605
Si Si4 0.179338 0.193425 0.660671
Si Si5 0.975283 0.909281 0.782430
Si Si6 0.326471 0.356340 0.673300
Si Si7 0.820066 0.733361 0.803821
Si Si8 0.908637 0.277225 0.756789
O O1 0.599425 0.451647 0.547339
O O2 0.586140 0.182230 0.073396
O O3 0.500000 0.000000 0.000000
O O4 0.643301 0.938539 0.003071
O O5 0.365520 0.742763 0.684761
O O6 0.500000 0.000000 0.500000
O O7 0.500000 0.500000 0.000000
O O8 0.275717 0.529283 0.656014
O O9 0.238325 0.025621 0.347626
O O10 0.222684 0.556960 0.935794
O O11 0.268580 0.293503 0.574554
O O12 0.157831 0.176013 0.475636
O O13 0.120891 0.418158 0.539924
O O14 0.165300 0.916351 0.017502
O O15 0.949857 0.158995 0.686873
O O16 0.897756 0.730832 0.916075
O O17 0.000000 0.000000 0.500000
O O18 0.038279 0.755517 0.041179
#
# Coordination Sequence:
#
# PCOD9067155 Si02
#       8
#     2   2   2   2   2   2   2   2
#     4  12  24  42  65  97 131 176 220 275 339 404
#     4  12  24  43  68  97 132 172 221 276 331 405
#     4  12  25  44  66 101 133 177 224 276 339 403
#     4  12  24  46  68 101 135 180 227 286 344 406
#     4  11  25  48  71 104 137 186 233 288 349 411
#     4  12  24  42  67  94 135 175 222 277 339 408
#     4  12  25  43  69  98 136 178 226 281 339 407
#     4  11  26  46  70 101 139 178 233 287 343 414
#
# _framework density 25.111615
#
# number of rings (size 3 to 8) (size 9 to 14) (size 15 to 20)
#    0.000    0.250    1.250    8.625    0.000    3.500 
#    0.000    0.000    0.000    0.000    0.000    0.000 
#    0.000    0.000    0.000    0.000    0.000    0.000 
#
# Total GULP energy -89687.110591 kJ/mol
# GULP energy per Si atom -5605.444412 kJ/mol
# Density = 2.505446 g / cm^3
# Si number density = 25.111615 Si / 1000 Ang^3
#
#
#
# Elastic Constant Matrix: (Units=GPa)
#
#
# Indices 1 2 3 4 5 6 
#
# 1 130.3953 20.6412 27.5415 -9.1047 -7.5336 35.0814
# 2 20.6412 107.9145 16.5387 15.1952 0.8868 3.0813
# 3 27.5415 16.5387 109.6066 -17.2477 -21.0584 2.3744
# 4 -9.1047 15.1952 -17.2477 42.9282 -4.4795 -2.2139
# 5 -7.5336 0.8868 -21.0584 -4.4795 37.1051 3.4694
# 6 35.0814 3.0813 2.3744 -2.2139 3.4694 50.7266
#
#
#
# Elastic Compliance Matrix: (Units=1/GPa)
#
#
# Indices 1 2 3 4 5 6 
#
# 1 0.010471 -0.001916 -0.001395 0.002213 0.002313 -0.007121
# 2 -0.001916 0.010810 -0.002584 -0.005530 -0.002851 0.000743
# 3 -0.001395 -0.002584 0.012298 0.006358 0.007496 0.000311
# 4 0.002213 -0.005530 0.006358 0.029048 0.007767 -0.000755
# 5 0.002313 -0.002851 0.007496 0.007767 0.033026 -0.003697
# 6 -0.007121 0.000743 0.000311 -0.000755 -0.003697 0.024799
#
#
# Mechanical properties :
#
#
# Convention : Reuss Voigt Hill
#
# Bulk Modulus (GPa) = 45.89479 53.03989 49.46734
# Shear Modulus (GPa) = 35.84114 45.03166 40.43640
#
# Velocity S-wave (km/s) = 3.78203 4.23928 4.01717
# Velocity P-wave (km/s) = 6.11454 6.71785 6.42328
#
# Compressibility (1/GPa) = 0.02178897
#
# Stress axis : x y z
#
# Youngs Moduli (GPa) = 95.50104 92.50716 81.31412
#
# Poissons Ratio (x) = 0.17727 0.11344
# Poissons Ratio (y) = 0.18300 0.21009
# Poissons Ratio (z) = 0.13324 0.23901
#
# Static dielectric constant tensor:
#      x y z
#    x 1.987500 -0.014380 -0.068290 
#    y -0.014380 1.985380 0.024040 
#    z -0.068290 0.024040 1.828360 
# 
# From -- ./inp_files/328279.got.cif
#   From: 2010.05.17/outbox.cif.g08.bks.cpg/sg2_165_cif.got.tgz:328279.got - 2010.06.03 11:33:40.
