data_PCOD9067922
_publ_section_title
;
Structure prediction by ZEFSAII (Michael W. Deem and Ramdas Pophale) SiO2 
 PCOD9067922
Probable space group: P -1
;
_chemical_formula_sum "Si O2"
_cell_formula_units_Z 13
_cell_length_a 9.036657
_cell_length_b 5.343728
_cell_length_c 15.751357
_cell_angle_alpha 86.935732
_cell_angle_beta 66.078975
_cell_angle_gamma 123.757039
_cell_volume 537.772787
_symmetry_space_group_name_H-M "P -1"
_symmetry_group_IT_number 2
_symmetry_cell_setting 'triclinic'
loop_
_space_group_symop_operation_xyz
x,y,z
-x,-y,-z
loop_
_atom_site_type_symbol
_atom_site_label
_atom_site_fract_x
_atom_site_fract_y
_atom_site_fract_z
Si Si1 0.500000 0.000000 0.500000
Si Si2 0.390722 0.633859 0.064310
Si Si3 0.814925 0.854715 0.424556
Si Si4 0.951537 0.383419 0.110365
Si Si5 0.284290 0.506401 0.711983
Si Si6 0.832146 0.532525 0.570183
Si Si7 0.505652 0.692787 0.230251
O O1 0.658935 0.920768 0.482233
O O2 0.368630 0.803412 0.624421
O O3 0.415546 0.611818 0.158845
O O4 0.149815 0.430705 0.099181
O O5 0.500000 0.500000 0.000000
O O6 0.500000 0.000000 0.000000
O O7 0.814722 0.785174 0.327977
O O8 0.733660 0.534337 0.504196
O O9 0.038421 0.139469 0.408897
O O10 0.888929 0.555335 0.182161
O O11 0.740448 0.018890 0.164822
O O12 0.000000 0.500000 0.000000
O O13 0.465161 0.541269 0.722651
O O14 0.645329 0.279470 0.679414
O O15 0.000000 0.500000 0.500000
#
# Coordination Sequence:
#
# PCOD9067922 Si02
#       7
#     1   2   2   2   2   2   2
#     4  12  24  48  70 116 158 210 270 340 418 502
#     4  12  30  57  86 121 166 217 286 362 428 508
#     4  11  26  46  73 111 165 212 271 336 415 497
#     4  12  29  54  84 120 165 218 276 353 424 507
#     4  12  28  47  81 115 162 216 278 341 425 504
#     4  11  27  48  73 114 163 214 269 336 411 506
#     4  12  29  50  79 122 162 221 274 342 431 505
#
# _framework density 24.173780000000001
#
# number of rings (size 3 to 8) (size 9 to 14) (size 15 to 20)
#    0.000    0.308    3.077    3.231   15.077    1.231 
#    0.000    0.000    0.000    0.000    0.000    0.000 
#    0.000    0.000    0.000    0.000    0.000    0.000 
#
# Total GULP energy -72634.745461 kJ/mol
# GULP energy per Si atom -5587.288112 kJ/mol
# Density = 2.411876 g / cm^3
# Si number density = 24.173780 Si / 1000 Ang^3
#
#
#
# Elastic Constant Matrix: (Units=GPa)
#
#
# Indices 1 2 3 4 5 6 
#
# 1 212.9497 43.9782 103.4277 17.1065 2.9870 7.4975
# 2 43.9782 59.9393 57.5912 9.9302 -0.7638 5.4857
# 3 103.4277 57.5912 227.6716 21.4916 1.2731 -1.0513
# 4 17.1065 9.9302 21.4916 53.3173 1.6474 2.3262
# 5 2.9870 -0.7638 1.2731 1.6474 59.4236 4.3850
# 6 7.4975 5.4857 -1.0513 2.3262 4.3850 59.4101
#
#
#
# Elastic Compliance Matrix: (Units=1/GPa)
#
#
# Indices 1 2 3 4 5 6 
#
# 1 0.006339 -0.002356 -0.002222 -0.000667 -0.000240 -0.000578
# 2 -0.002356 0.023390 -0.004705 -0.001642 0.000708 -0.001934
# 3 -0.002222 -0.004705 0.006705 -0.001148 -0.000126 0.000888
# 4 -0.000667 -0.001642 -0.001148 0.019776 -0.000473 -0.000524
# 5 -0.000240 0.000708 -0.000126 -0.000473 0.016959 -0.001271
# 6 -0.000578 -0.001934 0.000888 -0.000524 -0.001271 0.017214
#
#
# Mechanical properties :
#
#
# Convention : Reuss Voigt Hill
#
# Bulk Modulus (GPa) = 55.96115 101.17274 78.56695
# Shear Modulus (GPa) = 43.51473 54.13443 48.82458
#
# Velocity S-wave (km/s) = 4.24734 4.73735 4.49902
# Velocity P-wave (km/s) = 6.87408 8.47741 7.71749
#
# Compressibility (1/GPa) = 0.01786954
#
# Stress axis : x y z
#
# Youngs Moduli (GPa) = 157.75336 42.75326 149.14067
#
# Poissons Ratio (x) = 0.10071 0.33143
# Poissons Ratio (y) = 0.37159 0.70163
# Poissons Ratio (z) = 0.35057 0.20113
#
# Static dielectric constant tensor:
#      x y z
#    x 1.842500 -0.150260 0.033500 
#    y -0.150260 1.195660 -0.032750 
#    z 0.033500 -0.032750 1.907510 
# 
# From -- ./inp_files/487750.got.cif
#   From: 2010.05.17/outbox.cif.g08.bks.cpg/sg2_244_cif.got.tgz:487750.got - 2010.06.03 11:33:40.
