data_PCOD9067426
_publ_section_title
;
Structure prediction by ZEFSAII (Michael W. Deem and Ramdas Pophale) SiO2 
 PCOD9067426
Probable space group: P -1
;
_chemical_formula_sum "Si O2"
_cell_formula_units_Z 15
_cell_length_a 8.761597
_cell_length_b 19.201689
_cell_length_c 13.520890
_cell_angle_alpha 35.127550
_cell_angle_beta 41.419883
_cell_angle_gamma 27.514201
_cell_volume 602.080505
_symmetry_space_group_name_H-M "P -1"
_symmetry_group_IT_number 2
_symmetry_cell_setting 'triclinic'
loop_
_space_group_symop_operation_xyz
x,y,z
-x,-y,-z
loop_
_atom_site_type_symbol
_atom_site_label
_atom_site_fract_x
_atom_site_fract_y
_atom_site_fract_z
Si Si1 0.234397 0.524151 0.385430
Si Si2 0.536630 0.212185 0.862989
Si Si3 0.331362 0.083392 0.769258
Si Si4 0.500000 0.500000 0.500000
Si Si5 0.543930 0.866962 0.566366
Si Si6 0.129076 0.035609 0.200018
Si Si7 0.907270 0.542462 0.881235
Si Si8 0.667386 0.398097 0.935106
O O1 0.404547 0.465112 0.477964
O O2 0.439522 0.461784 0.256844
O O3 0.000000 0.500000 0.500000
O O4 0.006126 0.729095 0.247265
O O5 0.620916 0.323138 0.694486
O O6 0.148835 0.368103 0.901915
O O7 0.667238 0.110474 0.814170
O O8 0.670567 0.060639 0.050969
O O9 0.374643 0.116668 0.600046
O O10 0.633344 0.025939 0.752421
O O11 0.873439 0.676309 0.674985
O O12 0.203155 0.916989 0.668733
O O13 0.500000 0.000000 0.500000
O O14 0.021737 0.208256 0.010638
O O15 0.531087 0.644864 0.951768
O O16 0.000000 0.500000 0.000000
O O17 0.500000 0.500000 0.000000
#
# Coordination Sequence:
#
# PCOD9067426 Si02
#       8
#     2   2   2   1   2   2   2   2
#     4  12  29  51  81 121 162 218 275 349 410 501
#     4  12  26  49  82 110 160 208 272 342 409 493
#     4  12  26  48  81 111 160 208 271 338 419 484
#     4  12  30  50  82 120 160 210 286 338 422 498
#     4  11  27  48  74 116 158 205 270 336 408 493
#     4  11  26  48  79 115 158 211 272 332 413 496
#     4  11  25  49  76 109 154 210 270 333 408 491
#     4  11  26  48  78 112 158 214 273 332 417 497
#
# _framework density 24.913613000000002
#
# number of rings (size 3 to 8) (size 9 to 14) (size 15 to 20)
#    0.000    0.533    1.333    4.800   13.067    1.600 
#    9.600    0.000    0.000    0.000    0.000    0.000 
#    0.000    0.000    0.000    0.000    0.000    0.000 
#
# Total GULP energy -83533.391365 kJ/mol
# GULP energy per Si atom -5568.892758 kJ/mol
# Density = 2.485691 g / cm^3
# Si number density = 24.913613 Si / 1000 Ang^3
#
#
#
# Elastic Constant Matrix: (Units=GPa)
#
#
# Indices 1 2 3 4 5 6 
#
# 1 150.0890 22.1236 62.6165 1.8626 29.5974 4.6515
# 2 22.1236 90.5565 34.3251 -23.5690 9.0392 14.5247
# 3 62.6165 34.3251 183.5993 -7.5012 23.6215 16.3958
# 4 1.8626 -23.5690 -7.5012 54.1783 7.7451 2.8098
# 5 29.5974 9.0392 23.6215 7.7451 52.7463 2.1757
# 6 4.6515 14.5247 16.3958 2.8098 2.1757 35.6347
#
#
#
# Elastic Compliance Matrix: (Units=1/GPa)
#
#
# Indices 1 2 3 4 5 6 
#
# 1 0.008463 -0.001120 -0.002320 -0.000641 -0.003452 0.000680
# 2 -0.001120 0.014712 -0.001317 0.006846 -0.002075 -0.005658
# 3 -0.002320 -0.001317 0.006930 0.000815 -0.001600 -0.002316
# 4 -0.000641 0.006846 0.000815 0.022421 -0.004282 -0.004589
# 5 -0.003452 -0.002075 -0.001600 -0.004282 0.022556 0.000993
# 6 0.000680 -0.005658 -0.002316 -0.004589 0.000993 0.031646
#
#
# Mechanical properties :
#
#
# Convention : Reuss Voigt Hill
#
# Bulk Modulus (GPa) = 48.56078 73.59727 61.07902
# Shear Modulus (GPa) = 40.61575 48.85717 44.73646
#
# Velocity S-wave (km/s) = 4.04203 4.43319 4.24212
# Velocity P-wave (km/s) = 6.42791 7.47057 6.96877
#
# Compressibility (1/GPa) = 0.02059275
#
# Stress axis : x y z
#
# Youngs Moduli (GPa) = 118.15847 67.97190 144.30053
#
# Poissons Ratio (x) = 0.07611 0.33476
# Poissons Ratio (y) = 0.13230 0.19000
# Poissons Ratio (z) = 0.27411 0.08950
#
# Static dielectric constant tensor:
#      x y z
#    x 2.080750 0.090550 0.481020 
#    y 0.090550 3.218410 1.471680 
#    z 0.481020 1.471680 4.093410 
# 
# From -- ./inp_files/402811.got.cif
#   From: 2010.05.17/outbox.cif.g08.bks.cpg/sg2_202_cif.got.tgz:402811.got - 2010.06.03 11:33:40.
