data_PCOD9067427
_publ_section_title
;
Structure prediction by ZEFSAII (Michael W. Deem and Ramdas Pophale) SiO2 
 PCOD9067427
Probable space group: P -1
;
_chemical_formula_sum "Si O2"
_cell_formula_units_Z 14
_cell_length_a 9.401700
_cell_length_b 7.364537
_cell_length_c 10.129570
_cell_angle_alpha 112.085138
_cell_angle_beta 49.369088
_cell_angle_gamma 103.045021
_cell_volume 493.040873
_symmetry_space_group_name_H-M "P -1"
_symmetry_group_IT_number 2
_symmetry_cell_setting 'triclinic'
loop_
_space_group_symop_operation_xyz
x,y,z
-x,-y,-z
loop_
_atom_site_type_symbol
_atom_site_label
_atom_site_fract_x
_atom_site_fract_y
_atom_site_fract_z
Si Si1 0.307647 0.650975 0.056708
Si Si2 0.286001 0.259674 0.816987
Si Si3 0.657756 0.707679 0.679392
Si Si4 0.882569 0.121336 0.979507
Si Si5 0.679144 0.115376 0.623141
Si Si6 0.034093 0.267088 0.295535
Si Si7 0.752834 0.450419 0.327299
O O1 0.311842 0.722332 0.222197
O O2 0.137379 0.751505 0.107340
O O3 0.306084 0.421925 0.964140
O O4 0.489016 0.728275 0.889822
O O5 0.097564 0.135236 0.900696
O O6 0.481796 0.140032 0.672966
O O7 0.253301 0.388679 0.739603
O O8 0.622371 0.535270 0.547342
O O9 0.840271 0.654855 0.641644
O O10 0.691133 0.905896 0.631982
O O11 0.840408 0.906370 0.895391
O O12 0.749236 0.240862 0.196606
O O13 0.854184 0.157101 0.434789
O O14 0.946760 0.417710 0.283365
#
# Coordination Sequence:
#
# PCOD9067427 Si02
#       7
#     2   2   2   2   2   2   2
#     4  11  25  49  76 110 149 195 245 304 365 440
#     4  11  27  46  75 110 148 197 240 308 368 433
#     4  12  27  47  79 110 148 192 251 301 366 436
#     4  11  26  48  77 108 151 193 244 305 373 428
#     4  12  27  46  78 108 152 190 250 298 372 434
#     4  12  27  47  77 112 145 201 239 307 363 444
#     4  11  26  46  72 106 152 187 246 296 370 427
#
# _framework density 28.395209999999999
#
# number of rings (size 3 to 8) (size 9 to 14) (size 15 to 20)
#    0.000    0.571    1.429    5.571    6.000    9.714 
#    0.000    0.000    0.000    0.000    0.000    0.000 
#    0.000    0.000    0.000    0.000    0.000    0.000 
#
# Total GULP energy -78603.442653 kJ/mol
# GULP energy per Si atom -5614.531618 kJ/mol
# Density = 2.833058 g / cm^3
# Si number density = 28.395210 Si / 1000 Ang^3
#
#
#
# Elastic Constant Matrix: (Units=GPa)
#
#
# Indices 1 2 3 4 5 6 
#
# 1 176.0324 56.4558 55.4569 9.5338 4.0969 -6.4450
# 2 56.4558 137.9246 43.7175 -16.7825 12.0772 -13.9980
# 3 55.4569 43.7175 142.3387 5.8515 16.8736 8.4534
# 4 9.5338 -16.7825 5.8515 46.5259 20.0452 -1.1282
# 5 4.0969 12.0772 16.8736 20.0452 63.8174 10.1197
# 6 -6.4450 -13.9980 8.4534 -1.1282 10.1197 52.8277
#
#
#
# Elastic Compliance Matrix: (Units=1/GPa)
#
#
# Indices 1 2 3 4 5 6 
#
# 1 0.007369 -0.002835 -0.002066 -0.002919 0.001506 0.000127
# 2 -0.002835 0.010593 -0.002175 0.006423 -0.003849 0.003684
# 3 -0.002066 -0.002175 0.008797 -0.001028 -0.001135 -0.002041
# 4 -0.002919 0.006423 -0.001028 0.029201 -0.010588 0.004162
# 5 0.001506 -0.003849 -0.001135 -0.010588 0.020696 -0.004845
# 6 0.000127 0.003684 -0.002041 0.004162 -0.004845 0.021265
#
#
# Mechanical properties :
#
#
# Convention : Reuss Voigt Hill
#
# Bulk Modulus (GPa) = 79.33735 85.28402 82.31068
# Shear Modulus (GPa) = 43.00169 52.67857 47.84013
#
# Velocity S-wave (km/s) = 3.89575 4.31187 4.10908
# Velocity P-wave (km/s) = 6.94528 7.40874 7.18075
#
# Compressibility (1/GPa) = 0.01260440
#
# Stress axis : x y z
#
# Youngs Moduli (GPa) = 135.70811 94.40297 113.67949
#
# Poissons Ratio (x) = 0.26767 0.23489
# Poissons Ratio (y) = 0.38479 0.24729
# Poissons Ratio (z) = 0.28041 0.20535
#
# Static dielectric constant tensor:
#      x y z
#    x 2.149590 -0.048840 -0.006550 
#    y -0.048840 2.158610 -0.034260 
#    z -0.006550 -0.034260 2.238690 
# 
# From -- ./inp_files/382499.got.cif
#   From: 2010.05.17/outbox.cif.g08.bks.cpg/sg2_192_cif.got.tgz:382499.got - 2010.06.03 11:33:40.
