data_PCOD9067363
_publ_section_title
;
Structure prediction by ZEFSAII (Michael W. Deem and Ramdas Pophale) SiO2 
 PCOD9067363
Probable space group: P -1
;
_chemical_formula_sum "Si O2"
_cell_formula_units_Z 16
_cell_length_a 18.256586
_cell_length_b 18.092392
_cell_length_c 6.892253
_cell_angle_alpha 131.495931
_cell_angle_beta 44.995191
_cell_angle_gamma 150.247829
_cell_volume 791.070776
_symmetry_space_group_name_H-M "P -1"
_symmetry_group_IT_number 2
_symmetry_cell_setting 'triclinic'
loop_
_space_group_symop_operation_xyz
x,y,z
-x,-y,-z
loop_
_atom_site_type_symbol
_atom_site_label
_atom_site_fract_x
_atom_site_fract_y
_atom_site_fract_z
Si Si1 0.146689 0.789980 0.230278
Si Si2 0.564198 0.324967 0.709656
Si Si3 0.343127 0.446908 0.748164
Si Si4 0.218118 0.054469 0.706251
Si Si5 0.358890 0.841858 0.589462
Si Si6 0.194811 0.463912 0.717881
Si Si7 0.873784 0.378103 0.684654
Si Si8 0.928786 0.907064 0.268741
O O1 0.091908 0.671912 0.291387
O O2 0.983073 0.699482 0.273855
O O3 0.220116 0.940098 0.449755
O O4 0.268932 0.828613 0.916267
O O5 0.388972 0.207851 0.740018
O O6 0.590580 0.231740 0.569409
O O7 0.698247 0.446460 0.513992
O O8 0.601524 0.428237 0.990663
O O9 0.500000 0.500000 0.500000
O O10 0.279546 0.451532 0.682070
O O11 0.200291 0.273119 0.781729
O O12 0.163036 0.075340 0.654333
O O13 0.079626 0.976849 0.985745
O O14 0.247637 0.759031 0.468117
O O15 0.500000 0.000000 0.500000
O O16 0.184099 0.563303 0.008156
O O17 0.000000 0.500000 0.500000
O O18 0.000000 0.000000 0.500000
#
# Coordination Sequence:
#
# PCOD9067363 Si02
#       8
#     2   2   2   2   2   2   2   2
#     4  12  26  45  70 106 142 186 234 286 348 416
#     4  12  26  46  68 103 142 181 231 290 349 412
#     4  12  27  45  74 103 135 182 235 292 349 415
#     4  11  27  44  71 101 139 183 231 286 349 417
#     4  12  27  43  68 101 147 190 229 282 347 419
#     4  12  25  43  72  99 139 180 231 290 346 408
#     4  12  24  43  70 103 139 184 235 283 344 418
#     4  11  25  49  72 100 138 179 235 291 350 412
#
# _framework density 20.225750000000001
#
# number of rings (size 3 to 8) (size 9 to 14) (size 15 to 20)
#    0.000    0.250    3.750    4.875    3.500    9.000 
#    0.000    0.000    0.000    0.000    0.000    0.000 
#    0.000    0.000    0.000    0.000    0.000    0.000 
#
# Total GULP energy -89427.932693 kJ/mol
# GULP energy per Si atom -5589.245793 kJ/mol
# Density = 2.017972 g / cm^3
# Si number density = 20.225750 Si / 1000 Ang^3
#
#
#
# Elastic Constant Matrix: (Units=GPa)
#
#
# Indices 1 2 3 4 5 6 
#
# 1 138.0913 48.1975 72.2006 -7.2969 1.7144 -3.6887
# 2 48.1975 158.8214 55.9531 -1.4797 4.4634 15.6659
# 3 72.2006 55.9531 174.9880 -30.8669 -7.2383 -30.2951
# 4 -7.2969 -1.4797 -30.8669 35.2810 4.0870 9.3561
# 5 1.7144 4.4634 -7.2383 4.0870 32.4628 7.9760
# 6 -3.6887 15.6659 -30.2951 9.3561 7.9760 56.2186
#
#
#
# Elastic Compliance Matrix: (Units=1/GPa)
#
#
# Indices 1 2 3 4 5 6 
#
# 1 0.009735 -0.001491 -0.003910 -0.001176 -0.000852 -0.000736
# 2 -0.001491 0.008124 -0.002888 -0.001472 -0.000616 -0.003586
# 3 -0.003910 -0.002888 0.010312 0.006701 0.000863 0.004868
# 4 -0.001176 -0.001472 0.006701 0.034555 -0.002225 -0.001491
# 5 -0.000852 -0.000616 0.000863 -0.002225 0.032299 -0.003631
# 6 -0.000736 -0.003586 0.004868 -0.001491 -0.003631 0.022125
#
#
# Mechanical properties :
#
#
# Convention : Reuss Voigt Hill
#
# Bulk Modulus (GPa) = 86.26824 91.62256 88.94540
# Shear Modulus (GPa) = 36.33915 44.49578 40.41746
#
# Velocity S-wave (km/s) = 4.24332 4.69546 4.47510
# Velocity P-wave (km/s) = 8.17025 8.64840 8.41272
#
# Compressibility (1/GPa) = 0.01159175
#
# Stress axis : x y z
#
# Youngs Moduli (GPa) = 102.71986 123.09610 96.97445
#
# Poissons Ratio (x) = 0.18356 0.37918
# Poissons Ratio (y) = 0.15318 0.28009
# Poissons Ratio (z) = 0.40165 0.35554
#
# Static dielectric constant tensor:
#      x y z
#    x 1.704020 -0.021100 -0.005780 
#    y -0.021100 1.661890 0.024940 
#    z -0.005780 0.024940 1.650340 
# 
# From -- ./inp_files/94327.got.cif
#   From: 2010.05.17/outbox.cif.g08.bks.cpg/sg2_48_cif.got.tgz:94327.got - 2010.06.03 11:33:40.
