data_PCOD9067796
_publ_section_title
;
Structure prediction by ZEFSAII (Michael W. Deem and Ramdas Pophale) SiO2 
 PCOD9067796
Probable space group: P -1
;
_chemical_formula_sum "Si O2"
_cell_formula_units_Z 16
_cell_length_a 21.568159
_cell_length_b 9.090244
_cell_length_c 7.500346
_cell_angle_alpha 125.279271
_cell_angle_beta 123.499421
_cell_angle_gamma 32.808655
_cell_volume 643.054594
_symmetry_space_group_name_H-M "P -1"
_symmetry_group_IT_number 2
_symmetry_cell_setting 'triclinic'
loop_
_space_group_symop_operation_xyz
x,y,z
-x,-y,-z
loop_
_atom_site_type_symbol
_atom_site_label
_atom_site_fract_x
_atom_site_fract_y
_atom_site_fract_z
Si Si1 0.755135 0.235295 0.802933
Si Si2 0.238955 0.150949 0.384009
Si Si3 0.540585 0.745975 0.981155
Si Si4 0.111516 0.681676 0.025960
Si Si5 0.207635 0.838372 0.580547
Si Si6 0.702928 0.963396 0.192764
Si Si7 0.630427 0.758577 0.472766
Si Si8 0.018088 0.672098 0.222689
O O1 0.615823 0.496084 0.781843
O O2 0.792616 0.372582 0.965431
O O3 0.822884 0.064605 0.606458
O O4 0.783394 0.015834 0.822486
O O5 0.295840 0.032653 0.586757
O O6 0.323276 0.125203 0.391017
O O7 0.114698 0.476166 0.394689
O O8 0.421440 0.881101 0.952715
O O9 0.625922 0.650904 0.207621
O O10 0.500000 0.000000 0.000000
O O11 0.065423 0.720308 0.180798
O O12 0.178966 0.365560 0.886154
O O13 0.000000 0.000000 0.000000
O O14 0.282199 0.518512 0.462590
O O15 0.286148 0.864246 0.763931
O O16 0.099041 0.035630 0.672999
O O17 0.500000 0.000000 0.500000
O O18 0.000000 0.500000 0.000000
#
# Coordination Sequence:
#
# PCOD9067796 Si02
#       8
#     2   2   2   2   2   2   2   2
#     4  11  26  45  73 104 143 191 241 298 363 427
#     4  11  27  46  73 103 146 187 246 292 360 429
#     4  12  24  46  75 102 145 188 242 295 362 428
#     4  12  26  44  73 104 146 189 242 290 368 428
#     4  11  28  47  71 107 144 188 243 300 363 424
#     4  11  26  48  73 106 143 193 240 297 361 432
#     4  12  28  46  72 108 147 191 245 301 359 425
#     4  12  27  47  75 107 149 188 241 299 362 433
#
# _framework density 24.881247999999999
#
# number of rings (size 3 to 8) (size 9 to 14) (size 15 to 20)
#    0.000    0.500    3.750    2.250   10.500    3.500 
#    0.000    0.000    0.000    0.000    0.000    0.000 
#    0.000    0.000    0.000    0.000    0.000    0.000 
#
# Total GULP energy -89181.764075 kJ/mol
# GULP energy per Si atom -5573.860255 kJ/mol
# Density = 2.482462 g / cm^3
# Si number density = 24.881248 Si / 1000 Ang^3
#
#
#
# Elastic Constant Matrix: (Units=GPa)
#
#
# Indices 1 2 3 4 5 6 
#
# 1 188.7282 70.3033 28.2541 15.6922 8.0604 3.4026
# 2 70.3033 124.8838 3.9918 21.4973 -6.6377 -5.6591
# 3 28.2541 3.9918 44.6997 4.6264 -2.7027 -8.3643
# 4 15.6922 21.4973 4.6264 41.0906 -6.8818 -2.3901
# 5 8.0604 -6.6377 -2.7027 -6.8818 24.8861 11.1321
# 6 3.4026 -5.6591 -8.3643 -2.3901 11.1321 51.0783
#
#
#
# Elastic Compliance Matrix: (Units=1/GPa)
#
#
# Indices 1 2 3 4 5 6 
#
# 1 0.007963 -0.004430 -0.004976 -0.000909 -0.004113 -0.000982
# 2 -0.004430 0.011312 0.002593 -0.003926 0.003155 0.001102
# 3 -0.004976 0.002593 0.026428 -0.001716 0.002795 0.004257
# 4 -0.000909 -0.003926 -0.001716 0.028090 0.007240 -0.000919
# 5 -0.004113 0.003155 0.002795 0.007240 0.048783 -0.009212
# 6 -0.000982 0.001102 0.004257 -0.000919 -0.009212 0.022427
#
#
# Mechanical properties :
#
#
# Convention : Reuss Voigt Hill
#
# Bulk Modulus (GPa) = 31.17457 62.60113 46.88785
# Shear Modulus (GPa) = 29.52964 40.46183 34.99573
#
# Velocity S-wave (km/s) = 3.44877 4.03699 3.75442
# Velocity P-wave (km/s) = 5.33059 6.85159 6.13838
#
# Compressibility (1/GPa) = 0.03207742
#
# Stress axis : x y z
#
# Youngs Moduli (GPa) = 125.58301 88.40196 37.83806
#
# Poissons Ratio (x) = 0.39165 0.18828
# Poissons Ratio (y) = 0.55637 -0.09813
# Poissons Ratio (z) = 0.62490 -0.22926
#
# Static dielectric constant tensor:
#      x y z
#    x 1.965840 0.060020 0.030290 
#    y 0.060020 1.644790 0.281220 
#    z 0.030290 0.281220 1.964370 
# 
# From -- ./inp_files/223787.got.cif
#   From: 2010.05.17/outbox.cif.g08.bks.cpg/sg2_112_cif.got.tgz:223787.got - 2010.06.03 11:33:40.
