data_PCOD9067125
_publ_section_title
;
Structure prediction by ZEFSAII (Michael W. Deem and Ramdas Pophale) SiO2 
 PCOD9067125
Probable space group: P -1
;
_chemical_formula_sum "Si O2"
_cell_formula_units_Z 14
_cell_length_a 8.232303
_cell_length_b 9.536254
_cell_length_c 14.548520
_cell_angle_alpha 51.236996
_cell_angle_beta 107.212784
_cell_angle_gamma 70.582708
_cell_volume 611.571068
_symmetry_space_group_name_H-M "P -1"
_symmetry_group_IT_number 2
_symmetry_cell_setting 'triclinic'
loop_
_space_group_symop_operation_xyz
x,y,z
-x,-y,-z
loop_
_atom_site_type_symbol
_atom_site_label
_atom_site_fract_x
_atom_site_fract_y
_atom_site_fract_z
Si Si1 0.001064 0.076045 0.570145
Si Si2 0.284009 0.021040 0.946431
Si Si3 0.914120 0.426347 0.874476
Si Si4 0.024119 0.225346 0.183454
Si Si5 0.585643 0.246206 0.658212
Si Si6 0.548845 0.444305 0.743048
Si Si7 0.780069 0.791567 0.340276
O O1 0.725835 0.348337 0.419800
O O2 0.182498 0.102613 0.611542
O O3 0.085703 0.853023 0.742957
O O4 0.000000 0.000000 0.500000
O O5 0.198524 0.113200 0.789806
O O6 0.095053 0.219123 0.911971
O O7 0.500000 0.000000 0.000000
O O8 0.395142 0.741423 0.092441
O O9 0.962510 0.600863 0.828636
O O10 0.655871 0.557000 0.741831
O O11 0.937804 0.326680 0.023000
O O12 0.278508 0.951716 0.318558
O O13 0.500000 0.500000 0.500000
O O14 0.706732 0.240100 0.771364
O O15 0.434618 0.189908 0.695980
O O16 0.000000 0.500000 0.500000
#
# Coordination Sequence:
#
# PCOD9067125 Si02
#       7
#     2   2   2   2   2   2   2
#     4  12  29  47  69 104 147 186 238 295 356 417
#     4  12  24  45  75 107 140 180 240 293 347 424
#     4  11  27  43  74 105 144 185 234 295 355 419
#     4  11  25  48  67 103 145 187 232 291 359 421
#     4  12  24  44  71 102 139 182 241 282 345 430
#     4  12  25  45  71 105 137 189 240 288 350 418
#     4  12  25  45  73 103 140 188 234 293 354 412
#
# _framework density 22.891863000000001
#
# number of rings (size 3 to 8) (size 9 to 14) (size 15 to 20)
#    0.000    0.286    5.714    1.286   10.000    0.571 
#    0.000    1.429    0.000    0.000    0.000    0.000 
#    0.000    0.000    0.000    0.000    0.000    0.000 
#
# Total GULP energy -78039.222947 kJ/mol
# GULP energy per Si atom -5574.230211 kJ/mol
# Density = 2.283976 g / cm^3
# Si number density = 22.891863 Si / 1000 Ang^3
#
#
#
# Elastic Constant Matrix: (Units=GPa)
#
#
# Indices 1 2 3 4 5 6 
#
# 1 58.5483 41.4020 10.8276 7.1938 -11.3600 27.7491
# 2 41.4020 135.6058 15.8118 12.7311 -2.7805 23.9548
# 3 10.8276 15.8118 91.7912 3.6253 -23.5587 10.8170
# 4 7.1938 12.7311 3.6253 34.4935 2.9501 -2.1347
# 5 -11.3600 -2.7805 -23.5587 2.9501 31.7157 2.9224
# 6 27.7491 23.9548 10.8170 -2.1347 2.9224 42.6944
#
#
#
# Elastic Compliance Matrix: (Units=1/GPa)
#
#
# Indices 1 2 3 4 5 6 
#
# 1 0.036348 -0.006380 0.004713 -0.008758 0.018892 -0.022970
# 2 -0.006380 0.009792 -0.001276 -0.002031 -0.002095 -0.000983
# 3 0.004713 -0.001276 0.015115 -0.003735 0.013825 -0.007310
# 4 -0.008758 -0.002031 -0.003735 0.033455 -0.010137 0.010145
# 5 0.018892 -0.002095 0.013825 -0.010137 0.051040 -0.018606
# 6 -0.022970 -0.000983 -0.007310 0.010145 -0.018606 0.042536
#
#
# Mechanical properties :
#
#
# Convention : Reuss Voigt Hill
#
# Bulk Modulus (GPa) = 18.06030 46.89201 32.47616
# Shear Modulus (GPa) = 23.51525 36.30767 29.91146
#
# Velocity S-wave (km/s) = 3.20852 3.98685 3.61867
# Velocity P-wave (km/s) = 4.65109 6.45925 5.62826
#
# Compressibility (1/GPa) = 0.05537007
#
# Stress axis : x y z
#
# Youngs Moduli (GPa) = 27.51181 102.12211 66.15772
#
# Poissons Ratio (x) = 0.65151 -0.31179
# Poissons Ratio (y) = 0.17552 0.08441
# Poissons Ratio (z) = -0.12966 0.13030
#
# Static dielectric constant tensor:
#      x y z
#    x 1.474130 -0.163900 0.263980 
#    y -0.163900 1.871780 0.032850 
#    z 0.263980 0.032850 1.803100 
# 
# From -- ./inp_files/155360.got.cif
#   From: 2010.05.17/outbox.cif.g08.bks.cpg/sg2_78_cif.got.tgz:155360.got - 2010.06.03 11:33:40.
