data_PCOD9067077
_publ_section_title
;
Structure prediction by ZEFSAII (Michael W. Deem and Ramdas Pophale) SiO2 
 PCOD9067077
Probable space group: P -1
;
_chemical_formula_sum "Si O2"
_cell_formula_units_Z 15
_cell_length_a 20.359323
_cell_length_b 21.219016
_cell_length_c 5.572130
_cell_angle_alpha 117.623583
_cell_angle_beta 118.885770
_cell_angle_gamma 13.659371
_cell_volume 497.538602
_symmetry_space_group_name_H-M "P -1"
_symmetry_group_IT_number 2
_symmetry_cell_setting 'triclinic'
loop_
_space_group_symop_operation_xyz
x,y,z
-x,-y,-z
loop_
_atom_site_type_symbol
_atom_site_label
_atom_site_fract_x
_atom_site_fract_y
_atom_site_fract_z
Si Si1 0.255408 0.196401 0.731651
Si Si2 0.807706 0.070980 0.742991
Si Si3 0.500000 0.500000 0.000000
Si Si4 0.759038 0.280469 0.504534
Si Si5 0.059265 0.741701 0.998828
Si Si6 0.648182 0.080077 0.227452
Si Si7 0.312349 0.278747 0.694201
Si Si8 0.166978 0.508508 0.468292
O O1 0.179241 0.348135 0.772807
O O2 0.443840 0.983870 0.483133
O O3 0.899283 0.725842 0.230859
O O4 0.500000 0.000000 0.000000
O O5 0.609401 0.316331 0.891015
O O6 0.854168 0.979272 0.895587
O O7 0.677800 0.138517 0.429608
O O8 0.115421 0.820253 0.752978
O O9 0.556475 0.445540 0.697310
O O10 0.000000 0.000000 0.500000
O O11 0.773959 0.349535 0.732814
O O12 0.152634 0.599308 0.713503
O O13 0.942199 0.801789 0.118573
O O14 0.476324 0.215196 0.398533
O O15 0.440041 0.235446 0.942660
O O16 0.091999 0.512226 0.525764
#
# Coordination Sequence:
#
# PCOD9067077 Si02
#       8
#     2   2   1   2   2   2   2   2
#     4  11  26  49  78 118 164 209 265 332 390 471
#     4  11  28  51  78 116 160 204 268 329 402 480
#     4  12  28  50  78 112 158 204 262 330 396 482
#     4  11  27  50  81 113 156 207 261 329 403 476
#     4  11  27  53  80 119 161 206 265 333 396 479
#     4  11  26  47  82 113 157 211 262 325 394 473
#     4  11  25  47  77 116 160 208 267 323 397 468
#     4  12  27  48  82 113 159 209 268 326 396 473
#
# _framework density 30.148413999999999
#
# number of rings (size 3 to 8) (size 9 to 14) (size 15 to 20)
#    0.000    0.800    1.333    3.200    7.467    8.533 
#    0.000    0.000    0.000    0.000    0.000    0.000 
#    0.000    0.000    0.000    0.000    0.000    0.000 
#
# Total GULP energy -83747.132607 kJ/mol
# GULP energy per Si atom -5583.142174 kJ/mol
# Density = 3.007980 g / cm^3
# Si number density = 30.148414 Si / 1000 Ang^3
#
#
#
# Elastic Constant Matrix: (Units=GPa)
#
#
# Indices 1 2 3 4 5 6 
#
# 1 204.9266 61.5148 64.6055 -12.4241 -1.1960 -16.7137
# 2 61.5148 122.6409 70.6087 30.5967 0.5233 7.8432
# 3 64.6055 70.6087 204.6385 10.9814 13.0509 -6.4320
# 4 -12.4241 30.5967 10.9814 55.5859 3.1914 5.8251
# 5 -1.1960 0.5233 13.0509 3.1914 64.7262 -17.3677
# 6 -16.7137 7.8432 -6.4320 5.8251 -17.3677 72.0413
#
#
#
# Elastic Compliance Matrix: (Units=1/GPa)
#
#
# Indices 1 2 3 4 5 6 
#
# 1 0.006689 -0.003792 -0.000980 0.003556 0.000645 0.001745
# 2 -0.003792 0.014011 -0.003307 -0.007716 0.000328 -0.001997
# 3 -0.000980 -0.003307 0.006406 0.000364 -0.001197 0.000386
# 4 0.003556 -0.007716 0.000364 0.023078 -0.001206 -0.000459
# 5 0.000645 0.000328 -0.001197 -0.001206 0.016880 0.004174
# 6 0.001745 -0.001997 0.000386 -0.000459 0.004174 0.015581
#
#
# Mechanical properties :
#
#
# Convention : Reuss Voigt Hill
#
# Bulk Modulus (GPa) = 91.34527 102.85157 97.09842
# Shear Modulus (GPa) = 48.80280 60.83582 54.81931
#
# Velocity S-wave (km/s) = 4.02774 4.49695 4.26880
# Velocity P-wave (km/s) = 7.21072 7.82001 7.52154
#
# Compressibility (1/GPa) = 0.01094747
#
# Stress axis : x y z
#
# Youngs Moduli (GPa) = 149.50144 71.37117 156.09955
#
# Poissons Ratio (x) = 0.27065 0.15304
# Poissons Ratio (y) = 0.56694 0.51620
# Poissons Ratio (z) = 0.14657 0.23602
#
# Static dielectric constant tensor:
#      x y z
#    x 2.355900 0.151820 -0.298920 
#    y 0.151820 1.799300 0.353650 
#    z -0.298920 0.353650 2.165550 
# 
# From -- ./inp_files/120336.got.cif
#   From: 2010.05.17/outbox.cif.g08.bks.cpg/sg2_61_cif.got.tgz:120336.got - 2010.06.03 11:33:40.
