data_PCOD9067834
_publ_section_title
;
Structure prediction by ZEFSAII (Michael W. Deem and Ramdas Pophale) SiO2 
 PCOD9067834
Probable space group: P -1
;
_chemical_formula_sum "Si O2"
_cell_formula_units_Z 16
_cell_length_a 13.166128
_cell_length_b 32.454180
_cell_length_c 4.907818
_cell_angle_alpha 103.042426
_cell_angle_beta 102.326240
_cell_angle_gamma 18.332193
_cell_volume 642.572031
_symmetry_space_group_name_H-M "P -1"
_symmetry_group_IT_number 2
_symmetry_cell_setting 'triclinic'
loop_
_space_group_symop_operation_xyz
x,y,z
-x,-y,-z
loop_
_atom_site_type_symbol
_atom_site_label
_atom_site_fract_x
_atom_site_fract_y
_atom_site_fract_z
Si Si1 0.368383 0.348898 0.403939
Si Si2 0.343333 0.888805 0.082423
Si Si3 0.320217 0.500173 0.854033
Si Si4 0.426533 0.679734 0.029805
Si Si5 0.689027 0.722816 0.545229
Si Si6 0.518193 0.080871 0.487569
Si Si7 0.201563 0.627053 0.326437
Si Si8 0.298223 0.041121 0.086895
O O1 0.590543 0.291624 0.642411
O O2 0.417994 0.280804 0.396472
O O3 0.000000 0.500000 0.500000
O O4 0.421171 0.344596 0.122791
O O5 0.565473 0.775848 0.248299
O O6 0.312384 0.944925 0.305228
O O7 0.518003 0.822870 0.792791
O O8 0.000000 0.000000 0.000000
O O9 0.367390 0.442025 0.990073
O O10 0.668933 0.381097 0.765757
O O11 0.069978 0.582547 0.600138
O O12 0.176959 0.596904 0.062604
O O13 0.076869 0.803085 0.901261
O O14 0.133338 0.237640 0.509637
O O15 0.646418 0.020118 0.174224
O O16 0.584140 0.016625 0.633912
O O17 0.500000 0.500000 0.500000
O O18 0.500000 0.000000 0.000000
#
# Coordination Sequence:
#
# PCOD9067834 Si02
#       8
#     2   2   2   2   2   2   2   2
#     4  12  27  46  75 110 148 191 244 308 373 452
#     4  12  28  47  75 107 146 201 246 312 375 448
#     4  11  26  45  75 113 149 192 253 315 385 447
#     4  12  28  48  76 109 150 200 249 302 377 450
#     4  12  26  48  73 108 150 186 250 309 386 437
#     4  12  27  49  77 108 150 192 259 304 375 447
#     4  11  26  45  78 109 147 197 247 322 384 443
#     4  12  29  51  75 107 152 203 248 308 365 451
#
# _framework density 24.899933999999998
#
# number of rings (size 3 to 8) (size 9 to 14) (size 15 to 20)
#    0.000    0.250    2.500    4.875   14.000    0.000 
#    0.000    0.000    0.000    0.000    0.000    0.000 
#    0.000    0.000    0.000    0.000    0.000    0.000 
#
# Total GULP energy -89776.797604 kJ/mol
# GULP energy per Si atom -5611.049850 kJ/mol
# Density = 2.484326 g / cm^3
# Si number density = 24.899934 Si / 1000 Ang^3
#
#
#
# Elastic Constant Matrix: (Units=GPa)
#
#
# Indices 1 2 3 4 5 6 
#
# 1 124.3675 10.5726 8.3838 -17.5797 3.6061 7.9689
# 2 10.5726 110.2772 17.3169 -30.2689 1.7929 -15.1875
# 3 8.3838 17.3169 105.7985 -12.0654 -7.5249 5.8966
# 4 -17.5797 -30.2689 -12.0654 39.9271 3.7573 -0.7797
# 5 3.6061 1.7929 -7.5249 3.7573 36.7947 -5.2931
# 6 7.9689 -15.1875 5.8966 -0.7797 -5.2931 41.8481
#
#
#
# Elastic Compliance Matrix: (Units=1/GPa)
#
#
# Indices 1 2 3 4 5 6 
#
# 1 0.008767 0.000073 -0.000272 0.003947 -0.001570 -0.001730
# 2 0.000073 0.012495 -0.001336 0.009302 -0.001158 0.004736
# 3 -0.000272 -0.001336 0.010103 0.001724 0.001751 -0.001603
# 4 0.003947 0.009302 0.001724 0.034752 -0.003667 0.002565
# 5 -0.001570 -0.001158 0.001751 -0.003667 0.028578 0.003178
# 6 -0.001730 0.004736 -0.001603 0.002565 0.003178 0.026620
#
#
# Mechanical properties :
#
#
# Convention : Reuss Voigt Hill
#
# Bulk Modulus (GPa) = 35.34255 45.88777 40.61516
# Shear Modulus (GPa) = 37.36439 43.99198 40.67818
#
# Velocity S-wave (km/s) = 3.87794 4.20783 4.04625
# Velocity P-wave (km/s) = 5.85456 6.48666 6.17869
#
# Compressibility (1/GPa) = 0.02829451
#
# Stress axis : x y z
#
# Youngs Moduli (GPa) = 114.06239 80.02976 98.98322
#
# Poissons Ratio (x) = -0.00583 0.02690
# Poissons Ratio (y) = -0.00831 0.13229
# Poissons Ratio (z) = 0.03100 0.10696
#
# Static dielectric constant tensor:
#      x y z
#    x 2.000480 0.027810 0.015190 
#    y 0.027810 1.961960 0.009990 
#    z 0.015190 0.009990 1.951200 
# 
# From -- ./inp_files/85420.got.cif
#   From: 2010.05.17/outbox.cif.g08.bks.cpg/sg2_43_cif.got.tgz:85420.got - 2010.06.03 11:33:40.
