data_PCOD9067000
_publ_section_title
;
Structure prediction by ZEFSAII (Michael W. Deem and Ramdas Pophale) SiO2 
 PCOD9067000
Probable space group: P -1
;
_chemical_formula_sum "Si O2"
_cell_formula_units_Z 11
_cell_length_a 7.836033
_cell_length_b 16.306512
_cell_length_c 13.493126
_cell_angle_alpha 148.321890
_cell_angle_beta 25.932643
_cell_angle_gamma 140.753070
_cell_volume 395.642102
_symmetry_space_group_name_H-M "P -1"
_symmetry_group_IT_number 2
_symmetry_cell_setting 'triclinic'
loop_
_space_group_symop_operation_xyz
x,y,z
-x,-y,-z
loop_
_atom_site_type_symbol
_atom_site_label
_atom_site_fract_x
_atom_site_fract_y
_atom_site_fract_z
Si Si1 0.838729 0.621798 0.633440
Si Si2 0.923681 0.329738 0.815648
Si Si3 0.040960 0.484618 0.197757
Si Si4 0.897430 0.947986 0.888795
Si Si5 0.000000 0.000000 0.500000
Si Si6 0.975089 0.118355 0.814671
O O1 0.050099 0.771693 0.625647
O O2 0.000000 0.500000 0.500000
O O3 0.763749 0.512787 0.465024
O O4 0.518929 0.698661 0.948083
O O5 0.998424 0.369959 0.705516
O O6 0.146606 0.185962 0.592222
O O7 0.000000 0.500000 0.000000
O O8 0.500000 0.500000 0.000000
O O9 0.983830 0.305889 0.005675
O O10 0.985962 0.053989 0.854387
O O11 0.412913 0.927030 0.101661
O O12 0.000000 0.000000 0.000000
O O13 0.762612 0.987207 0.500017
#
# Coordination Sequence:
#
# PCOD9067000 Si02
#       6
#     2   2   2   2   1   2
#     4  12  25  48  78 114 157 206 268 332 402 486
#     4  12  26  49  78 114 156 209 260 332 405 478
#     4  12  26  49  77 113 158 209 268 328 405 480
#     4  11  25  47  74 115 151 201 269 326 404 482
#     4  12  24  48  76 112 162 198 270 324 400 486
#     4  11  26  48  77 112 158 210 259 339 403 475
#
# _framework density 27.802906
#
# number of rings (size 3 to 8) (size 9 to 14) (size 15 to 20)
#    0.000    0.364    5.455    2.182    0.000    8.727 
#    0.000    2.727    0.000    0.000    0.000    0.000 
#    0.000    0.000    0.000    0.000    0.000    0.000 
#
# Total GULP energy -61251.555055 kJ/mol
# GULP energy per Si atom -5568.323187 kJ/mol
# Density = 2.773963 g / cm^3
# Si number density = 27.802906 Si / 1000 Ang^3
#
#
#
# Elastic Constant Matrix: (Units=GPa)
#
#
# Indices 1 2 3 4 5 6 
#
# 1 222.9020 87.0049 55.7761 19.5963 31.6343 -52.6930
# 2 87.0049 145.2157 47.7142 40.6854 2.9322 -37.4426
# 3 55.7761 47.7142 126.4176 24.8261 21.9989 -9.0680
# 4 19.5963 40.6854 24.8261 65.6237 -0.8103 -3.1980
# 5 31.6343 2.9322 21.9989 -0.8103 62.1921 14.0713
# 6 -52.6930 -37.4426 -9.0680 -3.1980 14.0713 75.8786
#
#
#
# Elastic Compliance Matrix: (Units=1/GPa)
#
#
# Indices 1 2 3 4 5 6 
#
# 1 0.007599 -0.002972 -0.001197 0.000191 -0.004312 0.004475
# 2 -0.002972 0.011578 -0.001937 -0.005399 0.000897 0.003024
# 3 -0.001197 -0.001937 0.010113 -0.002310 -0.002875 -0.000143
# 4 0.000191 -0.005399 -0.002310 0.019311 0.001750 -0.002318
# 5 -0.004312 0.000897 -0.002875 0.001750 0.020780 -0.006675
# 6 0.004475 0.003024 -0.000143 -0.002318 -0.006675 0.018902
#
#
# Mechanical properties :
#
#
# Convention : Reuss Voigt Hill
#
# Bulk Modulus (GPa) = 58.55954 97.28064 77.92009
# Shear Modulus (GPa) = 47.08609 61.00822 54.04715
#
# Velocity S-wave (km/s) = 4.11976 4.68943 4.41380
# Velocity P-wave (km/s) = 6.61347 8.02411 7.35270
#
# Compressibility (1/GPa) = 0.01707664
#
# Stress axis : x y z
#
# Youngs Moduli (GPa) = 131.59820 86.37149 98.87937
#
# Poissons Ratio (x) = 0.25671 0.11837
# Poissons Ratio (y) = 0.39113 0.19157
# Poissons Ratio (z) = 0.15754 0.16734
#
# Static dielectric constant tensor:
#      x y z
#    x 2.304970 0.111770 -0.110840 
#    y 0.111770 8.773220 -3.071930 
#    z -0.110840 -3.071930 3.182820 
# 
# From -- ./inp_files/506365.got.cif
#   From: 2010.05.17/outbox.cif.g08.bks.cpg/sg2_254_cif.got.tgz:506365.got - 2010.06.03 11:33:40.
