data_PCOD9067209
_publ_section_title
;
Structure prediction by ZEFSAII (Michael W. Deem and Ramdas Pophale) SiO2 
 PCOD9067209
Probable space group: P -1
;
_chemical_formula_sum "Si O2"
_cell_formula_units_Z 15
_cell_length_a 15.905183
_cell_length_b 11.349310
_cell_length_c 18.140999
_cell_angle_alpha 27.161288
_cell_angle_beta 23.988947
_cell_angle_gamma 38.216576
_cell_volume 601.199617
_symmetry_space_group_name_H-M "P -1"
_symmetry_group_IT_number 2
_symmetry_cell_setting 'triclinic'
loop_
_space_group_symop_operation_xyz
x,y,z
-x,-y,-z
loop_
_atom_site_type_symbol
_atom_site_label
_atom_site_fract_x
_atom_site_fract_y
_atom_site_fract_z
Si Si1 0.388914 0.794538 0.645718
Si Si2 0.182067 0.227255 0.495659
Si Si3 0.986691 0.610794 0.798275
Si Si4 0.232322 0.493226 0.527618
Si Si5 0.284396 0.315460 0.793187
Si Si6 0.127292 0.821816 0.098214
Si Si7 0.166004 0.957777 0.229032
Si Si8 0.500000 0.500000 0.000000
O O1 0.557879 0.635536 0.563102
O O2 0.500000 0.000000 0.500000
O O3 0.273800 0.963752 0.587475
O O4 0.211768 0.605873 0.935267
O O5 0.368441 0.457454 0.206333
O O6 0.017859 0.274712 0.661710
O O7 0.060125 0.175681 0.545593
O O8 0.890750 0.862527 0.759157
O O9 0.147152 0.625242 0.594257
O O10 0.111392 0.508898 0.824171
O O11 0.042364 0.268398 0.779338
O O12 0.274697 0.723517 0.304345
O O13 0.500000 0.500000 0.500000
O O14 0.273427 0.137109 0.975488
O O15 0.212140 0.116841 0.893240
O O16 0.330321 0.684761 0.002936
#
# Coordination Sequence:
#
# PCOD9067209 Si02
#       8
#     2   2   2   2   2   2   2   1
#     4  12  27  47  78 109 156 203 248 316 394 450
#     4  11  25  48  75 113 147 202 255 321 373 456
#     4  12  28  49  74 111 154 206 256 312 387 467
#     4  12  28  49  77 116 157 199 255 318 391 463
#     4  11  27  47  82 110 148 204 261 317 383 456
#     4  11  25  48  73 113 153 190 253 323 375 455
#     4  11  26  53  75 105 163 197 258 329 370 455
#     4  12  26  38  82 112 148 188 258 316 390 440
#
# _framework density 24.950116999999999
#
# number of rings (size 3 to 8) (size 9 to 14) (size 15 to 20)
#    0.000    0.533    5.333    1.200    9.333    1.600 
#    2.400    0.000    0.000    0.000    0.000    0.000 
#    0.000    0.000    0.000    0.000    0.000    0.000 
#
# Total GULP energy -83683.562251 kJ/mol
# GULP energy per Si atom -5578.904150 kJ/mol
# Density = 2.489333 g / cm^3
# Si number density = 24.950117 Si / 1000 Ang^3
#
#
#
# Elastic Constant Matrix: (Units=GPa)
#
#
# Indices 1 2 3 4 5 6 
#
# 1 59.8661 26.6950 23.3990 0.4351 20.1879 1.1703
# 2 26.6950 103.4812 58.9056 23.2397 4.5291 -13.6744
# 3 23.3990 58.9056 94.7364 8.3679 17.1704 11.8289
# 4 0.4351 23.2397 8.3679 48.3267 1.1574 -2.9241
# 5 20.1879 4.5291 17.1704 1.1574 40.7841 0.8505
# 6 1.1703 -13.6744 11.8289 -2.9241 0.8505 44.7113
#
#
#
# Elastic Compliance Matrix: (Units=1/GPa)
#
#
# Indices 1 2 3 4 5 6 
#
# 1 0.023295 -0.006851 0.000535 0.003109 -0.011033 -0.002433
# 2 -0.006851 0.022027 -0.013789 -0.007704 0.006762 0.009931
# 3 0.000535 -0.013789 0.021344 0.002533 -0.007592 -0.009568
# 4 0.003109 -0.007704 0.002533 0.023897 -0.002397 -0.001499
# 5 -0.011033 0.006762 -0.007592 -0.002397 0.032419 0.003592
# 6 -0.002433 0.009931 -0.009568 -0.001499 0.003592 0.027832
#
#
# Mechanical properties :
#
#
# Convention : Reuss Voigt Hill
#
# Bulk Modulus (GPa) = 37.79811 52.89809 45.34810
# Shear Modulus (GPa) = 25.01972 36.70337 30.86155
#
# Velocity S-wave (km/s) = 3.17012 3.83961 3.52082
# Velocity P-wave (km/s) = 5.34621 6.39566 5.89433
#
# Compressibility (1/GPa) = 0.02645635
#
# Stress axis : x y z
#
# Youngs Moduli (GPa) = 42.92733 45.39951 46.85138
#
# Poissons Ratio (x) = 0.31103 -0.02506
# Poissons Ratio (y) = 0.29409 0.64603
# Poissons Ratio (z) = -0.02296 0.62601
#
# Static dielectric constant tensor:
#      x y z
#    x 2.036530 -0.015230 0.014780 
#    y -0.015230 1.948390 -0.096680 
#    z 0.014780 -0.096680 2.040500 
# 
# From -- ./inp_files/600019.got.cif
#   From: 2010.05.17/outbox.cif.g08.bks.cpg/sg2_301_cif.got.tgz:600019.got - 2010.06.03 11:33:40.
