data_PCOD9067366
_publ_section_title
;
Structure prediction by ZEFSAII (Michael W. Deem and Ramdas Pophale) SiO2 
 PCOD9067366
Probable space group: P -1
;
_chemical_formula_sum "Si O2"
_cell_formula_units_Z 16
_cell_length_a 17.415456
_cell_length_b 12.289403
_cell_length_c 8.788878
_cell_angle_alpha 139.494177
_cell_angle_beta 46.377112
_cell_angle_gamma 147.442596
_cell_volume 650.990228
_symmetry_space_group_name_H-M "P -1"
_symmetry_group_IT_number 2
_symmetry_cell_setting 'triclinic'
loop_
_space_group_symop_operation_xyz
x,y,z
-x,-y,-z
loop_
_atom_site_type_symbol
_atom_site_label
_atom_site_fract_x
_atom_site_fract_y
_atom_site_fract_z
Si Si1 0.914396 0.256464 0.281561
Si Si2 0.349654 0.602956 0.398440
Si Si3 0.361810 0.969797 0.395308
Si Si4 0.818043 0.771510 0.562498
Si Si5 0.340309 0.095310 0.227845
Si Si6 0.911161 0.816185 0.185647
Si Si7 0.858796 0.354729 0.143947
Si Si8 0.637678 0.424795 0.005716
O O1 0.765179 0.085367 0.390258
O O2 0.887254 0.262369 0.147856
O O3 0.000000 0.500000 0.500000
O O4 0.014353 0.202858 0.075731
O O5 0.321471 0.414577 0.344251
O O6 0.203115 0.549105 0.580994
O O7 0.366828 0.577892 0.173019
O O8 0.489236 0.852726 0.528483
O O9 0.327035 0.734227 0.171102
O O10 0.368967 0.078916 0.345044
O O11 0.779055 0.893799 0.644578
O O12 0.854436 0.677088 0.278415
O O13 0.954984 0.937868 0.663481
O O14 0.487966 0.298774 0.159486
O O15 0.274133 0.854983 0.994066
O O16 0.756707 0.682207 0.176534
O O17 0.000000 0.500000 0.000000
#
# Coordination Sequence:
#
# PCOD9067366 Si02
#       8
#     2   2   2   2   2   2   2   2
#     4  12  22  44  72 108 142 181 246 299 359 420
#     4  12  26  46  73 107 147 186 240 306 364 423
#     4  12  25  44  76 110 141 183 246 308 358 416
#     4  11  28  50  70 105 151 196 238 288 363 445
#     4  12  27  46  73 104 143 197 241 287 362 433
#     4  11  25  49  72 104 151 192 240 294 359 437
#     4  12  24  40  74 106 141 189 243 302 354 421
#     4  12  25  47  76 108 142 185 245 309 355 422
#
# _framework density 24.577940000000002
#
# number of rings (size 3 to 8) (size 9 to 14) (size 15 to 20)
#    0.000    0.250    5.000    3.750    3.500    3.000 
#    2.250    0.000    0.000    0.000    0.000    0.000 
#    0.000    0.000    0.000    0.000    0.000    0.000 
#
# Total GULP energy -89400.992247 kJ/mol
# GULP energy per Si atom -5587.562015 kJ/mol
# Density = 2.452200 g / cm^3
# Si number density = 24.577940 Si / 1000 Ang^3
#
#
#
# Elastic Constant Matrix: (Units=GPa)
#
#
# Indices 1 2 3 4 5 6 
#
# 1 67.4361 28.2867 39.1044 -7.8103 8.3576 -0.3434
# 2 28.2867 98.6496 44.9363 -34.3389 5.6585 14.8832
# 3 39.1044 44.9363 115.0120 -24.7783 22.0803 8.3231
# 4 -7.8103 -34.3389 -24.7783 56.0635 4.6582 5.9203
# 5 8.3576 5.6585 22.0803 4.6582 35.3585 0.9246
# 6 -0.3434 14.8832 8.3231 5.9203 0.9246 46.3053
#
#
#
# Elastic Compliance Matrix: (Units=1/GPa)
#
#
# Indices 1 2 3 4 5 6 
#
# 1 0.019752 -0.004468 -0.005796 -0.002859 -0.000036 0.002991
# 2 -0.004468 0.016732 -0.002317 0.009357 -0.001246 -0.006166
# 3 -0.005796 -0.002317 0.014314 0.004996 -0.007794 -0.002354
# 4 -0.002859 0.009357 0.004996 0.026742 -0.007276 -0.007200
# 5 -0.000036 -0.001246 -0.007794 -0.007276 0.034262 0.002047
# 6 0.002991 -0.006166 -0.002354 -0.007200 0.002047 0.024903
#
#
# Mechanical properties :
#
#
# Convention : Reuss Voigt Hill
#
# Bulk Modulus (GPa) = 39.00685 56.19473 47.60079
# Shear Modulus (GPa) = 29.34059 38.79681 34.06870
#
# Velocity S-wave (km/s) = 3.45886 3.97737 3.72714
# Velocity P-wave (km/s) = 5.64418 6.63371 6.15885
#
# Compressibility (1/GPa) = 0.02563652
#
# Stress axis : x y z
#
# Youngs Moduli (GPa) = 50.62686 59.76489 69.86384
#
# Poissons Ratio (x) = 0.26704 0.40490
# Poissons Ratio (y) = 0.22621 0.16187
# Poissons Ratio (z) = 0.29341 0.13847
#
# Static dielectric constant tensor:
#      x y z
#    x 2.053590 -0.082220 -0.184070 
#    y -0.082220 1.965200 0.054940 
#    z -0.184070 0.054940 2.212310 
# 
# From -- ./inp_files/333707.got.cif
#   From: 2010.05.17/outbox.cif.g08.bks.cpg/sg2_167_cif.got.tgz:333707.got - 2010.06.03 11:33:40.
