data_PCOD9067847
_publ_section_title
;
Structure prediction by ZEFSAII (Michael W. Deem and Ramdas Pophale) SiO2 
 PCOD9067847
Probable space group: P -1
;
_chemical_formula_sum "Si O2"
_cell_formula_units_Z 11
_cell_length_a 12.814303
_cell_length_b 5.124781
_cell_length_c 17.170187
_cell_angle_alpha 119.596334
_cell_angle_beta 151.168493
_cell_angle_gamma 60.509414
_cell_volume 468.007813
_symmetry_space_group_name_H-M "P -1"
_symmetry_group_IT_number 2
_symmetry_cell_setting 'triclinic'
loop_
_space_group_symop_operation_xyz
x,y,z
-x,-y,-z
loop_
_atom_site_type_symbol
_atom_site_label
_atom_site_fract_x
_atom_site_fract_y
_atom_site_fract_z
Si Si1 0.826808 0.172243 0.052246
Si Si2 0.693891 0.785898 0.635437
Si Si3 0.500000 0.500000 0.000000
Si Si4 0.555026 0.254692 0.384339
Si Si5 0.837999 0.768040 0.391447
Si Si6 0.784226 0.512839 0.915055
O O1 0.695892 0.429210 0.056765
O O2 0.081909 0.112120 0.226939
O O3 0.811116 0.281534 0.969095
O O4 0.743128 0.857796 0.970239
O O5 0.702946 0.439932 0.561689
O O6 0.639631 0.802405 0.693460
O O7 0.500000 0.000000 0.500000
O O8 0.678661 0.637362 0.204149
O O9 0.434100 0.492367 0.278088
O O10 0.683184 0.965614 0.383059
O O11 0.000000 0.500000 0.500000
O O12 0.000000 0.000000 0.500000
O O13 0.000000 0.500000 0.000000
#
# Coordination Sequence:
#
# PCOD9067847 Si02
#       6
#     2   2   1   2   2   2
#     4  12  28  47  76 110 154 203 260 326 396 479
#     4  11  26  45  79 113 155 205 261 337 411 483
#     4  12  30  54  82 120 164 222 278 330 410 496
#     4  11  26  48  73 113 152 202 264 332 405 480
#     4  12  31  54  82 116 166 220 276 339 407 490
#     4  12  25  47  75 108 150 194 251 326 394 466
#
# _framework density 23.503882999999998
#
# number of rings (size 3 to 8) (size 9 to 14) (size 15 to 20)
#    0.000    0.364    3.636    2.727   12.727    2.909 
#    0.000    0.000    0.000    0.000    0.000    0.000 
#    0.000    0.000    0.000    0.000    0.000    0.000 
#
# Total GULP energy -61252.894113 kJ/mol
# GULP energy per Si atom -5568.444919 kJ/mol
# Density = 2.345039 g / cm^3
# Si number density = 23.503883 Si / 1000 Ang^3
#
#
#
# Elastic Constant Matrix: (Units=GPa)
#
#
# Indices 1 2 3 4 5 6 
#
# 1 92.9577 42.5788 67.2754 13.5155 -5.0028 -31.5178
# 2 42.5788 97.2011 72.3373 0.1027 -16.0910 -3.3889
# 3 67.2754 72.3373 141.0502 -1.2721 -1.0129 -15.9294
# 4 13.5155 0.1027 -1.2721 48.0278 -5.7059 -4.1525
# 5 -5.0028 -16.0910 -1.0129 -5.7059 33.9379 5.2358
# 6 -31.5178 -3.3889 -15.9294 -4.1525 5.2358 43.6195
#
#
#
# Elastic Compliance Matrix: (Units=1/GPa)
#
#
# Indices 1 2 3 4 5 6 
#
# 1 0.023667 -0.004739 -0.007376 -0.005907 -0.002089 0.013728
# 2 -0.004739 0.020298 -0.008748 0.001709 0.009887 -0.006066
# 3 -0.007376 -0.008748 0.015106 0.001982 -0.004487 0.000235
# 4 -0.005907 0.001709 0.001982 0.022871 0.004110 -0.001728
# 5 -0.002089 0.009887 -0.004487 0.004110 0.035364 -0.006234
# 6 0.013728 -0.006066 0.000235 -0.001728 -0.006234 0.033043
#
#
# Mechanical properties :
#
#
# Convention : Reuss Voigt Hill
#
# Bulk Modulus (GPa) = 57.65300 77.28799 67.47049
# Shear Modulus (GPa) = 25.27085 35.05155 30.16120
#
# Velocity S-wave (km/s) = 3.28255 3.86594 3.58612
# Velocity P-wave (km/s) = 6.24093 7.27198 6.77610
#
# Compressibility (1/GPa) = 0.01734515
#
# Stress axis : x y z
#
# Youngs Moduli (GPa) = 42.25253 49.26710 66.19897
#
# Poissons Ratio (x) = 0.23350 0.48826
# Poissons Ratio (y) = 0.20025 0.57909
# Poissons Ratio (z) = 0.31164 0.43097
#
# Static dielectric constant tensor:
#      x y z
#    x 1.849730 0.016420 -0.019770 
#    y 0.016420 1.974250 0.095970 
#    z -0.019770 0.095970 2.023990 
# 
# From -- ./inp_files/32300.got.cif
#   From: 2010.05.17/outbox.cif.g08.bks.cpg/sg2_17_cif.got.tgz:32300.got - 2010.06.03 11:33:40.
