data_PCOD9067527
_publ_section_title
;
Structure prediction by ZEFSAII (Michael W. Deem and Ramdas Pophale) SiO2 
 PCOD9067527
Probable space group: P -1
;
_chemical_formula_sum "Si O2"
_cell_formula_units_Z 14
_cell_length_a 15.277526
_cell_length_b 12.161731
_cell_length_c 21.343415
_cell_angle_alpha 151.656569
_cell_angle_beta 161.589769
_cell_angle_gamma 38.698101
_cell_volume 553.733666
_symmetry_space_group_name_H-M "P -1"
_symmetry_group_IT_number 2
_symmetry_cell_setting 'triclinic'
loop_
_space_group_symop_operation_xyz
x,y,z
-x,-y,-z
loop_
_atom_site_type_symbol
_atom_site_label
_atom_site_fract_x
_atom_site_fract_y
_atom_site_fract_z
Si Si1 0.571786 0.939429 0.587937
Si Si2 0.367491 0.528684 0.088575
Si Si3 0.754446 0.623703 0.285445
Si Si4 0.174592 0.932169 0.525719
Si Si5 0.416016 0.713945 0.774025
Si Si6 0.223096 0.135431 0.124429
Si Si7 0.403806 0.503891 0.331803
O O1 0.334433 0.701762 0.340069
O O2 0.500000 0.000000 0.500000
O O3 0.599685 0.193698 0.767656
O O4 0.900041 0.926303 0.809245
O O5 0.603460 0.499617 0.185020
O O6 0.455833 0.445130 0.172883
O O7 0.028741 0.354629 0.761894
O O8 0.061868 0.586748 0.470109
O O9 0.848603 0.914339 0.474913
O O10 0.500000 0.500000 0.000000
O O11 0.517857 0.955861 0.771086
O O12 0.000000 0.000000 0.500000
O O13 0.508627 0.673592 0.746245
O O14 0.500000 0.000000 0.000000
O O15 0.174032 0.314406 0.127286
O O16 0.356149 0.307066 0.361806
#
# Coordination Sequence:
#
# PCOD9067527 Si02
#       7
#     2   2   2   2   2   2   2
#     4  12  27  48  74 111 151 203 253 315 376 467
#     4  12  26  48  72 108 155 195 263 311 391 453
#     4  12  27  43  77 109 146 205 254 312 386 454
#     4  12  25  48  77 114 151 196 255 323 379 459
#     4  12  27  50  76 113 158 202 252 328 388 452
#     4  11  27  46  80 110 149 202 255 317 390 446
#     4  11  25  50  76 106 152 199 258 308 382 458
#
# _framework density 25.282912
#
# number of rings (size 3 to 8) (size 9 to 14) (size 15 to 20)
#    0.000    0.286    4.286    4.286    4.000    1.714 
#    2.571    0.000    0.000    0.000    0.000    0.000 
#    0.000    0.000    0.000    0.000    0.000    0.000 
#
# Total GULP energy -78218.661165 kJ/mol
# GULP energy per Si atom -5587.047226 kJ/mol
# Density = 2.522537 g / cm^3
# Si number density = 25.282912 Si / 1000 Ang^3
#
#
#
# Elastic Constant Matrix: (Units=GPa)
#
#
# Indices 1 2 3 4 5 6 
#
# 1 144.5172 20.2409 22.7533 -2.3214 4.1863 2.1263
# 2 20.2409 113.3435 22.7472 5.4656 5.2617 -4.1618
# 3 22.7533 22.7472 84.9634 -3.0281 11.4273 -15.4266
# 4 -2.3214 5.4656 -3.0281 43.9410 4.7831 4.9185
# 5 4.1863 5.2617 11.4273 4.7831 34.3792 9.9104
# 6 2.1263 -4.1618 -15.4266 4.9185 9.9104 53.3849
#
#
#
# Elastic Compliance Matrix: (Units=1/GPa)
#
#
# Indices 1 2 3 4 5 6 
#
# 1 0.007375 -0.001004 -0.001879 0.000484 0.000095 -0.000977
# 2 -0.001004 0.009548 -0.002198 -0.001377 -0.000524 0.000373
# 3 -0.001879 -0.002198 0.014637 0.001257 -0.005951 0.005122
# 4 0.000484 -0.001377 0.001257 0.023535 -0.003152 -0.001346
# 5 0.000095 -0.000524 -0.005951 -0.003152 0.033807 -0.007750
# 6 -0.000977 0.000373 0.005122 -0.001346 -0.007750 0.021843
#
#
# Mechanical properties :
#
#
# Convention : Reuss Voigt Hill
#
# Bulk Modulus (GPa) = 46.73406 52.70075 49.71741
# Shear Modulus (GPa) = 39.05050 44.81320 41.93185
#
# Velocity S-wave (km/s) = 3.93433 4.21464 4.07689
# Velocity P-wave (km/s) = 6.25805 6.67637 6.47059
#
# Compressibility (1/GPa) = 0.02139767
#
# Stress axis : x y z
#
# Youngs Moduli (GPa) = 135.58483 104.73897 68.32082
#
# Poissons Ratio (x) = 0.10511 0.12840
# Poissons Ratio (y) = 0.13607 0.15018
# Poissons Ratio (z) = 0.25481 0.23023
#
# Static dielectric constant tensor:
#      x y z
#    x 2.082440 0.013580 -0.068960 
#    y 0.013580 2.060390 0.062430 
#    z -0.068960 0.062430 1.989900 
# 
# From -- ./inp_files/598061.got.cif
#   From: 2010.05.17/outbox.cif.g08.bks.cpg/sg2_300_cif.got.tgz:598061.got - 2010.06.03 11:33:40.
