data_PCOD9067320
_publ_section_title
;
Structure prediction by ZEFSAII (Michael W. Deem and Ramdas Pophale) SiO2 
 PCOD9067320
Probable space group: P -1
;
_chemical_formula_sum "Si O2"
_cell_formula_units_Z 13
_cell_length_a 13.792001
_cell_length_b 8.990480
_cell_length_c 9.123257
_cell_angle_alpha 66.129490
_cell_angle_beta 32.317031
_cell_angle_gamma 63.225492
_cell_volume 539.251231
_symmetry_space_group_name_H-M "P -1"
_symmetry_group_IT_number 2
_symmetry_cell_setting 'triclinic'
loop_
_space_group_symop_operation_xyz
x,y,z
-x,-y,-z
loop_
_atom_site_type_symbol
_atom_site_label
_atom_site_fract_x
_atom_site_fract_y
_atom_site_fract_z
Si Si1 0.952386 0.786527 0.029138
Si Si2 0.355355 0.359548 0.654583
Si Si3 0.770195 0.395953 0.755462
Si Si4 0.500000 0.000000 0.000000
Si Si5 0.753108 0.172399 0.132897
Si Si6 0.209594 0.308557 0.183090
Si Si7 0.689804 0.309602 0.576447
O O1 0.803338 0.673726 0.243094
O O2 0.831817 0.975033 0.110854
O O3 0.088167 0.757598 0.009032
O O4 0.097904 0.760066 0.719723
O O5 0.548890 0.224439 0.444133
O O6 0.386339 0.539904 0.498521
O O7 0.266258 0.347994 0.931142
O O8 0.724842 0.568676 0.832664
O O9 0.677211 0.389321 0.721206
O O10 0.989006 0.351531 0.462255
O O11 0.728946 0.252997 0.971725
O O12 0.414998 0.840418 0.228066
O O13 0.291303 0.117188 0.195939
#
# Coordination Sequence:
#
# PCOD9067320 Si02
#       7
#     2   2   2   1   2   2   2
#     4  11  25  48  78 115 152 208 253 320 379 471
#     4  12  26  50  81 112 151 212 253 316 379 474
#     4  11  26  48  76 111 153 203 246 319 383 461
#     4  12  28  46  74 116 148 198 250 330 362 456
#     4  11  26  46  74 114 162 195 260 314 387 449
#     4  11  26  48  79 109 155 194 257 312 391 443
#     4  12  27  50  78 112 156 199 263 307 393 450
#
# _framework density 24.107503999999999
#
# number of rings (size 3 to 8) (size 9 to 14) (size 15 to 20)
#    0.000    0.615    1.538    4.615    6.462    6.769 
#    5.538    0.000    0.000    0.000    0.000    0.000 
#    0.000    0.000    0.000    0.000    0.000    0.000 
#
# Total GULP energy -72643.492031 kJ/mol
# GULP energy per Si atom -5587.960925 kJ/mol
# Density = 2.405263 g / cm^3
# Si number density = 24.107504 Si / 1000 Ang^3
#
#
#
# Elastic Constant Matrix: (Units=GPa)
#
#
# Indices 1 2 3 4 5 6 
#
# 1 97.9627 32.9498 38.8076 4.8500 7.9885 -6.4545
# 2 32.9498 128.9831 44.3387 -3.6764 13.3752 -21.1711
# 3 38.8076 44.3387 122.9614 15.4144 3.1815 4.5462
# 4 4.8500 -3.6764 15.4144 45.8987 -0.1365 -5.9795
# 5 7.9885 13.3752 3.1815 -0.1365 55.8581 -6.0776
# 6 -6.4545 -21.1711 4.5462 -5.9795 -6.0776 20.7981
#
#
#
# Elastic Compliance Matrix: (Units=1/GPa)
#
#
# Indices 1 2 3 4 5 6 
#
# 1 0.012315 -0.001351 -0.003506 0.000155 -0.000912 0.002991
# 2 -0.001351 0.012504 -0.005197 0.004783 -0.000910 0.014554
# 3 -0.003506 -0.005197 0.012205 -0.005535 -0.000124 -0.010674
# 4 0.000155 0.004783 -0.005535 0.025807 0.000707 0.013753
# 5 -0.000912 -0.000910 -0.000124 0.000707 0.018749 0.004500
# 6 0.002991 0.014554 -0.010674 0.013753 0.004500 0.071427
#
#
# Mechanical properties :
#
#
# Convention : Reuss Voigt Hill
#
# Bulk Modulus (GPa) = 59.11265 64.67771 61.89518
# Shear Modulus (GPa) = 27.97160 40.09837 34.03498
#
# Velocity S-wave (km/s) = 3.40999 4.08280 3.76147
# Velocity P-wave (km/s) = 6.33070 7.00805 6.67797
#
# Compressibility (1/GPa) = 0.01691685
#
# Stress axis : x y z
#
# Youngs Moduli (GPa) = 81.20163 79.97463 81.93492
#
# Poissons Ratio (x) = 0.10803 0.28727
# Poissons Ratio (y) = 0.10968 0.42579
# Poissons Ratio (z) = 0.28470 0.41560
#
# Static dielectric constant tensor:
#      x y z
#    x 1.981080 0.033260 -0.018640 
#    y 0.033260 1.874540 0.038710 
#    z -0.018640 0.038710 1.874220 
# 
# From -- ./inp_files/297558.got.cif
#   From: 2010.05.17/outbox.cif.g08.bks.cpg/sg2_149_cif.got.tgz:297558.got - 2010.06.03 11:33:40.
