data_PCOD9067392
_publ_section_title
;
Structure prediction by ZEFSAII (Michael W. Deem and Ramdas Pophale) SiO2 
 PCOD9067392
Probable space group: P -1
;
_chemical_formula_sum "Si O2"
_cell_formula_units_Z 13
_cell_length_a 17.466173
_cell_length_b 5.358187
_cell_length_c 5.160798
_cell_angle_alpha 93.677144
_cell_angle_beta 77.931363
_cell_angle_gamma 77.892392
_cell_volume 458.847588
_symmetry_space_group_name_H-M "P -1"
_symmetry_group_IT_number 2
_symmetry_cell_setting 'triclinic'
loop_
_space_group_symop_operation_xyz
x,y,z
-x,-y,-z
loop_
_atom_site_type_symbol
_atom_site_label
_atom_site_fract_x
_atom_site_fract_y
_atom_site_fract_z
Si Si1 0.113092 0.388841 0.008559
Si Si2 0.570189 0.143188 0.913216
Si Si3 0.356632 0.552440 0.747384
Si Si4 0.069601 0.145835 0.520237
Si Si5 0.268995 0.253850 0.165342
Si Si6 0.805738 0.305961 0.375980
Si Si7 0.500000 0.500000 0.500000
O O1 0.065949 0.276938 0.812128
O O2 0.133907 0.648363 0.894936
O O3 0.203116 0.218663 0.996876
O O4 0.072153 0.351697 0.306901
O O5 0.548536 0.320122 0.694725
O O6 0.662741 0.988349 0.825241
O O7 0.573459 0.308539 0.190959
O O8 0.500000 0.000000 0.000000
O O9 0.280527 0.716437 0.667120
O O10 0.420075 0.336030 0.541664
O O11 0.318563 0.440124 0.007860
O O12 0.150527 0.917371 0.479550
O O13 0.000000 0.000000 0.500000
O O14 0.218179 0.419749 0.440556
#
# Coordination Sequence:
#
# PCOD9067392 Si02
#       7
#     2   2   2   2   2   2   1
#     4  11  26  49  78 115 151 203 249 305 385 448
#     4  12  27  47  68 103 149 191 257 315 385 439
#     4  11  26  45  71 105 145 198 255 317 377 448
#     4  12  28  50  80 118 156 198 248 309 381 461
#     4  11  25  49  74 107 147 199 256 316 373 451
#     4  11  27  49  78 108 152 197 258 313 377 455
#     4  12  26  44  72 100 142 196 254 312 378 438
#
# _framework density 28.331847
#
# number of rings (size 3 to 8) (size 9 to 14) (size 15 to 20)
#    0.000    0.615    3.077    2.769   10.769    4.308 
#    0.000    0.000    0.000    0.000    0.000    0.000 
#    0.000    0.000    0.000    0.000    0.000    0.000 
#
# Total GULP energy -72749.563103 kJ/mol
# GULP energy per Si atom -5596.120239 kJ/mol
# Density = 2.826736 g / cm^3
# Si number density = 28.331847 Si / 1000 Ang^3
#
#
#
# Elastic Constant Matrix: (Units=GPa)
#
#
# Indices 1 2 3 4 5 6 
#
# 1 207.0830 49.2092 61.2789 -23.3404 25.2926 -5.9711
# 2 49.2092 112.6842 59.3897 -19.9141 13.5023 -33.6644
# 3 61.2789 59.3897 190.5497 -36.0115 6.0760 -7.2473
# 4 -23.3404 -19.9141 -36.0115 47.1749 -8.7140 -5.6133
# 5 25.2926 13.5023 6.0760 -8.7140 56.2465 -12.3276
# 6 -5.9711 -33.6644 -7.2473 -5.6133 -12.3276 57.5121
#
#
#
# Elastic Compliance Matrix: (Units=1/GPa)
#
#
# Indices 1 2 3 4 5 6 
#
# 1 0.005944 -0.001911 -0.001148 0.000725 -0.002208 -0.001049
# 2 -0.001911 0.014334 -0.002790 0.003986 0.000148 0.008261
# 3 -0.001148 -0.002790 0.007180 0.003879 0.000954 -0.000265
# 4 0.000725 0.003986 0.003879 0.027709 0.004007 0.006460
# 5 -0.002208 0.000148 0.000954 0.004007 0.020288 0.004717
# 6 -0.001049 0.008261 -0.000265 0.006460 0.004717 0.023723
#
#
# Mechanical properties :
#
#
# Convention : Reuss Voigt Hill
#
# Bulk Modulus (GPa) = 63.45900 94.45252 78.95576
# Shear Modulus (GPa) = 43.05529 54.88265 48.96897
#
# Velocity S-wave (km/s) = 3.90253 4.40607 4.16192
# Velocity P-wave (km/s) = 6.53861 7.70032 7.14312
#
# Compressibility (1/GPa) = 0.01575821
#
# Stress axis : x y z
#
# Youngs Moduli (GPa) = 168.23521 69.76295 139.28378
#
# Poissons Ratio (x) = 0.13333 0.15995
# Poissons Ratio (y) = 0.32153 0.38864
# Poissons Ratio (z) = 0.19320 0.19466
#
# Static dielectric constant tensor:
#      x y z
#    x 2.315800 0.033060 -0.118120 
#    y 0.033060 2.168030 0.162770 
#    z -0.118120 0.162770 2.432190 
# 
# From -- ./inp_files/102556.got.cif
#   From: 2010.05.17/outbox.cif.g08.bks.cpg/sg2_52_cif.got.tgz:102556.got - 2010.06.03 11:33:40.
