data_PCOD9067041
_publ_section_title
;
Structure prediction by ZEFSAII (Michael W. Deem and Ramdas Pophale) SiO2 
 PCOD9067041
Probable space group: P -1
;
_chemical_formula_sum "Si O2"
_cell_formula_units_Z 12
_cell_length_a 13.838321
_cell_length_b 11.350531
_cell_length_c 23.716439
_cell_angle_alpha 22.596132
_cell_angle_beta 158.086272
_cell_angle_gamma 159.423958
_cell_volume 444.142795
_symmetry_space_group_name_H-M "P -1"
_symmetry_group_IT_number 2
_symmetry_cell_setting 'triclinic'
loop_
_space_group_symop_operation_xyz
x,y,z
-x,-y,-z
loop_
_atom_site_type_symbol
_atom_site_label
_atom_site_fract_x
_atom_site_fract_y
_atom_site_fract_z
Si Si1 0.153359 0.040337 0.343415
Si Si2 0.521348 0.862177 0.133292
Si Si3 0.854291 0.798313 0.176487
Si Si4 0.041924 0.318836 0.308320
Si Si5 0.639100 0.472255 0.499558
Si Si6 0.804793 0.783960 0.934894
O O1 0.304711 0.428356 0.221082
O O2 0.452629 0.146161 0.497066
O O3 0.871511 0.943322 0.275834
O O4 0.004210 0.767234 0.329414
O O5 0.315113 0.987505 0.999400
O O6 0.500000 0.000000 0.000000
O O7 0.561820 0.396184 0.176713
O O8 0.078093 0.007543 0.152821
O O9 0.361020 0.444591 0.396020
O O10 0.128916 0.495335 0.340507
O O11 0.875953 0.463578 0.116356
O O12 0.821414 0.879266 0.391037
O O13 0.000000 0.000000 0.000000
#
# Coordination Sequence:
#
# PCOD9067041 Si02
#       6
#     2   2   2   2   2   2
#     4  11  19  30  51  80 109 133 165 211 274 325
#     4  10  18  28  47  78 110 135 156 201 272 329
#     4  11  21  34  52  77 106 137 177 223 264 310
#     4  10  21  36  53  78 109 141 177 209 256 317
#     4  10  20  34  56  81 108 138 166 213 269 325
#     4  12  24  38  55  74 105 147 187 222 254 302
#
# _framework density 27.018339000000001
#
# number of rings (size 3 to 8) (size 9 to 14) (size 15 to 20)
#    0.000    1.333    0.000   10.500    0.000    0.000 
#    0.000    0.000    0.000    2.000    0.000    0.000 
#    0.000    0.000    0.000    0.000    0.000    0.000 
#
# Total GULP energy -66981.801990 kJ/mol
# GULP energy per Si atom -5581.816833 kJ/mol
# Density = 2.695684 g / cm^3
# Si number density = 27.018339 Si / 1000 Ang^3
#
#
#
# Elastic Constant Matrix: (Units=GPa)
#
#
# Indices 1 2 3 4 5 6 
#
# 1 137.3499 40.0678 63.9615 -0.8999 -23.1386 31.0046
# 2 40.0678 190.4773 34.5384 40.6217 -9.0431 1.0680
# 3 63.9615 34.5384 120.5838 30.5914 -30.8266 12.9945
# 4 -0.8999 40.6217 30.5914 45.0584 -8.6529 -24.4396
# 5 -23.1386 -9.0431 -30.8266 -8.6529 52.5096 -1.9863
# 6 31.0046 1.0680 12.9945 -24.4396 -1.9863 67.0114
#
#
#
# Elastic Compliance Matrix: (Units=1/GPa)
#
#
# Indices 1 2 3 4 5 6 
#
# 1 0.011801 -0.002556 -0.006428 0.006292 0.001954 -0.001820
# 2 -0.002556 0.007521 0.001866 -0.009737 -0.000449 -0.002864
# 3 -0.006428 0.001866 0.016960 -0.015639 0.004645 -0.005910
# 4 0.006292 -0.009737 -0.015639 0.052528 0.001307 0.019473
# 5 0.001954 -0.000449 0.004645 0.001307 0.022746 -0.000647
# 6 -0.001820 -0.002864 -0.005910 0.019473 -0.000647 0.024039
#
#
# Mechanical properties :
#
#
# Convention : Reuss Voigt Hill
#
# Bulk Modulus (GPa) = 45.36052 80.61625 62.98838
# Shear Modulus (GPa) = 31.81070 53.57210 42.69140
#
# Velocity S-wave (km/s) = 3.43501 4.45770 3.97935
# Velocity P-wave (km/s) = 5.70593 7.50980 6.66914
#
# Compressibility (1/GPa) = 0.02204560
#
# Stress axis : x y z
#
# Youngs Moduli (GPa) = 84.73863 132.96785 58.96197
#
# Poissons Ratio (x) = 0.33982 0.37901
# Poissons Ratio (y) = 0.21656 -0.11001
# Poissons Ratio (z) = 0.54471 -0.24808
#
# Static dielectric constant tensor:
#      x y z
#    x 2.163160 -0.217730 0.079490 
#    y -0.217730 2.115420 -0.059490 
#    z 0.079490 -0.059490 2.246910 
# 
# From -- ./inp_files/79677.got.cif
#   From: 2010.05.17/outbox.cif.g08.bks.cpg/sg2_40_cif.got.tgz:79677.got - 2010.06.03 11:33:40.
