data_PCOD9067102
_publ_section_title
;
Structure prediction by ZEFSAII (Michael W. Deem and Ramdas Pophale) SiO2 
 PCOD9067102
Probable space group: P -1
;
_chemical_formula_sum "Si O2"
_cell_formula_units_Z 14
_cell_length_a 9.174288
_cell_length_b 7.403212
_cell_length_c 12.263106
_cell_angle_alpha 100.711456
_cell_angle_beta 38.446907
_cell_angle_gamma 101.762538
_cell_volume 506.543157
_symmetry_space_group_name_H-M "P -1"
_symmetry_group_IT_number 2
_symmetry_cell_setting 'triclinic'
loop_
_space_group_symop_operation_xyz
x,y,z
-x,-y,-z
loop_
_atom_site_type_symbol
_atom_site_label
_atom_site_fract_x
_atom_site_fract_y
_atom_site_fract_z
Si Si1 0.581573 0.799541 0.816115
Si Si2 0.344929 0.177761 0.984893
Si Si3 0.985375 0.574924 0.340784
Si Si4 0.371035 0.149009 0.492405
Si Si5 0.793462 0.508397 0.033030
Si Si6 0.856118 0.033600 0.198659
Si Si7 0.124665 0.780386 0.485549
O O1 0.569793 0.732666 0.941428
O O2 0.347115 0.830262 0.680243
O O3 0.417428 0.644420 0.833652
O O4 0.467960 0.989545 0.886037
O O5 0.327948 0.303932 0.902214
O O6 0.069479 0.109012 0.158982
O O7 0.891388 0.393585 0.442841
O O8 0.166230 0.695198 0.330747
O O9 0.097262 0.533960 0.154333
O O10 0.768955 0.691669 0.454554
O O11 0.285022 0.127815 0.666499
O O12 0.282853 0.955732 0.460649
O O13 0.143731 0.169453 0.364981
O O14 0.000000 0.500000 0.000000
O O15 0.000000 0.000000 0.000000
#
# Coordination Sequence:
#
# PCOD9067102 Si02
#       7
#     2   2   2   2   2   2   2
#     4  11  25  48  81 111 152 211 270 329 391 480
#     4  11  25  47  79 110 158 206 270 333 392 474
#     4  11  26  48  76 112 159 207 273 323 409 485
#     4  11  25  51  79 112 165 213 261 335 412 472
#     4  12  28  47  74 120 165 206 264 331 408 484
#     4  11  26  47  77 119 160 208 267 324 400 491
#     4  11  25  51  77 115 157 207 272 338 397 481
#
# _framework density 27.638314999999999
#
# number of rings (size 3 to 8) (size 9 to 14) (size 15 to 20)
#    0.000    0.857    2.857    1.714    8.000    1.143 
#    2.571   10.000    0.000    0.000    0.000    0.000 
#    0.000    0.000    0.000    0.000    0.000    0.000 
#
# Total GULP energy -78511.042537 kJ/mol
# GULP energy per Si atom -5607.931610 kJ/mol
# Density = 2.757541 g / cm^3
# Si number density = 27.638315 Si / 1000 Ang^3
#
#
#
# Elastic Constant Matrix: (Units=GPa)
#
#
# Indices 1 2 3 4 5 6 
#
# 1 209.3568 71.0892 63.1496 -0.9716 6.3859 -28.1352
# 2 71.0892 121.6189 21.5411 2.3182 4.7950 -38.5206
# 3 63.1496 21.5411 194.0284 10.2490 20.0912 -12.9704
# 4 -0.9716 2.3182 10.2490 27.6895 -4.5091 7.2886
# 5 6.3859 4.7950 20.0912 -4.5091 50.6586 -6.1439
# 6 -28.1352 -38.5206 -12.9704 7.2886 -6.1439 60.6009
#
#
#
# Elastic Compliance Matrix: (Units=1/GPa)
#
#
# Indices 1 2 3 4 5 6 
#
# 1 0.006528 -0.003412 -0.001820 0.001151 0.000369 0.000371
# 2 -0.003412 0.012337 0.000389 -0.003113 -0.000359 0.006679
# 3 -0.001820 0.000389 0.006168 -0.002993 -0.002418 0.000837
# 4 0.001151 -0.003113 -0.002993 0.039894 0.004103 -0.006467
# 5 0.000369 -0.000359 -0.002418 0.004103 0.021183 0.001080
# 6 0.000371 0.006679 0.000837 -0.006467 0.001080 0.021986
#
#
# Mechanical properties :
#
#
# Convention : Reuss Voigt Hill
#
# Bulk Modulus (GPa) = 65.16385 92.95154 79.05770
# Shear Modulus (GPa) = 40.68414 52.40475 46.54444
#
# Velocity S-wave (km/s) = 3.84085 4.35914 4.10818
# Velocity P-wave (km/s) = 6.58013 7.68378 7.15327
#
# Compressibility (1/GPa) = 0.01534593
#
# Stress axis : x y z
#
# Youngs Moduli (GPa) = 153.18078 81.05639 162.13846
#
# Poissons Ratio (x) = 0.27660 0.29511
# Poissons Ratio (y) = 0.52272 -0.06308
# Poissons Ratio (z) = 0.27880 -0.03154
#
# Static dielectric constant tensor:
#      x y z
#    x 2.100700 0.039880 0.038280 
#    y 0.039880 2.164070 0.043460 
#    z 0.038280 0.043460 2.296530 
# 
# From -- ./inp_files/374019.got.cif
#   From: 2010.05.17/outbox.cif.g08.bks.cpg/sg2_188_cif.got.tgz:374019.got - 2010.06.03 11:33:40.
