data_PCOD9067859
_publ_section_title
;
Structure prediction by ZEFSAII (Michael W. Deem and Ramdas Pophale) SiO2 
 PCOD9067859
Probable space group: P -1
;
_chemical_formula_sum "Si O2"
_cell_formula_units_Z 16
_cell_length_a 9.471019
_cell_length_b 14.971943
_cell_length_c 18.142304
_cell_angle_alpha 142.062323
_cell_angle_beta 42.759931
_cell_angle_gamma 151.079466
_cell_volume 756.492442
_symmetry_space_group_name_H-M "P -1"
_symmetry_group_IT_number 2
_symmetry_cell_setting 'triclinic'
loop_
_space_group_symop_operation_xyz
x,y,z
-x,-y,-z
loop_
_atom_site_type_symbol
_atom_site_label
_atom_site_fract_x
_atom_site_fract_y
_atom_site_fract_z
Si Si1 0.106096 0.209127 0.803575
Si Si2 0.711383 0.855324 0.158342
Si Si3 0.237098 0.584427 0.056087
Si Si4 0.576229 0.409158 0.624493
Si Si5 0.442163 0.833891 0.772316
Si Si6 0.683109 0.444494 0.243992
Si Si7 0.737027 0.198850 0.348568
Si Si8 0.665674 0.906699 0.972383
O O1 0.196847 0.161636 0.809279
O O2 0.365853 0.323981 0.719660
O O3 0.083051 0.365590 0.939777
O O4 0.796264 0.005521 0.755697
O O5 0.433291 0.639749 0.087414
O O6 0.639837 0.990656 0.274692
O O7 0.997727 0.977095 0.076098
O O8 0.996678 0.582150 0.172741
O O9 0.461260 0.757634 0.021996
O O10 0.447835 0.459827 0.647473
O O11 0.585159 0.251120 0.487418
O O12 0.911006 0.616343 0.652370
O O13 0.308944 0.623877 0.723535
O O14 0.337682 0.810858 0.714551
O O15 0.339612 0.922176 0.917034
O O16 0.466772 0.236353 0.141991
#
# Coordination Sequence:
#
# PCOD9067859 Si02
#       8
#     2   2   2   2   2   2   2   2
#     4  12  24  43  66  98 132 170 209 265 324 379
#     4  12  25  42  65  99 134 169 211 263 322 382
#     4  12  24  38  68 102 131 167 213 259 320 393
#     4  11  26  46  69  91 127 172 218 270 313 374
#     4  12  25  41  69  97 131 170 210 264 324 386
#     4  12  23  44  66  97 133 169 209 265 325 379
#     4  11  26  47  66  94 126 171 223 262 317 377
#     4  12  21  41  66  96 133 171 202 262 329 385
#
# _framework density 21.150245000000002
#
# number of rings (size 3 to 8) (size 9 to 14) (size 15 to 20)
#    0.000    0.250    6.250    3.000    3.500    1.500 
#    0.000    0.000    0.000    0.000    0.000    0.000 
#    0.000    0.000    0.000    0.000    0.000    0.000 
#
# Total GULP energy -89588.333630 kJ/mol
# GULP energy per Si atom -5599.270852 kJ/mol
# Density = 2.110211 g / cm^3
# Si number density = 21.150245 Si / 1000 Ang^3
#
#
#
# Elastic Constant Matrix: (Units=GPa)
#
#
# Indices 1 2 3 4 5 6 
#
# 1 108.7247 11.5848 13.0593 4.5713 -25.1939 -11.4004
# 2 11.5848 44.2846 13.9257 -2.4954 -12.4062 -3.6693
# 3 13.0593 13.9257 63.8525 -7.7283 -29.1588 -0.1411
# 4 4.5713 -2.4954 -7.7283 11.9927 5.6399 -4.3588
# 5 -25.1939 -12.4062 -29.1588 5.6399 26.6483 4.2019
# 6 -11.4004 -3.6693 -0.1411 -4.3588 4.2019 39.3290
#
#
#
# Elastic Compliance Matrix: (Units=1/GPa)
#
#
# Indices 1 2 3 4 5 6 
#
# 1 0.014205 0.000060 0.005806 -0.011978 0.022277 0.000437
# 2 0.000060 0.026027 -0.000423 0.000171 0.011480 0.001237
# 3 0.005806 -0.000423 0.034285 -0.001888 0.043697 -0.003111
# 4 -0.011978 0.000171 -0.001888 0.109527 -0.038508 0.012790
# 5 0.022277 0.011480 0.043697 -0.038508 0.121402 -0.009553
# 6 0.000437 0.001237 -0.003111 0.012790 -0.009553 0.028095
#
#
# Mechanical properties :
#
#
# Convention : Reuss Voigt Hill
#
# Bulk Modulus (GPa) = 11.70905 32.66683 22.18794
# Shear Modulus (GPa) = 14.24004 27.48013 20.86009
#
# Velocity S-wave (km/s) = 2.59758 3.60847 3.14392
# Velocity P-wave (km/s) = 3.81375 5.73062 4.86748
#
# Compressibility (1/GPa) = 0.08540404
#
# Stress axis : x y z
#
# Youngs Moduli (GPa) = 70.39655 38.42225 29.16702
#
# Poissons Ratio (x) = -0.00232 -0.16933
# Poissons Ratio (y) = -0.00424 0.01232
# Poissons Ratio (z) = -0.40870 0.01623
#
# Static dielectric constant tensor:
#      x y z
#    x 1.784660 -0.008680 -0.002060 
#    y -0.008680 1.757560 0.002340 
#    z -0.002060 0.002340 1.726980 
# 
# From -- ./inp_files/188335.got.cif
#   From: 2010.05.17/outbox.cif.g08.bks.cpg/sg2_95_cif.got.tgz:188335.got - 2010.06.03 11:33:40.
