data_PCOD9067937
_publ_section_title
;
Structure prediction by ZEFSAII (Michael W. Deem and Ramdas Pophale) SiO2 
 PCOD9067937
Probable space group: P -1
;
_chemical_formula_sum "Si O2"
_cell_formula_units_Z 14
_cell_length_a 19.430161
_cell_length_b 9.511484
_cell_length_c 5.107216
_cell_angle_alpha 73.805778
_cell_angle_beta 100.165886
_cell_angle_gamma 143.025086
_cell_volume 543.420365
_symmetry_space_group_name_H-M "P -1"
_symmetry_group_IT_number 2
_symmetry_cell_setting 'triclinic'
loop_
_space_group_symop_operation_xyz
x,y,z
-x,-y,-z
loop_
_atom_site_type_symbol
_atom_site_label
_atom_site_fract_x
_atom_site_fract_y
_atom_site_fract_z
Si Si1 0.527676 0.338651 0.706566
Si Si2 0.576635 0.253768 0.290763
Si Si3 0.774641 0.421122 0.596178
Si Si4 0.276172 0.942037 0.962524
Si Si5 0.251906 0.126956 0.263341
Si Si6 0.916578 0.876574 0.760265
Si Si7 0.113218 0.624749 0.631767
O O1 0.547276 0.341533 0.412333
O O2 0.620684 0.613278 0.710085
O O3 0.394598 0.141729 0.778346
O O4 0.561720 0.262461 0.970650
O O5 0.704220 0.415561 0.369778
O O6 0.500000 0.000000 0.500000
O O7 0.825983 0.597447 0.778478
O O8 0.865890 0.493421 0.432519
O O9 0.698729 0.155640 0.775456
O O10 0.146993 0.671698 0.931861
O O11 0.257015 0.070656 0.003428
O O12 0.160759 0.104937 0.266511
O O13 0.207757 0.908255 0.492725
O O14 0.000000 0.000000 0.500000
O O15 0.000000 0.000000 0.000000
O O16 0.000000 0.500000 0.500000
#
# Coordination Sequence:
#
# PCOD9067937 Si02
#       7
#     2   2   2   2   2   2   2
#     4  12  27  47  78 113 154 198 251 313 378 454
#     4  12  25  45  76 112 153 194 247 308 377 450
#     4  11  26  46  74 111 144 200 254 309 379 451
#     4  11  27  47  77 110 153 205 251 305 382 457
#     4  11  28  48  73 115 149 201 248 319 378 447
#     4  12  30  49  77 108 150 197 256 318 377 439
#     4  11  27  48  76 105 154 201 260 310 375 452
#
# _framework density 25.762743
#
# number of rings (size 3 to 8) (size 9 to 14) (size 15 to 20)
#    0.000    0.571    2.857    2.571   16.000    1.714 
#    0.000    0.000    0.000    0.000    0.000    0.000 
#    0.000    0.000    0.000    0.000    0.000    0.000 
#
# Total GULP energy -78253.894005 kJ/mol
# GULP energy per Si atom -5589.563857 kJ/mol
# Density = 2.570411 g / cm^3
# Si number density = 25.762743 Si / 1000 Ang^3
#
#
#
# Elastic Constant Matrix: (Units=GPa)
#
#
# Indices 1 2 3 4 5 6 
#
# 1 180.8675 46.0865 25.0574 29.0327 -14.3507 7.9106
# 2 46.0865 120.9521 23.2632 30.3686 7.7314 -2.3803
# 3 25.0574 23.2632 75.6271 17.9917 1.4298 7.1882
# 4 29.0327 30.3686 17.9917 51.9680 -3.5089 6.5790
# 5 -14.3507 7.7314 1.4298 -3.5089 42.8573 9.4056
# 6 7.9106 -2.3803 7.1882 6.5790 9.4056 54.6921
#
#
#
# Elastic Compliance Matrix: (Units=1/GPa)
#
#
# Indices 1 2 3 4 5 6 
#
# 1 0.006790 -0.002117 -0.001102 -0.001835 0.002804 -0.001191
# 2 -0.002117 0.010952 -0.001576 -0.005192 -0.003545 0.002224
# 3 -0.001102 -0.001576 0.015056 -0.003542 -0.000578 -0.001363
# 4 -0.001835 -0.005192 -0.003542 0.025130 0.003170 -0.003063
# 5 0.002804 -0.003545 -0.000578 0.003170 0.026376 -0.005401
# 6 -0.001191 0.002224 -0.001363 -0.003063 -0.005401 0.020030
#
#
# Mechanical properties :
#
#
# Convention : Reuss Voigt Hill
#
# Bulk Modulus (GPa) = 43.09126 62.91786 53.00456
# Shear Modulus (GPa) = 41.09823 48.77280 44.93552
#
# Velocity S-wave (km/s) = 3.99840 4.35576 4.18090
# Velocity P-wave (km/s) = 6.17080 7.05492 6.62762
#
# Compressibility (1/GPa) = 0.02320656
#
# Stress axis : x y z
#
# Youngs Moduli (GPa) = 147.27373 91.30939 66.41930
#
# Poissons Ratio (x) = 0.19333 0.07318
# Poissons Ratio (y) = 0.31183 0.10471
# Poissons Ratio (z) = 0.16227 0.14394
#
# Static dielectric constant tensor:
#      x y z
#    x 1.999800 -0.011970 -0.046130 
#    y -0.011970 1.922910 -0.379460 
#    z -0.046130 -0.379460 1.149160 
# 
# From -- ./inp_files/68123.got.cif
#   From: 2010.05.17/outbox.cif.g08.bks.cpg/sg2_35_cif.got.tgz:68123.got - 2010.06.03 11:33:40.
