data_PCOD9067979
_publ_section_title
;
Structure prediction by ZEFSAII (Michael W. Deem and Ramdas Pophale) SiO2 
 PCOD9067979
Probable space group: P -1
;
_chemical_formula_sum "Si O2"
_cell_formula_units_Z 16
_cell_length_a 11.401262
_cell_length_b 9.384490
_cell_length_c 13.006130
_cell_angle_alpha 44.003921
_cell_angle_beta 115.273648
_cell_angle_gamma 89.927168
_cell_volume 761.642723
_symmetry_space_group_name_H-M "P -1"
_symmetry_group_IT_number 2
_symmetry_cell_setting 'triclinic'
loop_
_space_group_symop_operation_xyz
x,y,z
-x,-y,-z
loop_
_atom_site_type_symbol
_atom_site_label
_atom_site_fract_x
_atom_site_fract_y
_atom_site_fract_z
Si Si1 0.708086 0.976739 0.728453
Si Si2 0.989575 0.268963 0.634042
Si Si3 0.969020 0.894970 0.707726
Si Si4 0.546693 0.485658 0.672627
Si Si5 0.140237 0.333172 0.359203
Si Si6 0.310672 0.439625 0.510394
Si Si7 0.738595 0.540424 0.868322
Si Si8 0.904572 0.867049 0.051208
O O1 0.666179 0.776187 0.787206
O O2 0.848899 0.924740 0.735404
O O3 0.574102 0.235419 0.522385
O O4 0.767426 0.951642 0.879501
O O5 0.830523 0.365742 0.581445
O O6 0.000000 0.500000 0.500000
O O7 0.117537 0.111903 0.845506
O O8 0.991587 0.119258 0.615217
O O9 0.909662 0.850948 0.601381
O O10 0.120924 0.661083 0.915278
O O11 0.453219 0.354220 0.680735
O O12 0.653477 0.448779 0.634349
O O13 0.630768 0.450027 0.829470
O O14 0.260512 0.264690 0.530942
O O15 0.204205 0.389437 0.250275
O O16 0.005371 0.587544 0.209849
O O17 0.000000 0.000000 0.000000
#
# Coordination Sequence:
#
# PCOD9067979 Si02
#       8
#     2   2   2   2   2   2   2   2
#     4  11  17  30  53  87 113 147 186 227 284 332
#     4  11  23  37  57  85 112 145 192 240 288 330
#     4  11  18  33  54  82 116 145 184 238 283 327
#     4  10  19  31  53  84 123 149 177 231 281 335
#     4   9  16  29  50  78 110 145 176 232 273 322
#     4   9  19  35  50  76 114 145 186 221 279 330
#     4  10  18  28  49  87 122 142 177 229 291 330
#     4  11  17  31  55  81 112 144 184 233 274 324
#
# _framework density 21.007224000000001
#
# number of rings (size 3 to 8) (size 9 to 14) (size 15 to 20)
#    0.000    1.750    5.000    1.875    0.000    2.000 
#    0.000    2.500    0.000    3.000    0.000    1.750 
#    0.000    0.000    0.000    0.000    0.000    0.000 
#
# Total GULP energy -89255.376945 kJ/mol
# GULP energy per Si atom -5578.461059 kJ/mol
# Density = 2.095941 g / cm^3
# Si number density = 21.007224 Si / 1000 Ang^3
#
#
#
# Elastic Constant Matrix: (Units=GPa)
#
#
# Indices 1 2 3 4 5 6 
#
# 1 34.0654 30.4870 19.6067 2.8212 13.5818 4.0560
# 2 30.4870 219.3353 36.2151 1.9913 5.1599 35.0062
# 3 19.6067 36.2151 37.9064 -3.8143 6.3817 5.3137
# 4 2.8212 1.9913 -3.8143 37.0085 4.3304 5.5043
# 5 13.5818 5.1599 6.3817 4.3304 21.1829 -3.2953
# 6 4.0560 35.0062 5.3137 5.5043 -3.2953 27.2388
#
#
#
# Elastic Compliance Matrix: (Units=1/GPa)
#
#
# Indices 1 2 3 4 5 6 
#
# 1 0.056526 -0.003136 -0.021116 -0.002416 -0.029138 -0.003305
# 2 -0.003136 0.006840 -0.003804 0.000601 0.000173 -0.007682
# 3 -0.021116 -0.003804 0.041679 0.006255 0.000427 -0.001309
# 4 -0.002416 0.000601 0.006255 0.030039 -0.007971 -0.008668
# 5 -0.029138 0.000173 0.000427 -0.007971 0.069536 0.014057
# 6 -0.003305 -0.007682 -0.001309 -0.008668 0.014057 0.050784
#
#
# Mechanical properties :
#
#
# Convention : Reuss Voigt Hill
#
# Bulk Modulus (GPa) = 20.43657 51.54717 35.99187
# Shear Modulus (GPa) = 15.25202 30.75259 23.00230
#
# Velocity S-wave (km/s) = 2.69743 3.83025 3.31262
# Velocity P-wave (km/s) = 4.41033 6.64471 5.63929
#
# Compressibility (1/GPa) = 0.04893188
#
# Stress axis : x y z
#
# Youngs Moduli (GPa) = 17.69113 146.20503 23.99314
#
# Poissons Ratio (x) = 0.45843 0.50664
# Poissons Ratio (y) = 0.05547 0.09128
# Poissons Ratio (z) = 0.37357 0.55624
#
# Static dielectric constant tensor:
#      x y z
#    x 1.799680 0.036180 0.022730 
#    y 0.036180 1.843250 0.003460 
#    z 0.022730 0.003460 1.759580 
# 
# From -- ./inp_files/281135.got.cif
#   From: 2010.05.17/outbox.cif.g08.bks.cpg/sg2_141_cif.got.tgz:281135.got - 2010.06.03 11:33:40.
