data_PCOD9067530
_publ_section_title
;
Structure prediction by ZEFSAII (Michael W. Deem and Ramdas Pophale) SiO2 
 PCOD9067530
Probable space group: P -1
;
_chemical_formula_sum "Si O2"
_cell_formula_units_Z 8
_cell_length_a 9.656343
_cell_length_b 5.503122
_cell_length_c 6.951575
_cell_angle_alpha 112.030285
_cell_angle_beta 69.105172
_cell_angle_gamma 74.753002
_cell_volume 284.366316
_symmetry_space_group_name_H-M "P -1"
_symmetry_group_IT_number 2
_symmetry_cell_setting 'triclinic'
loop_
_space_group_symop_operation_xyz
x,y,z
-x,-y,-z
loop_
_atom_site_type_symbol
_atom_site_label
_atom_site_fract_x
_atom_site_fract_y
_atom_site_fract_z
Si Si1 0.629010 0.230550 0.067773
Si Si2 0.823227 0.720559 0.556397
Si Si3 0.898638 0.329028 0.072029
Si Si4 0.627796 0.146846 0.492894
O O1 0.775276 0.319980 0.969270
O O2 0.658992 0.143347 0.250653
O O3 0.464569 0.541797 0.255236
O O4 0.677947 0.929650 0.836432
O O5 0.793307 0.504800 0.363932
O O6 0.000000 0.500000 0.500000
O O7 0.796513 0.966696 0.479344
O O8 0.000000 0.500000 0.000000
O O9 0.000000 0.000000 0.000000
O O10 0.500000 0.000000 0.500000
#
# Coordination Sequence:
#
# PCOD9067530 Si02
#       4
#     2   2   2   2
#     4  11  26  50  75 110 156 206 262 317 396 465
#     4  12  26  46  78 115 149 207 260 320 396 469
#     4  12  26  50  75 114 162 202 259 331 392 468
#     4  11  25  50  76 107 160 204 255 329 383 473
#
# _framework density 28.132726000000002
#
# number of rings (size 3 to 8) (size 9 to 14) (size 15 to 20)
#    0.000    0.500    5.000    2.250    0.000    2.000 
#   13.500    0.000    0.000    0.000    0.000    0.000 
#    0.000    0.000    0.000    0.000    0.000    0.000 
#
# Total GULP energy -44643.021414 kJ/mol
# GULP energy per Si atom -5580.377677 kJ/mol
# Density = 2.806870 g / cm^3
# Si number density = 28.132726 Si / 1000 Ang^3
#
#
#
# Elastic Constant Matrix: (Units=GPa)
#
#
# Indices 1 2 3 4 5 6 
#
# 1 81.6858 43.9658 31.1202 1.0672 -2.9304 4.6847
# 2 43.9658 198.4649 79.7159 39.0294 -7.7291 -39.7194
# 3 31.1202 79.7159 231.9270 72.2568 25.1170 7.7351
# 4 1.0672 39.0294 72.2568 65.0444 0.7566 -3.6323
# 5 -2.9304 -7.7291 25.1170 0.7566 51.9843 4.9970
# 6 4.6847 -39.7194 7.7351 -3.6323 4.9970 74.8287
#
#
#
# Elastic Compliance Matrix: (Units=1/GPa)
#
#
# Indices 1 2 3 4 5 6 
#
# 1 0.015271 -0.003839 -0.002129 0.004252 0.001513 -0.002668
# 2 -0.003839 0.008053 -0.001750 -0.002592 0.001434 0.004474
# 3 -0.002129 -0.001750 0.008221 -0.008099 -0.004065 -0.001767
# 4 0.004252 -0.002592 -0.008099 0.025831 0.003370 0.000224
# 5 0.001513 0.001434 -0.004065 0.003370 0.021468 -0.000183
# 6 -0.002668 0.004474 -0.001767 0.000224 -0.000183 0.016112
#
#
# Mechanical properties :
#
#
# Convention : Reuss Voigt Hill
#
# Bulk Modulus (GPa) = 62.07344 91.29795 76.68569
# Shear Modulus (GPa) = 43.19248 62.18986 52.69117
#
# Velocity S-wave (km/s) = 3.92256 4.70679 4.33245
# Velocity P-wave (km/s) = 6.52899 7.87791 7.23496
#
# Compressibility (1/GPa) = 0.01610995
#
# Stress axis : x y z
#
# Youngs Moduli (GPa) = 65.48255 124.17761 121.63590
#
# Poissons Ratio (x) = 0.47673 0.25897
# Poissons Ratio (y) = 0.25139 0.21282
# Poissons Ratio (z) = 0.13942 0.21727
#
# Static dielectric constant tensor:
#      x y z
#    x 2.255950 -0.000440 -0.082420 
#    y -0.000440 2.389340 -0.024930 
#    z -0.082420 -0.024930 2.226850 
# 
# From -- ./inp_files/57185.got.cif
#   From: 2010.05.17/outbox.cif.g08.bks.cpg/sg2_29_cif.got.tgz:57185.got - 2010.06.03 11:33:40.
