data_PCOD9067092
_publ_section_title
;
Structure prediction by ZEFSAII (Michael W. Deem and Ramdas Pophale) SiO2 
 PCOD9067092
Probable space group: P -1
;
_chemical_formula_sum "Si O2"
_cell_formula_units_Z 14
_cell_length_a 15.084528
_cell_length_b 5.833825
_cell_length_c 16.140641
_cell_angle_alpha 117.455308
_cell_angle_beta 29.137014
_cell_angle_gamma 125.522333
_cell_volume 558.994918
_symmetry_space_group_name_H-M "P -1"
_symmetry_group_IT_number 2
_symmetry_cell_setting 'triclinic'
loop_
_space_group_symop_operation_xyz
x,y,z
-x,-y,-z
loop_
_atom_site_type_symbol
_atom_site_label
_atom_site_fract_x
_atom_site_fract_y
_atom_site_fract_z
Si Si1 0.217782 0.641992 0.077387
Si Si2 0.237904 0.614960 0.796657
Si Si3 0.181046 0.313908 0.629096
Si Si4 0.022306 0.712443 0.636188
Si Si5 0.649166 0.768601 0.876164
Si Si6 0.767830 0.805144 0.132359
Si Si7 0.810837 0.708366 0.579948
O O1 0.121845 0.524535 0.224617
O O2 0.037483 0.680340 0.183019
O O3 0.368995 0.960751 0.025169
O O4 0.248012 0.390583 0.966030
O O5 0.287166 0.533471 0.651311
O O6 0.315020 0.436956 0.767933
O O7 0.313960 0.958110 0.786731
O O8 0.000000 0.500000 0.000000
O O9 0.230303 0.337468 0.493486
O O10 0.161569 0.001342 0.616434
O O11 0.871633 0.794847 0.719971
O O12 0.151247 0.563206 0.465782
O O13 0.636039 0.722883 0.780935
O O14 0.500000 0.500000 0.000000
O O15 0.000000 0.000000 0.000000
O O16 0.000000 0.000000 0.500000
#
# Coordination Sequence:
#
# PCOD9067092 Si02
#       7
#     2   2   2   2   2   2   2
#     4  10  19  32  50  79 111 147 189 232 284 346
#     4  10  18  28  47  79 117 143 180 234 299 342
#     4  10  19  29  51  79 112 145 183 231 289 345
#     4  10  19  33  58  76 114 147 189 231 293 328
#     4  11  24  38  54  81 116 153 193 234 286 347
#     4  10  18  28  49  78 116 145 183 235 301 337
#     4  11  20  36  54  83 109 149 194 237 286 342
#
# _framework density 25.044951000000001
#
# number of rings (size 3 to 8) (size 9 to 14) (size 15 to 20)
#    0.000    1.714    7.143    2.143    4.000    0.571 
#    0.000    0.000    0.000    0.000    0.000    2.000 
#    0.000    0.000    0.000    0.000    0.000    0.000 
#
# Total GULP energy -78040.839387 kJ/mol
# GULP energy per Si atom -5574.345670 kJ/mol
# Density = 2.498795 g / cm^3
# Si number density = 25.044951 Si / 1000 Ang^3
#
#
#
# Elastic Constant Matrix: (Units=GPa)
#
#
# Indices 1 2 3 4 5 6 
#
# 1 57.9297 29.9272 31.3243 14.2397 -3.4412 -4.4323
# 2 29.9272 229.8186 64.9476 44.0299 3.5185 -16.1311
# 3 31.3243 64.9476 97.7815 19.6340 24.5401 6.7581
# 4 14.2397 44.0299 19.6340 43.0334 -8.6826 9.0230
# 5 -3.4412 3.5185 24.5401 -8.6826 27.3418 8.3421
# 6 -4.4323 -16.1311 6.7581 9.0230 8.3421 43.2649
#
#
#
# Elastic Compliance Matrix: (Units=1/GPa)
#
#
# Indices 1 2 3 4 5 6 
#
# 1 0.024073 0.000096 -0.010442 -0.001518 0.011209 0.002288
# 2 0.000096 0.006958 -0.003075 -0.007171 -0.001910 0.004948
# 3 -0.010442 -0.003075 0.024013 -0.009808 -0.025914 0.001075
# 4 -0.001518 -0.007171 -0.009808 0.044722 0.028665 -0.016151
# 5 0.011209 -0.001910 -0.025914 0.028665 0.075488 -0.016050
# 6 0.002288 0.004948 0.001075 -0.016151 -0.016050 0.031488
#
#
# Mechanical properties :
#
#
# Convention : Reuss Voigt Hill
#
# Bulk Modulus (GPa) = 35.45843 70.88088 53.16966
# Shear Modulus (GPa) = 20.57725 40.01673 30.29699
#
# Velocity S-wave (km/s) = 2.86949 4.00158 3.48185
# Velocity P-wave (km/s) = 5.01670 7.05075 6.11884
#
# Compressibility (1/GPa) = 0.02820204
#
# Stress axis : x y z
#
# Youngs Moduli (GPa) = 41.53997 143.71398 41.64355
#
# Poissons Ratio (x) = -0.01379 0.43485
# Poissons Ratio (y) = -0.00399 0.12806
# Poissons Ratio (z) = 0.43377 0.44194
#
# Static dielectric constant tensor:
#      x y z
#    x 2.171520 -0.047710 -0.129900 
#    y -0.047710 2.016740 0.075770 
#    z -0.129900 0.075770 2.185380 
# 
# From -- ./inp_files/38590.got.cif
#   From: 2010.05.17/outbox.cif.g08.bks.cpg/sg2_20_cif.got.tgz:38590.got - 2010.06.03 11:33:40.
