data_PCOD9067006
_publ_section_title
;
Structure prediction by ZEFSAII (Michael W. Deem and Ramdas Pophale) SiO2 
 PCOD9067006
Probable space group: P -1
;
_chemical_formula_sum "Si O2"
_cell_formula_units_Z 16
_cell_length_a 15.123587
_cell_length_b 11.355541
_cell_length_c 16.893407
_cell_angle_alpha 32.442552
_cell_angle_beta 28.560650
_cell_angle_gamma 50.659506
_cell_volume 675.825173
_symmetry_space_group_name_H-M "P -1"
_symmetry_group_IT_number 2
_symmetry_cell_setting 'triclinic'
loop_
_space_group_symop_operation_xyz
x,y,z
-x,-y,-z
loop_
_atom_site_type_symbol
_atom_site_label
_atom_site_fract_x
_atom_site_fract_y
_atom_site_fract_z
Si Si1 0.303602 0.771770 0.255942
Si Si2 0.025614 0.766919 0.346093
Si Si3 0.515173 0.411644 0.249647
Si Si4 0.281277 0.045892 0.505722
Si Si5 0.946855 0.551813 0.105782
Si Si6 0.442217 0.719557 0.530725
Si Si7 0.970839 0.726106 0.676229
Si Si8 0.095736 0.104045 0.948715
O O1 0.217660 0.865974 0.195816
O O2 0.380899 0.565344 0.286596
O O3 0.124190 0.697950 0.505484
O O4 0.500000 0.000000 0.000000
O O5 0.000000 0.500000 0.500000
O O6 0.835684 0.796259 0.520808
O O7 0.050113 0.908145 0.164764
O O8 0.383777 0.177927 0.432349
O O9 0.578209 0.341206 0.324823
O O10 0.727971 0.562746 0.951371
O O11 0.447527 0.987435 0.361413
O O12 0.110739 0.763675 0.803387
O O13 0.729162 0.473883 0.279832
O O14 0.989691 0.707730 0.063564
O O15 0.970659 0.324309 0.252062
O O16 0.664880 0.743806 0.325823
O O17 0.000000 0.000000 0.500000
O O18 0.000000 0.000000 0.000000
#
# Coordination Sequence:
#
# PCOD9067006 Si02
#       8
#     2   2   2   2   2   2   2   2
#     4  12  28  48  76 106 160 207 247 321 393 459
#     4  11  26  49  72 108 153 200 257 315 390 466
#     4  12  26  49  76 114 152 211 258 322 395 466
#     4  11  25  47  75 105 152 193 258 318 391 456
#     4  11  26  45  72 109 148 201 259 321 388 461
#     4  12  25  43  78 107 148 198 263 328 388 456
#     4  12  28  45  75 111 156 199 268 314 397 469
#     4  11  27  47  77 110 152 203 261 319 392 471
#
# _framework density 23.674762000000001
#
# number of rings (size 3 to 8) (size 9 to 14) (size 15 to 20)
#    0.000    0.500    3.750    3.375   10.500    0.000 
#    0.000    1.250    0.000    0.000    0.000    0.000 
#    0.000    0.000    0.000    0.000    0.000    0.000 
#
# Total GULP energy -89323.808215 kJ/mol
# GULP energy per Si atom -5582.738013 kJ/mol
# Density = 2.362088 g / cm^3
# Si number density = 23.674762 Si / 1000 Ang^3
#
#
#
# Elastic Constant Matrix: (Units=GPa)
#
#
# Indices 1 2 3 4 5 6 
#
# 1 155.1019 23.7210 44.2528 -9.6297 -22.8004 -7.2007
# 2 23.7210 102.7025 14.2199 11.2240 14.2889 -4.5505
# 3 44.2528 14.2199 120.0323 8.5805 -6.5942 1.2018
# 4 -9.6297 11.2240 8.5805 39.3586 -6.4917 5.4851
# 5 -22.8004 14.2889 -6.5942 -6.4917 38.0778 -2.5070
# 6 -7.2007 -4.5505 1.2018 5.4851 -2.5070 40.4731
#
#
#
# Elastic Compliance Matrix: (Units=1/GPa)
#
#
# Indices 1 2 3 4 5 6 
#
# 1 0.009167 -0.003160 -0.002972 0.004795 0.007053 0.001151
# 2 -0.003160 0.012194 -0.000299 -0.005560 -0.007394 0.001113
# 3 -0.002972 -0.000299 0.009637 -0.002755 -0.000501 -0.000506
# 4 0.004795 -0.005560 -0.002755 0.030792 0.009514 -0.003274
# 5 0.007053 -0.007394 -0.000501 0.009514 0.034882 0.001310
# 6 0.001151 0.001113 -0.000506 -0.003274 0.001310 0.025578
#
#
# Mechanical properties :
#
#
# Convention : Reuss Voigt Hill
#
# Bulk Modulus (GPa) = 55.14391 60.24710 57.69550
# Shear Modulus (GPa) = 35.42182 43.29144 39.35663
#
# Velocity S-wave (km/s) = 3.87225 4.28084 4.08166
# Velocity P-wave (km/s) = 6.58295 7.06663 6.82907
#
# Compressibility (1/GPa) = 0.01813437
#
# Stress axis : x y z
#
# Youngs Moduli (GPa) = 109.09256 82.00811 103.77017
#
# Poissons Ratio (x) = 0.25914 0.30839
# Poissons Ratio (y) = 0.34473 0.03108
# Poissons Ratio (z) = 0.32421 0.02456
#
# Static dielectric constant tensor:
#      x y z
#    x 1.975060 0.052430 0.063140 
#    y 0.052430 2.064880 0.117910 
#    z 0.063140 0.117910 1.976310 
# 
# From -- ./inp_files/573556.got.cif
#   From: 2010.05.17/outbox.cif.g08.bks.cpg/sg2_287_cif.got.tgz:573556.got - 2010.06.03 11:33:40.
