data_PCOD9067762
_publ_section_title
;
Structure prediction by ZEFSAII (Michael W. Deem and Ramdas Pophale) SiO2 
 PCOD9067762
Probable space group: P -1
;
_chemical_formula_sum "Si O2"
_cell_formula_units_Z 16
_cell_length_a 9.475136
_cell_length_b 17.752062
_cell_length_c 5.004922
_cell_angle_alpha 79.350454
_cell_angle_beta 55.978369
_cell_angle_gamma 96.046299
_cell_volume 662.828313
_symmetry_space_group_name_H-M "P -1"
_symmetry_group_IT_number 2
_symmetry_cell_setting 'triclinic'
loop_
_space_group_symop_operation_xyz
x,y,z
-x,-y,-z
loop_
_atom_site_type_symbol
_atom_site_label
_atom_site_fract_x
_atom_site_fract_y
_atom_site_fract_z
Si Si1 0.965561 0.928401 0.376070
Si Si2 0.829399 0.452342 0.058289
Si Si3 0.140053 0.724901 0.944603
Si Si4 0.515486 0.812918 0.302018
Si Si5 0.580822 0.720990 0.791508
Si Si6 0.059145 0.249351 0.354812
Si Si7 0.317721 0.024858 0.734176
Si Si8 0.364841 0.545894 0.220168
O O1 0.935332 0.842073 0.585129
O O2 0.796493 0.934964 0.377010
O O3 0.000000 0.000000 0.500000
O O4 0.158720 0.947577 0.018053
O O5 0.830971 0.360955 0.089297
O O6 0.674346 0.459198 0.422062
O O7 0.803636 0.484706 0.772408
O O8 0.000000 0.500000 0.000000
O O9 0.312963 0.791991 0.627764
O O10 0.981622 0.730263 0.913263
O O11 0.089550 0.736311 0.295188
O O12 0.599374 0.760759 0.454537
O O13 0.615776 0.904930 0.165661
O O14 0.522975 0.780811 0.018611
O O15 0.757324 0.705254 0.737857
O O16 0.438168 0.637997 0.006782
O O17 0.500000 0.000000 0.500000
O O18 0.500000 0.500000 0.000000
#
# Coordination Sequence:
#
# PCOD9067762 Si02
#       8
#     2   2   2   2   2   2   2   2
#     4  11  26  47  68 102 147 183 241 308 354 436
#     4  12  27  48  71 105 147 183 233 293 351 419
#     4  12  26  46  72 103 140 184 239 292 352 426
#     4  12  24  47  71  99 139 186 235 294 347 417
#     4  12  24  46  71 100 141 184 232 289 347 416
#     4  12  27  44  73 102 140 187 236 292 362 414
#     4  11  26  45  71 102 140 193 238 293 371 429
#     4  12  26  47  73 106 143 188 233 285 352 429
#
# _framework density 24.138978999999999
#
# number of rings (size 3 to 8) (size 9 to 14) (size 15 to 20)
#    0.000    0.250    3.750    4.500    8.750    0.500 
#    0.000    0.000    0.000    0.000    0.000    0.000 
#    0.000    0.000    0.000    0.000    0.000    0.000 
#
# Total GULP energy -89550.576262 kJ/mol
# GULP energy per Si atom -5596.911016 kJ/mol
# Density = 2.408404 g / cm^3
# Si number density = 24.138979 Si / 1000 Ang^3
#
#
#
# Elastic Constant Matrix: (Units=GPa)
#
#
# Indices 1 2 3 4 5 6 
#
# 1 128.9802 13.7694 13.4109 7.8288 -19.0352 4.1766
# 2 13.7694 93.1198 20.1973 35.4973 -3.6745 18.1237
# 3 13.4109 20.1973 71.5796 18.8249 -12.9999 -1.9883
# 4 7.8288 35.4973 18.8249 31.3567 1.8224 -9.1053
# 5 -19.0352 -3.6745 -12.9999 1.8224 46.6939 1.7286
# 6 4.1766 18.1237 -1.9883 -9.1053 1.7286 30.5633
#
#
#
# Elastic Compliance Matrix: (Units=1/GPa)
#
#
# Indices 1 2 3 4 5 6 
#
# 1 0.008640 0.001956 -0.000014 -0.005852 0.004060 -0.004315
# 2 0.001956 0.046592 0.005949 -0.071806 0.010756 -0.049509
# 3 -0.000014 0.005949 0.018821 -0.021029 0.006855 -0.008954
# 4 -0.005852 -0.071806 -0.021029 0.154567 -0.023232 0.089374
# 5 0.004060 0.010756 0.006855 -0.023232 0.027286 -0.014951
# 6 -0.004315 -0.049509 -0.008954 0.089374 -0.014951 0.089556
#
#
# Mechanical properties :
#
#
# Convention : Reuss Voigt Hill
#
# Bulk Modulus (GPa) = 11.13137 43.15942 27.14539
# Shear Modulus (GPa) = 13.90341 38.14291 26.02316
#
# Velocity S-wave (km/s) = 2.40255 3.97941 3.28694
# Velocity P-wave (km/s) = 3.50966 6.24761 5.06707
#
# Compressibility (1/GPa) = 0.08983622
#
# Stress axis : x y z
#
# Youngs Moduli (GPa) = 115.74188 21.46295 53.13203
#
# Poissons Ratio (x) = -0.04199 0.00075
# Poissons Ratio (y) = -0.22644 -0.31610
# Poissons Ratio (z) = 0.00163 -0.12769
#
# Static dielectric constant tensor:
#      x y z
#    x 1.967250 0.039440 -0.030110 
#    y 0.039440 1.919770 0.034540 
#    z -0.030110 0.034540 2.007120 
# 
# From -- ./inp_files/47309.got.cif
#   From: 2010.05.17/outbox.cif.g08.bks.cpg/sg2_24_cif.got.tgz:47309.got - 2010.06.03 11:33:40.
