data_PCOD9067539
_publ_section_title
;
Structure prediction by ZEFSAII (Michael W. Deem and Ramdas Pophale) SiO2 
 PCOD9067539
Probable space group: P -1
;
_chemical_formula_sum "Si O2"
_cell_formula_units_Z 14
_cell_length_a 11.445746
_cell_length_b 11.698604
_cell_length_c 11.034823
_cell_angle_alpha 141.141824
_cell_angle_beta 85.047356
_cell_angle_gamma 66.425568
_cell_volume 613.577128
_symmetry_space_group_name_H-M "P -1"
_symmetry_group_IT_number 2
_symmetry_cell_setting 'triclinic'
loop_
_space_group_symop_operation_xyz
x,y,z
-x,-y,-z
loop_
_atom_site_type_symbol
_atom_site_label
_atom_site_fract_x
_atom_site_fract_y
_atom_site_fract_z
Si Si1 0.743803 0.002741 0.303407
Si Si2 0.787011 0.280455 0.242407
Si Si3 0.666581 0.694287 0.132441
Si Si4 0.196746 0.838293 0.343786
Si Si5 0.137956 0.529966 0.810989
Si Si6 0.486415 0.393377 0.265799
Si Si7 0.662977 0.039728 0.727608
O O1 0.702213 0.837584 0.175324
O O2 0.784469 0.017381 0.448232
O O3 0.595899 0.318305 0.536529
O O4 0.930118 0.813172 0.063987
O O5 0.769046 0.437209 0.259842
O O6 0.666504 0.241577 0.194762
O O7 0.676508 0.489599 0.540023
O O8 0.000000 0.000000 0.000000
O O9 0.782022 0.547993 0.124161
O O10 0.456339 0.913260 0.329984
O O11 0.706222 0.455789 0.866820
O O12 0.274821 0.829470 0.206158
O O13 0.000000 0.000000 0.500000
O O14 0.172289 0.287905 0.556365
O O15 0.557089 0.178617 0.977004
#
# Coordination Sequence:
#
# PCOD9067539 Si02
#       7
#     2   2   2   2   2   2   2
#     4  12  24  45  71 108 148 192 240 294 369 439
#     4  11  25  50  76  99 139 197 252 303 361 422
#     4  12  24  41  70 111 151 187 234 294 369 442
#     4  12  24  40  67 105 151 192 235 288 364 442
#     4  12  24  43  72 104 147 196 238 300 361 432
#     4  11  26  47  76 105 140 195 248 300 365 430
#     4  12  26  43  70 113 149 186 240 303 368 441
#
# _framework density 22.817015000000001
#
# number of rings (size 3 to 8) (size 9 to 14) (size 15 to 20)
#    0.000    0.286    5.714    3.857    2.000    0.571 
#    2.571    0.714    0.000    0.000    0.000    0.000 
#    0.000    0.000    0.000    0.000    0.000    0.000 
#
# Total GULP energy -78083.274617 kJ/mol
# GULP energy per Si atom -5577.376758 kJ/mol
# Density = 2.276508 g / cm^3
# Si number density = 22.817015 Si / 1000 Ang^3
#
#
#
# Elastic Constant Matrix: (Units=GPa)
#
#
# Indices 1 2 3 4 5 6 
#
# 1 96.4680 10.4298 27.2504 -14.6091 -18.7832 11.4623
# 2 10.4298 45.8330 9.7648 -15.3287 -10.8068 4.1830
# 3 27.2504 9.7648 127.5668 -9.8632 -12.6023 -4.9689
# 4 -14.6091 -15.3287 -9.8632 32.0202 3.0611 -9.6254
# 5 -18.7832 -10.8068 -12.6023 3.0611 46.4226 4.2655
# 6 11.4623 4.1830 -4.9689 -9.6254 4.2655 39.3210
#
#
#
# Elastic Compliance Matrix: (Units=1/GPa)
#
#
# Indices 1 2 3 4 5 6 
#
# 1 0.012881 0.000250 -0.002149 0.003783 0.004772 -0.003645
# 2 0.000250 0.027382 -0.000678 0.012283 0.005542 -0.000666
# 3 -0.002149 -0.000678 0.008682 0.001922 0.001005 0.002157
# 4 0.003783 0.012283 0.001922 0.041658 0.001441 0.007875
# 5 0.004772 0.005542 0.001005 0.001441 0.025330 -0.004249
# 6 -0.003645 -0.000666 0.002157 0.007875 -0.004249 0.029226
#
#
# Mechanical properties :
#
#
# Convention : Reuss Voigt Hill
#
# Bulk Modulus (GPa) = 22.83615 40.52863 31.68239
# Shear Modulus (GPa) = 30.31955 38.38095 34.35025
#
# Velocity S-wave (km/s) = 3.64924 4.10581 3.88424
# Velocity P-wave (km/s) = 5.27125 6.34649 5.83370
#
# Compressibility (1/GPa) = 0.04379022
#
# Stress axis : x y z
#
# Youngs Moduli (GPa) = 77.63225 36.52079 115.18351
#
# Poissons Ratio (x) = -0.00911 0.24751
# Poissons Ratio (y) = -0.01937 0.07809
# Poissons Ratio (z) = 0.16682 0.02476
#
# Static dielectric constant tensor:
#      x y z
#    x 1.864530 0.012290 0.016810 
#    y 0.012290 1.809530 -0.267350 
#    z 0.016810 -0.267350 1.583290 
# 
# From -- ./inp_files/424999.got.cif
#   From: 2010.05.17/outbox.cif.g08.bks.cpg/sg2_213_cif.got.tgz:424999.got - 2010.06.03 11:33:40.
