data_PCOD9067161
_publ_section_title
;
Structure prediction by ZEFSAII (Michael W. Deem and Ramdas Pophale) SiO2 
 PCOD9067161
Probable space group: P -1
;
_chemical_formula_sum "Si O2"
_cell_formula_units_Z 15
_cell_length_a 6.922453
_cell_length_b 13.703211
_cell_length_c 7.476708
_cell_angle_alpha 111.138223
_cell_angle_beta 114.828302
_cell_angle_gamma 96.101848
_cell_volume 571.871644
_symmetry_space_group_name_H-M "P -1"
_symmetry_group_IT_number 2
_symmetry_cell_setting 'triclinic'
loop_
_space_group_symop_operation_xyz
x,y,z
-x,-y,-z
loop_
_atom_site_type_symbol
_atom_site_label
_atom_site_fract_x
_atom_site_fract_y
_atom_site_fract_z
Si Si1 0.393063 0.296408 0.639977
Si Si2 0.469335 0.115699 0.121766
Si Si3 0.921134 0.255885 0.233683
Si Si4 0.235895 0.539514 0.328401
Si Si5 0.032600 0.153340 0.848387
Si Si6 0.671052 0.935393 0.562920
Si Si7 0.000000 0.500000 0.500000
Si Si8 0.850397 0.624105 0.142576
O O1 0.590193 0.356298 0.623311
O O2 0.401690 0.180490 0.640917
O O3 0.371945 0.375508 0.843503
O O4 0.154246 0.265869 0.428673
O O5 0.714079 0.197766 0.240983
O O6 0.366224 0.098741 0.268014
O O7 0.288716 0.158873 0.977228
O O8 0.500000 0.000000 0.000000
O O9 0.913615 0.378548 0.283437
O O10 0.927040 0.186770 0.011017
O O11 0.264998 0.512450 0.525385
O O12 0.001784 0.571648 0.296431
O O13 0.186782 0.444484 0.099597
O O14 0.022706 0.248463 0.769364
O O15 0.906052 0.025584 0.675016
O O16 0.500000 0.000000 0.500000
#
# Coordination Sequence:
#
# PCOD9067161 Si02
#       8
#     2   2   2   2   2   2   1   2
#     4  12  26  46  72 104 146 189 239 292 358 428
#     4  12  26  47  72 100 143 189 235 294 355 420
#     4  12  26  46  71 105 142 186 240 292 352 427
#     4  11  25  48  71 107 147 183 239 299 353 424
#     4  12  26  48  72 104 143 191 238 289 360 425
#     4  12  27  46  73 107 142 185 241 299 352 425
#     4  12  24  46  74 106 140 186 238 298 346 422
#     4  11  26  46  71 106 146 189 233 297 360 423
#
# _framework density 26.229664
#
# number of rings (size 3 to 8) (size 9 to 14) (size 15 to 20)
#    0.000    0.267    5.333    3.200    3.733    3.200 
#    0.000    0.000    0.000    0.000    0.000    0.000 
#    0.000    0.000    0.000    0.000    0.000    0.000 
#
# Total GULP energy -83878.106360 kJ/mol
# GULP energy per Si atom -5591.873757 kJ/mol
# Density = 2.616996 g / cm^3
# Si number density = 26.229664 Si / 1000 Ang^3
#
#
#
# Elastic Constant Matrix: (Units=GPa)
#
#
# Indices 1 2 3 4 5 6 
#
# 1 126.9402 59.0362 52.1496 23.0304 -13.9559 5.2965
# 2 59.0362 160.5171 28.4019 32.3416 5.6592 9.4843
# 3 52.1496 28.4019 69.5904 19.7515 -22.9658 6.2264
# 4 23.0304 32.3416 19.7515 52.2132 -1.3666 3.7641
# 5 -13.9559 5.6592 -22.9658 -1.3666 46.6336 4.4913
# 6 5.2965 9.4843 6.2264 3.7641 4.4913 54.1815
#
#
#
# Elastic Compliance Matrix: (Units=1/GPa)
#
#
# Indices 1 2 3 4 5 6 
#
# 1 0.012795 -0.003171 -0.008071 -0.000640 0.000195 0.000260
# 2 -0.003171 0.008360 -0.000773 -0.003505 -0.002387 -0.000623
# 3 -0.008071 -0.000773 0.025955 -0.005318 0.010551 -0.002564
# 4 -0.000640 -0.003505 -0.005318 0.023589 -0.001674 -0.000213
# 5 0.000195 -0.002387 0.010551 -0.001674 0.027224 -0.002954
# 6 0.000260 -0.000623 -0.002564 -0.000213 -0.002954 0.019094
#
#
# Mechanical properties :
#
#
# Convention : Reuss Voigt Hill
#
# Bulk Modulus (GPa) = 43.32897 70.69144 57.01021
# Shear Modulus (GPa) = 33.61566 45.10298 39.35932
#
# Velocity S-wave (km/s) = 3.58381 4.15123 3.87792
# Velocity P-wave (km/s) = 5.80344 7.07011 6.46786
#
# Compressibility (1/GPa) = 0.02307925
#
# Stress axis : x y z
#
# Youngs Moduli (GPa) = 78.15506 119.61704 38.52872
#
# Poissons Ratio (x) = 0.37931 0.31098
# Poissons Ratio (y) = 0.24783 0.02978
# Poissons Ratio (z) = 0.63082 0.09244
#
# Static dielectric constant tensor:
#      x y z
#    x 1.922470 -0.483960 0.289790 
#    y -0.483960 0.760410 0.759200 
#    z 0.289790 0.759200 1.625570 
# 
# From -- ./inp_files/46163.got.cif
#   From: 2010.05.17/outbox.cif.g08.bks.cpg/sg2_24_cif.got.tgz:46163.got - 2010.06.03 11:33:40.
