data_PCOD9067231
_publ_section_title
;
Structure prediction by ZEFSAII (Michael W. Deem and Ramdas Pophale) SiO2 
 PCOD9067231
Probable space group: P -1
;
_chemical_formula_sum "Si O2"
_cell_formula_units_Z 16
_cell_length_a 16.349532
_cell_length_b 7.601221
_cell_length_c 14.200896
_cell_angle_alpha 71.561313
_cell_angle_beta 148.111671
_cell_angle_gamma 86.579445
_cell_volume 668.355714
_symmetry_space_group_name_H-M "P -1"
_symmetry_group_IT_number 2
_symmetry_cell_setting 'triclinic'
loop_
_space_group_symop_operation_xyz
x,y,z
-x,-y,-z
loop_
_atom_site_type_symbol
_atom_site_label
_atom_site_fract_x
_atom_site_fract_y
_atom_site_fract_z
Si Si1 0.947466 0.738349 0.457506
Si Si2 0.306729 0.632079 0.718947
Si Si3 0.864324 0.485612 0.121878
Si Si4 0.581327 0.076255 0.309674
Si Si5 0.235499 0.759646 0.255510
Si Si6 0.625441 0.380134 0.791904
Si Si7 0.487377 0.827444 0.123921
Si Si8 0.125531 0.430872 0.228695
O O1 0.101148 0.764833 0.554338
O O2 0.000000 0.500000 0.500000
O O3 0.679913 0.196158 0.361016
O O4 0.002755 0.680383 0.630929
O O5 0.348333 0.415940 0.734342
O O6 0.500000 0.500000 0.000000
O O7 0.284508 0.025714 0.831721
O O8 0.802789 0.365743 0.013328
O O9 0.649630 0.720646 0.914790
O O10 0.981076 0.541091 0.161182
O O11 0.565907 0.955848 0.223733
O O12 0.717954 0.858346 0.553746
O O13 0.423267 0.666169 0.524034
O O14 0.298943 0.754447 0.211827
O O15 0.238195 0.536024 0.310025
O O16 0.000000 0.000000 0.000000
O O17 0.574263 0.259366 0.835706
O O18 0.000000 0.500000 0.000000
#
# Coordination Sequence:
#
# PCOD9067231 Si02
#       8
#     2   2   2   2   2   2   2   2
#     4  12  28  47  76 115 151 202 252 312 379 449
#     4  12  27  48  76 110 149 203 254 305 379 448
#     4  12  27  49  73 111 152 197 255 309 381 451
#     4  12  28  50  75 112 154 201 250 314 382 448
#     4  11  27  48  76 110 147 199 255 321 386 451
#     4  11  25  48  74 110 150 197 254 311 385 448
#     4  12  27  48  77 107 157 196 251 317 373 456
#     4  12  29  49  76 112 145 196 256 315 384 455
#
# _framework density 23.939349
#
# number of rings (size 3 to 8) (size 9 to 14) (size 15 to 20)
#    0.000    0.250    6.250    0.000    8.750    3.500 
#    0.000    0.000    0.000    0.000    0.000    0.000 
#    0.000    0.000    0.000    0.000    0.000    0.000 
#
# Total GULP energy -89752.268525 kJ/mol
# GULP energy per Si atom -5609.516783 kJ/mol
# Density = 2.388486 g / cm^3
# Si number density = 23.939349 Si / 1000 Ang^3
#
#
#
# Elastic Constant Matrix: (Units=GPa)
#
#
# Indices 1 2 3 4 5 6 
#
# 1 152.6733 25.9724 52.6477 -14.0726 -7.8525 -21.8046
# 2 25.9724 76.9755 27.0332 -4.7997 -6.2074 -5.6975
# 3 52.6477 27.0332 150.8837 -11.2609 -29.5010 -16.1354
# 4 -14.0726 -4.7997 -11.2609 40.4007 -5.5329 -3.2725
# 5 -7.8525 -6.2074 -29.5010 -5.5329 59.3942 -0.2430
# 6 -21.8046 -5.6975 -16.1354 -3.2725 -0.2430 33.6463
#
#
#
# Elastic Compliance Matrix: (Units=1/GPa)
#
#
# Indices 1 2 3 4 5 6 
#
# 1 0.008380 -0.001644 -0.001907 0.002590 0.000248 0.004492
# 2 -0.001644 0.014297 -0.001780 0.000740 0.000464 0.000577
# 3 -0.001907 -0.001780 0.008948 0.002444 0.004246 0.003022
# 4 0.002590 0.000740 0.002444 0.027461 0.004215 0.005677
# 5 0.000248 0.000464 0.004246 0.004215 0.019431 0.002826
# 6 0.004492 0.000577 0.003022 0.005677 0.002826 0.034751
#
#
# Mechanical properties :
#
#
# Convention : Reuss Voigt Hill
#
# Bulk Modulus (GPa) = 47.70424 65.75992 56.73208
# Shear Modulus (GPa) = 38.19142 45.01350 41.60246
#
# Velocity S-wave (km/s) = 3.99850 4.34096 4.17325
# Velocity P-wave (km/s) = 6.42556 7.25633 6.85354
#
# Compressibility (1/GPa) = 0.02096250
#
# Stress axis : x y z
#
# Youngs Moduli (GPa) = 119.32743 69.94320 111.75676
#
# Poissons Ratio (x) = 0.11497 0.21317
# Poissons Ratio (y) = 0.19615 0.19897
# Poissons Ratio (z) = 0.22761 0.12452
#
# Static dielectric constant tensor:
#      x y z
#    x 1.875030 -0.008040 0.008080 
#    y -0.008040 1.934130 0.019960 
#    z 0.008080 0.019960 1.966340 
# 
# From -- ./inp_files/537636.got.cif
#   From: 2010.05.17/outbox.cif.g08.bks.cpg/sg2_269_cif.got.tgz:537636.got - 2010.06.03 11:33:40.
