data_PCOD9067385
_publ_section_title
;
Structure prediction by ZEFSAII (Michael W. Deem and Ramdas Pophale) SiO2 
 PCOD9067385
Probable space group: P -1
;
_chemical_formula_sum "Si O2"
_cell_formula_units_Z 13
_cell_length_a 11.840437
_cell_length_b 11.810685
_cell_length_c 8.297888
_cell_angle_alpha 112.761939
_cell_angle_beta 88.323428
_cell_angle_gamma 144.174765
_cell_volume 532.271306
_symmetry_space_group_name_H-M "P -1"
_symmetry_group_IT_number 2
_symmetry_cell_setting 'triclinic'
loop_
_space_group_symop_operation_xyz
x,y,z
-x,-y,-z
loop_
_atom_site_type_symbol
_atom_site_label
_atom_site_fract_x
_atom_site_fract_y
_atom_site_fract_z
Si Si1 0.320049 0.196639 0.158163
Si Si2 0.623579 0.064691 0.873090
Si Si3 0.195056 0.323754 0.066286
Si Si4 0.314342 0.560758 0.518511
Si Si5 0.080870 0.678555 0.460536
Si Si6 0.480987 0.780667 0.108905
Si Si7 0.000000 0.500000 0.000000
O O1 0.312651 0.305461 0.099760
O O2 0.511044 0.374120 0.384533
O O3 0.399993 0.152987 0.024614
O O4 0.067906 0.953660 0.108408
O O5 0.700098 0.275751 0.921365
O O6 0.876728 0.258640 0.964244
O O7 0.460411 0.824531 0.647973
O O8 0.500000 0.000000 0.000000
O O9 0.208112 0.417259 0.279305
O O10 0.346396 0.539854 0.052209
O O11 0.114555 0.402297 0.563561
O O12 0.000000 0.500000 0.500000
O O13 0.316668 0.964656 0.659695
O O14 0.084997 0.631997 0.256405
#
# Coordination Sequence:
#
# PCOD9067385 Si02
#       7
#     2   2   2   2   2   2   1
#     4  11  25  49  73  98 144 188 244 302 359 426
#     4  12  24  41  68 106 140 186 231 297 369 436
#     4  11  27  46  73 103 136 195 242 300 364 422
#     4  12  24  47  70 102 147 188 232 300 365 433
#     4  12  25  45  72 107 156 193 234 304 370 445
#     4  12  24  45  72 103 143 185 237 297 363 439
#     4  12  26  40  66 102 148 192 242 280 366 450
#
# _framework density 24.423636999999999
#
# number of rings (size 3 to 8) (size 9 to 14) (size 15 to 20)
#    0.000    0.308    6.154    1.846    4.308    1.231 
#    2.769    0.769    0.000    0.000    0.000    0.000 
#    0.000    0.000    0.000    0.000    0.000    0.000 
#
# Total GULP energy -72531.096389 kJ/mol
# GULP energy per Si atom -5579.315107 kJ/mol
# Density = 2.436805 g / cm^3
# Si number density = 24.423637 Si / 1000 Ang^3
#
#
#
# Elastic Constant Matrix: (Units=GPa)
#
#
# Indices 1 2 3 4 5 6 
#
# 1 111.8386 34.5018 -4.5006 11.7085 9.1439 -4.3663
# 2 34.5018 143.0421 13.5034 2.8099 10.8272 26.1264
# 3 -4.5006 13.5034 87.0454 -2.0189 3.6002 25.4195
# 4 11.7085 2.8099 -2.0189 46.4127 15.1822 -3.8003
# 5 9.1439 10.8272 3.6002 15.1822 48.3346 4.1944
# 6 -4.3663 26.1264 25.4195 -3.8003 4.1944 41.6323
#
#
#
# Elastic Compliance Matrix: (Units=1/GPa)
#
#
# Indices 1 2 3 4 5 6 
#
# 1 0.010209 -0.002860 0.000186 -0.001864 -0.000951 0.002678
# 2 -0.002860 0.008802 0.000242 0.000028 -0.000948 -0.005873
# 3 0.000186 0.000242 0.014000 -0.000040 -0.000369 -0.008646
# 4 -0.001864 0.000028 -0.000040 0.024755 -0.007673 0.002844
# 5 -0.000951 -0.000948 -0.000369 -0.007673 0.023725 -0.002370
# 6 0.002678 -0.005873 -0.008646 0.002844 -0.002370 0.033764
#
#
# Mechanical properties :
#
#
# Convention : Reuss Voigt Hill
#
# Bulk Modulus (GPa) = 35.53148 47.65948 41.59548
# Shear Modulus (GPa) = 38.60929 47.17070 42.89000
#
# Velocity S-wave (km/s) = 3.98026 4.39949 4.19511
# Velocity P-wave (km/s) = 5.97519 6.73523 6.36656
#
# Compressibility (1/GPa) = 0.02814406
#
# Stress axis : x y z
#
# Youngs Moduli (GPa) = 97.95468 113.61090 71.43018
#
# Poissons Ratio (x) = 0.32498 -0.01326
# Poissons Ratio (y) = 0.28019 -0.01726
# Poissons Ratio (z) = -0.01818 -0.02745
#
# Static dielectric constant tensor:
#      x y z
#    x 2.121800 -0.095270 0.083950 
#    y -0.095270 2.237130 -0.065240 
#    z 0.083950 -0.065240 1.916660 
# 
# From -- ./inp_files/254961.got.cif
#   From: 2010.05.17/outbox.cif.g08.bks.cpg/sg2_128_cif.got.tgz:254961.got - 2010.06.03 11:33:40.
