data_PCOD9067923
_publ_section_title
;
Structure prediction by ZEFSAII (Michael W. Deem and Ramdas Pophale) SiO2 
 PCOD9067923
Probable space group: P -1
;
_chemical_formula_sum "Si O2"
_cell_formula_units_Z 14
_cell_length_a 13.877246
_cell_length_b 8.957810
_cell_length_c 9.330956
_cell_angle_alpha 72.338645
_cell_angle_beta 120.171068
_cell_angle_gamma 63.053173
_cell_volume 647.704831
_symmetry_space_group_name_H-M "P -1"
_symmetry_group_IT_number 2
_symmetry_cell_setting 'triclinic'
loop_
_space_group_symop_operation_xyz
x,y,z
-x,-y,-z
loop_
_atom_site_type_symbol
_atom_site_label
_atom_site_fract_x
_atom_site_fract_y
_atom_site_fract_z
Si Si1 0.474439 0.189067 0.110251
Si Si2 0.841710 0.364991 0.153285
Si Si3 0.674175 0.213455 0.096648
Si Si4 0.407740 0.546863 0.560071
Si Si5 0.987116 0.740902 0.398538
Si Si6 0.298982 0.323828 0.627583
Si Si7 0.941604 0.014868 0.793224
O O1 0.326899 0.362767 0.060965
O O2 0.602607 0.916980 0.303387
O O3 0.580038 0.237175 0.152723
O O4 0.382782 0.261498 0.865871
O O5 0.782267 0.254306 0.197670
O O6 0.045272 0.683544 0.622824
O O7 0.943347 0.233115 0.123169
O O8 0.544047 0.399030 0.827251
O O9 0.789919 0.955150 0.192381
O O10 0.500000 0.500000 0.500000
O O11 0.331694 0.449796 0.528322
O O12 0.251935 0.819113 0.393783
O O13 0.105011 0.501985 0.467241
O O14 0.035458 0.856654 0.327598
O O15 0.000000 0.000000 0.000000
#
# Coordination Sequence:
#
# PCOD9067923 Si02
#       7
#     2   2   2   2   2   2   2
#     4   9  17  30  49  72 101 130 162 207 246 295
#     4  10  19  32  50  75 105 132 163 204 254 295
#     4  10  18  28  49  79 102 126 166 209 246 288
#     4  10  19  32  52  73  96 129 170 210 242 295
#     4   9  18  32  50  73 104 133 161 206 251 295
#     4   8  17  32  48  71 100 132 164 199 255 295
#     4  10  19  32  49  71 100 131 162 202 252 297
#
# _framework density 21.614782000000002
#
# number of rings (size 3 to 8) (size 9 to 14) (size 15 to 20)
#    0.000    2.571    0.000    4.714    0.000    1.714 
#    0.000    0.000    0.000    8.571    0.000    0.000 
#    0.000    1.143    0.000    0.000    0.000    0.000 
#
# Total GULP energy -78125.812100 kJ/mol
# GULP energy per Si atom -5580.415150 kJ/mol
# Density = 2.156559 g / cm^3
# Si number density = 21.614782 Si / 1000 Ang^3
#
#
#
# Elastic Constant Matrix: (Units=GPa)
#
#
# Indices 1 2 3 4 5 6 
#
# 1 54.2918 39.9179 24.3865 -6.1998 13.5851 -14.3126
# 2 39.9179 141.0002 75.7242 -42.4321 9.5924 -32.4159
# 3 24.3865 75.7242 115.5220 -36.0711 27.5087 -20.1730
# 4 -6.1998 -42.4321 -36.0711 49.0150 -8.3036 12.3079
# 5 13.5851 9.5924 27.5087 -8.3036 24.9463 -11.8092
# 6 -14.3126 -32.4159 -20.1730 12.3079 -11.8092 35.8697
#
#
#
# Elastic Compliance Matrix: (Units=1/GPa)
#
#
# Indices 1 2 3 4 5 6 
#
# 1 0.028020 -0.009977 0.002688 -0.005955 -0.016183 0.000391
# 2 -0.009977 0.018896 -0.009955 0.008024 0.016658 0.010228
# 3 0.002688 -0.009955 0.019956 0.004152 -0.020579 -0.004901
# 4 -0.005955 0.008024 0.004152 0.030944 0.005054 -0.001744
# 5 -0.016183 0.016658 -0.020579 0.005054 0.076573 0.020498
# 6 0.000391 0.010228 -0.004901 -0.001744 0.020498 0.041868
#
#
# Mechanical properties :
#
#
# Convention : Reuss Voigt Hill
#
# Bulk Modulus (GPa) = 30.88186 65.65236 48.26711
# Shear Modulus (GPa) = 19.11750 33.35188 26.23469
#
# Velocity S-wave (km/s) = 2.97722 3.93238 3.48765
# Velocity P-wave (km/s) = 5.11242 7.14548 6.21268
#
# Compressibility (1/GPa) = 0.03238147
#
# Stress axis : x y z
#
# Youngs Moduli (GPa) = 35.68884 52.92120 50.11119
#
# Poissons Ratio (x) = 0.52801 -0.13467
# Poissons Ratio (y) = 0.35608 0.49888
# Poissons Ratio (z) = -0.09591 0.52685
#
# Static dielectric constant tensor:
#      x y z
#    x 1.809970 0.037320 0.033320 
#    y 0.037320 1.844060 -0.085180 
#    z 0.033320 -0.085180 1.836350 
# 
# From -- ./inp_files/449901.got.cif
#   From: 2010.05.17/outbox.cif.g08.bks.cpg/sg2_225_cif.got.tgz:449901.got - 2010.06.03 11:33:40.
