data_PCOD9067306
_publ_section_title
;
Structure prediction by ZEFSAII (Michael W. Deem and Ramdas Pophale) SiO2 
 PCOD9067306
Probable space group: P -1
;
_chemical_formula_sum "Si O2"
_cell_formula_units_Z 12
_cell_length_a 15.858084
_cell_length_b 9.754049
_cell_length_c 5.115344
_cell_angle_alpha 72.696712
_cell_angle_beta 79.187405
_cell_angle_gamma 35.896005
_cell_volume 440.907957
_symmetry_space_group_name_H-M "P -1"
_symmetry_group_IT_number 2
_symmetry_cell_setting 'triclinic'
loop_
_space_group_symop_operation_xyz
x,y,z
-x,-y,-z
loop_
_atom_site_type_symbol
_atom_site_label
_atom_site_fract_x
_atom_site_fract_y
_atom_site_fract_z
Si Si1 0.160957 0.301663 0.401245
Si Si2 0.296977 0.988876 0.010051
Si Si3 0.922747 0.222164 0.597356
Si Si4 0.348237 0.290500 0.423632
Si Si5 0.564620 0.571256 0.399851
Si Si6 0.800427 0.159034 0.103580
O O1 0.182973 0.177776 0.198243
O O2 0.242329 0.344483 0.256402
O O3 0.000000 0.500000 0.500000
O O4 0.261318 0.117620 0.690980
O O5 0.452065 0.811105 0.149456
O O6 0.286647 0.836049 0.022685
O O7 0.792033 0.496228 0.413502
O O8 0.854536 0.218698 0.869351
O O9 0.000000 0.000000 0.500000
O O10 0.060664 0.113000 0.709947
O O11 0.411675 0.367442 0.388683
O O12 0.500000 0.000000 0.500000
O O13 0.500000 0.500000 0.500000
O O14 0.708766 0.345320 0.286079
#
# Coordination Sequence:
#
# PCOD9067306 Si02
#       6
#     2   2   2   2   2   2
#     4  12  29  50  78 116 165 218 273 336 418 497
#     4  12  27  48  78 115 162 213 272 338 411 490
#     4  11  25  48  77 113 153 211 274 338 410 484
#     4  12  27  49  81 116 165 212 267 342 417 492
#     4  12  26  49  81 120 164 215 278 340 414 494
#     4  11  26  44  81 110 154 213 278 337 406 492
#
# _framework density 27.216567000000001
#
# number of rings (size 3 to 8) (size 9 to 14) (size 15 to 20)
#    0.000    0.333    3.333    4.000    7.000    2.000 
#    0.000    0.000    0.000    0.000    0.000    0.000 
#    0.000    0.000    0.000    0.000    0.000    0.000 
#
# Total GULP energy -66932.932110 kJ/mol
# GULP energy per Si atom -5577.744342 kJ/mol
# Density = 2.715462 g / cm^3
# Si number density = 27.216567 Si / 1000 Ang^3
#
#
#
# Elastic Constant Matrix: (Units=GPa)
#
#
# Indices 1 2 3 4 5 6 
#
# 1 133.0733 57.4204 9.0939 -2.1343 9.2513 8.7064
# 2 57.4204 203.3599 30.0565 27.1402 3.9874 -16.1936
# 3 9.0939 30.0565 104.2963 6.9846 -11.5488 2.3394
# 4 -2.1343 27.1402 6.9846 45.8482 -7.8344 8.2124
# 5 9.2513 3.9874 -11.5488 -7.8344 38.0468 -2.6360
# 6 8.7064 -16.1936 2.3394 8.2124 -2.6360 78.7786
#
#
#
# Elastic Compliance Matrix: (Units=1/GPa)
#
#
# Indices 1 2 3 4 5 6 
#
# 1 0.009077 -0.002950 -0.000231 0.002264 -0.001633 -0.001893
# 2 -0.002950 0.006787 -0.001584 -0.004522 -0.001254 0.002198
# 3 -0.000231 -0.001584 0.010448 -0.000002 0.003359 -0.000498
# 4 0.002264 -0.004522 -0.000002 0.026124 0.005044 -0.003734
# 5 -0.001633 -0.001254 0.003359 0.005044 0.028888 0.000264
# 6 -0.001893 0.002198 -0.000498 -0.003734 0.000264 0.013768
#
#
# Mechanical properties :
#
#
# Convention : Reuss Voigt Hill
#
# Bulk Modulus (GPa) = 59.58773 70.43012 65.00892
# Shear Modulus (GPa) = 45.36513 55.47863 50.42188
#
# Velocity S-wave (km/s) = 4.08710 4.51978 4.30887
# Velocity P-wave (km/s) = 6.64936 7.29189 6.97803
#
# Compressibility (1/GPa) = 0.01678198
#
# Stress axis : x y z
#
# Youngs Moduli (GPa) = 110.16933 147.33122 95.71239
#
# Poissons Ratio (x) = 0.43457 0.02215
# Poissons Ratio (y) = 0.32496 0.15162
# Poissons Ratio (z) = 0.02549 0.23340
#
# Static dielectric constant tensor:
#      x y z
#    x 2.284170 0.111880 -0.074430 
#    y 0.111880 2.208560 -0.115720 
#    z -0.074430 -0.115720 2.183540 
# 
# From -- ./inp_files/90056.got.cif
#   From: 2010.05.17/outbox.cif.g08.bks.cpg/sg2_46_cif.got.tgz:90056.got - 2010.06.03 11:33:40.
