data_PCOD9067150
_publ_section_title
;
Structure prediction by ZEFSAII (Michael W. Deem and Ramdas Pophale) SiO2 
 PCOD9067150
Probable space group: P -1
;
_chemical_formula_sum "Si O2"
_cell_formula_units_Z 12
_cell_length_a 7.010855
_cell_length_b 14.006369
_cell_length_c 13.438164
_cell_angle_alpha 151.073133
_cell_angle_beta 118.248056
_cell_angle_gamma 67.616907
_cell_volume 560.523998
_symmetry_space_group_name_H-M "P -1"
_symmetry_group_IT_number 2
_symmetry_cell_setting 'triclinic'
loop_
_space_group_symop_operation_xyz
x,y,z
-x,-y,-z
loop_
_atom_site_type_symbol
_atom_site_label
_atom_site_fract_x
_atom_site_fract_y
_atom_site_fract_z
Si Si1 0.577282 0.791620 0.795526
Si Si2 0.231057 0.070707 0.239604
Si Si3 0.185884 0.512638 0.975619
Si Si4 0.592828 0.798512 0.380467
Si Si5 0.897831 0.354511 0.425688
Si Si6 0.972026 0.324072 0.112060
O O1 0.639338 0.825208 0.725250
O O2 0.359312 0.650187 0.632820
O O3 0.786055 0.738160 0.861497
O O4 0.500000 0.000000 0.000000
O O5 0.323264 0.143479 0.435411
O O6 0.988837 0.144167 0.238718
O O7 0.196218 0.832179 0.014893
O O8 0.401364 0.621989 0.176730
O O9 0.241744 0.303524 0.747922
O O10 0.106652 0.658740 0.003578
O O11 0.000000 0.500000 0.000000
O O12 0.500000 0.000000 0.500000
O O13 0.010861 0.452943 0.640390
O O14 0.000000 0.500000 0.500000
#
# Coordination Sequence:
#
# PCOD9067150 Si02
#       6
#     2   2   2   2   2   2
#     4  12  26  43  70 107 137 182 230 276 354 414
#     4  12  25  45  71 100 142 180 228 287 342 414
#     4  11  27  46  72 104 139 183 238 289 346 415
#     4  11  25  48  71 101 137 187 233 288 350 404
#     4  12  25  44  69 100 142 179 227 283 345 412
#     4  12  24  46  68 100 141 180 227 287 343 407
#
# _framework density 21.408538
#
# number of rings (size 3 to 8) (size 9 to 14) (size 15 to 20)
#    0.000    0.333    6.667    2.000    2.333    2.000 
#    0.000    0.000    0.000    0.000    0.000    0.000 
#    0.000    0.000    0.000    0.000    0.000    0.000 
#
# Total GULP energy -66987.358745 kJ/mol
# GULP energy per Si atom -5582.279895 kJ/mol
# Density = 2.135981 g / cm^3
# Si number density = 21.408538 Si / 1000 Ang^3
#
#
#
# Elastic Constant Matrix: (Units=GPa)
#
#
# Indices 1 2 3 4 5 6 
#
# 1 146.6389 48.2224 36.1130 3.4994 1.7138 13.9879
# 2 48.2224 103.6118 10.9838 0.5568 0.1149 -4.5143
# 3 36.1130 10.9838 87.2935 1.3328 2.9401 -1.8283
# 4 3.4994 0.5568 1.3328 38.9685 -4.5829 -0.1012
# 5 1.7138 0.1149 2.9401 -4.5829 42.4070 10.1038
# 6 13.9879 -4.5143 -1.8283 -0.1012 10.1038 23.5815
#
#
#
# Elastic Compliance Matrix: (Units=1/GPa)
#
#
# Indices 1 2 3 4 5 6 
#
# 1 0.009998 -0.004593 -0.003770 -0.000526 0.001677 -0.007823
# 2 -0.004593 0.011975 0.000549 0.000096 -0.001203 0.005575
# 3 -0.003770 0.000549 0.013097 -0.000315 -0.001772 0.004115
# 4 -0.000526 0.000096 -0.000315 0.026078 0.003075 -0.000900
# 5 0.001677 -0.001203 -0.001772 0.003075 0.027055 -0.012941
# 6 -0.007823 0.005575 0.004115 -0.000900 -0.012941 0.053973
#
#
# Mechanical properties :
#
#
# Convention : Reuss Voigt Hill
#
# Bulk Modulus (GPa) = 51.43837 58.68698 55.06268
# Shear Modulus (GPa) = 30.43507 37.13973 33.78740
#
# Velocity S-wave (km/s) = 3.77454 4.16962 3.97699
# Velocity P-wave (km/s) = 6.56319 7.11712 6.84576
#
# Compressibility (1/GPa) = 0.01944074
#
# Stress axis : x y z
#
# Youngs Moduli (GPa) = 100.02363 83.50973 76.35388
#
# Poissons Ratio (x) = 0.38358 0.28788
# Poissons Ratio (y) = 0.45943 -0.04194
# Poissons Ratio (z) = 0.37712 -0.04587
#
# Static dielectric constant tensor:
#      x y z
#    x 1.792440 -0.006290 -0.033930 
#    y -0.006290 1.803440 -0.070470 
#    z -0.033930 -0.070470 2.015150 
# 
# From -- ./inp_files/484672.got.cif
#   From: 2010.05.17/outbox.cif.g08.bks.cpg/sg2_243_cif.got.tgz:484672.got - 2010.06.03 11:33:40.
