data_PCOD9067729
_publ_section_title
;
Structure prediction by ZEFSAII (Michael W. Deem and Ramdas Pophale) SiO2 
 PCOD9067729
Probable space group: P -1
;
_chemical_formula_sum "Si O2"
_cell_formula_units_Z 14
_cell_length_a 8.164430
_cell_length_b 12.366280
_cell_length_c 13.711408
_cell_angle_alpha 31.752662
_cell_angle_beta 122.707294
_cell_angle_gamma 114.125812
_cell_volume 608.971772
_symmetry_space_group_name_H-M "P -1"
_symmetry_group_IT_number 2
_symmetry_cell_setting 'triclinic'
loop_
_space_group_symop_operation_xyz
x,y,z
-x,-y,-z
loop_
_atom_site_type_symbol
_atom_site_label
_atom_site_fract_x
_atom_site_fract_y
_atom_site_fract_z
Si Si1 0.793420 0.511408 0.483202
Si Si2 0.324297 0.945679 0.174943
Si Si3 0.379671 0.779337 0.111398
Si Si4 0.011342 0.799940 0.460175
Si Si5 0.287538 0.921858 0.751135
Si Si6 0.272157 0.564446 0.869771
Si Si7 0.947097 0.806085 0.964542
O O1 0.746763 0.276905 0.659291
O O2 0.580521 0.627366 0.293672
O O3 0.000000 0.500000 0.500000
O O4 0.854235 0.659680 0.474875
O O5 0.376965 0.940749 0.079276
O O6 0.511163 0.977638 0.278784
O O7 0.158893 0.126657 0.018412
O O8 0.331932 0.843944 0.935567
O O9 0.168657 0.700919 0.128694
O O10 0.201439 0.662753 0.667278
O O11 0.053553 0.978095 0.260601
O O12 0.900311 0.912384 0.429701
O O13 0.239943 0.737530 0.809304
O O14 0.500000 0.500000 0.000000
O O15 0.165839 0.358636 0.001918
#
# Coordination Sequence:
#
# PCOD9067729 Si02
#       7
#     2   2   2   2   2   2   2
#     4  12  26  44  72 109 150 186 236 304 371 435
#     4  12  23  44  71 111 148 189 233 300 372 433
#     4  11  26  44  74 108 146 186 241 298 368 441
#     4  11  26  49  70 108 148 189 245 303 361 434
#     4  11  26  47  73 103 147 192 242 301 359 432
#     4  12  27  49  74 105 143 197 254 297 353 431
#     4  11  26  47  75 110 145 196 240 300 370 427
#
# _framework density 22.989571000000002
#
# number of rings (size 3 to 8) (size 9 to 14) (size 15 to 20)
#    0.000    0.571    4.286    2.571    6.000    4.000 
#    2.571    0.000    0.000    0.000    0.000    0.000 
#    0.000    0.000    0.000    0.000    0.000    0.000 
#
# Total GULP energy -78112.364596 kJ/mol
# GULP energy per Si atom -5579.454614 kJ/mol
# Density = 2.293725 g / cm^3
# Si number density = 22.989571 Si / 1000 Ang^3
#
#
#
# Elastic Constant Matrix: (Units=GPa)
#
#
# Indices 1 2 3 4 5 6 
#
# 1 91.7085 29.6991 52.4680 0.2720 24.7450 3.5165
# 2 29.6991 151.6305 52.4626 -18.8119 -1.3184 21.2062
# 3 52.4680 52.4626 112.3345 3.8160 11.3192 21.5536
# 4 0.2720 -18.8119 3.8160 49.4275 12.3050 11.2329
# 5 24.7450 -1.3184 11.3192 12.3050 49.8092 -0.9721
# 6 3.5165 21.2062 21.5536 11.2329 -0.9721 31.1686
#
#
#
# Elastic Compliance Matrix: (Units=1/GPa)
#
#
# Indices 1 2 3 4 5 6 
#
# 1 0.017408 -0.001227 -0.007544 0.001002 -0.007146 0.003504
# 2 -0.001227 0.009285 -0.002777 0.005115 0.000104 -0.006098
# 3 -0.007544 -0.002777 0.015169 -0.000522 0.000209 -0.007554
# 4 0.001002 0.005115 -0.000522 0.026994 -0.007170 -0.013184
# 5 -0.007146 0.000104 0.000209 -0.007170 0.025431 0.003968
# 6 0.003504 -0.006098 -0.007554 -0.013184 0.003968 0.045937
#
#
# Mechanical properties :
#
#
# Convention : Reuss Voigt Hill
#
# Bulk Modulus (GPa) = 53.29116 69.43699 61.36408
# Shear Modulus (GPa) = 29.48555 40.81732 35.15144
#
# Velocity S-wave (km/s) = 3.58517 4.21821 3.91451
# Velocity P-wave (km/s) = 6.35365 7.34803 6.86886
#
# Compressibility (1/GPa) = 0.01876484
#
# Stress axis : x y z
#
# Youngs Moduli (GPa) = 57.44360 107.70626 65.92568
#
# Poissons Ratio (x) = 0.13219 0.49734
# Poissons Ratio (y) = 0.07050 0.18307
# Poissons Ratio (z) = 0.43335 0.29910
#
# Static dielectric constant tensor:
#      x y z
#    x 2.053960 -0.052270 0.014690 
#    y -0.052270 1.893220 -0.058750 
#    z 0.014690 -0.058750 1.932740 
# 
# From -- ./inp_files/209576.got.cif
#   From: 2010.05.17/outbox.cif.g08.bks.cpg/sg2_105_cif.got.tgz:209576.got - 2010.06.03 11:33:40.
