data_PCOD9067893
_publ_section_title
;
Structure prediction by ZEFSAII (Michael W. Deem and Ramdas Pophale) SiO2 
 PCOD9067893
Probable space group: P -1
;
_chemical_formula_sum "Si O2"
_cell_formula_units_Z 16
_cell_length_a 17.877810
_cell_length_b 18.804895
_cell_length_c 9.662520
_cell_angle_alpha 27.739592
_cell_angle_beta 142.688973
_cell_angle_gamma 151.520737
_cell_volume 718.767885
_symmetry_space_group_name_H-M "P -1"
_symmetry_group_IT_number 2
_symmetry_cell_setting 'triclinic'
loop_
_space_group_symop_operation_xyz
x,y,z
-x,-y,-z
loop_
_atom_site_type_symbol
_atom_site_label
_atom_site_fract_x
_atom_site_fract_y
_atom_site_fract_z
Si Si1 0.749980 0.341793 0.339136
Si Si2 0.545849 0.670488 0.053126
Si Si3 0.097625 0.309522 0.843651
Si Si4 0.693126 0.792923 0.759469
Si Si5 0.210750 0.582247 0.050814
Si Si6 0.040013 0.764123 0.540545
Si Si7 0.552580 0.744702 0.361258
Si Si8 0.216908 0.989414 0.984095
O O1 0.852883 0.494636 0.349698
O O2 0.747695 0.158247 0.665001
O O3 0.579370 0.288870 0.191503
O O4 0.812316 0.435976 0.116810
O O5 0.472205 0.453772 0.364764
O O6 0.607869 0.700654 0.937004
O O7 0.691311 0.828651 0.090759
O O8 0.023117 0.268912 0.651956
O O9 0.968546 0.134084 0.055881
O O10 0.248599 0.319347 0.029819
O O11 0.580008 0.785395 0.494756
O O12 0.850056 0.011016 0.643955
O O13 0.394468 0.703311 0.146234
O O14 0.106641 0.375675 0.332232
O O15 0.148318 0.696191 0.819048
O O16 0.706563 0.923063 0.202447
#
# Coordination Sequence:
#
# PCOD9067893 Si02
#       8
#     2   2   2   2   2   2   2   2
#     4  12  26  47  76 103 145 188 239 297 354 426
#     4  12  25  49  72 104 145 189 240 294 355 423
#     4  12  26  47  73 103 145 190 240 293 353 428
#     4  12  27  47  71 106 143 196 237 289 362 423
#     4  11  26  46  72 105 147 185 238 298 355 421
#     4  11  26  46  72 106 143 192 236 294 356 425
#     4  12  28  45  71 110 143 186 238 296 354 421
#     4  12  27  45  75 105 140 192 241 291 361 417
#
# _framework density 22.260316
#
# number of rings (size 3 to 8) (size 9 to 14) (size 15 to 20)
#    0.000    0.250    5.000    2.625    7.000    2.000 
#    0.000    0.000    0.000    0.000    0.000    0.000 
#    0.000    0.000    0.000    0.000    0.000    0.000 
#
# Total GULP energy -89640.086612 kJ/mol
# GULP energy per Si atom -5602.505413 kJ/mol
# Density = 2.220965 g / cm^3
# Si number density = 22.260316 Si / 1000 Ang^3
#
#
#
# Elastic Constant Matrix: (Units=GPa)
#
#
# Indices 1 2 3 4 5 6 
#
# 1 95.3077 -9.1487 17.2437 -8.2377 -10.5166 14.3584
# 2 -9.1487 57.2414 4.8624 -2.0138 -6.2915 -13.1095
# 3 17.2437 4.8624 55.4783 -4.2295 -17.3934 -0.6158
# 4 -8.2377 -2.0138 -4.2295 28.2101 10.2969 -11.9680
# 5 -10.5166 -6.2915 -17.3934 10.2969 37.3698 1.6458
# 6 14.3584 -13.1095 -0.6158 -11.9680 1.6458 34.5332
#
#
#
# Elastic Compliance Matrix: (Units=1/GPa)
#
#
# Indices 1 2 3 4 5 6 
#
# 1 0.012183 0.001446 -0.003225 0.000433 0.002251 -0.004531
# 2 0.001446 0.020110 -0.001281 0.004759 0.001507 0.008587
# 3 -0.003225 -0.001281 0.022007 -0.000951 0.009361 0.000471
# 4 0.000433 0.004759 -0.000951 0.049003 -0.013869 0.019253
# 5 0.002251 0.001507 0.009361 -0.013869 0.036122 -0.006725
# 6 -0.004531 0.008587 0.000471 0.019253 -0.006725 0.041103
#
#
# Mechanical properties :
#
#
# Convention : Reuss Voigt Hill
#
# Bulk Modulus (GPa) = 20.75583 25.99358 23.37471
# Shear Modulus (GPa) = 24.66606 33.02727 28.84666
#
# Velocity S-wave (km/s) = 3.33238 3.85604 3.60374
# Velocity P-wave (km/s) = 4.91434 5.61497 5.27630
#
# Compressibility (1/GPa) = 0.04817924
#
# Stress axis : x y z
#
# Youngs Moduli (GPa) = 82.08072 49.72759 45.43938
#
# Poissons Ratio (x) = -0.07191 0.14654
# Poissons Ratio (y) = -0.11869 0.05823
# Poissons Ratio (z) = 0.26471 0.06372
#
# Static dielectric constant tensor:
#      x y z
#    x 1.791760 0.015290 0.006610 
#    y 0.015290 1.807990 0.016130 
#    z 0.006610 0.016130 1.807720 
# 
# From -- ./inp_files/263516.got.cif
#   From: 2010.05.17/outbox.cif.g08.bks.cpg/sg2_132_cif.got.tgz:263516.got - 2010.06.03 11:33:40.
