data_PCOD9067390
_publ_section_title
;
Structure prediction by ZEFSAII (Michael W. Deem and Ramdas Pophale) SiO2 
 PCOD9067390
Probable space group: P -1
;
_chemical_formula_sum "Si O2"
_cell_formula_units_Z 8
_cell_length_a 4.990761
_cell_length_b 8.897534
_cell_length_c 13.809748
_cell_angle_alpha 44.174055
_cell_angle_beta 130.747079
_cell_angle_gamma 124.768378
_cell_volume 317.625090
_symmetry_space_group_name_H-M "P -1"
_symmetry_group_IT_number 2
_symmetry_cell_setting 'triclinic'
loop_
_space_group_symop_operation_xyz
x,y,z
-x,-y,-z
loop_
_atom_site_type_symbol
_atom_site_label
_atom_site_fract_x
_atom_site_fract_y
_atom_site_fract_z
Si Si1 0.942627 0.344446 0.674388
Si Si2 0.493974 0.911421 0.149240
Si Si3 0.165603 0.257117 0.430466
Si Si4 0.814203 0.370826 0.106779
O O1 0.858019 0.208630 0.819172
O O2 0.567955 0.290740 0.551822
O O3 0.029887 0.598625 0.608943
O O4 0.240420 0.260501 0.720377
O O5 0.654786 0.121636 0.154397
O O6 0.500000 0.000000 0.000000
O O7 0.098427 0.359767 0.263622
O O8 0.000000 0.000000 0.500000
O O9 0.500000 0.500000 0.000000
O O10 0.000000 0.500000 0.000000
#
# Coordination Sequence:
#
# PCOD9067390 Si02
#       4
#     2   2   2   2
#     4  11  26  46  72 105 140 190 234 292 353 419
#     4  12  24  46  71 104 147 184 235 295 353 419
#     4  11  25  49  74 106 145 187 239 293 352 425
#     4  12  26  45  71 106 141 186 236 290 351 420
#
# _framework density 25.186926
#
# number of rings (size 3 to 8) (size 9 to 14) (size 15 to 20)
#    0.000    0.500    2.500    5.250    0.000    7.000 
#    0.000    0.000    0.000    0.000    0.000    0.000 
#    0.000    0.000    0.000    0.000    0.000    0.000 
#
# Total GULP energy -44860.188133 kJ/mol
# GULP energy per Si atom -5607.523517 kJ/mol
# Density = 2.512960 g / cm^3
# Si number density = 25.186926 Si / 1000 Ang^3
#
#
#
# Elastic Constant Matrix: (Units=GPa)
#
#
# Indices 1 2 3 4 5 6 
#
# 1 157.1492 29.5897 36.4258 -23.9127 2.3678 -16.8050
# 2 29.5897 211.9837 35.1320 -32.5752 16.3846 -29.7130
# 3 36.4258 35.1320 150.2474 12.1241 -28.7749 -8.8524
# 4 -23.9127 -32.5752 12.1241 56.8125 -10.9388 -0.0735
# 5 2.3678 16.3846 -28.7749 -10.9388 61.9668 -11.6796
# 6 -16.8050 -29.7130 -8.8524 -0.0735 -11.6796 32.9516
#
#
#
# Elastic Compliance Matrix: (Units=1/GPa)
#
#
# Indices 1 2 3 4 5 6 
#
# 1 0.007773 0.000391 -0.002061 0.003951 0.000055 0.003791
# 2 0.000391 0.006366 -0.001762 0.004038 -0.000827 0.005182
# 3 -0.002061 -0.001762 0.008697 -0.002904 0.004299 0.001214
# 4 0.003951 0.004038 -0.002904 0.022696 0.002537 0.005826
# 5 0.000055 -0.000827 0.004299 0.002537 0.020234 0.007615
# 6 0.003791 0.005182 0.001214 0.005826 0.007615 0.039992
#
#
# Mechanical properties :
#
#
# Convention : Reuss Voigt Hill
#
# Bulk Modulus (GPa) = 62.61279 80.18612 71.39945
# Shear Modulus (GPa) = 42.39271 58.22836 50.31053
#
# Velocity S-wave (km/s) = 4.10704 4.81338 4.47417
# Velocity P-wave (km/s) = 6.88503 7.92446 7.42296
#
# Compressibility (1/GPa) = 0.01597118
#
# Stress axis : x y z
#
# Youngs Moduli (GPa) = 128.64494 157.09577 114.98766
#
# Poissons Ratio (x) = -0.06141 0.23698
# Poissons Ratio (y) = -0.05029 0.20262
# Poissons Ratio (z) = 0.26513 0.27682
#
# Static dielectric constant tensor:
#      x y z
#    x 1.942380 0.015550 -0.055450 
#    y 0.015550 1.952190 -0.013640 
#    z -0.055450 -0.013640 2.063310 
# 
# From -- ./inp_files/2127.got.cif
#   From: 2010.05.17/outbox.cif.g08.bks.cpg/sg2_2_cif.got.tgz:2127.got - 2010.06.03 11:33:40.
