data_PCOD9067452
_publ_section_title
;
Structure prediction by ZEFSAII (Michael W. Deem and Ramdas Pophale) SiO2 
 PCOD9067452
Probable space group: P -1
;
_chemical_formula_sum "Si O2"
_cell_formula_units_Z 14
_cell_length_a 8.398610
_cell_length_b 25.058779
_cell_length_c 5.256795
_cell_angle_alpha 114.589766
_cell_angle_beta 62.788151
_cell_angle_gamma 144.191526
_cell_volume 573.469845
_symmetry_space_group_name_H-M "P -1"
_symmetry_group_IT_number 2
_symmetry_cell_setting 'triclinic'
loop_
_space_group_symop_operation_xyz
x,y,z
-x,-y,-z
loop_
_atom_site_type_symbol
_atom_site_label
_atom_site_fract_x
_atom_site_fract_y
_atom_site_fract_z
Si Si1 0.864312 0.265671 0.859831
Si Si2 0.248424 0.200298 0.771993
Si Si3 0.782336 0.476248 0.302677
Si Si4 0.334945 0.977539 0.326043
Si Si5 0.777254 0.357991 0.363351
Si Si6 0.800248 0.683357 0.782752
Si Si7 0.728717 0.916892 0.196413
O O1 0.562194 0.159217 0.895784
O O2 0.996524 0.281514 0.526998
O O3 0.825464 0.326023 0.032760
O O4 0.062776 0.298434 0.013079
O O5 0.522508 0.269743 0.537851
O O6 0.238345 0.138783 0.819367
O O7 0.968571 0.128497 0.666054
O O8 0.248295 0.258747 0.056489
O O9 0.707479 0.406145 0.420320
O O10 0.500843 0.421704 0.255130
O O11 0.946085 0.567112 0.517331
O O12 0.000000 0.500000 0.000000
O O13 0.500000 0.000000 0.500000
O O14 0.300977 0.039199 0.487455
O O15 0.500000 0.000000 0.000000
O O16 0.000000 0.000000 0.000000
#
# Coordination Sequence:
#
# PCOD9067452 Si02
#       7
#     2   2   2   2   2   2   2
#     4  12  28  48  74 114 154 193 250 313 382 436
#     4  12  25  50  78 106 148 205 254 300 373 452
#     4  11  25  49  78 108 148 195 256 298 374 456
#     4  12  27  48  75 111 154 194 248 318 377 437
#     4  11  26  48  77 108 148 198 251 306 366 457
#     4  12  27  48  76 111 153 196 243 318 378 441
#     4  12  27  50  77 111 150 202 257 305 365 452
#
# _framework density 24.412794000000002
#
# number of rings (size 3 to 8) (size 9 to 14) (size 15 to 20)
#    0.000    0.286    1.429    6.429    4.000    5.714 
#    0.000    0.000    0.000    0.000    0.000    0.000 
#    0.000    0.000    0.000    0.000    0.000    0.000 
#
# Total GULP energy -78623.323581 kJ/mol
# GULP energy per Si atom -5615.951684 kJ/mol
# Density = 2.435723 g / cm^3
# Si number density = 24.412794 Si / 1000 Ang^3
#
#
#
# Elastic Constant Matrix: (Units=GPa)
#
#
# Indices 1 2 3 4 5 6 
#
# 1 79.0408 25.6869 14.4357 -8.3192 11.0841 14.5680
# 2 25.6869 128.7147 10.7330 7.4847 10.5071 33.8752
# 3 14.4357 10.7330 125.2127 10.4741 -17.6830 -4.0242
# 4 -8.3192 7.4847 10.4741 46.7516 -3.3314 11.2982
# 5 11.0841 10.5071 -17.6830 -3.3314 47.5892 12.4640
# 6 14.5680 33.8752 -4.0242 11.2982 12.4640 54.7570
#
#
#
# Elastic Compliance Matrix: (Units=1/GPa)
#
#
# Indices 1 2 3 4 5 6 
#
# 1 0.015166 -0.001993 -0.002431 0.004126 -0.002875 -0.003178
# 2 -0.001993 0.009708 -0.000821 -0.000492 -0.000633 -0.005290
# 3 -0.002431 -0.000821 0.009093 -0.002452 0.003557 0.001519
# 4 0.004126 -0.000492 -0.002452 0.024408 0.001616 -0.006378
# 5 -0.002875 -0.000633 0.003557 0.001616 0.024430 -0.004476
# 6 -0.003178 -0.005290 0.001519 -0.006378 -0.004476 0.024827
#
#
# Mechanical properties :
#
#
# Convention : Reuss Voigt Hill
#
# Bulk Modulus (GPa) = 42.59224 48.29773 45.44499
# Shear Modulus (GPa) = 39.69912 48.62708 44.16310
#
# Velocity S-wave (km/s) = 4.03694 4.46788 4.25787
# Velocity P-wave (km/s) = 6.26209 6.81488 6.54433
#
# Compressibility (1/GPa) = 0.02347846
#
# Stress axis : x y z
#
# Youngs Moduli (GPa) = 65.93559 103.00966 109.97183
#
# Poissons Ratio (x) = 0.20529 0.26733
# Poissons Ratio (y) = 0.13140 0.09025
# Poissons Ratio (z) = 0.16028 0.08454
#
# Static dielectric constant tensor:
#      x y z
#    x 2.000650 0.012450 0.009410 
#    y 0.012450 1.908460 0.027390 
#    z 0.009410 0.027390 1.890730 
# 
# From -- ./inp_files/56522.got.cif
#   From: 2010.05.17/outbox.cif.g08.bks.cpg/sg2_29_cif.got.tgz:56522.got - 2010.06.03 11:33:40.
