data_PCOD9067243
_publ_section_title
;
Structure prediction by ZEFSAII (Michael W. Deem and Ramdas Pophale) SiO2 
 PCOD9067243
Probable space group: P -1
;
_chemical_formula_sum "Si O2"
_cell_formula_units_Z 16
_cell_length_a 17.086956
_cell_length_b 11.666481
_cell_length_c 8.387156
_cell_angle_alpha 100.051527
_cell_angle_beta 140.677178
_cell_angle_gamma 53.197823
_cell_volume 697.417753
_symmetry_space_group_name_H-M "P -1"
_symmetry_group_IT_number 2
_symmetry_cell_setting 'triclinic'
loop_
_space_group_symop_operation_xyz
x,y,z
-x,-y,-z
loop_
_atom_site_type_symbol
_atom_site_label
_atom_site_fract_x
_atom_site_fract_y
_atom_site_fract_z
Si Si1 0.185822 0.946705 0.291318
Si Si2 0.007766 0.277823 0.281093
Si Si3 0.803566 0.039558 0.053531
Si Si4 0.265350 0.254890 0.895834
Si Si5 0.817081 0.275897 0.272680
Si Si6 0.156250 0.411654 0.091918
Si Si7 0.492140 0.887213 0.216112
Si Si8 0.444295 0.335504 0.025666
O O1 0.358300 0.770621 0.613609
O O2 0.133359 0.100604 0.338277
O O3 0.244273 0.930849 0.199040
O O4 0.000000 0.000000 0.000000
O O5 0.135756 0.285966 0.567465
O O6 0.909604 0.272723 0.263477
O O7 0.872642 0.437650 0.983526
O O8 0.742962 0.205011 0.074392
O O9 0.699472 0.014973 0.981760
O O10 0.021644 0.869143 0.384081
O O11 0.158167 0.333771 0.914510
O O12 0.323098 0.344882 0.962072
O O13 0.453876 0.047250 0.149467
O O14 0.668191 0.470693 0.150593
O O15 0.347093 0.247909 0.438200
O O16 0.000000 0.500000 0.000000
O O17 0.527645 0.776081 0.098985
#
# Coordination Sequence:
#
# PCOD9067243 Si02
#       8
#     2   2   2   2   2   2   2   2
#     4  12  27  48  74 105 144 194 244 299 365 433
#     4  12  25  47  73 106 148 193 242 297 371 431
#     4  11  26  48  74 104 147 190 244 305 362 429
#     4  12  25  50  73 102 154 193 238 301 370 436
#     4  11  25  48  75 105 144 193 243 302 364 427
#     4  12  29  43  72 114 145 191 244 298 363 437
#     4  12  27  46  72 108 150 194 241 301 366 432
#     4  12  27  47  75 110 143 197 246 298 364 440
#
# _framework density 22.941773999999999
#
# number of rings (size 3 to 8) (size 9 to 14) (size 15 to 20)
#    0.000    0.250    5.000    2.625    8.750    2.000 
#    0.000    0.000    0.000    0.000    0.000    0.000 
#    0.000    0.000    0.000    0.000    0.000    0.000 
#
# Total GULP energy -89628.229378 kJ/mol
# GULP energy per Si atom -5601.764336 kJ/mol
# Density = 2.288956 g / cm^3
# Si number density = 22.941774 Si / 1000 Ang^3
#
#
#
# Elastic Constant Matrix: (Units=GPa)
#
#
# Indices 1 2 3 4 5 6 
#
# 1 46.7103 10.1229 -6.2206 8.8110 1.7135 -4.1534
# 2 10.1229 131.3239 42.2364 -16.8798 -7.3077 -11.3847
# 3 -6.2206 42.2364 78.1179 0.8962 -18.3979 4.2585
# 4 8.8110 -16.8798 0.8962 37.6899 9.1707 -7.2536
# 5 1.7135 -7.3077 -18.3979 9.1707 33.7848 1.2492
# 6 -4.1534 -11.3847 4.2585 -7.2536 1.2492 43.0553
#
#
#
# Elastic Compliance Matrix: (Units=1/GPa)
#
#
# Indices 1 2 3 4 5 6 
#
# 1 0.024628 -0.004695 0.005396 -0.008944 0.003138 -0.000997
# 2 -0.004695 0.011924 -0.008178 0.008624 -0.004165 0.005083
# 3 0.005396 -0.008178 0.020926 -0.009462 0.012131 -0.005658
# 4 -0.008944 0.008624 -0.009462 0.037725 -0.013410 0.009098
# 5 0.003138 -0.004165 0.012131 -0.013410 0.038984 -0.005389
# 6 -0.000997 0.005083 -0.005658 0.009098 -0.005389 0.026722
#
#
# Mechanical properties :
#
#
# Convention : Reuss Voigt Hill
#
# Bulk Modulus (GPa) = 23.51609 38.71437 31.11523
# Shear Modulus (GPa) = 26.31032 36.90690 31.60861
#
# Velocity S-wave (km/s) = 3.39016 4.01524 3.71587
# Velocity P-wave (km/s) = 5.05933 6.19741 5.65706
#
# Compressibility (1/GPa) = 0.04252407
#
# Stress axis : x y z
#
# Youngs Moduli (GPa) = 40.60411 83.86268 47.78644
#
# Poissons Ratio (x) = 0.39376 -0.25785
# Poissons Ratio (y) = 0.19065 0.39080
# Poissons Ratio (z) = -0.21910 0.68583
#
# Static dielectric constant tensor:
#      x y z
#    x 1.854000 -0.012780 0.019210 
#    y -0.012780 1.822290 -0.021450 
#    z 0.019210 -0.021450 1.866840 
# 
# From -- ./inp_files/333453.got.cif
#   From: 2010.05.17/outbox.cif.g08.bks.cpg/sg2_167_cif.got.tgz:333453.got - 2010.06.03 11:33:40.
