data_PCOD9067687
_publ_section_title
;
Structure prediction by ZEFSAII (Michael W. Deem and Ramdas Pophale) SiO2 
 PCOD9067687
Probable space group: P -1
;
_chemical_formula_sum "Si O2"
_cell_formula_units_Z 14
_cell_length_a 9.365281
_cell_length_b 11.254215
_cell_length_c 9.168860
_cell_angle_alpha 50.288009
_cell_angle_beta 125.071368
_cell_angle_gamma 124.623869
_cell_volume 576.574205
_symmetry_space_group_name_H-M "P -1"
_symmetry_group_IT_number 2
_symmetry_cell_setting 'triclinic'
loop_
_space_group_symop_operation_xyz
x,y,z
-x,-y,-z
loop_
_atom_site_type_symbol
_atom_site_label
_atom_site_fract_x
_atom_site_fract_y
_atom_site_fract_z
Si Si1 0.682258 0.508700 0.005604
Si Si2 0.851114 0.873024 0.148545
Si Si3 0.918489 0.825522 0.743361
Si Si4 0.792453 0.207964 0.297799
Si Si5 0.226030 0.896434 0.307376
Si Si6 0.559221 0.889560 0.345979
Si Si7 0.512218 0.641835 0.282573
O O1 0.823330 0.685473 0.914433
O O2 0.617558 0.436684 0.864079
O O3 0.500000 0.500000 0.000000
O O4 0.780190 0.378477 0.214751
O O5 0.757822 0.942977 0.907085
O O6 0.990167 0.191356 0.774508
O O7 0.378865 0.916250 0.791424
O O8 0.712008 0.725845 0.266250
O O9 0.037920 0.776866 0.723338
O O10 0.054737 0.978573 0.796616
O O11 0.770323 0.102758 0.516725
O O12 0.743934 0.849912 0.533773
O O13 0.393473 0.837279 0.404800
O O14 0.475184 0.786655 0.236070
O O15 0.500000 0.500000 0.500000
#
# Coordination Sequence:
#
# PCOD9067687 Si02
#       7
#     2   2   2   2   2   2   2
#     4  12  30  49  76 116 161 204 254 326 391 462
#     4  11  26  49  75 116 151 205 259 321 385 456
#     4  12  25  50  77 113 157 204 259 320 385 468
#     4  12  25  47  78 113 155 204 264 313 389 457
#     4  11  26  43  77 112 154 199 259 317 375 459
#     4  12  24  46  80 113 147 205 258 309 391 459
#     4  12  27  50  78 109 160 202 253 322 392 457
#
# _framework density 24.281351000000001
#
# number of rings (size 3 to 8) (size 9 to 14) (size 15 to 20)
#    0.000    0.286    4.286    3.857    8.000    1.143 
#    0.000    1.429    0.000    0.000    0.000    0.000 
#    0.000    0.000    0.000    0.000    0.000    0.000 
#
# Total GULP energy -78139.416465 kJ/mol
# GULP energy per Si atom -5581.386890 kJ/mol
# Density = 2.422609 g / cm^3
# Si number density = 24.281351 Si / 1000 Ang^3
#
#
#
# Elastic Constant Matrix: (Units=GPa)
#
#
# Indices 1 2 3 4 5 6 
#
# 1 172.4221 11.0925 29.7883 -7.0578 -36.0322 -10.4305
# 2 11.0925 93.0017 29.8204 6.1418 -2.3158 14.3455
# 3 29.7883 29.8204 124.9101 7.1473 -24.2677 5.6769
# 4 -7.0578 6.1418 7.1473 35.5025 7.3151 -14.7138
# 5 -36.0322 -2.3158 -24.2677 7.3151 39.2360 -7.0204
# 6 -10.4305 14.3455 5.6769 -14.7138 -7.0204 33.0918
#
#
#
# Elastic Compliance Matrix: (Units=1/GPa)
#
#
# Indices 1 2 3 4 5 6 
#
# 1 0.008107 -0.001817 -0.000494 0.003124 0.007600 0.006429
# 2 -0.001817 0.013477 -0.002696 -0.005201 -0.003171 -0.008938
# 3 -0.000494 -0.002696 0.010194 -0.003329 0.006150 -0.000911
# 4 0.003124 -0.005201 -0.003329 0.039611 -0.003169 0.020750
# 5 0.007600 -0.003171 0.006150 -0.003169 0.038364 0.009445
# 6 0.006429 -0.008938 -0.000911 0.020750 0.009445 0.047506
#
#
# Mechanical properties :
#
#
# Convention : Reuss Voigt Hill
#
# Bulk Modulus (GPa) = 45.94963 59.08182 52.51572
# Shear Modulus (GPa) = 28.64867 42.87492 35.76180
#
# Velocity S-wave (km/s) = 3.43864 4.20665 3.84188
# Velocity P-wave (km/s) = 5.89327 6.92672 6.43079
#
# Compressibility (1/GPa) = 0.02176296
#
# Stress axis : x y z
#
# Youngs Moduli (GPa) = 123.34922 74.20077 98.09793
#
# Poissons Ratio (x) = 0.13485 0.04845
# Poissons Ratio (y) = 0.22417 0.26450
# Poissons Ratio (z) = 0.06092 0.20006
#
# Static dielectric constant tensor:
#      x y z
#    x 1.973960 -0.037840 0.080660 
#    y -0.037840 2.119560 -0.002120 
#    z 0.080660 -0.002120 2.089990 
# 
# From -- ./inp_files/174322.got.cif
#   From: 2010.05.17/outbox.cif.g08.bks.cpg/sg2_88_cif.got.tgz:174322.got - 2010.06.03 11:33:40.
