data_PCOD9067484
_publ_section_title
;
Structure prediction by ZEFSAII (Michael W. Deem and Ramdas Pophale) SiO2 
 PCOD9067484
Probable space group: P -1
;
_chemical_formula_sum "Si O2"
_cell_formula_units_Z 14
_cell_length_a 5.442636
_cell_length_b 9.541636
_cell_length_c 11.647950
_cell_angle_alpha 121.942196
_cell_angle_beta 79.822394
_cell_angle_gamma 95.636799
_cell_volume 505.220006
_symmetry_space_group_name_H-M "P -1"
_symmetry_group_IT_number 2
_symmetry_cell_setting 'triclinic'
loop_
_space_group_symop_operation_xyz
x,y,z
-x,-y,-z
loop_
_atom_site_type_symbol
_atom_site_label
_atom_site_fract_x
_atom_site_fract_y
_atom_site_fract_z
Si Si1 0.972084 0.886186 0.189830
Si Si2 0.418137 0.263308 0.663631
Si Si3 0.327816 0.934607 0.883499
Si Si4 0.000000 0.500000 0.500000
Si Si5 0.702379 0.846881 0.615004
Si Si6 0.500000 0.500000 0.500000
Si Si7 0.725496 0.395253 0.882705
Si Si8 0.104297 0.576138 0.782482
O O1 0.192249 0.752509 0.106254
O O2 0.766802 0.793826 0.244254
O O3 0.057901 0.046162 0.324686
O O4 0.878120 0.942827 0.098079
O O5 0.669244 0.293286 0.725405
O O6 0.336714 0.447314 0.706859
O O7 0.625090 0.853839 0.492000
O O8 0.504723 0.913455 0.749554
O O9 0.216943 0.756713 0.845220
O O10 0.500000 0.000000 0.000000
O O11 0.276645 0.620182 0.535993
O O12 0.958037 0.538668 0.662051
O O13 0.730557 0.649626 0.553588
O O14 0.935632 0.524939 0.881976
O O15 0.500000 0.500000 0.000000
#
# Coordination Sequence:
#
# PCOD9067484 Si02
#       8
#     2   2   2   1   2   1   2   2
#     4  11  28  50  81 119 164 218 286 359 433 523
#     4  11  25  49  82 121 157 224 284 352 426 512
#     4  12  29  51  79 120 175 221 276 356 445 521
#     4  12  22  46  80 126 166 214 288 356 436 504
#     4  12  24  47  79 119 169 218 282 350 433 518
#     4  12  24  42  80 120 172 222 280 356 426 522
#     4  11  28  55  84 116 165 223 290 354 438 527
#     4  11  26  47  86 120 163 219 290 355 430 526
#
# _framework density 27.710701
#
# number of rings (size 3 to 8) (size 9 to 14) (size 15 to 20)
#    0.000    0.571    2.857    3.000    0.000   10.857 
#    0.000    4.286    0.000    0.000    0.000    0.000 
#    0.000    0.000    0.000    0.000    0.000    0.000 
#
# Total GULP energy -78205.506281 kJ/mol
# GULP energy per Si atom -5586.107591 kJ/mol
# Density = 2.764763 g / cm^3
# Si number density = 27.710701 Si / 1000 Ang^3
#
#
#
# Elastic Constant Matrix: (Units=GPa)
#
#
# Indices 1 2 3 4 5 6 
#
# 1 129.4976 71.2565 64.0790 8.4760 23.5282 -5.3546
# 2 71.2565 198.2979 75.8181 7.8923 26.5744 -31.3886
# 3 64.0790 75.8181 197.1143 -12.9496 37.3315 -15.0035
# 4 8.4760 7.8923 -12.9496 51.6085 2.3870 13.7738
# 5 23.5282 26.5744 37.3315 2.3870 67.4172 -8.1108
# 6 -5.3546 -31.3886 -15.0035 13.7738 -8.1108 50.4691
#
#
#
# Elastic Compliance Matrix: (Units=1/GPa)
#
#
# Indices 1 2 3 4 5 6 
#
# 1 0.010781 -0.002931 -0.002297 -0.001519 -0.001423 -0.001176
# 2 -0.002931 0.007600 -0.001702 -0.002281 -0.000412 0.004466
# 3 -0.002297 -0.001702 0.007115 0.002629 -0.002599 -0.000323
# 4 -0.001519 -0.002281 0.002629 0.022649 -0.001701 -0.007253
# 5 -0.001423 -0.000412 -0.002599 -0.001701 0.017239 0.002055
# 6 -0.001176 0.004466 -0.000323 -0.007253 0.002055 0.024681
#
#
# Mechanical properties :
#
#
# Convention : Reuss Voigt Hill
#
# Bulk Modulus (GPa) = 85.94485 105.24634 95.59559
# Shear Modulus (GPa) = 46.38081 54.81601 50.59841
#
# Velocity S-wave (km/s) = 4.09559 4.45247 4.27775
# Velocity P-wave (km/s) = 7.31078 8.03091 7.67929
#
# Compressibility (1/GPa) = 0.01163537
#
# Stress axis : x y z
#
# Youngs Moduli (GPa) = 92.75724 131.58227 140.54347
#
# Poissons Ratio (x) = 0.38562 0.32287
# Poissons Ratio (y) = 0.27184 0.23925
# Poissons Ratio (z) = 0.21309 0.22400
#
# Static dielectric constant tensor:
#      x y z
#    x 2.588480 -0.195250 0.146720 
#    y -0.195250 1.518430 0.893620 
#    z 0.146720 0.893620 1.023340 
# 
# From -- ./inp_files/479415.got.cif
#   From: 2010.05.17/outbox.cif.g08.bks.cpg/sg2_240_cif.got.tgz:479415.got - 2010.06.03 11:33:40.
