data_PCOD9067790
_publ_section_title
;
Structure prediction by ZEFSAII (Michael W. Deem and Ramdas Pophale) SiO2 
 PCOD9067790
Probable space group: P -1
;
_chemical_formula_sum "Si O2"
_cell_formula_units_Z 16
_cell_length_a 19.227391
_cell_length_b 7.864206
_cell_length_c 22.026926
_cell_angle_alpha 132.954488
_cell_angle_beta 21.824180
_cell_angle_gamma 145.317720
_cell_volume 649.527728
_symmetry_space_group_name_H-M "P -1"
_symmetry_group_IT_number 2
_symmetry_cell_setting 'triclinic'
loop_
_space_group_symop_operation_xyz
x,y,z
-x,-y,-z
loop_
_atom_site_type_symbol
_atom_site_label
_atom_site_fract_x
_atom_site_fract_y
_atom_site_fract_z
Si Si1 0.541581 0.009437 0.145185
Si Si2 0.701788 0.361731 0.379295
Si Si3 0.281209 0.898494 0.511602
Si Si4 0.391862 0.518465 0.709398
Si Si5 0.019448 0.731261 0.473575
Si Si6 0.204037 0.652296 0.102068
Si Si7 0.030049 0.948739 0.156830
Si Si8 0.307522 0.152193 0.228944
O O1 0.229759 0.751987 0.341706
O O2 0.640976 0.341716 0.172857
O O3 0.627226 0.076697 0.022092
O O4 0.687065 0.922420 0.038123
O O5 0.560352 0.427731 0.553658
O O6 0.866688 0.654107 0.267505
O O7 0.913285 0.384766 0.246907
O O8 0.479919 0.043208 0.441935
O O9 0.172681 0.579278 0.489192
O O10 0.444580 0.183561 0.398561
O O11 0.039290 0.849913 0.717569
O O12 0.116564 0.222285 0.829365
O O13 0.847020 0.770856 0.657432
O O14 0.211336 0.046896 0.350585
O O15 0.215286 0.839950 0.193948
O O16 0.378553 0.579789 0.959051
#
# Coordination Sequence:
#
# PCOD9067790 Si02
#       8
#     2   2   2   2   2   2   2   2
#     4  10  18  28  49  74  95 125 157 185 222 280
#     4   8  15  30  52  71  92 124 154 183 230 282
#     4   9  18  32  47  69 102 127 146 185 231 276
#     4   9  16  29  49  74  99 123 151 182 223 279
#     4  10  20  33  49  69  92 122 160 194 234 273
#     4   9  17  33  54  69  87 119 160 198 236 272
#     4   8  16  30  48  71  98 124 152 185 224 274
#     4   9  19  35  52  67  87 119 160 206 236 265
#
# _framework density 24.633281
#
# number of rings (size 3 to 8) (size 9 to 14) (size 15 to 20)
#    0.000    3.000    0.000    2.625    0.000    1.000 
#    0.000    5.000    0.000    0.000    0.000    0.000 
#    0.000    0.000    0.000    0.000    0.000    0.000 
#
# Total GULP energy -89430.101699 kJ/mol
# GULP energy per Si atom -5589.381356 kJ/mol
# Density = 2.457721 g / cm^3
# Si number density = 24.633281 Si / 1000 Ang^3
#
#
#
# Elastic Constant Matrix: (Units=GPa)
#
#
# Indices 1 2 3 4 5 6 
#
# 1 67.0892 20.9024 49.5157 7.0453 -28.3265 2.5034
# 2 20.9024 66.3623 33.7658 11.2164 -16.6002 2.8606
# 3 49.5157 33.7658 165.7394 5.8256 -57.1929 4.0141
# 4 7.0453 11.2164 5.8256 31.9902 -4.0247 6.1738
# 5 -28.3265 -16.6002 -57.1929 -4.0247 57.2490 -1.0101
# 6 2.5034 2.8606 4.0141 6.1738 -1.0101 31.8646
#
#
#
# Elastic Compliance Matrix: (Units=1/GPa)
#
#
# Indices 1 2 3 4 5 6 
#
# 1 0.021227 -0.002996 -0.003628 -0.002162 0.005852 -0.000337
# 2 -0.002996 0.018338 -0.002227 -0.005191 0.001243 -0.000085
# 3 -0.003628 -0.002227 0.010275 0.000838 0.007870 -0.000722
# 4 -0.002162 -0.005191 0.000838 0.034668 0.000591 -0.006168
# 5 0.005852 0.001243 0.007870 0.000591 0.028614 -0.000770
# 6 -0.000337 -0.000085 -0.000722 -0.006168 -0.000770 0.032679
#
#
# Mechanical properties :
#
#
# Convention : Reuss Voigt Hill
#
# Bulk Modulus (GPa) = 31.11619 56.39539 43.75579
# Shear Modulus (GPa) = 28.70010 37.22126 32.96068
#
# Velocity S-wave (km/s) = 3.41705 3.89139 3.66191
# Velocity P-wave (km/s) = 5.31296 6.56767 5.97335
#
# Compressibility (1/GPa) = 0.03213761
#
# Stress axis : x y z
#
# Youngs Moduli (GPa) = 47.10977 54.53195 97.32347
#
# Poissons Ratio (x) = 0.16339 0.35306
# Poissons Ratio (y) = 0.14115 0.21676
# Poissons Ratio (z) = 0.17090 0.12145
#
# Static dielectric constant tensor:
#      x y z
#    x 1.981680 -0.027150 -0.018850 
#    y -0.027150 1.895960 -0.020990 
#    z -0.018850 -0.020990 1.993640 
# 
# From -- ./inp_files/170722.got.cif
#   From: 2010.05.17/outbox.cif.g08.bks.cpg/sg2_86_cif.got.tgz:170722.got - 2010.06.03 11:33:40.
