data_PCOD9067657
_publ_section_title
;
Structure prediction by ZEFSAII (Michael W. Deem and Ramdas Pophale) SiO2 
 PCOD9067657
Probable space group: P -1
;
_chemical_formula_sum "Si O2"
_cell_formula_units_Z 14
_cell_length_a 9.816758
_cell_length_b 16.342303
_cell_length_c 18.061964
_cell_angle_alpha 21.113760
_cell_angle_beta 140.055490
_cell_angle_gamma 139.617791
_cell_volume 656.454029
_symmetry_space_group_name_H-M "P -1"
_symmetry_group_IT_number 2
_symmetry_cell_setting 'triclinic'
loop_
_space_group_symop_operation_xyz
x,y,z
-x,-y,-z
loop_
_atom_site_type_symbol
_atom_site_label
_atom_site_fract_x
_atom_site_fract_y
_atom_site_fract_z
Si Si1 0.474313 0.048119 0.756474
Si Si2 0.545070 0.217870 0.478650
Si Si3 0.236027 0.551157 0.021279
Si Si4 0.317296 0.228755 0.676911
Si Si5 0.912250 0.432355 0.348617
Si Si6 0.631306 0.296594 0.210900
Si Si7 0.774128 0.180026 0.901529
O O1 0.530530 0.189366 0.585120
O O2 0.309880 0.155231 0.649713
O O3 0.678221 0.061375 0.885023
O O4 0.375379 0.783618 0.919442
O O5 0.355948 0.339724 0.265711
O O6 0.765170 0.379429 0.403834
O O7 0.511896 0.955466 0.654740
O O8 0.229441 0.613080 0.879800
O O9 0.000000 0.500000 0.000000
O O10 0.575490 0.312107 0.729641
O O11 0.150610 0.383429 0.500923
O O12 0.238500 0.998993 0.886524
O O13 0.779019 0.277875 0.359220
O O14 0.983878 0.685736 0.127943
O O15 0.500000 0.500000 0.000000
#
# Coordination Sequence:
#
# PCOD9067657 Si02
#       7
#     2   2   2   2   2   2   2
#     4   9  23  43  62  92 135 161 214 266 316 383
#     4  11  26  42  62  98 130 168 214 266 324 383
#     4  11  26  40  66  94 130 174 210 265 327 374
#     4   9  22  41  66  96 127 165 216 264 314 377
#     4  12  24  38  71  94 126 169 222 259 325 378
#     4  11  26  44  65  93 132 166 217 268 319 387
#     4   9  22  41  67  96 126 169 216 264 316 380
#
# _framework density 21.326702999999998
#
# number of rings (size 3 to 8) (size 9 to 14) (size 15 to 20)
#    0.857    0.857    1.429    0.857    8.000    2.857 
#    0.000    1.429    0.000    0.000    0.000    0.000 
#    0.000    0.000    0.000    0.000    0.000    0.000 
#
# Total GULP energy -78066.548892 kJ/mol
# GULP energy per Si atom -5576.182064 kJ/mol
# Density = 2.127816 g / cm^3
# Si number density = 21.326703 Si / 1000 Ang^3
#
#
#
# Elastic Constant Matrix: (Units=GPa)
#
#
# Indices 1 2 3 4 5 6 
#
# 1 164.1428 35.7234 55.6130 -0.2150 -47.8905 15.3030
# 2 35.7234 42.6540 4.3821 -1.3500 -20.0735 -6.6014
# 3 55.6130 4.3821 75.8064 -2.0812 -5.9989 8.6959
# 4 -0.2150 -1.3500 -2.0812 17.6775 0.0743 -3.5591
# 5 -47.8905 -20.0735 -5.9989 0.0743 33.2489 4.0250
# 6 15.3030 -6.6014 8.6959 -3.5591 4.0250 37.3703
#
#
#
# Elastic Compliance Matrix: (Units=1/GPa)
#
#
# Indices 1 2 3 4 5 6 
#
# 1 0.017721 -0.004985 -0.010114 -0.003143 0.021717 -0.008422
# 2 -0.004985 0.034899 0.002052 0.004133 0.013441 0.006675
# 3 -0.010114 0.002052 0.019634 0.002640 -0.009945 0.001258
# 4 -0.003143 0.004133 0.002640 0.058631 -0.002565 0.007263
# 5 0.021717 0.013441 -0.009945 -0.002565 0.069123 -0.011894
# 6 -0.008422 0.006675 0.001258 0.007263 -0.011894 0.033067
#
#
# Mechanical properties :
#
#
# Convention : Reuss Voigt Hill
#
# Bulk Modulus (GPa) = 21.66474 52.67114 37.16794
# Shear Modulus (GPa) = 18.21121 30.11831 24.16476
#
# Velocity S-wave (km/s) = 2.92535 3.76205 3.36977
# Velocity P-wave (km/s) = 4.64659 6.60466 5.71018
#
# Compressibility (1/GPa) = 0.04615795
#
# Stress axis : x y z
#
# Youngs Moduli (GPa) = 56.42952 28.65438 50.93222
#
# Poissons Ratio (x) = 0.14286 0.51513
# Poissons Ratio (y) = 0.28133 -0.10449
# Poissons Ratio (z) = 0.57073 -0.05879
#
# Static dielectric constant tensor:
#      x y z
#    x 1.767050 0.009340 -0.025520 
#    y 0.009340 1.772590 -0.023130 
#    z -0.025520 -0.023130 1.893460 
# 
# From -- ./inp_files/500058.got.cif
#   From: 2010.05.17/outbox.cif.g08.bks.cpg/sg2_251_cif.got.tgz:500058.got - 2010.06.03 11:33:40.
