data_PCOD9067062
_publ_section_title
;
Structure prediction by ZEFSAII (Michael W. Deem and Ramdas Pophale) SiO2 
 PCOD9067062
Probable space group: P -1
;
_chemical_formula_sum "Si O2"
_cell_formula_units_Z 13
_cell_length_a 11.736050
_cell_length_b 11.529153
_cell_length_c 5.428021
_cell_angle_alpha 66.275538
_cell_angle_beta 96.735847
_cell_angle_gamma 129.948249
_cell_volume 504.946568
_symmetry_space_group_name_H-M "P -1"
_symmetry_group_IT_number 2
_symmetry_cell_setting 'triclinic'
loop_
_space_group_symop_operation_xyz
x,y,z
-x,-y,-z
loop_
_atom_site_type_symbol
_atom_site_label
_atom_site_fract_x
_atom_site_fract_y
_atom_site_fract_z
Si Si1 0.870957 0.658619 0.595607
Si Si2 0.709019 0.739730 0.757890
Si Si3 0.605713 0.434318 0.343857
Si Si4 0.114107 0.966640 0.093344
Si Si5 0.344513 0.818283 0.548968
Si Si6 0.812940 0.212531 0.960769
Si Si7 0.000000 0.500000 0.000000
O O1 0.850496 0.778845 0.624337
O O2 0.711310 0.520638 0.535475
O O3 0.012217 0.785075 0.346525
O O4 0.910867 0.570218 0.846953
O O5 0.575475 0.678647 0.586911
O O6 0.754655 0.887995 0.819412
O O7 0.656286 0.585184 0.050303
O O8 0.631489 0.314284 0.341787
O O9 0.174914 0.930760 0.907190
O O10 0.000000 0.000000 0.000000
O O11 0.297090 0.832064 0.253647
O O12 0.500000 0.000000 0.500000
O O13 0.226058 0.764047 0.788478
O O14 0.957557 0.405745 0.802138
#
# Coordination Sequence:
#
# PCOD9067062 Si02
#       7
#     2   2   2   2   2   2   1
#     4  12  25  48  77 111 153 207 260 328 393 474
#     4  11  25  48  74 113 153 203 261 321 400 475
#     4  11  25  47  77 109 154 204 261 325 395 473
#     4  12  26  46  75 112 152 201 260 324 396 469
#     4  12  27  51  77 113 154 206 264 325 395 475
#     4  12  28  48  76 113 154 204 260 329 394 469
#     4  12  26  46  78 108 156 202 266 316 396 460
#
# _framework density 25.7453
#
# number of rings (size 3 to 8) (size 9 to 14) (size 15 to 20)
#    0.000    0.308    3.077    5.077    2.154    3.692 
#    2.769    0.000    0.000    0.000    0.000    0.000 
#    0.000    0.000    0.000    0.000    0.000    0.000 
#
# Total GULP energy -72606.880344 kJ/mol
# GULP energy per Si atom -5585.144642 kJ/mol
# Density = 2.568670 g / cm^3
# Si number density = 25.745300 Si / 1000 Ang^3
#
#
#
# Elastic Constant Matrix: (Units=GPa)
#
#
# Indices 1 2 3 4 5 6 
#
# 1 123.4374 49.1628 42.7386 5.4494 33.1543 -31.6068
# 2 49.1628 178.4690 9.5480 26.3388 14.0775 -24.8779
# 3 42.7386 9.5480 29.6949 20.9606 -13.1162 25.9842
# 4 5.4494 26.3388 20.9606 38.1761 17.0779 7.8493
# 5 33.1543 14.0775 -13.1162 17.0779 17.1081 25.2168
# 6 -31.6068 -24.8779 25.9842 7.8493 25.2168 54.4325
#
#
#
# Elastic Compliance Matrix: (Units=1/GPa)
#
#
# Indices 1 2 3 4 5 6 
#
# 1 0.004137 -0.001870 0.005082 -0.004893 0.008062 -0.003907
# 2 -0.001870 0.007419 0.000834 -0.005461 -0.001143 0.003224
# 3 0.005082 0.000834 0.007173 0.002211 -0.020919 0.009280
# 4 -0.004893 -0.005461 0.002211 0.029575 0.005858 -0.013372
# 5 0.008062 -0.001143 -0.020919 0.005858 0.007189 0.009970
# 6 -0.003907 0.003224 0.009280 -0.013372 0.009970 0.010456
#
#
# Mechanical properties :
#
#
# Convention : Reuss Voigt Hill
#
# Bulk Modulus (GPa) = 37.28508 59.38889 48.33699
# Shear Modulus (GPa) = 74.85189 37.28679 56.06934
#
# Velocity S-wave (km/s) = 5.39788 3.80978 4.67180
# Velocity P-wave (km/s) = 7.30501 6.51694 6.92220
#
# Compressibility (1/GPa) = 0.02682038
#
# Stress axis : x y z
#
# Youngs Moduli (GPa) = 241.73495 134.78321 139.40536
#
# Poissons Ratio (x) = 0.25202 -0.70839
# Poissons Ratio (y) = 0.45200 -0.11623
# Poissons Ratio (z) = -1.22838 -0.11238
#
# Static dielectric constant tensor:
#      x y z
#    x 2.097940 -0.061510 -0.077250 
#    y -0.061510 1.832320 0.130240 
#    z -0.077250 0.130240 1.959150 
# 
# From -- ./inp_files/65716.got.cif
#   From: 2010.05.17/outbox.cif.g08.bks.cpg/sg2_33_cif.got.tgz:65716.got - 2010.06.03 11:33:40.
