data_PCOD9067795
_publ_section_title
;
Structure prediction by ZEFSAII (Michael W. Deem and Ramdas Pophale) SiO2 
 PCOD9067795
Probable space group: P -1
;
_chemical_formula_sum "Si O2"
_cell_formula_units_Z 16
_cell_length_a 17.716912
_cell_length_b 9.369247
_cell_length_c 17.988468
_cell_angle_alpha 152.964925
_cell_angle_beta 147.169778
_cell_angle_gamma 42.639846
_cell_volume 734.828143
_symmetry_space_group_name_H-M "P -1"
_symmetry_group_IT_number 2
_symmetry_cell_setting 'triclinic'
loop_
_space_group_symop_operation_xyz
x,y,z
-x,-y,-z
loop_
_atom_site_type_symbol
_atom_site_label
_atom_site_fract_x
_atom_site_fract_y
_atom_site_fract_z
Si Si1 0.215308 0.315097 0.570178
Si Si2 0.710493 0.761363 0.798275
Si Si3 0.603206 0.059663 0.342035
Si Si4 0.608835 0.111816 0.203990
Si Si5 0.083323 0.993003 0.794406
Si Si6 0.894306 0.850513 0.283139
Si Si7 0.849804 0.128399 0.946875
Si Si8 0.632566 0.797506 0.508826
O O1 0.162526 0.665133 0.700694
O O2 0.314603 0.293181 0.570677
O O3 0.070722 0.098667 0.342822
O O4 0.309590 0.189189 0.656286
O O5 0.684158 0.401084 0.581745
O O6 0.556902 0.891222 0.744758
O O7 0.785054 0.984215 0.901664
O O8 0.813234 0.787358 0.967016
O O9 0.596373 0.960506 0.204246
O O10 0.596329 0.480086 0.376331
O O11 0.759069 0.050732 0.268249
O O12 0.500000 0.000000 0.000000
O O13 0.059873 0.133435 0.757631
O O14 0.857242 0.501116 0.118815
O O15 0.000000 0.000000 0.500000
O O16 0.756675 0.993057 0.740479
O O17 0.000000 0.000000 0.000000
O O18 0.500000 0.000000 0.500000
#
# Coordination Sequence:
#
# PCOD9067795 Si02
#       8
#     2   2   2   2   2   2   2   2
#     4  11  26  45  73 104 142 187 237 298 361 428
#     4  11  26  47  70 105 144 185 239 293 364 427
#     4  11  26  46  73 103 145 188 235 297 359 430
#     4  12  25  47  71 105 141 189 242 295 359 425
#     4  11  26  47  71 105 143 186 241 294 363 430
#     4  12  27  47  73 103 144 189 242 299 357 428
#     4  12  27  46  73 104 143 191 241 296 359 428
#     4  12  25  47  70 104 145 189 243 295 358 429
#
# _framework density 21.773800000000001
#
# number of rings (size 3 to 8) (size 9 to 14) (size 15 to 20)
#    0.000    0.500    2.500    4.500   10.500    1.000 
#    0.000    0.000    0.000    0.000    0.000    0.000 
#    0.000    0.000    0.000    0.000    0.000    0.000 
#
# Total GULP energy -89557.162483 kJ/mol
# GULP energy per Si atom -5597.322655 kJ/mol
# Density = 2.172424 g / cm^3
# Si number density = 21.773800 Si / 1000 Ang^3
#
#
#
# Elastic Constant Matrix: (Units=GPa)
#
#
# Indices 1 2 3 4 5 6 
#
# 1 91.3130 26.8082 12.2389 -16.4935 -2.4847 20.5224
# 2 26.8082 104.5171 35.3137 -20.1087 1.3462 10.7871
# 3 12.2389 35.3137 129.3053 -24.5326 -11.2154 18.3651
# 4 -16.4935 -20.1087 -24.5326 43.9002 3.0476 3.2322
# 5 -2.4847 1.3462 -11.2154 3.0476 30.5089 -7.6997
# 6 20.5224 10.7871 18.3651 3.2322 -7.6997 44.0443
#
#
#
# Elastic Compliance Matrix: (Units=1/GPa)
#
#
# Indices 1 2 3 4 5 6 
#
# 1 0.013989 -0.002227 0.001271 0.005505 -0.000615 -0.007015
# 2 -0.002227 0.011793 -0.002317 0.003544 -0.002298 -0.001546
# 3 0.001271 -0.002317 0.010020 0.005162 0.002320 -0.004176
# 4 0.005505 0.003544 0.005162 0.030170 -0.002921 -0.008310
# 5 -0.000615 -0.002298 0.002320 -0.002921 0.035567 0.006314
# 6 -0.007015 -0.001546 -0.004176 -0.008310 0.006314 0.029807
#
#
# Mechanical properties :
#
#
# Convention : Reuss Voigt Hill
#
# Bulk Modulus (GPa) = 34.18012 52.65078 43.41545
# Shear Modulus (GPa) = 33.86576 40.40898 37.13737
#
# Velocity S-wave (km/s) = 3.94806 4.31264 4.13437
# Velocity P-wave (km/s) = 6.04275 7.00227 6.54013
#
# Compressibility (1/GPa) = 0.02925677
#
# Stress axis : x y z
#
# Youngs Moduli (GPa) = 71.48569 84.79728 99.80178
#
# Poissons Ratio (x) = 0.18880 -0.12689
# Poissons Ratio (y) = 0.15917 0.23127
# Poissons Ratio (z) = -0.09089 0.19650
#
# Static dielectric constant tensor:
#      x y z
#    x 1.818840 0.036900 0.018580 
#    y 0.036900 1.814180 0.049520 
#    z 0.018580 0.049520 1.793580 
# 
# From -- ./inp_files/575627.got.cif
#   From: 2010.05.17/outbox.cif.g08.bks.cpg/sg2_288_cif.got.tgz:575627.got - 2010.06.03 11:33:40.
