data_PCOD9067277
_publ_section_title
;
Structure prediction by ZEFSAII (Michael W. Deem and Ramdas Pophale) SiO2 
 PCOD9067277
Probable space group: P -1
;
_chemical_formula_sum "Si O2"
_cell_formula_units_Z 13
_cell_length_a 10.122034
_cell_length_b 12.059805
_cell_length_c 7.663662
_cell_angle_alpha 125.088800
_cell_angle_beta 86.527482
_cell_angle_gamma 128.659758
_cell_volume 528.490087
_symmetry_space_group_name_H-M "P -1"
_symmetry_group_IT_number 2
_symmetry_cell_setting 'triclinic'
loop_
_space_group_symop_operation_xyz
x,y,z
-x,-y,-z
loop_
_atom_site_type_symbol
_atom_site_label
_atom_site_fract_x
_atom_site_fract_y
_atom_site_fract_z
Si Si1 0.975731 0.327382 0.904913
Si Si2 0.229368 0.336093 0.409993
Si Si3 0.616377 0.945444 0.432304
Si Si4 0.500000 0.000000 0.000000
Si Si5 0.380580 0.534039 0.957280
Si Si6 0.442936 0.246913 0.370187
Si Si7 0.097467 0.716059 0.725229
O O1 0.188011 0.423909 0.982718
O O2 0.839749 0.150628 0.617159
O O3 0.000000 0.500000 0.000000
O O4 0.876370 0.253223 0.037500
O O5 0.297985 0.432554 0.683693
O O6 0.258754 0.196791 0.278144
O O7 0.382923 0.518589 0.433837
O O8 0.029387 0.255260 0.306330
O O9 0.586972 0.838525 0.516450
O O10 0.500000 0.000000 0.500000
O O11 0.515826 0.766609 0.146929
O O12 0.504200 0.839178 0.831647
O O13 0.308443 0.866675 0.769052
O O14 0.500000 0.500000 0.000000
O O15 0.000000 0.500000 0.500000
#
# Coordination Sequence:
#
# PCOD9067277 Si02
#       7
#     2   2   2   1   2   2   2
#     4  12  27  48  73 111 150 201 256 312 381 453
#     4  11  26  49  76 113 155 200 248 322 390 453
#     4  12  26  48  78 108 152 202 254 313 377 458
#     4  12  26  46  78 108 148 192 260 306 374 458
#     4  12  27  50  77 110 155 201 252 313 386 456
#     4  11  25  48  76 113 149 197 256 312 385 450
#     4  12  26  46  76 110 151 196 254 314 380 449
#
# _framework density 24.598379000000001
#
# number of rings (size 3 to 8) (size 9 to 14) (size 15 to 20)
#    0.000    0.308    6.154    1.846    4.308    2.462 
#    0.000    0.000    0.000    0.000    0.000    0.000 
#    0.000    0.000    0.000    0.000    0.000    0.000 
#
# Total GULP energy -72566.384881 kJ/mol
# GULP energy per Si atom -5582.029606 kJ/mol
# Density = 2.454239 g / cm^3
# Si number density = 24.598379 Si / 1000 Ang^3
#
#
#
# Elastic Constant Matrix: (Units=GPa)
#
#
# Indices 1 2 3 4 5 6 
#
# 1 221.7662 14.0500 50.3568 18.2136 9.3007 -48.2271
# 2 14.0500 63.5111 2.4266 -2.2963 -0.4934 -21.9821
# 3 50.3568 2.4266 112.2834 14.2343 12.1245 -8.4100
# 4 18.2136 -2.2963 14.2343 35.4230 -0.2480 2.9581
# 5 9.3007 -0.4934 12.1245 -0.2480 48.6638 5.8867
# 6 -48.2271 -21.9821 -8.4100 2.9581 5.8867 36.9130
#
#
#
# Elastic Compliance Matrix: (Units=1/GPa)
#
#
# Indices 1 2 3 4 5 6 
#
# 1 0.007811 0.002280 -0.001876 -0.004122 -0.002458 0.011858
# 2 0.002280 0.020617 0.000095 -0.001201 -0.002158 0.015718
# 3 -0.001876 0.000095 0.010464 -0.003303 -0.002340 0.000627
# 4 -0.004122 -0.001201 -0.003303 0.032449 0.002965 -0.009926
# 5 -0.002458 -0.002158 -0.002340 0.002965 0.022670 -0.008882
# 6 0.011858 0.015718 0.000627 -0.009926 -0.008882 0.054298
#
#
# Mechanical properties :
#
#
# Convention : Reuss Voigt Hill
#
# Bulk Modulus (GPa) = 25.06998 59.02528 42.04763
# Shear Modulus (GPa) = 31.13159 46.24846 38.69002
#
# Velocity S-wave (km/s) = 3.56138 4.34077 3.97024
# Velocity P-wave (km/s) = 5.20817 7.01218 6.17640
#
# Compressibility (1/GPa) = 0.03988834
#
# Stress axis : x y z
#
# Youngs Moduli (GPa) = 128.02193 48.50256 95.56767
#
# Poissons Ratio (x) = -0.11057 0.17932
# Poissons Ratio (y) = -0.29185 -0.00904
# Poissons Ratio (z) = 0.24021 -0.00459
#
# Static dielectric constant tensor:
#      x y z
#    x 1.940780 0.076200 0.036090 
#    y 0.076200 2.061390 -0.015650 
#    z 0.036090 -0.015650 1.958790 
# 
# From -- ./inp_files/183272.got.cif
#   From: 2010.05.17/outbox.cif.g08.bks.cpg/sg2_92_cif.got.tgz:183272.got - 2010.06.03 11:33:40.
