data_PCOD9067512
_publ_section_title
;
Structure prediction by ZEFSAII (Michael W. Deem and Ramdas Pophale) SiO2 
 PCOD9067512
Probable space group: P -1
;
_chemical_formula_sum "Si O2"
_cell_formula_units_Z 15
_cell_length_a 9.552696
_cell_length_b 9.317054
_cell_length_c 12.582340
_cell_angle_alpha 70.263168
_cell_angle_beta 48.035348
_cell_angle_gamma 48.122549
_cell_volume 607.935947
_symmetry_space_group_name_H-M "P -1"
_symmetry_group_IT_number 2
_symmetry_cell_setting 'triclinic'
loop_
_space_group_symop_operation_xyz
x,y,z
-x,-y,-z
loop_
_atom_site_type_symbol
_atom_site_label
_atom_site_fract_x
_atom_site_fract_y
_atom_site_fract_z
Si Si1 0.841905 0.670866 0.450264
Si Si2 0.141025 0.578716 0.123033
Si Si3 0.389683 0.695291 0.706856
Si Si4 0.893815 0.999782 0.392366
Si Si5 0.000000 0.500000 0.000000
Si Si6 0.657795 0.218004 0.040983
Si Si7 0.403214 0.748766 0.311583
Si Si8 0.695337 0.871328 0.023724
O O1 0.584699 0.722677 0.565539
O O2 0.000000 0.500000 0.500000
O O3 0.962164 0.594670 0.293325
O O4 0.839586 0.849515 0.437753
O O5 0.410430 0.379706 0.062031
O O6 0.072384 0.587482 0.035063
O O7 0.149878 0.754712 0.100927
O O8 0.159810 0.863969 0.713340
O O9 0.373881 0.726404 0.833296
O O10 0.492590 0.474751 0.685116
O O11 0.716659 0.142597 0.543243
O O12 0.175514 0.872469 0.315508
O O13 0.062737 0.325721 0.095313
O O14 0.712384 0.013678 0.047930
O O15 0.615533 0.757919 0.161539
O O16 0.500000 0.000000 0.000000
#
# Coordination Sequence:
#
# PCOD9067512 Si02
#       8
#     2   2   2   2   1   2   2   2
#     4  12  24  45  75 110 149 195 248 310 375 448
#     4  11  26  47  77 110 153 199 249 309 374 451
#     4  12  25  47  76 109 147 197 251 308 373 456
#     4  11  26  45  75 109 147 198 240 308 380 449
#     4  12  28  48  72 114 146 198 254 302 370 450
#     4  11  25  50  75 107 152 200 248 307 378 445
#     4  11  26  48  70 111 152 189 247 311 376 439
#     4  12  28  47  74 106 149 199 247 310 370 446
#
# _framework density 24.673653999999999
#
# number of rings (size 3 to 8) (size 9 to 14) (size 15 to 20)
#    0.000    0.533    4.000    2.400    7.467    2.667 
#    2.400    0.000    0.000    0.000    0.000    0.000 
#    0.000    0.000    0.000    0.000    0.000    0.000 
#
# Total GULP energy -83920.737115 kJ/mol
# GULP energy per Si atom -5594.715808 kJ/mol
# Density = 2.461750 g / cm^3
# Si number density = 24.673654 Si / 1000 Ang^3
#
#
#
# Elastic Constant Matrix: (Units=GPa)
#
#
# Indices 1 2 3 4 5 6 
#
# 1 127.2747 79.9942 32.0859 -6.1757 9.4970 6.1573
# 2 79.9942 201.7025 -2.3561 2.8445 17.3024 25.5026
# 3 32.0859 -2.3561 82.1748 -2.7141 -7.2898 14.5045
# 4 -6.1757 2.8445 -2.7141 31.7471 11.4578 6.7130
# 5 9.4970 17.3024 -7.2898 11.4578 42.1489 -10.9038
# 6 6.1573 25.5026 14.5045 6.7130 -10.9038 63.1453
#
#
#
# Elastic Compliance Matrix: (Units=1/GPa)
#
#
# Indices 1 2 3 4 5 6 
#
# 1 0.012687 -0.005132 -0.005441 0.002933 -0.002126 0.001406
# 2 -0.005132 0.007708 0.002657 0.000247 -0.002571 -0.003693
# 3 -0.005441 0.002657 0.015192 0.000163 0.001749 -0.003747
# 4 0.002933 0.000247 0.000163 0.038103 -0.012822 -0.006688
# 5 -0.002126 -0.002571 0.001749 -0.012822 0.031004 0.007561
# 6 0.001406 -0.003693 -0.003747 -0.006688 0.007561 0.020068
#
#
# Mechanical properties :
#
#
# Convention : Reuss Voigt Hill
#
# Bulk Modulus (GPa) = 50.62054 70.06668 60.34361
# Shear Modulus (GPa) = 33.97202 47.50345 40.73773
#
# Velocity S-wave (km/s) = 3.71462 4.39255 4.06773
# Velocity P-wave (km/s) = 6.24167 7.36105 6.82435
#
# Compressibility (1/GPa) = 0.01975483
#
# Stress axis : x y z
#
# Youngs Moduli (GPa) = 78.81988 129.73265 65.82485
#
# Poissons Ratio (x) = 0.66579 0.35815
# Poissons Ratio (y) = 0.40450 -0.17488
# Poissons Ratio (z) = 0.42886 -0.34467
#
# Static dielectric constant tensor:
#      x y z
#    x 1.915330 0.078410 0.032650 
#    y 0.078410 1.741410 -0.146120 
#    z 0.032650 -0.146120 1.803070 
# 
# From -- ./inp_files/381907.got.cif
#   From: 2010.05.17/outbox.cif.g08.bks.cpg/sg2_191_cif.got.tgz:381907.got - 2010.06.03 11:33:40.
