data_PCOD9067149
_publ_section_title
;
Structure prediction by ZEFSAII (Michael W. Deem and Ramdas Pophale) SiO2 
 PCOD9067149
Probable space group: P -1
;
_chemical_formula_sum "Si O2"
_cell_formula_units_Z 16
_cell_length_a 7.927658
_cell_length_b 11.767993
_cell_length_c 9.772935
_cell_angle_alpha 101.930603
_cell_angle_beta 88.178809
_cell_angle_gamma 52.703074
_cell_volume 695.033795
_symmetry_space_group_name_H-M "P -1"
_symmetry_group_IT_number 2
_symmetry_cell_setting 'triclinic'
loop_
_space_group_symop_operation_xyz
x,y,z
-x,-y,-z
loop_
_atom_site_type_symbol
_atom_site_label
_atom_site_fract_x
_atom_site_fract_y
_atom_site_fract_z
Si Si1 0.215730 0.828577 0.929683
Si Si2 0.489824 0.729815 0.636563
Si Si3 0.800080 0.167485 0.586260
Si Si4 0.833295 0.649695 0.220513
Si Si5 0.801281 0.787546 0.750018
Si Si6 0.390318 0.877336 0.173768
Si Si7 0.103215 0.615095 0.449407
Si Si8 0.080341 0.628921 0.952620
O O1 0.294425 0.789272 0.761726
O O2 0.180652 0.712786 0.955193
O O3 0.400442 0.813598 0.009637
O O4 0.000000 0.000000 0.000000
O O5 0.394399 0.776395 0.499252
O O6 0.604011 0.798521 0.698824
O O7 0.674488 0.551884 0.596733
O O8 0.732663 0.162102 0.738227
O O9 0.860344 0.274957 0.590444
O O10 0.000000 0.000000 0.500000
O O11 0.614993 0.809170 0.225352
O O12 0.925450 0.626138 0.363367
O O13 0.787098 0.535410 0.155457
O O14 0.016085 0.619290 0.104313
O O15 0.867040 0.724118 0.885526
O O16 0.003569 0.675550 0.617008
O O17 0.744547 0.946812 0.788817
#
# Coordination Sequence:
#
# PCOD9067149 Si02
#       8
#     2   2   2   2   2   2   2   2
#     4  12  26  47  72 103 141 186 234 287 348 420
#     4  12  28  45  76 102 138 195 232 283 359 412
#     4  12  26  47  68 106 146 179 233 289 348 416
#     4  11  27  45  73 106 138 184 235 295 348 410
#     4  12  25  47  73 104 144 185 239 283 346 426
#     4  12  27  44  73 106 139 191 230 290 356 408
#     4  12  26  49  72 104 145 186 232 291 348 421
#     4  11  25  48  71 100 147 178 233 297 343 414
#
# _framework density 23.020462999999999
#
# number of rings (size 3 to 8) (size 9 to 14) (size 15 to 20)
#    0.000    0.250    3.750    4.500    8.750    2.500 
#    0.000    0.000    0.000    0.000    0.000    0.000 
#    0.000    0.000    0.000    0.000    0.000    0.000 
#
# Total GULP energy -89657.812581 kJ/mol
# GULP energy per Si atom -5603.613286 kJ/mol
# Density = 2.296807 g / cm^3
# Si number density = 23.020463 Si / 1000 Ang^3
#
#
#
# Elastic Constant Matrix: (Units=GPa)
#
#
# Indices 1 2 3 4 5 6 
#
# 1 60.0591 29.9118 2.0075 22.8570 7.8210 16.4274
# 2 29.9118 112.3660 26.7279 -2.3536 10.9997 6.1658
# 3 2.0075 26.7279 71.4902 3.7801 9.7817 5.8189
# 4 22.8570 -2.3536 3.7801 20.6632 0.9436 3.8568
# 5 7.8210 10.9997 9.7817 0.9436 35.0750 -6.6992
# 6 16.4274 6.1658 5.8189 3.8568 -6.6992 53.4426
#
#
#
# Elastic Compliance Matrix: (Units=1/GPa)
#
#
# Indices 1 2 3 4 5 6 
#
# 1 0.049250 -0.014915 0.009388 -0.055277 -0.009663 -0.011662
# 2 -0.014915 0.014592 -0.006278 0.018865 0.000428 0.002277
# 3 0.009388 -0.006278 0.017839 -0.013400 -0.005469 -0.003822
# 4 -0.055277 0.018865 -0.013400 0.111997 0.008911 0.009308
# 5 -0.009663 0.000428 -0.005469 0.008911 0.033159 0.007030
# 6 -0.011662 0.002277 -0.003822 0.009308 0.007030 0.022659
#
#
# Mechanical properties :
#
#
# Convention : Reuss Voigt Hill
#
# Bulk Modulus (GPa) = 17.22072 40.13443 28.67757
# Shear Modulus (GPa) = 17.09613 34.18735 25.64174
#
# Velocity S-wave (km/s) = 2.72812 3.85786 3.34109
# Velocity P-wave (km/s) = 4.17377 6.10870 5.23147
#
# Compressibility (1/GPa) = 0.05806958
#
# Stress axis : x y z
#
# Youngs Moduli (GPa) = 20.30451 68.53280 56.05585
#
# Poissons Ratio (x) = 1.02219 -0.52623
# Poissons Ratio (y) = 0.30285 0.35191
# Poissons Ratio (z) = -0.19061 0.43024
#
# Static dielectric constant tensor:
#      x y z
#    x 1.867640 -0.019170 -0.002340 
#    y -0.019170 1.809360 0.011990 
#    z -0.002340 0.011990 1.814420 
# 
# From -- ./inp_files/188552.got.cif
#   From: 2010.05.17/outbox.cif.g08.bks.cpg/sg2_95_cif.got.tgz:188552.got - 2010.06.03 11:33:40.
