data_PCOD9067712
_publ_section_title
;
Structure prediction by ZEFSAII (Michael W. Deem and Ramdas Pophale) SiO2 
 PCOD9067712
Probable space group: P -1
;
_chemical_formula_sum "Si O2"
_cell_formula_units_Z 16
_cell_length_a 11.171853
_cell_length_b 16.384613
_cell_length_c 18.736859
_cell_angle_alpha 23.129016
_cell_angle_beta 135.266624
_cell_angle_gamma 147.866320
_cell_volume 677.136291
_symmetry_space_group_name_H-M "P -1"
_symmetry_group_IT_number 2
_symmetry_cell_setting 'triclinic'
loop_
_space_group_symop_operation_xyz
x,y,z
-x,-y,-z
loop_
_atom_site_type_symbol
_atom_site_label
_atom_site_fract_x
_atom_site_fract_y
_atom_site_fract_z
Si Si1 0.352220 0.317918 0.221763
Si Si2 0.734682 0.056945 0.641797
Si Si3 0.240088 0.661189 0.837065
Si Si4 0.379144 0.424457 0.586204
Si Si5 0.264845 0.142586 0.490051
Si Si6 0.827129 0.939378 0.914979
Si Si7 0.765151 0.140415 0.981902
Si Si8 0.141325 0.670826 0.289888
O O1 0.263182 0.066491 0.331972
O O2 0.334904 0.240463 0.358766
O O3 0.236347 0.444649 0.054903
O O4 0.625126 0.597795 0.093767
O O5 0.465404 0.838341 0.734889
O O6 0.888639 0.066347 0.759789
O O7 0.865546 0.388544 0.419708
O O8 0.270815 0.900649 0.700432
O O9 0.983936 0.454491 0.855962
O O10 0.500000 0.500000 0.500000
O O11 0.565243 0.596443 0.592098
O O12 0.251983 0.537449 0.439967
O O13 0.227119 0.087503 0.803727
O O14 0.000000 0.000000 0.500000
O O15 0.743083 0.084159 0.798707
O O16 0.000000 0.000000 0.000000
O O17 0.814321 0.185162 0.882611
O O18 0.500000 0.000000 0.000000
#
# Coordination Sequence:
#
# PCOD9067712 Si02
#       8
#     2   2   2   2   2   2   2   2
#     4  11  26  48  74 108 150 192 245 303 374 442
#     4  11  26  49  75 110 151 196 244 301 388 432
#     4  11  26  48  76 106 154 194 241 310 367 443
#     4  12  27  49  75 105 153 193 245 310 361 440
#     4  12  29  47  73 109 145 197 251 299 370 440
#     4  11  26  44  72 109 149 193 247 306 363 444
#     4  12  26  46  76 112 143 196 255 297 369 438
#     4  12  27  45  77 110 152 194 247 308 374 440
#
# _framework density 23.628920999999998
#
# number of rings (size 3 to 8) (size 9 to 14) (size 15 to 20)
#    0.000    0.500    1.250    6.375   12.250    1.500 
#    0.000    0.000    0.000    0.000    0.000    0.000 
#    0.000    0.000    0.000    0.000    0.000    0.000 
#
# Total GULP energy -89583.310831 kJ/mol
# GULP energy per Si atom -5598.956927 kJ/mol
# Density = 2.357514 g / cm^3
# Si number density = 23.628921 Si / 1000 Ang^3
#
#
#
# Elastic Constant Matrix: (Units=GPa)
#
#
# Indices 1 2 3 4 5 6 
#
# 1 76.3194 34.9590 26.7122 11.8653 -2.2921 -10.5108
# 2 34.9590 81.1608 10.8217 -0.7396 -9.3191 -13.7339
# 3 26.7122 10.8217 99.0722 11.2529 -9.9721 0.0177
# 4 11.8653 -0.7396 11.2529 36.4255 -1.5954 2.5171
# 5 -2.2921 -9.3191 -9.9721 -1.5954 47.8080 10.3581
# 6 -10.5108 -13.7339 0.0177 2.5171 10.3581 49.4076
#
#
#
# Elastic Compliance Matrix: (Units=1/GPa)
#
#
# Indices 1 2 3 4 5 6 
#
# 1 0.019077 -0.007534 -0.003919 -0.005436 -0.002136 0.002690
# 2 -0.007534 0.016227 0.000201 0.002673 0.002443 0.002259
# 3 -0.003919 0.000201 0.011617 -0.002118 0.002462 -0.001190
# 4 -0.005436 0.002673 -0.002118 0.030143 0.001306 -0.002222
# 5 -0.002136 0.002443 0.002462 0.001306 0.022852 -0.004633
# 6 0.002690 0.002259 -0.001190 -0.002222 -0.004633 0.022525
#
#
# Mechanical properties :
#
#
# Convention : Reuss Voigt Hill
#
# Bulk Modulus (GPa) = 40.95527 44.61535 42.78531
# Shear Modulus (GPa) = 32.66181 38.99885 35.83033
#
# Velocity S-wave (km/s) = 3.72194 4.06701 3.89829
# Velocity P-wave (km/s) = 5.98671 6.40131 6.19748
#
# Compressibility (1/GPa) = 0.02441688
#
# Stress axis : x y z
#
# Youngs Moduli (GPa) = 52.41915 61.62593 86.08193
#
# Poissons Ratio (x) = 0.46430 0.33733
# Poissons Ratio (y) = 0.39494 -0.01730
# Poissons Ratio (z) = 0.20541 -0.01238
#
# Static dielectric constant tensor:
#      x y z
#    x 1.794430 0.178380 0.078620 
#    y 0.178380 1.803920 -0.049470 
#    z 0.078620 -0.049470 1.815670 
# 
# From -- ./inp_files/595950.got.cif
#   From: 2010.05.17/outbox.cif.g08.bks.cpg/sg2_298_cif.got.tgz:595950.got - 2010.06.03 11:33:40.
