data_PCOD9067802
_publ_section_title
;
Structure prediction by ZEFSAII (Michael W. Deem and Ramdas Pophale) SiO2 
 PCOD9067802
Probable space group: P -1
;
_chemical_formula_sum "Si O2"
_cell_formula_units_Z 14
_cell_length_a 8.738568
_cell_length_b 17.033667
_cell_length_c 6.486544
_cell_angle_alpha 42.621612
_cell_angle_beta 92.062767
_cell_angle_gamma 89.967939
_cell_volume 652.860401
_symmetry_space_group_name_H-M "P -1"
_symmetry_group_IT_number 2
_symmetry_cell_setting 'triclinic'
loop_
_space_group_symop_operation_xyz
x,y,z
-x,-y,-z
loop_
_atom_site_type_symbol
_atom_site_label
_atom_site_fract_x
_atom_site_fract_y
_atom_site_fract_z
Si Si1 0.838885 0.720847 0.237356
Si Si2 0.882433 0.418872 0.277269
Si Si3 0.729799 0.909073 0.178308
Si Si4 0.681955 0.502865 0.468298
Si Si5 0.952655 0.889813 0.582694
Si Si6 0.239687 0.718983 0.835332
Si Si7 0.552280 0.075857 0.551577
O O1 0.766804 0.788754 0.297209
O O2 0.738905 0.616643 0.361259
O O3 0.004615 0.664963 0.418355
O O4 0.848791 0.812555 0.874558
O O5 0.760897 0.494631 0.262280
O O6 0.784629 0.338226 0.278836
O O7 0.000000 0.500000 0.000000
O O8 0.870703 0.933031 0.287148
O O9 0.586436 0.907550 0.327764
O O10 0.686480 0.003953 0.819722
O O11 0.500000 0.500000 0.500000
O O12 0.752584 0.389307 0.803620
O O13 0.094118 0.803827 0.702837
O O14 0.000000 0.000000 0.500000
O O15 0.384104 0.798044 0.732072
O O16 0.500000 0.000000 0.500000
#
# Coordination Sequence:
#
# PCOD9067802 Si02
#       7
#     2   2   2   2   2   2   2
#     4  12  25  46  73 104 146 190 242 310 370 438
#     4  12  25  48  74 105 144 194 250 305 371 443
#     4  11  26  45  73 105 143 196 243 300 371 438
#     4  12  30  46  75 109 149 195 246 307 379 445
#     4  12  26  45  74 108 145 191 247 304 365 437
#     4  12  26  46  73 105 144 191 245 303 369 446
#     4  11  27  48  71 104 152 193 243 303 375 439
#
# _framework density 21.444095999999998
#
# number of rings (size 3 to 8) (size 9 to 14) (size 15 to 20)
#    0.000    0.286    4.286    3.857    8.000    2.857 
#    0.000    0.000    0.000    0.000    0.000    0.000 
#    0.000    0.000    0.000    0.000    0.000    0.000 
#
# Total GULP energy -78329.548631 kJ/mol
# GULP energy per Si atom -5594.967759 kJ/mol
# Density = 2.139529 g / cm^3
# Si number density = 21.444096 Si / 1000 Ang^3
#
#
#
# Elastic Constant Matrix: (Units=GPa)
#
#
# Indices 1 2 3 4 5 6 
#
# 1 92.0587 68.7924 32.8934 5.1325 -0.8540 -8.1254
# 2 68.7924 211.8516 43.6846 1.0587 -12.9983 10.7268
# 3 32.8934 43.6846 100.3685 -2.8176 1.7041 20.1451
# 4 5.1325 1.0587 -2.8176 34.4716 2.9121 -6.4683
# 5 -0.8540 -12.9983 1.7041 2.9121 40.3650 -5.0638
# 6 -8.1254 10.7268 20.1451 -6.4683 -5.0638 51.5257
#
#
#
# Elastic Compliance Matrix: (Units=1/GPa)
#
#
# Indices 1 2 3 4 5 6 
#
# 1 0.016502 -0.004709 -0.004422 -0.001703 -0.000221 0.005076
# 2 -0.004709 0.006668 -0.001086 -0.000039 0.001905 -0.001524
# 3 -0.004422 -0.001086 0.013073 0.000849 -0.001765 -0.005649
# 4 -0.001703 -0.000039 0.000849 0.030054 -0.001877 0.002996
# 5 -0.000221 0.001905 -0.001765 -0.001877 0.025915 0.002570
# 6 0.005076 -0.001524 -0.005649 0.002996 0.002570 0.023363
#
#
# Mechanical properties :
#
#
# Convention : Reuss Voigt Hill
#
# Bulk Modulus (GPa) = 63.25545 77.22442 70.23993
# Shear Modulus (GPa) = 35.39118 42.53300 38.96209
#
# Velocity S-wave (km/s) = 4.06691 4.45841 4.26715
# Velocity P-wave (km/s) = 7.18435 7.91160 7.55673
#
# Compressibility (1/GPa) = 0.01580892
#
# Stress axis : x y z
#
# Youngs Moduli (GPa) = 60.59800 149.97865 76.49444
#
# Poissons Ratio (x) = 0.70624 0.33822
# Poissons Ratio (y) = 0.28535 0.08311
# Poissons Ratio (z) = 0.26794 0.16294
#
# Static dielectric constant tensor:
#      x y z
#    x 1.751590 -0.049380 0.013120 
#    y -0.049380 1.698330 0.049700 
#    z 0.013120 0.049700 1.794270 
# 
# From -- ./inp_files/27306.got.cif
#   From: 2010.05.17/outbox.cif.g08.bks.cpg/sg2_14_cif.got.tgz:27306.got - 2010.06.03 11:33:40.
