data_PCOD9067459
_publ_section_title
;
Structure prediction by ZEFSAII (Michael W. Deem and Ramdas Pophale) SiO2 
 PCOD9067459
Probable space group: P -1
;
_chemical_formula_sum "Si O2"
_cell_formula_units_Z 10
_cell_length_a 10.865602
_cell_length_b 13.671724
_cell_length_c 4.927003
_cell_angle_alpha 93.975248
_cell_angle_beta 86.542288
_cell_angle_gamma 30.743078
_cell_volume 362.784018
_symmetry_space_group_name_H-M "P -1"
_symmetry_group_IT_number 2
_symmetry_cell_setting 'triclinic'
loop_
_space_group_symop_operation_xyz
x,y,z
-x,-y,-z
loop_
_atom_site_type_symbol
_atom_site_label
_atom_site_fract_x
_atom_site_fract_y
_atom_site_fract_z
Si Si1 0.382954 0.658629 0.340410
Si Si2 0.211794 0.517027 0.109303
Si Si3 0.253880 0.362720 0.569177
Si Si4 0.111799 0.004485 0.793504
Si Si5 0.653811 0.967100 0.162670
O O1 0.500000 0.500000 0.500000
O O2 0.583323 0.552307 0.066925
O O3 0.127210 0.787629 0.287554
O O4 0.275749 0.832636 0.522275
O O5 0.238428 0.403468 0.889112
O O6 0.279121 0.442729 0.392211
O O7 0.918472 0.741507 0.171408
O O8 0.000000 0.500000 0.500000
O O9 0.466023 0.135715 0.450401
O O10 0.252584 0.989957 0.945469
O O11 0.000000 0.000000 0.000000
O O12 0.500000 0.000000 0.000000
#
# Coordination Sequence:
#
# PCOD9067459 Si02
#       5
#     2   2   2   2   2
#     4  11  26  47  79 115 157 211 270 334 407 480
#     4  12  28  49  80 114 161 212 268 331 408 477
#     4  12  27  52  75 114 163 212 265 333 399 489
#     4  11  25  49  78 113 159 208 273 334 401 489
#     4  12  27  47  81 116 159 207 270 326 411 476
#
# _framework density 27.564609999999998
#
# number of rings (size 3 to 8) (size 9 to 14) (size 15 to 20)
#    0.000    0.400    4.000    3.000    2.800    5.600 
#    0.000    0.000    0.000    0.000    0.000    0.000 
#    0.000    0.000    0.000    0.000    0.000    0.000 
#
# Total GULP energy -56068.452429 kJ/mol
# GULP energy per Si atom -5606.845243 kJ/mol
# Density = 2.750187 g / cm^3
# Si number density = 27.564610 Si / 1000 Ang^3
#
#
#
# Elastic Constant Matrix: (Units=GPa)
#
#
# Indices 1 2 3 4 5 6 
#
# 1 191.5742 52.9895 29.6872 -1.4506 10.9383 -31.3741
# 2 52.9895 236.5551 58.1223 33.9484 0.3711 -27.9123
# 3 29.6872 58.1223 90.6158 23.2770 -5.8277 4.0445
# 4 -1.4506 33.9484 23.2770 68.7116 7.6972 2.7565
# 5 10.9383 0.3711 -5.8277 7.6972 61.0657 -1.1750
# 6 -31.3741 -27.9123 4.0445 2.7565 -1.1750 60.0096
#
#
#
# Elastic Compliance Matrix: (Units=1/GPa)
#
#
# Indices 1 2 3 4 5 6 
#
# 1 0.006344 -0.000704 -0.002179 0.001259 -0.001440 0.003050
# 2 -0.000704 0.005715 -0.003052 -0.001919 0.000092 0.002586
# 3 -0.002179 -0.003052 0.014956 -0.003721 0.002241 -0.003352
# 4 0.001259 -0.001919 -0.003721 0.017129 -0.002744 -0.000824
# 5 -0.001440 0.000092 0.002241 -0.002744 0.017185 -0.000399
# 6 0.003050 0.002586 -0.003352 -0.000824 -0.000399 0.019717
#
#
# Mechanical properties :
#
#
# Convention : Reuss Voigt Hill
#
# Bulk Modulus (GPa) = 66.02399 88.92704 77.47551
# Shear Modulus (GPa) = 51.03874 63.15377 57.09626
#
# Velocity S-wave (km/s) = 4.30770 4.79176 4.55616
# Velocity P-wave (km/s) = 6.98184 7.93385 7.47302
#
# Compressibility (1/GPa) = 0.01514601
#
# Stress axis : x y z
#
# Youngs Moduli (GPa) = 157.64128 174.97039 66.86075
#
# Poissons Ratio (x) = 0.12322 0.14567
# Poissons Ratio (y) = 0.11102 0.20404
# Poissons Ratio (z) = 0.34344 0.53397
#
# Static dielectric constant tensor:
#      x y z
#    x 2.357680 0.034720 -0.035430 
#    y 0.034720 2.169840 0.038220 
#    z -0.035430 0.038220 2.099310 
# 
# From -- ./inp_files/74731.got.cif
#   From: 2010.05.17/outbox.cif.g08.bks.cpg/sg2_38_cif.got.tgz:74731.got - 2010.06.03 11:33:40.
