data_PCOD9067638
_publ_section_title
;
Structure prediction by ZEFSAII (Michael W. Deem and Ramdas Pophale) SiO2 
 PCOD9067638
Probable space group: P -1
;
_chemical_formula_sum "Si O2"
_cell_formula_units_Z 10
_cell_length_a 5.481981
_cell_length_b 11.551680
_cell_length_c 6.860786
_cell_angle_alpha 79.580440
_cell_angle_beta 76.420096
_cell_angle_gamma 71.603609
_cell_volume 398.045124
_symmetry_space_group_name_H-M "P -1"
_symmetry_group_IT_number 2
_symmetry_cell_setting 'triclinic'
loop_
_space_group_symop_operation_xyz
x,y,z
-x,-y,-z
loop_
_atom_site_type_symbol
_atom_site_label
_atom_site_fract_x
_atom_site_fract_y
_atom_site_fract_z
Si Si1 0.727320 0.566013 0.420697
Si Si2 0.216828 0.247457 0.406478
Si Si3 0.883845 0.187146 0.819979
Si Si4 0.372278 0.391414 0.994901
Si Si5 0.232147 0.060897 0.140751
O O1 0.500000 0.500000 0.500000
O O2 0.602976 0.703205 0.492033
O O3 0.791186 0.572459 0.181272
O O4 0.000000 0.500000 0.500000
O O5 0.279603 0.120192 0.317671
O O6 0.984873 0.249514 0.599870
O O7 0.214400 0.342539 0.203460
O O8 0.610671 0.274131 0.920916
O O9 0.891150 0.051771 0.784120
O O10 0.062276 0.160259 0.989968
O O11 0.500000 0.500000 0.000000
O O12 0.500000 0.000000 0.000000
#
# Coordination Sequence:
#
# PCOD9067638 Si02
#       5
#     2   2   2   2   2
#     4  12  28  51  78 120 162 218 278 333 416 498
#     4  12  26  47  82 111 164 208 271 339 411 473
#     4  11  27  50  79 117 160 211 278 331 419 483
#     4  12  27  50  81 118 163 214 275 332 409 500
#     4  11  25  52  78 117 156 212 277 339 403 498
#
# _framework density 25.122781
#
# number of rings (size 3 to 8) (size 9 to 14) (size 15 to 20)
#    0.000    0.400    4.000    3.000    2.800    3.200 
#    0.000    0.000    0.000    0.000    0.000    0.000 
#    0.000    0.000    0.000    0.000    0.000    0.000 
#
# Total GULP energy -55907.856731 kJ/mol
# GULP energy per Si atom -5590.785673 kJ/mol
# Density = 2.506560 g / cm^3
# Si number density = 25.122781 Si / 1000 Ang^3
#
#
#
# Elastic Constant Matrix: (Units=GPa)
#
#
# Indices 1 2 3 4 5 6 
#
# 1 109.8546 52.2009 46.9421 -9.5475 12.7646 2.7267
# 2 52.2009 132.0208 63.9141 21.1725 7.8505 24.6834
# 3 46.9421 63.9141 199.2153 -12.0493 -7.5661 9.8385
# 4 -9.5475 21.1725 -12.0493 63.6222 19.8264 9.2370
# 5 12.7646 7.8505 -7.5661 19.8264 43.3088 6.4555
# 6 2.7267 24.6834 9.8385 9.2370 6.4555 69.6500
#
#
#
# Elastic Compliance Matrix: (Units=1/GPa)
#
#
# Indices 1 2 3 4 5 6 
#
# 1 0.013306 -0.005318 -0.001410 0.005083 -0.005743 0.001421
# 2 -0.005318 0.012446 -0.002848 -0.005588 0.001853 -0.003231
# 3 -0.001410 -0.002848 0.006420 0.001551 0.001370 -0.000175
# 4 0.005083 -0.005588 0.001551 0.021858 -0.010162 -0.000395
# 5 -0.005743 0.001853 0.001370 -0.010162 0.029640 -0.002025
# 6 0.001421 -0.003231 -0.000175 -0.000395 -0.002025 0.015712
#
#
# Mechanical properties :
#
#
# Convention : Reuss Voigt Hill
#
# Bulk Modulus (GPa) = 76.80294 85.24499 81.02397
# Shear Modulus (GPa) = 40.69214 53.85178 47.27196
#
# Velocity S-wave (km/s) = 4.02895 4.63486 4.34249
# Velocity P-wave (km/s) = 7.23054 7.91503 7.58051
#
# Compressibility (1/GPa) = 0.01302033
#
# Stress axis : x y z
#
# Youngs Moduli (GPa) = 75.15241 80.34681 155.76003
#
# Poissons Ratio (x) = 0.42728 0.21964
# Poissons Ratio (y) = 0.39966 0.44360
# Poissons Ratio (z) = 0.10598 0.22882
#
# Static dielectric constant tensor:
#      x y z
#    x 2.029130 0.033110 0.014090 
#    y 0.033110 2.121080 0.024220 
#    z 0.014090 0.024220 2.035170 
# 
# From -- ./inp_files/1862.got.cif
#   From: 2010.05.17/outbox.cif.g08.bks.cpg/sg2_1_cif.got.tgz:1862.got - 2010.06.03 11:33:40.
