data_PCOD9067677
_publ_section_title
;
Structure prediction by ZEFSAII (Michael W. Deem and Ramdas Pophale) SiO2 
 PCOD9067677
Probable space group: P -1
;
_chemical_formula_sum "Si O2"
_cell_formula_units_Z 12
_cell_length_a 8.783447
_cell_length_b 12.222167
_cell_length_c 14.134268
_cell_angle_alpha 21.468200
_cell_angle_beta 103.352606
_cell_angle_gamma 101.392971
_cell_volume 539.671706
_symmetry_space_group_name_H-M "P -1"
_symmetry_group_IT_number 2
_symmetry_cell_setting 'triclinic'
loop_
_space_group_symop_operation_xyz
x,y,z
-x,-y,-z
loop_
_atom_site_type_symbol
_atom_site_label
_atom_site_fract_x
_atom_site_fract_y
_atom_site_fract_z
Si Si1 0.557905 0.202907 0.690798
Si Si2 0.905493 0.233217 0.063616
Si Si3 0.437258 0.675982 0.758887
Si Si4 0.938149 0.164661 0.762006
Si Si5 0.575766 0.421134 0.796380
Si Si6 0.878382 0.260461 0.246186
O O1 0.500000 0.500000 0.500000
O O2 0.747265 0.169082 0.734990
O O3 0.481982 0.300663 0.500841
O O4 0.485776 0.912171 0.962723
O O5 0.822777 0.175091 0.200820
O O6 0.764045 0.395877 0.853119
O O7 0.989304 0.998307 0.191540
O O8 0.039426 0.430625 0.969185
O O9 0.492735 0.489534 0.828054
O O10 0.255217 0.729636 0.703477
O O11 0.500000 0.000000 0.500000
O O12 0.500000 0.500000 0.000000
O O13 0.000000 0.500000 0.500000
O O14 0.000000 0.000000 0.000000
O O15 0.000000 0.000000 0.500000
#
# Coordination Sequence:
#
# PCOD9067677 Si02
#       6
#     2   2   2   2   2   2
#     4  12  26  46  71 103 136 182 234 287 347 412
#     4  11  26  45  69 107 141 190 234 291 358 412
#     4  12  25  45  67 102 139 183 234 280 351 410
#     4  12  27  48  75 103 141 184 237 293 350 419
#     4  12  25  44  72  99 142 181 230 286 345 418
#     4  11  26  43  72 102 147 186 237 292 348 428
#
# _framework density 22.23574
#
# number of rings (size 3 to 8) (size 9 to 14) (size 15 to 20)
#    0.000    0.333    1.667    6.500    9.333    0.000 
#    0.000    0.000    0.000    0.000    0.000    0.000 
#    0.000    0.000    0.000    0.000    0.000    0.000 
#
# Total GULP energy -66975.229542 kJ/mol
# GULP energy per Si atom -5581.269129 kJ/mol
# Density = 2.218513 g / cm^3
# Si number density = 22.235740 Si / 1000 Ang^3
#
#
#
# Elastic Constant Matrix: (Units=GPa)
#
#
# Indices 1 2 3 4 5 6 
#
# 1 133.6941 31.5184 10.6790 -14.9276 27.6620 0.5255
# 2 31.5184 129.8764 42.3787 -12.9684 14.7569 -22.3707
# 3 10.6790 42.3787 112.3783 -6.2953 0.6150 4.7358
# 4 -14.9276 -12.9684 -6.2953 48.4769 0.7098 17.5551
# 5 27.6620 14.7569 0.6150 0.7098 47.2697 -6.1484
# 6 0.5255 -22.3707 4.7358 17.5551 -6.1484 45.1214
#
#
#
# Elastic Compliance Matrix: (Units=1/GPa)
#
#
# Indices 1 2 3 4 5 6 
#
# 1 0.009466 -0.001945 0.000207 0.003684 -0.005416 -0.003268
# 2 -0.001945 0.010591 -0.004056 -0.000312 -0.001378 0.005633
# 3 0.000207 -0.004056 0.010658 0.001706 0.000496 -0.003728
# 4 0.003684 -0.000312 0.001706 0.025942 -0.003901 -0.011001
# 5 -0.005416 -0.001378 0.000496 -0.003901 0.025366 0.004302
# 6 -0.003268 0.005633 -0.003728 -0.011001 0.004302 0.030251
#
#
# Mechanical properties :
#
#
# Convention : Reuss Voigt Hill
#
# Bulk Modulus (GPa) = 52.27768 60.56679 56.42223
# Shear Modulus (GPa) = 38.39120 47.59844 42.99482
#
# Velocity S-wave (km/s) = 4.15969 4.63171 4.40203
# Velocity P-wave (km/s) = 6.82879 7.47672 7.16009
#
# Compressibility (1/GPa) = 0.01912862
#
# Stress axis : x y z
#
# Youngs Moduli (GPa) = 105.63720 94.42143 93.82228
#
# Poissons Ratio (x) = 0.18361 -0.01947
# Poissons Ratio (y) = 0.20542 0.38058
# Poissons Ratio (z) = -0.02192 0.38301
#
# Static dielectric constant tensor:
#      x y z
#    x 1.941810 -0.046420 -0.110220 
#    y -0.046420 1.873210 0.034280 
#    z -0.110220 0.034280 1.874980 
# 
# From -- ./inp_files/24382.got.cif
#   From: 2010.05.17/outbox.cif.g08.bks.cpg/sg2_13_cif.got.tgz:24382.got - 2010.06.03 11:33:40.
