data_PCOD9067496
_publ_section_title
;
Structure prediction by ZEFSAII (Michael W. Deem and Ramdas Pophale) SiO2 
 PCOD9067496
Probable space group: P -1
;
_chemical_formula_sum "Si O2"
_cell_formula_units_Z 16
_cell_length_a 11.345495
_cell_length_b 20.074871
_cell_length_c 6.279955
_cell_angle_alpha 100.610281
_cell_angle_beta 75.269865
_cell_angle_gamma 150.104307
_cell_volume 687.514623
_symmetry_space_group_name_H-M "P -1"
_symmetry_group_IT_number 2
_symmetry_cell_setting 'triclinic'
loop_
_space_group_symop_operation_xyz
x,y,z
-x,-y,-z
loop_
_atom_site_type_symbol
_atom_site_label
_atom_site_fract_x
_atom_site_fract_y
_atom_site_fract_z
Si Si1 0.352624 0.258507 0.005289
Si Si2 0.993862 0.463176 0.728908
Si Si3 0.104826 0.906112 0.101612
Si Si4 0.288004 0.938491 0.671619
Si Si5 0.522157 0.818763 0.330448
Si Si6 0.656351 0.481649 0.258468
Si Si7 0.140409 0.287890 0.541755
Si Si8 0.254698 0.113574 0.328887
O O1 0.590179 0.417960 0.020794
O O2 0.302525 0.203374 0.227459
O O3 0.369224 0.199830 0.819543
O O4 0.134267 0.198327 0.989862
O O5 0.209408 0.512497 0.669103
O O6 0.000000 0.500000 0.500000
O O7 0.735482 0.301454 0.735745
O O8 0.000000 0.500000 0.000000
O O9 0.010005 0.838766 0.331842
O O10 0.225961 0.037022 0.138951
O O11 0.273553 0.932249 0.929455
O O12 0.039201 0.786307 0.614366
O O13 0.500000 0.000000 0.500000
O O14 0.331950 0.040558 0.668682
O O15 0.527891 0.803482 0.569115
O O16 0.400148 0.384121 0.412609
O O17 0.819301 0.626575 0.282281
O O18 0.000000 0.000000 0.500000
#
# Coordination Sequence:
#
# PCOD9067496 Si02
#       8
#     2   2   2   2   2   2   2   2
#     4  12  23  40  71 106 141 182 245 313 375 449
#     4  12  28  50  77 114 158 204 252 317 392 463
#     4  12  24  42  73 108 143 190 248 311 386 455
#     4  12  26  48  69 103 148 189 249 309 382 468
#     4  12  25  44  72 107 147 194 242 313 391 447
#     4  11  25  50  73 103 153 196 260 310 376 468
#     4  11  26  49  72 104 141 202 254 310 378 455
#     4  12  22  38  69 107 143 181 235 311 381 448
#
# _framework density 23.272233
#
# number of rings (size 3 to 8) (size 9 to 14) (size 15 to 20)
#    0.000    0.250    6.250    3.375    1.750    1.000 
#    4.500    0.000    0.000    0.000    0.000    0.000 
#    0.000    0.000    0.000    0.000    0.000    0.000 
#
# Total GULP energy -89209.925830 kJ/mol
# GULP energy per Si atom -5575.620364 kJ/mol
# Density = 2.321926 g / cm^3
# Si number density = 23.272233 Si / 1000 Ang^3
#
#
#
# Elastic Constant Matrix: (Units=GPa)
#
#
# Indices 1 2 3 4 5 6 
#
# 1 78.3905 17.6223 26.0790 19.6806 -21.3120 16.8927
# 2 17.6223 97.1468 26.1337 42.2892 -12.4088 1.9240
# 3 26.0790 26.1337 75.0514 26.4447 -14.9574 6.4095
# 4 19.6806 42.2892 26.4447 45.3219 4.4656 -2.0164
# 5 -21.3120 -12.4088 -14.9574 4.4656 39.7454 5.2838
# 6 16.8927 1.9240 6.4095 -2.0164 5.2838 47.3501
#
#
#
# Elastic Compliance Matrix: (Units=1/GPa)
#
#
# Indices 1 2 3 4 5 6 
#
# 1 0.023290 0.006372 0.001088 -0.019039 0.018568 -0.011598
# 2 0.006372 0.022224 0.003298 -0.027248 0.015524 -0.006516
# 3 0.001088 0.003298 0.020649 -0.017022 0.012012 -0.005383
# 4 -0.019039 -0.027248 -0.017022 0.069923 -0.035253 0.017115
# 5 0.018568 0.015524 0.012012 -0.035253 0.050575 -0.016026
# 6 -0.011598 -0.006516 -0.005383 0.017115 -0.016026 0.028768
#
#
# Mechanical properties :
#
#
# Convention : Reuss Voigt Hill
#
# Bulk Modulus (GPa) = 11.40518 43.36208 27.38363
# Shear Modulus (GPa) = 22.40772 38.53373 30.47072
#
# Velocity S-wave (km/s) = 3.10635 4.07354 3.62237
# Velocity P-wave (km/s) = 4.21631 6.38733 5.41181
#
# Compressibility (1/GPa) = 0.08767945
#
# Stress axis : x y z
#
# Youngs Moduli (GPa) = 42.93772 44.99689 48.42891
#
# Poissons Ratio (x) = -0.28673 -0.05269
# Poissons Ratio (y) = -0.27360 -0.15974
# Poissons Ratio (z) = -0.04672 -0.14842
#
# Static dielectric constant tensor:
#      x y z
#    x 1.751400 -0.099850 -0.096140 
#    y -0.099850 1.747150 -0.093240 
#    z -0.096140 -0.093240 1.927090 
# 
# From -- ./inp_files/83277.got.cif
#   From: 2010.05.17/outbox.cif.g08.bks.cpg/sg2_42_cif.got.tgz:83277.got - 2010.06.03 11:33:40.
