data_PCOD9067640
_publ_section_title
;
Structure prediction by ZEFSAII (Michael W. Deem and Ramdas Pophale) SiO2 
 PCOD9067640
Probable space group: P -1
;
_chemical_formula_sum "Si O2"
_cell_formula_units_Z 12
_cell_length_a 8.691493
_cell_length_b 13.866346
_cell_length_c 5.186224
_cell_angle_alpha 70.839875
_cell_angle_beta 58.103469
_cell_angle_gamma 64.762972
_cell_volume 475.679959
_symmetry_space_group_name_H-M "P -1"
_symmetry_group_IT_number 2
_symmetry_cell_setting 'triclinic'
loop_
_space_group_symop_operation_xyz
x,y,z
-x,-y,-z
loop_
_atom_site_type_symbol
_atom_site_label
_atom_site_fract_x
_atom_site_fract_y
_atom_site_fract_z
Si Si1 0.898581 0.106613 0.828986
Si Si2 0.126275 0.223948 0.244959
Si Si3 0.498302 0.930992 0.810640
Si Si4 0.376158 0.337631 0.718859
Si Si5 0.131307 0.547336 0.517980
Si Si6 0.636768 0.323314 0.009288
O O1 0.013703 0.136042 0.458970
O O2 0.694176 0.096858 0.952944
O O3 0.828984 0.218941 0.950035
O O4 0.000000 0.000000 0.000000
O O5 0.310990 0.168725 0.304257
O O6 0.987223 0.339133 0.352400
O O7 0.245928 0.258002 0.880393
O O8 0.500000 0.000000 0.500000
O O9 0.500000 0.000000 0.000000
O O10 0.234441 0.459028 0.715106
O O11 0.515932 0.321324 0.368656
O O12 0.506066 0.324226 0.871620
O O13 0.000000 0.500000 0.500000
O O14 0.288794 0.575137 0.177979
#
# Coordination Sequence:
#
# PCOD9067640 Si02
#       6
#     2   2   2   2   2   2
#     4  11  25  52  79 114 153 200 260 315 383 456
#     4  11  26  47  78 115 154 198 259 309 385 449
#     4  12  28  51  79 109 156 201 251 320 386 448
#     4  12  25  49  78 107 158 198 257 307 383 447
#     4  11  26  48  76 116 157 200 257 317 375 458
#     4  11  27  49  78 113 149 209 249 315 381 458
#
# _framework density 25.227046000000001
#
# number of rings (size 3 to 8) (size 9 to 14) (size 15 to 20)
#    0.000    0.667    3.333    2.500    2.333    4.667 
#    6.000    0.000    0.000    0.000    0.000    0.000 
#    0.000    0.000    0.000    0.000    0.000    0.000 
#
# Total GULP energy -67093.661321 kJ/mol
# GULP energy per Si atom -5591.138443 kJ/mol
# Density = 2.516963 g / cm^3
# Si number density = 25.227046 Si / 1000 Ang^3
#
#
#
# Elastic Constant Matrix: (Units=GPa)
#
#
# Indices 1 2 3 4 5 6 
#
# 1 87.3148 28.1803 61.5618 -15.2093 -13.9807 -8.1322
# 2 28.1803 120.1687 32.7811 -34.6907 12.9304 -47.3356
# 3 61.5618 32.7811 222.6733 -30.0383 -28.3075 12.6689
# 4 -15.2093 -34.6907 -30.0383 51.4747 12.4946 -7.4461
# 5 -13.9807 12.9304 -28.3075 12.4946 60.6362 -6.9733
# 6 -8.1322 -47.3356 12.6689 -7.4461 -6.9733 47.9369
#
#
#
# Elastic Compliance Matrix: (Units=1/GPa)
#
#
# Indices 1 2 3 4 5 6 
#
# 1 0.015366 -0.001265 -0.003771 0.001395 0.002095 0.002876
# 2 -0.001265 0.033170 -0.004286 0.027365 -0.010825 0.036348
# 3 -0.003771 -0.004286 0.006651 -0.001731 0.002759 -0.006497
# 4 0.001395 0.027365 -0.001731 0.044901 -0.011782 0.032976
# 5 0.002095 -0.010825 0.002759 -0.011782 0.021882 -0.009709
# 6 0.002876 0.036348 -0.006497 0.032976 -0.009709 0.062668
#
#
# Mechanical properties :
#
#
# Convention : Reuss Voigt Hill
#
# Bulk Modulus (GPa) = 27.36458 75.02258 51.19358
# Shear Modulus (GPa) = 23.20576 52.51847 37.86211
#
# Velocity S-wave (km/s) = 3.03624 4.56766 3.87829
# Velocity P-wave (km/s) = 4.81274 7.59088 6.35547
#
# Compressibility (1/GPa) = 0.03654360
#
# Stress axis : x y z
#
# Youngs Moduli (GPa) = 65.07794 30.14796 150.34470
#
# Poissons Ratio (x) = 0.03813 0.56698
# Poissons Ratio (y) = 0.08230 0.64439
# Poissons Ratio (z) = 0.24542 0.12922
#
# Static dielectric constant tensor:
#      x y z
#    x 2.005190 -0.129960 0.043630 
#    y -0.129960 1.291380 0.195980 
#    z 0.043630 0.195980 2.007020 
# 
# From -- ./inp_files/36779.got.cif
#   From: 2010.05.17/outbox.cif.g08.bks.cpg/sg2_19_cif.got.tgz:36779.got - 2010.06.03 11:33:40.
