data_PCOD9067352
_publ_section_title
;
Structure prediction by ZEFSAII (Michael W. Deem and Ramdas Pophale) SiO2 
 PCOD9067352
Probable space group: P -1
;
_chemical_formula_sum "Si O2"
_cell_formula_units_Z 12
_cell_length_a 9.078821
_cell_length_b 12.553131
_cell_length_c 8.673540
_cell_angle_alpha 58.542067
_cell_angle_beta 129.915545
_cell_angle_gamma 133.688110
_cell_volume 542.700998
_symmetry_space_group_name_H-M "P -1"
_symmetry_group_IT_number 2
_symmetry_cell_setting 'triclinic'
loop_
_space_group_symop_operation_xyz
x,y,z
-x,-y,-z
loop_
_atom_site_type_symbol
_atom_site_label
_atom_site_fract_x
_atom_site_fract_y
_atom_site_fract_z
Si Si1 0.480941 0.921918 0.886611
Si Si2 0.377996 0.532743 0.528053
Si Si3 0.251905 0.146154 0.076623
Si Si4 0.602906 0.198350 0.546703
Si Si5 0.097194 0.592784 0.838771
Si Si6 0.839600 0.603888 0.201311
O O1 0.642497 0.859165 0.012240
O O2 0.240832 0.767425 0.832188
O O3 0.539238 0.047472 0.702917
O O4 0.500000 0.000000 0.000000
O O5 0.500000 0.500000 0.500000
O O6 0.455728 0.704196 0.457569
O O7 0.344947 0.477442 0.723859
O O8 0.117389 0.439241 0.375415
O O9 0.437701 0.160302 0.316046
O O10 0.205937 0.274139 0.982806
O O11 0.000000 0.000000 0.000000
O O12 0.884067 0.304108 0.635175
O O13 0.202373 0.519302 0.859882
O O14 0.000000 0.500000 0.000000
#
# Coordination Sequence:
#
# PCOD9067352 Si02
#       6
#     2   2   2   2   2   2
#     4  12  26  46  72 105 148 188 233 298 364 422
#     4  11  26  45  72 105 140 188 241 297 356 424
#     4  12  27  43  78 105 140 189 243 291 358 431
#     4  11  25  49  70 103 147 186 237 297 360 425
#     4  11  26  47  73 102 146 189 235 299 356 427
#     4  11  25  49  73 104 143 192 242 288 364 422
#
# _framework density 22.111623000000002
#
# number of rings (size 3 to 8) (size 9 to 14) (size 15 to 20)
#    0.000    0.667    1.667    6.500    9.333    1.333 
#    0.000    1.667    0.000    0.000    0.000    0.000 
#    0.000    0.000    0.000    0.000    0.000    0.000 
#
# Total GULP energy -66949.188990 kJ/mol
# GULP energy per Si atom -5579.099082 kJ/mol
# Density = 2.206130 g / cm^3
# Si number density = 22.111623 Si / 1000 Ang^3
#
#
#
# Elastic Constant Matrix: (Units=GPa)
#
#
# Indices 1 2 3 4 5 6 
#
# 1 151.2161 61.4407 48.8062 -2.6385 -13.3800 -44.0953
# 2 61.4407 203.5975 49.1107 5.8395 -7.2492 -27.1206
# 3 48.8062 49.1107 76.1171 10.6114 6.5943 -7.2104
# 4 -2.6385 5.8395 10.6114 40.0596 1.9652 -3.1088
# 5 -13.3800 -7.2492 6.5943 1.9652 33.8041 -3.5984
# 6 -44.0953 -27.1206 -7.2104 -3.1088 -3.5984 46.9766
#
#
#
# Elastic Compliance Matrix: (Units=1/GPa)
#
#
# Indices 1 2 3 4 5 6 
#
# 1 0.014088 -0.000220 -0.008967 0.003903 0.008395 0.012622
# 2 -0.000220 0.006419 -0.003944 0.000218 0.002375 0.003090
# 3 -0.008967 -0.003944 0.022294 -0.006117 -0.009281 -0.008388
# 4 0.003903 0.000218 -0.006117 0.027095 0.001718 0.004775
# 5 0.008395 0.002375 -0.009281 0.001718 0.036266 0.010718
# 6 0.012622 0.003090 -0.008388 0.004775 0.010718 0.034769
#
#
# Mechanical properties :
#
#
# Convention : Reuss Voigt Hill
#
# Bulk Modulus (GPa) = 60.46157 83.29395 71.87776
# Shear Modulus (GPa) = 28.95078 42.27294 35.61186
#
# Velocity S-wave (km/s) = 3.62235 4.37715 4.01752
# Velocity P-wave (km/s) = 6.70063 7.95597 7.35513
#
# Compressibility (1/GPa) = 0.01653943
#
# Stress axis : x y z
#
# Youngs Moduli (GPa) = 70.98112 155.77686 44.85465
#
# Poissons Ratio (x) = 0.03430 0.40221
# Poissons Ratio (y) = 0.01563 0.17691
# Poissons Ratio (z) = 0.63649 0.61439
#
# Static dielectric constant tensor:
#      x y z
#    x 1.910270 -0.071550 -0.034210 
#    y -0.071550 1.859020 0.154750 
#    z -0.034210 0.154750 1.919720 
# 
# From -- ./inp_files/172269.got.cif
#   From: 2010.05.17/outbox.cif.g08.bks.cpg/sg2_87_cif.got.tgz:172269.got - 2010.06.03 11:33:40.
