data_PCOD9067404
_publ_section_title
;
Structure prediction by ZEFSAII (Michael W. Deem and Ramdas Pophale) SiO2 
 PCOD9067404
Probable space group: P -1
;
_chemical_formula_sum "Si O2"
_cell_formula_units_Z 16
_cell_length_a 9.487090
_cell_length_b 6.947065
_cell_length_c 17.022542
_cell_angle_alpha 67.584545
_cell_angle_beta 122.503802
_cell_angle_gamma 125.522688
_cell_volume 766.162416
_symmetry_space_group_name_H-M "P -1"
_symmetry_group_IT_number 2
_symmetry_cell_setting 'triclinic'
loop_
_space_group_symop_operation_xyz
x,y,z
-x,-y,-z
loop_
_atom_site_type_symbol
_atom_site_label
_atom_site_fract_x
_atom_site_fract_y
_atom_site_fract_z
Si Si1 0.054378 0.497979 0.399733
Si Si2 0.989778 0.727022 0.749491
Si Si3 0.987015 0.616244 0.058034
Si Si4 0.610092 0.796761 0.219187
Si Si5 0.652448 0.011841 0.820470
Si Si6 0.570847 0.534248 0.927711
Si Si7 0.731377 0.965674 0.672625
Si Si8 0.692620 0.423316 0.394913
O O1 0.052207 0.388148 0.331684
O O2 0.189484 0.463194 0.508012
O O3 0.842056 0.387470 0.390020
O O4 0.146832 0.785230 0.374824
O O5 0.831284 0.801273 0.716506
O O6 0.006724 0.546334 0.843569
O O7 0.190642 0.967527 0.770267
O O8 0.168785 0.869990 0.086118
O O9 0.793399 0.624746 0.990298
O O10 0.000000 0.500000 0.000000
O O11 0.471026 0.859434 0.218471
O O12 0.518976 0.687973 0.123933
O O13 0.642362 0.603626 0.306089
O O14 0.532202 0.734375 0.846147
O O15 0.730063 0.033757 0.752646
O O16 0.500000 0.500000 0.000000
O O17 0.506606 0.811454 0.609231
#
# Coordination Sequence:
#
# PCOD9067404 Si02
#       8
#     2   2   2   2   2   2   2   2
#     4  11  26  50  71 108 139 186 229 292 353 416
#     4  12  27  44  73 103 142 182 234 290 348 415
#     4  12  25  45  67  99 139 182 234 286 344 413
#     4  12  26  47  67 104 141 184 232 290 348 416
#     4  12  25  46  72  96 142 188 227 292 350 409
#     4  12  28  43  69 102 135 185 236 286 350 413
#     4  12  24  47  75 106 138 187 233 286 353 413
#     4  11  25  49  75 101 147 180 234 287 353 424
#
# _framework density 20.883299000000001
#
# number of rings (size 3 to 8) (size 9 to 14) (size 15 to 20)
#    0.000    0.250    5.000    3.750    5.250    2.000 
#    2.250    0.000    0.000    0.000    0.000    0.000 
#    0.000    0.000    0.000    0.000    0.000    0.000 
#
# Total GULP energy -89520.363421 kJ/mol
# GULP energy per Si atom -5595.022714 kJ/mol
# Density = 2.083577 g / cm^3
# Si number density = 20.883299 Si / 1000 Ang^3
#
#
#
# Elastic Constant Matrix: (Units=GPa)
#
#
# Indices 1 2 3 4 5 6 
#
# 1 86.1153 37.0461 45.9731 22.5620 6.0172 -22.8497
# 2 37.0461 96.1175 29.0559 16.8171 6.5782 -0.9862
# 3 45.9731 29.0559 107.6513 18.8378 -4.9318 -20.1468
# 4 22.5620 16.8171 18.8378 36.3714 2.2748 -5.6437
# 5 6.0172 6.5782 -4.9318 2.2748 39.7208 4.3371
# 6 -22.8497 -0.9862 -20.1468 -5.6437 4.3371 36.0805
#
#
#
# Elastic Compliance Matrix: (Units=1/GPa)
#
#
# Indices 1 2 3 4 5 6 
#
# 1 0.020908 -0.005164 -0.004735 -0.006368 -0.003616 0.009895
# 2 -0.005164 0.013430 -0.001785 -0.002666 -0.001053 -0.004191
# 3 -0.004735 -0.001785 0.013015 -0.002580 0.002391 0.003529
# 4 -0.006368 -0.002666 -0.002580 0.034048 -0.000851 -0.000118
# 5 -0.003616 -0.001053 0.002391 -0.000851 0.026716 -0.004328
# 6 0.009895 -0.004191 0.003529 -0.000118 -0.004328 0.036340
#
#
# Mechanical properties :
#
#
# Convention : Reuss Voigt Hill
#
# Bulk Modulus (GPa) = 41.69452 57.11493 49.40472
# Shear Modulus (GPa) = 28.43836 34.28845 31.36341
#
# Velocity S-wave (km/s) = 3.69423 4.05644 3.87956
# Velocity P-wave (km/s) = 6.18104 7.02485 6.61641
#
# Compressibility (1/GPa) = 0.02398397
#
# Stress axis : x y z
#
# Youngs Moduli (GPa) = 47.82864 74.46290 76.83719
#
# Poissons Ratio (x) = 0.38453 0.36379
# Poissons Ratio (y) = 0.24699 0.13719
# Poissons Ratio (z) = 0.22645 0.13295
#
# Static dielectric constant tensor:
#      x y z
#    x 1.719710 0.004630 -0.011510 
#    y 0.004630 1.776450 0.001200 
#    z -0.011510 0.001200 1.736330 
# 
# From -- ./inp_files/39973.got.cif
#   From: 2010.05.17/outbox.cif.g08.bks.cpg/sg2_20_cif.got.tgz:39973.got - 2010.06.03 11:33:40.
