data_PCOD9067127
_publ_section_title
;
Structure prediction by ZEFSAII (Michael W. Deem and Ramdas Pophale) SiO2 
 PCOD9067127
Probable space group: P -1
;
_chemical_formula_sum "Si O2"
_cell_formula_units_Z 16
_cell_length_a 12.965876
_cell_length_b 9.888825
_cell_length_c 11.478597
_cell_angle_alpha 48.120459
_cell_angle_beta 68.036346
_cell_angle_gamma 47.172102
_cell_volume 795.028253
_symmetry_space_group_name_H-M "P -1"
_symmetry_group_IT_number 2
_symmetry_cell_setting 'triclinic'
loop_
_space_group_symop_operation_xyz
x,y,z
-x,-y,-z
loop_
_atom_site_type_symbol
_atom_site_label
_atom_site_fract_x
_atom_site_fract_y
_atom_site_fract_z
Si Si1 0.404955 0.274690 0.898772
Si Si2 0.933606 0.079189 0.610910
Si Si3 0.420334 0.094346 0.604614
Si Si4 0.908732 0.414832 0.045547
Si Si5 0.385553 0.467121 0.547764
Si Si6 0.108096 0.550137 0.436203
Si Si7 0.415941 0.735242 0.970207
Si Si8 0.145110 0.745439 0.079517
O O1 0.252259 0.392718 0.952613
O O2 0.361897 0.394745 0.722469
O O3 0.503973 0.306690 0.917190
O O4 0.500000 0.000000 0.000000
O O5 0.761712 0.282623 0.569739
O O6 0.970994 0.229042 0.571860
O O7 0.000000 0.000000 0.500000
O O8 0.001478 0.842540 0.787701
O O9 0.462400 0.240618 0.563234
O O10 0.252240 0.305510 0.553859
O O11 0.500000 0.000000 0.500000
O O12 0.433011 0.903724 0.790591
O O13 0.874035 0.375752 0.951244
O O14 0.000000 0.500000 0.000000
O O15 0.500000 0.500000 0.500000
O O16 0.155179 0.613248 0.266310
O O17 0.000000 0.500000 0.500000
O O18 0.500000 0.500000 0.000000
O O19 0.263415 0.787397 0.009522
O O20 0.000000 0.000000 0.000000
#
# Coordination Sequence:
#
# PCOD9067127 Si02
#       8
#     2   2   2   2   2   2   2   2
#     4  12  27  47  72 106 146 192 241 293 366 424
#     4  11  25  48  68 103 141 185 239 287 364 422
#     4  11  26  45  68 104 141 185 235 292 359 418
#     4  12  29  47  74 106 144 190 243 301 361 435
#     4  11  27  45  73 104 143 188 237 297 359 428
#     4  11  26  44  71 101 140 184 234 294 355 426
#     4  12  26  46  73 102 149 189 244 294 354 442
#     4  12  26  46  73 106 141 191 242 295 364 426
#
# _framework density 20.125070999999998
#
# number of rings (size 3 to 8) (size 9 to 14) (size 15 to 20)
#    0.000    0.500    5.000    1.500   10.500    1.000 
#    0.000    0.000    0.000    0.000    0.000    0.000 
#    0.000    0.000    0.000    0.000    0.000    0.000 
#
# Total GULP energy -89108.574374 kJ/mol
# GULP energy per Si atom -5569.285898 kJ/mol
# Density = 2.007927 g / cm^3
# Si number density = 20.125071 Si / 1000 Ang^3
#
#
#
# Elastic Constant Matrix: (Units=GPa)
#
#
# Indices 1 2 3 4 5 6 
#
# 1 145.7858 59.0837 16.4824 -9.5125 -25.3933 26.9125
# 2 59.0837 158.3212 31.5105 -10.8992 -9.3998 26.0223
# 3 16.4824 31.5105 52.1038 -18.5374 7.7537 3.5968
# 4 -9.5125 -10.8992 -18.5374 45.4938 0.7195 7.4037
# 5 -25.3933 -9.3998 7.7537 0.7195 32.0099 1.7753
# 6 26.9125 26.0223 3.5968 7.4037 1.7753 40.5882
#
#
#
# Elastic Compliance Matrix: (Units=1/GPa)
#
#
# Indices 1 2 3 4 5 6 
#
# 1 0.010730 -0.001782 -0.002614 0.001658 0.008942 -0.006435
# 2 -0.001782 0.008789 -0.004662 0.000483 0.002521 -0.004239
# 3 -0.002614 -0.004662 0.027762 0.009658 -0.010437 0.000957
# 4 0.001658 0.000483 0.009658 0.027576 -0.001101 -0.007247
# 5 0.008942 0.002521 -0.010437 -0.001101 0.042085 -0.008260
# 6 -0.006435 -0.004239 0.000957 -0.007247 -0.008260 0.033220
#
#
# Mechanical properties :
#
#
# Convention : Reuss Voigt Hill
#
# Bulk Modulus (GPa) = 34.28609 63.37378 48.82993
# Shear Modulus (GPa) = 28.08996 40.22731 34.15864
#
# Velocity S-wave (km/s) = 3.74005 4.47572 4.12432
# Velocity P-wave (km/s) = 5.97697 7.63333 6.85536
#
# Compressibility (1/GPa) = 0.02916635
#
# Stress axis : x y z
#
# Youngs Moduli (GPa) = 93.19245 113.78272 36.02027
#
# Poissons Ratio (x) = 0.20272 0.09415
# Poissons Ratio (y) = 0.16604 0.16793
# Poissons Ratio (z) = 0.24358 0.53046
#
# Static dielectric constant tensor:
#      x y z
#    x 1.954020 0.056720 0.214170 
#    y 0.056720 1.680070 0.029430 
#    z 0.214170 0.029430 1.771060 
# 
# From -- ./inp_files/346396.got.cif
#   From: 2010.05.17/outbox.cif.g08.bks.cpg/sg2_174_cif.got.tgz:346396.got - 2010.06.03 11:33:40.
