data_PCOD9067339
_publ_section_title
;
Structure prediction by ZEFSAII (Michael W. Deem and Ramdas Pophale) SiO2 
 PCOD9067339
Probable space group: P -1
;
_chemical_formula_sum "Si O2"
_cell_formula_units_Z 13
_cell_length_a 9.165926
_cell_length_b 7.839884
_cell_length_c 9.366698
_cell_angle_alpha 97.718570
_cell_angle_beta 45.334621
_cell_angle_gamma 89.921194
_cell_volume 469.978121
_symmetry_space_group_name_H-M "P -1"
_symmetry_group_IT_number 2
_symmetry_cell_setting 'triclinic'
loop_
_space_group_symop_operation_xyz
x,y,z
-x,-y,-z
loop_
_atom_site_type_symbol
_atom_site_label
_atom_site_fract_x
_atom_site_fract_y
_atom_site_fract_z
Si Si1 0.164459 0.125512 0.496592
Si Si2 0.618488 0.719986 0.381810
Si Si3 0.176372 0.348553 0.235787
Si Si4 0.763408 0.199058 0.974019
Si Si5 0.529931 0.883063 0.175045
Si Si6 0.826930 0.356076 0.240180
Si Si7 0.500000 0.500000 0.000000
O O1 0.328845 0.204286 0.494205
O O2 0.145559 0.226288 0.372861
O O3 0.959742 0.143033 0.732060
O O4 0.285982 0.935353 0.360487
O O5 0.625948 0.850001 0.261056
O O6 0.782885 0.550115 0.230163
O O7 0.387145 0.673094 0.539583
O O8 0.006154 0.347800 0.232780
O O9 0.398554 0.291830 0.986362
O O10 0.261768 0.518314 0.251175
O O11 0.623703 0.374917 0.039484
O O12 0.849964 0.226463 0.076486
O O13 0.629741 0.038397 0.050318
#
# Coordination Sequence:
#
# PCOD9067339 Si02
#       7
#     2   2   2   2   2   2   1
#     4  12  27  49  76 116 150 207 247 316 375 458
#     4  11  25  48  81 107 161 195 263 307 380 445
#     4  12  28  49  80 107 159 195 263 308 388 440
#     4  12  28  49  83 110 159 196 260 306 389 442
#     4  12  27  51  77 115 154 203 250 319 370 466
#     4  11  26  51  78 119 145 211 250 318 373 459
#     4  12  26  52  74 110 150 200 246 328 360 454
#
# _framework density 27.660862000000002
#
# number of rings (size 3 to 8) (size 9 to 14) (size 15 to 20)
#    0.000    0.308    3.077    3.692    2.154   11.077 
#    0.000    0.000    0.000    0.000    0.000    0.000 
#    0.000    0.000    0.000    0.000    0.000    0.000 
#
# Total GULP energy -72849.670346 kJ/mol
# GULP energy per Si atom -5603.820796 kJ/mol
# Density = 2.759790 g / cm^3
# Si number density = 27.660862 Si / 1000 Ang^3
#
#
#
# Elastic Constant Matrix: (Units=GPa)
#
#
# Indices 1 2 3 4 5 6 
#
# 1 241.3759 55.4503 80.7991 -3.9600 0.2745 -25.6589
# 2 55.4503 167.2317 74.6416 -10.8161 6.4336 -15.8087
# 3 80.7991 74.6416 158.1811 14.4530 1.3675 -20.9903
# 4 -3.9600 -10.8161 14.4530 48.8077 -3.8481 6.6566
# 5 0.2745 6.4336 1.3675 -3.8481 34.0178 -8.7425
# 6 -25.6589 -15.8087 -20.9903 6.6566 -8.7425 49.4424
#
#
#
# Elastic Compliance Matrix: (Units=1/GPa)
#
#
# Indices 1 2 3 4 5 6 
#
# 1 0.005208 -0.000532 -0.002281 0.000817 0.000646 0.001568
# 2 -0.000532 0.008065 -0.003756 0.002754 -0.001018 0.000157
# 3 -0.002281 -0.003756 0.009979 -0.004277 0.000490 0.002514
# 4 0.000817 0.002754 -0.004277 0.022999 0.001382 -0.003363
# 5 0.000646 -0.001018 0.000490 0.001382 0.031144 0.005539
# 6 0.001568 0.000157 0.002514 -0.003363 0.005539 0.023589
#
#
# Mechanical properties :
#
#
# Convention : Reuss Voigt Hill
#
# Bulk Modulus (GPa) = 98.87429 109.84120 104.35775
# Shear Modulus (GPa) = 42.55514 50.18009 46.36762
#
# Velocity S-wave (km/s) = 3.92658 4.26387 4.09869
# Velocity P-wave (km/s) = 7.50867 8.00231 7.75942
#
# Compressibility (1/GPa) = 0.01011385
#
# Stress axis : x y z
#
# Youngs Moduli (GPa) = 192.00231 123.99737 100.20568
#
# Poissons Ratio (x) = 0.06603 0.22859
# Poissons Ratio (y) = 0.10224 0.37633
# Poissons Ratio (z) = 0.43801 0.46568
#
# Static dielectric constant tensor:
#      x y z
#    x 2.140540 0.088650 -0.025020 
#    y 0.088650 2.272830 0.068910 
#    z -0.025020 0.068910 2.197300 
# 
# From -- ./inp_files/157815.got.cif
#   From: 2010.05.17/outbox.cif.g08.bks.cpg/sg2_79_cif.got.tgz:157815.got - 2010.06.03 11:33:40.
