data_PCOD9067551
_publ_section_title
;
Structure prediction by ZEFSAII (Michael W. Deem and Ramdas Pophale) SiO2 
 PCOD9067551
Probable space group: P -1
;
_chemical_formula_sum "Si O2"
_cell_formula_units_Z 12
_cell_length_a 8.731321
_cell_length_b 4.883907
_cell_length_c 14.172329
_cell_angle_alpha 109.496808
_cell_angle_beta 56.145831
_cell_angle_gamma 107.346176
_cell_volume 468.223361
_symmetry_space_group_name_H-M "P -1"
_symmetry_group_IT_number 2
_symmetry_cell_setting 'triclinic'
loop_
_space_group_symop_operation_xyz
x,y,z
-x,-y,-z
loop_
_atom_site_type_symbol
_atom_site_label
_atom_site_fract_x
_atom_site_fract_y
_atom_site_fract_z
Si Si1 0.866500 0.054738 0.915452
Si Si2 0.176582 0.861415 0.460978
Si Si3 0.572231 0.959550 0.285546
Si Si4 0.187302 0.421613 0.750139
Si Si5 0.033869 0.371933 0.319646
Si Si6 0.356120 0.432279 0.955470
O O1 0.707978 0.256580 0.008196
O O2 0.056501 0.280520 0.864724
O O3 0.824742 0.793829 0.974487
O O4 0.867129 0.869063 0.796408
O O5 0.374342 0.045889 0.393020
O O6 0.133162 0.774299 0.573316
O O7 0.168577 0.567115 0.367248
O O8 0.000000 0.000000 0.500000
O O9 0.653529 0.786404 0.324019
O O10 0.713254 0.245212 0.239655
O O11 0.556980 0.728628 0.178084
O O12 0.054329 0.435074 0.706646
O O13 0.500000 0.500000 0.000000
#
# Coordination Sequence:
#
# PCOD9067551 Si02
#       6
#     2   2   2   2   2   2
#     4  12  24  49  76 107 155 201 242 304 385 441
#     4  11  28  49  82 108 152 203 251 325 372 457
#     4  12  29  48  75 118 151 195 266 303 382 445
#     4  12  26  50  76 114 156 202 244 319 370 465
#     4  11  25  50  78 110 148 206 252 300 396 439
#     4  12  27  46  78 113 155 198 249 317 364 457
#
# _framework density 25.628796000000001
#
# number of rings (size 3 to 8) (size 9 to 14) (size 15 to 20)
#    0.000    0.333    3.333    3.500    7.000    5.333 
#    0.000    0.000    0.000    0.000    0.000    0.000 
#    0.000    0.000    0.000    0.000    0.000    0.000 
#
# Total GULP energy -67205.978288 kJ/mol
# GULP energy per Si atom -5600.498191 kJ/mol
# Density = 2.557046 g / cm^3
# Si number density = 25.628796 Si / 1000 Ang^3
#
#
#
# Elastic Constant Matrix: (Units=GPa)
#
#
# Indices 1 2 3 4 5 6 
#
# 1 48.6998 22.2278 9.6123 -9.7624 4.7430 -15.8010
# 2 22.2278 144.7253 35.6494 -0.3526 6.9969 -11.2529
# 3 9.6123 35.6494 116.5431 -14.5172 7.4731 4.9695
# 4 -9.7624 -0.3526 -14.5172 42.9073 1.7202 -0.8318
# 5 4.7430 6.9969 7.4731 1.7202 45.3139 0.6326
# 6 -15.8010 -11.2529 4.9695 -0.8318 0.6326 41.0422
#
#
#
# Elastic Compliance Matrix: (Units=1/GPa)
#
#
# Indices 1 2 3 4 5 6 
#
# 1 0.026677 -0.003014 -0.000771 0.006075 -0.002566 0.009700
# 2 -0.003014 0.008094 -0.002426 -0.001394 -0.000500 0.001332
# 3 -0.000771 -0.002426 0.009953 0.003183 -0.001278 -0.002083
# 4 0.006075 -0.001394 0.003183 0.025873 -0.001957 0.002126
# 5 -0.002566 -0.000500 -0.001278 -0.001957 0.022718 -0.001360
# 6 0.009700 0.001332 -0.002083 0.002126 -0.001360 0.028781
#
#
# Mechanical properties :
#
#
# Convention : Reuss Voigt Hill
#
# Bulk Modulus (GPa) = 30.95662 49.43856 40.19759
# Shear Modulus (GPa) = 34.41477 42.01791 38.21634
#
# Velocity S-wave (km/s) = 3.66842 4.05344 3.86573
# Velocity P-wave (km/s) = 5.48162 6.42178 5.97024
#
# Compressibility (1/GPa) = 0.03230327
#
# Stress axis : x y z
#
# Youngs Moduli (GPa) = 37.48576 123.54100 100.46835
#
# Poissons Ratio (x) = 0.37239 0.07742
# Poissons Ratio (y) = 0.11299 0.24372
# Poissons Ratio (z) = 0.02889 0.29969
#
# Static dielectric constant tensor:
#      x y z
#    x 2.040870 0.031780 0.002300 
#    y 0.031780 1.996850 0.017340 
#    z 0.002300 0.017340 2.031930 
# 
# From -- ./inp_files/487263.got.cif
#   From: 2010.05.17/outbox.cif.g08.bks.cpg/sg2_244_cif.got.tgz:487263.got - 2010.06.03 11:33:40.
