data_PCOD9067574
_publ_section_title
;
Structure prediction by ZEFSAII (Michael W. Deem and Ramdas Pophale) SiO2 
 PCOD9067574
Probable space group: P -1
;
_chemical_formula_sum "Si O2"
_cell_formula_units_Z 13
_cell_length_a 9.018109
_cell_length_b 12.226819
_cell_length_c 8.234917
_cell_angle_alpha 56.380417
_cell_angle_beta 76.812506
_cell_angle_gamma 39.860878
_cell_volume 450.447720
_symmetry_space_group_name_H-M "P -1"
_symmetry_group_IT_number 2
_symmetry_cell_setting 'triclinic'
loop_
_space_group_symop_operation_xyz
x,y,z
-x,-y,-z
loop_
_atom_site_type_symbol
_atom_site_label
_atom_site_fract_x
_atom_site_fract_y
_atom_site_fract_z
Si Si1 0.487539 0.511355 0.719942
Si Si2 0.261143 0.044935 0.370700
Si Si3 0.610974 0.211488 0.134250
Si Si4 0.905371 0.449473 0.691883
Si Si5 0.000000 0.500000 0.000000
Si Si6 0.835308 0.120770 0.708596
Si Si7 0.397868 0.022908 0.837662
O O1 0.619713 0.318895 0.720482
O O2 0.217146 0.740460 0.539230
O O3 0.654373 0.531087 0.671157
O O4 0.459785 0.444376 0.942944
O O5 0.088550 0.290922 0.216693
O O6 0.320687 0.915951 0.617718
O O7 0.195946 0.997392 0.272765
O O8 0.533215 0.919028 0.361651
O O9 0.468205 0.200975 0.068756
O O10 0.891128 0.060279 0.140670
O O11 0.109622 0.200031 0.791625
O O12 0.000000 0.500000 0.500000
O O13 0.945148 0.472357 0.847194
O O14 0.500000 0.000000 0.000000
#
# Coordination Sequence:
#
# PCOD9067574 Si02
#       7
#     2   2   2   2   1   2   2
#     4  11  26  49  86 120 159 220 281 337 428 503
#     4  12  27  50  78 122 164 214 277 346 415 498
#     4  12  26  47  81 118 165 213 277 348 417 501
#     4  12  26  51  81 122 167 216 280 345 419 502
#     4  12  28  48  78 122 168 214 282 340 420 496
#     4  11  25  50  80 117 163 213 275 340 419 500
#     4  12  25  48  77 110 158 217 267 337 415 489
#
# _framework density 28.860175000000002
#
# number of rings (size 3 to 8) (size 9 to 14) (size 15 to 20)
#    0.000    0.308    3.077    5.077    0.000    4.308 
#    0.000    0.000    0.000    0.000    0.000    0.000 
#    0.000    0.000    0.000    0.000    0.000    0.000 
#
# Total GULP energy -72533.765426 kJ/mol
# GULP energy per Si atom -5579.520417 kJ/mol
# Density = 2.879449 g / cm^3
# Si number density = 28.860175 Si / 1000 Ang^3
#
#
#
# Elastic Constant Matrix: (Units=GPa)
#
#
# Indices 1 2 3 4 5 6 
#
# 1 107.1867 11.1155 39.2076 20.1472 -6.0013 26.7196
# 2 11.1155 87.9375 17.6834 7.4878 -15.9933 42.5204
# 3 39.2076 17.6834 220.1089 15.3054 -22.2128 -4.7816
# 4 20.1472 7.4878 15.3054 43.6465 -3.6601 4.3876
# 5 -6.0013 -15.9933 -22.2128 -3.6601 50.4294 -3.6292
# 6 26.7196 42.5204 -4.7816 4.3876 -3.6292 69.8466
#
#
#
# Elastic Compliance Matrix: (Units=1/GPa)
#
#
# Indices 1 2 3 4 5 6 
#
# 1 0.012230 0.002179 -0.002110 -0.004654 0.000459 -0.005833
# 2 0.002179 0.017908 -0.001501 -0.002036 0.004303 -0.011487
# 3 -0.002110 -0.001501 0.005311 -0.000710 0.001720 0.002218
# 4 -0.004654 -0.002036 -0.000710 0.025555 0.000443 0.001389
# 5 0.000459 0.004303 0.001720 0.000443 0.021926 -0.001566
# 6 -0.005833 -0.011487 0.002218 0.001389 -0.001566 0.023525
#
#
# Mechanical properties :
#
#
# Convention : Reuss Voigt Hill
#
# Bulk Modulus (GPa) = 30.68873 61.24955 45.96914
# Shear Modulus (GPa) = 41.60385 55.93293 48.76839
#
# Velocity S-wave (km/s) = 3.80091 4.40712 4.11520
# Velocity P-wave (km/s) = 5.46985 6.86774 6.20827
#
# Compressibility (1/GPa) = 0.03258525
#
# Stress axis : x y z
#
# Youngs Moduli (GPa) = 81.76501 55.84024 188.29542
#
# Poissons Ratio (x) = -0.12167 0.39736
# Poissons Ratio (y) = -0.17815 0.28254
# Poissons Ratio (z) = 0.17255 0.08379
#
# Static dielectric constant tensor:
#      x y z
#    x 4.354050 -1.051300 -0.185250 
#    y -1.051300 2.883950 0.173660 
#    z -0.185250 0.173660 2.272330 
# 
# From -- ./inp_files/184035.got.cif
#   From: 2010.05.17/outbox.cif.g08.bks.cpg/sg2_93_cif.got.tgz:184035.got - 2010.06.03 11:33:40.
