data_PCOD9067448
_publ_section_title
;
Structure prediction by ZEFSAII (Michael W. Deem and Ramdas Pophale) SiO2 
 PCOD9067448
Probable space group: P -1
;
_chemical_formula_sum "Si O2"
_cell_formula_units_Z 14
_cell_length_a 13.236913
_cell_length_b 5.130623
_cell_length_c 17.522048
_cell_angle_alpha 66.641200
_cell_angle_beta 150.649081
_cell_angle_gamma 112.109254
_cell_volume 534.220097
_symmetry_space_group_name_H-M "P -1"
_symmetry_group_IT_number 2
_symmetry_cell_setting 'triclinic'
loop_
_space_group_symop_operation_xyz
x,y,z
-x,-y,-z
loop_
_atom_site_type_symbol
_atom_site_label
_atom_site_fract_x
_atom_site_fract_y
_atom_site_fract_z
Si Si1 0.583685 0.694897 0.601900
Si Si2 0.976912 0.072622 0.068264
Si Si3 0.648798 0.167565 0.317736
Si Si4 0.611140 0.685788 0.133844
Si Si5 0.577180 0.413880 0.783058
Si Si6 0.184041 0.442471 0.868702
Si Si7 0.971068 0.078000 0.381945
O O1 0.500000 0.500000 0.500000
O O2 0.501551 0.512297 0.640293
O O3 0.821398 0.776716 0.774779
O O4 0.500000 0.000000 0.500000
O O5 0.915078 0.784243 0.110301
O O6 0.802412 0.297685 0.938299
O O7 0.000000 0.000000 0.000000
O O8 0.469447 0.312654 0.229262
O O9 0.841717 0.101104 0.505371
O O10 0.564544 0.871127 0.260929
O O11 0.369548 0.655163 0.000785
O O12 0.974944 0.379932 0.305412
O O13 0.705144 0.406064 0.264000
O O14 0.748222 0.942372 0.229199
O O15 0.328554 0.301524 0.916942
O O16 0.000000 0.000000 0.500000
#
# Coordination Sequence:
#
# PCOD9067448 Si02
#       7
#     2   2   2   2   2   2   2
#     4  12  29  54  86 127 167 217 295 373 438 511
#     4  12  28  59  90 124 173 240 299 360 440 530
#     4  12  26  46  86 122 169 221 278 348 440 514
#     4  11  25  49  77 123 171 221 284 351 430 519
#     4  12  28  53  83 120 168 229 284 351 435 525
#     4  11  27  50  83 122 167 225 293 354 429 521
#     4  12  26  48  82 123 176 225 280 353 442 516
#
# _framework density 26.206429
#
# number of rings (size 3 to 8) (size 9 to 14) (size 15 to 20)
#    0.000    0.286    2.857    4.714    4.000    3.429 
#    5.143    0.000    0.000    0.000    0.000    0.000 
#    0.000    0.000    0.000    0.000    0.000    0.000 
#
# Total GULP energy -78251.206626 kJ/mol
# GULP energy per Si atom -5589.371902 kJ/mol
# Density = 2.614678 g / cm^3
# Si number density = 26.206429 Si / 1000 Ang^3
#
#
#
# Elastic Constant Matrix: (Units=GPa)
#
#
# Indices 1 2 3 4 5 6 
#
# 1 124.1136 49.2098 63.4083 -8.8448 -3.8185 14.1764
# 2 49.2098 158.4235 73.1309 -20.7046 -1.6638 13.0519
# 3 63.4083 73.1309 153.5474 -24.1195 -3.8983 6.0601
# 4 -8.8448 -20.7046 -24.1195 75.4973 1.5427 -2.8698
# 5 -3.8185 -1.6638 -3.8983 1.5427 42.9005 -7.7583
# 6 14.1764 13.0519 6.0601 -2.8698 -7.7583 42.6253
#
#
#
# Elastic Compliance Matrix: (Units=1/GPa)
#
#
# Indices 1 2 3 4 5 6 
#
# 1 0.010819 -0.001480 -0.003724 -0.000430 0.000108 -0.002625
# 2 -0.001480 0.008537 -0.003230 0.001081 -0.000435 -0.001669
# 3 -0.003724 -0.003230 0.009853 0.001854 0.000563 0.001054
# 4 -0.000430 0.001081 0.001854 0.014106 -0.000253 0.000452
# 5 0.000108 -0.000435 0.000563 -0.000253 0.024158 0.004397
# 6 -0.002625 -0.001669 0.001054 0.000452 0.004397 0.025525
#
#
# Mechanical properties :
#
#
# Convention : Reuss Voigt Hill
#
# Bulk Modulus (GPa) = 81.03512 89.73139 85.38326
# Shear Modulus (GPa) = 43.86686 48.89366 46.38026
#
# Velocity S-wave (km/s) = 4.09577 4.32408 4.21147
# Velocity P-wave (km/s) = 7.30452 7.69706 7.50336
#
# Compressibility (1/GPa) = 0.01234033
#
# Stress axis : x y z
#
# Youngs Moduli (GPa) = 92.42891 117.13209 101.49369
#
# Poissons Ratio (x) = 0.17341 0.37796
# Poissons Ratio (y) = 0.13684 0.32783
# Poissons Ratio (z) = 0.34420 0.37835
#
# Static dielectric constant tensor:
#      x y z
#    x 2.185240 -0.046880 0.046260 
#    y -0.046880 2.081520 0.047290 
#    z 0.046260 0.047290 2.176940 
# 
# From -- ./inp_files/571647.got.cif
#   From: 2010.05.17/outbox.cif.g08.bks.cpg/sg2_286_cif.got.tgz:571647.got - 2010.06.03 11:33:40.
