data_PCOD9067428
_publ_section_title
;
Structure prediction by ZEFSAII (Michael W. Deem and Ramdas Pophale) SiO2 
 PCOD9067428
Probable space group: P -1
;
_chemical_formula_sum "Si O2"
_cell_formula_units_Z 12
_cell_length_a 5.278669
_cell_length_b 8.909984
_cell_length_c 12.023260
_cell_angle_alpha 95.304636
_cell_angle_beta 79.117773
_cell_angle_gamma 121.515051
_cell_volume 473.398149
_symmetry_space_group_name_H-M "P -1"
_symmetry_group_IT_number 2
_symmetry_cell_setting 'triclinic'
loop_
_space_group_symop_operation_xyz
x,y,z
-x,-y,-z
loop_
_atom_site_type_symbol
_atom_site_label
_atom_site_fract_x
_atom_site_fract_y
_atom_site_fract_z
Si Si1 0.247744 0.526226 0.213121
Si Si2 0.665779 0.722880 0.379347
Si Si3 0.691979 0.371735 0.384158
Si Si4 0.811643 0.775814 0.935069
Si Si5 0.261374 0.792298 0.086013
Si Si6 0.197412 0.049321 0.261223
O O1 0.525069 0.681714 0.265333
O O2 0.336506 0.416165 0.120608
O O3 0.098961 0.608029 0.153464
O O4 0.012229 0.406404 0.319578
O O5 0.720880 0.562603 0.390131
O O6 0.425204 0.705565 0.489202
O O7 0.960382 0.914232 0.360690
O O8 0.446758 0.229388 0.310053
O O9 0.948395 0.902669 0.825663
O O10 0.557941 0.805123 0.011367
O O11 0.052383 0.794217 0.006297
O O12 0.327857 0.942109 0.180165
#
# Coordination Sequence:
#
# PCOD9067428 Si02
#       6
#     2   2   2   2   2   2
#     4  12  25  48  76 112 152 202 253 312 384 454
#     4  11  25  49  76 110 150 197 252 317 383 453
#     4  11  25  49  76 110 150 197 252 317 383 453
#     4  12  27  47  76 113 157 203 256 314 378 457
#     4  12  27  47  76 113 157 203 256 314 378 457
#     4  12  25  50  78 114 150 200 253 314 382 452
#
# _framework density 25.34864
#
# number of rings (size 3 to 8) (size 9 to 14) (size 15 to 20)
#    0.000    0.333    3.333    5.000    0.000    4.000 
#    0.000    1.667    0.000    0.000    0.000    0.000 
#    0.000    0.000    0.000    0.000    0.000    0.000 
#
# Total GULP energy -67296.516449 kJ/mol
# GULP energy per Si atom -5608.043037 kJ/mol
# Density = 2.529095 g / cm^3
# Si number density = 25.348640 Si / 1000 Ang^3
#
#
#
# Elastic Constant Matrix: (Units=GPa)
#
#
# Indices 1 2 3 4 5 6 
#
# 1 91.4001 5.0489 19.8102 3.4741 1.0050 -8.0662
# 2 5.0489 68.7926 23.0966 -9.6144 1.0132 -2.2083
# 3 19.8102 23.0966 117.8235 -3.4993 -11.0749 -11.5139
# 4 3.4741 -9.6144 -3.4993 38.0441 7.2199 0.7348
# 5 1.0050 1.0132 -11.0749 7.2199 40.5658 0.7435
# 6 -8.0662 -2.2083 -11.5139 0.7348 0.7435 34.5600
#
#
#
# Elastic Compliance Matrix: (Units=1/GPa)
#
#
# Indices 1 2 3 4 5 6 
#
# 1 0.011584 -0.000356 -0.001761 -0.001241 -0.000577 0.002133
# 2 -0.000356 0.016255 -0.003207 0.004233 -0.002023 -0.000159
# 3 -0.001761 -0.003207 0.009927 -0.000327 0.002844 0.002637
# 4 -0.001241 0.004233 -0.000327 0.028440 -0.005215 -0.000621
# 5 -0.000577 -0.002023 0.002844 -0.005215 0.026416 0.000226
# 6 0.002133 -0.000159 0.002637 -0.000621 0.000226 0.030310
#
#
# Mechanical properties :
#
#
# Convention : Reuss Voigt Hill
#
# Bulk Modulus (GPa) = 36.87213 41.54750 39.20982
# Shear Modulus (GPa) = 35.05851 37.97135 36.51493
#
# Velocity S-wave (km/s) = 3.72298 3.87455 3.79952
# Velocity P-wave (km/s) = 5.74964 6.03674 5.89494
#
# Compressibility (1/GPa) = 0.02712075
#
# Stress axis : x y z
#
# Youngs Moduli (GPa) = 86.32649 61.51797 100.73331
#
# Poissons Ratio (x) = 0.02187 0.17735
# Poissons Ratio (y) = 0.03070 0.32302
# Poissons Ratio (z) = 0.15199 0.19727
#
# Static dielectric constant tensor:
#      x y z
#    x 1.981730 -0.009230 -0.007740 
#    y -0.009230 2.018190 -0.052270 
#    z -0.007740 -0.052270 1.995660 
# 
# From -- ./inp_files/360800.got.cif
#   From: 2010.05.17/outbox.cif.g08.bks.cpg/sg2_181_cif.got.tgz:360800.got - 2010.06.03 11:33:40.
