data_PCOD9067728
_publ_section_title
;
Structure prediction by ZEFSAII (Michael W. Deem and Ramdas Pophale) SiO2 
 PCOD9067728
Probable space group: P -1
;
_chemical_formula_sum "Si O2"
_cell_formula_units_Z 12
_cell_length_a 11.809904
_cell_length_b 6.515223
_cell_length_c 13.581314
_cell_angle_alpha 42.890885
_cell_angle_beta 123.625546
_cell_angle_gamma 129.329131
_cell_volume 542.156667
_symmetry_space_group_name_H-M "P -1"
_symmetry_group_IT_number 2
_symmetry_cell_setting 'triclinic'
loop_
_space_group_symop_operation_xyz
x,y,z
-x,-y,-z
loop_
_atom_site_type_symbol
_atom_site_label
_atom_site_fract_x
_atom_site_fract_y
_atom_site_fract_z
Si Si1 0.068862 0.378303 0.275722
Si Si2 0.079107 0.382575 0.494356
Si Si3 0.634046 0.636322 0.091414
Si Si4 0.859490 0.664594 0.026698
Si Si5 0.322088 0.618298 0.151714
Si Si6 0.420543 0.623681 0.631461
O O1 0.078630 0.537834 0.332226
O O2 0.213678 0.525255 0.226680
O O3 0.933142 0.403129 0.142666
O O4 0.023786 0.002979 0.413000
O O5 0.252440 0.456800 0.568571
O O6 0.000000 0.500000 0.500000
O O7 0.766430 0.619936 0.096716
O O8 0.601685 0.408069 0.250830
O O9 0.500000 0.500000 0.000000
O O10 0.652338 0.007898 0.995445
O O11 0.759058 0.617344 0.897546
O O12 0.000000 0.000000 0.000000
O O13 0.470713 0.565072 0.269167
O O14 0.500000 0.000000 0.500000
#
# Coordination Sequence:
#
# PCOD9067728 Si02
#       6
#     2   2   2   2   2   2
#     4  11  26  44  74 107 140 194 245 307 364 439
#     4  11  26  48  72 103 149 191 247 297 375 440
#     4  12  27  48  76 109 149 194 250 303 372 440
#     4  12  26  45  78 106 145 190 249 305 368 431
#     4  12  27  48  73 112 148 190 254 307 370 440
#     4  12  28  47  75 105 154 195 239 309 368 442
#
# _framework density 22.133824000000001
#
# number of rings (size 3 to 8) (size 9 to 14) (size 15 to 20)
#    0.000    0.333    3.333    4.000   11.667    2.000 
#    0.000    0.000    0.000    0.000    0.000    0.000 
#    0.000    0.000    0.000    0.000    0.000    0.000 
#
# Total GULP energy -67045.317352 kJ/mol
# GULP energy per Si atom -5587.109779 kJ/mol
# Density = 2.208345 g / cm^3
# Si number density = 22.133824 Si / 1000 Ang^3
#
#
#
# Elastic Constant Matrix: (Units=GPa)
#
#
# Indices 1 2 3 4 5 6 
#
# 1 181.1068 7.0575 46.6239 8.9262 -16.9402 6.6944
# 2 7.0575 70.6908 25.7879 4.4934 -20.0968 -2.3419
# 3 46.6239 25.7879 113.0571 8.3998 -27.7115 9.1992
# 4 8.9262 4.4934 8.3998 34.0655 13.6644 8.0554
# 5 -16.9402 -20.0968 -27.7115 13.6644 45.6536 -2.3393
# 6 6.6944 -2.3419 9.1992 8.0554 -2.3393 31.2637
#
#
#
# Elastic Compliance Matrix: (Units=1/GPa)
#
#
# Indices 1 2 3 4 5 6 
#
# 1 0.006336 0.000868 -0.002159 -0.002069 0.002044 0.000030
# 2 0.000868 0.018009 -0.002028 -0.006819 0.009276 0.004211
# 3 -0.002159 -0.002028 0.012445 -0.004747 0.007199 -0.001590
# 4 -0.002069 -0.006819 -0.004747 0.042617 -0.019978 -0.011146
# 5 0.002044 0.009276 0.007199 -0.019978 0.037407 0.006085
# 6 0.000030 0.004211 -0.001590 -0.011146 0.006085 0.036090
#
#
# Mechanical properties :
#
#
# Convention : Reuss Voigt Hill
#
# Bulk Modulus (GPa) = 33.16483 58.19927 45.68205
# Shear Modulus (GPa) = 29.48269 41.22227 35.35248
#
# Velocity S-wave (km/s) = 3.65364 4.32025 4.00085
# Velocity P-wave (km/s) = 5.72845 7.15803 6.48277
#
# Compressibility (1/GPa) = 0.03015243
#
# Stress axis : x y z
#
# Youngs Moduli (GPa) = 157.84049 55.52678 80.35588
#
# Poissons Ratio (x) = -0.04822 0.17345
# Poissons Ratio (y) = -0.13708 0.16300
# Poissons Ratio (z) = 0.34070 0.11263
#
# Static dielectric constant tensor:
#      x y z
#    x 2.357130 -0.112400 0.025970 
#    y -0.112400 1.895900 0.032650 
#    z 0.025970 0.032650 1.795320 
# 
# From -- ./inp_files/26924.got.cif
#   From: 2010.05.17/outbox.cif.g08.bks.cpg/sg2_14_cif.got.tgz:26924.got - 2010.06.03 11:33:40.
