data_PCOD9067900
_publ_section_title
;
Structure prediction by ZEFSAII (Michael W. Deem and Ramdas Pophale) SiO2 
 PCOD9067900
Probable space group: P -1
;
_chemical_formula_sum "Si O2"
_cell_formula_units_Z 14
_cell_length_a 8.614198
_cell_length_b 9.117922
_cell_length_c 11.316480
_cell_angle_alpha 55.045031
_cell_angle_beta 51.415490
_cell_angle_gamma 65.844866
_cell_volume 567.584317
_symmetry_space_group_name_H-M "P -1"
_symmetry_group_IT_number 2
_symmetry_cell_setting 'triclinic'
loop_
_space_group_symop_operation_xyz
x,y,z
-x,-y,-z
loop_
_atom_site_type_symbol
_atom_site_label
_atom_site_fract_x
_atom_site_fract_y
_atom_site_fract_z
Si Si1 0.536646 0.674549 0.325486
Si Si2 0.782331 0.702100 0.967006
Si Si3 0.416742 0.264452 0.327425
Si Si4 0.230690 0.560636 0.125515
Si Si5 0.861422 0.754352 0.313460
Si Si6 0.160170 0.835338 0.845375
Si Si7 0.231774 0.001371 0.351218
O O1 0.500000 0.500000 0.500000
O O2 0.717708 0.762485 0.264548
O O3 0.337775 0.805299 0.371198
O O4 0.617914 0.651296 0.163705
O O5 0.810226 0.565996 0.907138
O O6 0.736382 0.891008 0.834751
O O7 0.989735 0.723725 0.924966
O O8 0.397978 0.448162 0.174553
O O9 0.266603 0.293043 0.492480
O O10 0.632955 0.200415 0.306257
O O11 0.341257 0.109534 0.350618
O O12 0.038801 0.603462 0.278610
O O13 0.239384 0.756455 0.971097
O O14 0.917586 0.957775 0.210384
O O15 0.000000 0.000000 0.500000
#
# Coordination Sequence:
#
# PCOD9067900 Si02
#       7
#     2   2   2   2   2   2   2
#     4  12  29  48  75 112 148 199 253 304 371 446
#     4  11  27  49  80 106 153 195 253 303 370 443
#     4  11  26  46  72 107 150 190 246 304 372 438
#     4  11  26  47  72 108 147 197 243 300 371 441
#     4  12  26  45  74 107 150 189 248 301 375 433
#     4  12  24  47  75 108 145 194 244 306 372 440
#     4  11  26  50  77 111 149 198 247 305 373 444
#
# _framework density 24.665938000000001
#
# number of rings (size 3 to 8) (size 9 to 14) (size 15 to 20)
#    0.000    0.571    2.857    3.429    8.000    0.000 
#    2.571    0.000    0.000    0.000    0.000    0.000 
#    0.000    0.000    0.000    0.000    0.000    0.000 
#
# Total GULP energy -78417.066238 kJ/mol
# GULP energy per Si atom -5601.219017 kJ/mol
# Density = 2.460980 g / cm^3
# Si number density = 24.665938 Si / 1000 Ang^3
#
#
#
# Elastic Constant Matrix: (Units=GPa)
#
#
# Indices 1 2 3 4 5 6 
#
# 1 104.2492 61.6328 37.0426 13.0649 -9.5058 -2.8362
# 2 61.6328 163.6103 74.9437 12.3126 -0.5470 -24.1463
# 3 37.0426 74.9437 153.1603 9.2261 11.3241 -2.0768
# 4 13.0649 12.3126 9.2261 45.6859 -11.7521 1.2323
# 5 -9.5058 -0.5470 11.3241 -11.7521 46.8536 -3.7894
# 6 -2.8362 -24.1463 -2.0768 1.2323 -3.7894 42.6454
#
#
#
# Elastic Compliance Matrix: (Units=1/GPa)
#
#
# Indices 1 2 3 4 5 6 
#
# 1 0.013004 -0.004516 -0.001025 -0.001664 0.002295 -0.001490
# 2 -0.004516 0.010497 -0.003953 -0.000782 0.000411 0.005510
# 3 -0.001025 -0.003953 0.008964 -0.001135 -0.002874 -0.002092
# 4 -0.001664 -0.000782 -0.001135 0.024362 0.005975 -0.000782
# 5 0.002295 0.000411 -0.002874 0.005975 0.024187 0.002222
# 6 -0.001490 0.005510 -0.002092 -0.000782 0.002222 0.026588
#
#
# Mechanical properties :
#
#
# Convention : Reuss Voigt Hill
#
# Bulk Modulus (GPa) = 74.19985 85.36199 79.78092
# Shear Modulus (GPa) = 38.14393 43.53036 40.83714
#
# Velocity S-wave (km/s) = 3.93672 4.20551 4.07333
# Velocity P-wave (km/s) = 7.12818 7.63309 7.38495
#
# Compressibility (1/GPa) = 0.01347712
#
# Stress axis : x y z
#
# Youngs Moduli (GPa) = 76.90029 95.26131 111.56135
#
# Poissons Ratio (x) = 0.43022 0.11434
# Poissons Ratio (y) = 0.34730 0.44099
# Poissons Ratio (z) = 0.07881 0.37655
#
# Static dielectric constant tensor:
#      x y z
#    x 1.953030 -0.012680 -0.011790 
#    y -0.012680 1.981870 -0.016950 
#    z -0.011790 -0.016950 2.078850 
# 
# From -- ./inp_files/381178.got.cif
#   From: 2010.05.17/outbox.cif.g08.bks.cpg/sg2_191_cif.got.tgz:381178.got - 2010.06.03 11:33:40.
