data_PCOD9067264
_publ_section_title
;
Structure prediction by ZEFSAII (Michael W. Deem and Ramdas Pophale) SiO2 
 PCOD9067264
Probable space group: P -1
;
_chemical_formula_sum "Si O2"
_cell_formula_units_Z 16
_cell_length_a 17.384402
_cell_length_b 6.859239
_cell_length_c 24.004694
_cell_angle_alpha 59.965349
_cell_angle_beta 19.724439
_cell_angle_gamma 70.453721
_cell_volume 739.322780
_symmetry_space_group_name_H-M "P -1"
_symmetry_group_IT_number 2
_symmetry_cell_setting 'triclinic'
loop_
_space_group_symop_operation_xyz
x,y,z
-x,-y,-z
loop_
_atom_site_type_symbol
_atom_site_label
_atom_site_fract_x
_atom_site_fract_y
_atom_site_fract_z
Si Si1 0.113309 0.394874 0.178782
Si Si2 0.706152 0.545961 0.474737
Si Si3 0.660739 0.509669 0.640875
Si Si4 0.984219 0.017595 0.602536
Si Si5 0.253651 0.025495 0.684390
Si Si6 0.189122 0.257106 0.804526
Si Si7 0.399924 0.039770 0.226038
Si Si8 0.134329 0.449539 0.031374
O O1 0.114674 0.325483 0.123225
O O2 0.847889 0.400886 0.371538
O O3 0.119198 0.195821 0.247914
O O4 0.346854 0.685004 0.983779
O O5 0.735632 0.546333 0.520180
O O6 0.824348 0.825754 0.328989
O O7 0.412539 0.423341 0.671357
O O8 0.558432 0.210828 0.766417
O O9 0.894211 0.702732 0.492405
O O10 0.433280 0.586783 0.793134
O O11 0.212408 0.009791 0.410764
O O12 0.759007 0.971509 0.719431
O O13 0.308463 0.184145 0.680648
O O14 0.500000 0.000000 0.500000
O O15 0.013190 0.747329 0.889422
O O16 0.014542 0.384150 0.885555
O O17 0.000000 0.000000 0.000000
#
# Coordination Sequence:
#
# PCOD9067264 Si02
#       8
#     2   2   2   2   2   2   2   2
#     4  12  24  47  75 105 143 189 231 291 354 422
#     4  12  25  44  70 100 142 183 237 288 346 412
#     4  12  26  45  74 107 139 184 238 293 347 426
#     4  11  25  48  76 106 145 182 228 295 362 427
#     4  12  24  44  64  95 134 185 238 286 341 404
#     4  12  28  43  65  98 141 190 233 290 345 406
#     4  11  25  49  73 109 144 181 230 294 363 424
#     4  12  26  44  69  99 142 183 238 287 344 410
#
# _framework density 21.641428999999999
#
# number of rings (size 3 to 8) (size 9 to 14) (size 15 to 20)
#    0.000    0.250    5.000    4.125    5.250    1.000 
#    0.000    1.250    0.000    0.000    0.000    0.000 
#    0.000    0.000    0.000    0.000    0.000    0.000 
#
# Total GULP energy -89491.952125 kJ/mol
# GULP energy per Si atom -5593.247008 kJ/mol
# Density = 2.159217 g / cm^3
# Si number density = 21.641429 Si / 1000 Ang^3
#
#
#
# Elastic Constant Matrix: (Units=GPa)
#
#
# Indices 1 2 3 4 5 6 
#
# 1 69.4496 22.0378 9.6645 -19.1857 -0.3623 3.6823
# 2 22.0378 76.0179 2.8023 -10.3834 -0.6580 9.9166
# 3 9.6645 2.8023 49.4430 -8.1616 -5.1851 6.6512
# 4 -19.1857 -10.3834 -8.1616 35.4744 2.4824 -5.8843
# 5 -0.3623 -0.6580 -5.1851 2.4824 36.4945 -5.0704
# 6 3.6823 9.9166 6.6512 -5.8843 -5.0704 30.3142
#
#
#
# Elastic Compliance Matrix: (Units=1/GPa)
#
#
# Indices 1 2 3 4 5 6 
#
# 1 0.018299 -0.004236 -0.002172 0.008393 -0.000612 0.001166
# 2 -0.004236 0.015141 0.000785 0.001625 -0.000373 -0.004358
# 3 -0.002172 0.000785 0.021905 0.003305 0.002357 -0.003763
# 4 0.008393 0.001625 0.003305 0.034757 -0.001188 0.004272
# 5 -0.000612 -0.000373 0.002357 -0.001188 0.028387 0.004197
# 6 0.001166 -0.004358 -0.003763 0.004272 0.004197 0.036629
#
#
# Mechanical properties :
#
#
# Convention : Reuss Voigt Hill
#
# Bulk Modulus (GPa) = 22.67662 29.32441 26.00051
# Shear Modulus (GPa) = 27.61471 31.15032 29.38252
#
# Velocity S-wave (km/s) = 3.57601 3.79804 3.68869
# Velocity P-wave (km/s) = 5.24895 5.72826 5.49384
#
# Compressibility (1/GPa) = 0.04409828
#
# Stress axis : x y z
#
# Youngs Moduli (GPa) = 54.64764 66.04565 45.65270
#
# Poissons Ratio (x) = 0.27976 0.09918
# Poissons Ratio (y) = 0.23148 -0.03584
# Poissons Ratio (z) = 0.11872 -0.05185
#
# Static dielectric constant tensor:
#      x y z
#    x 1.761730 -0.002550 -0.004020 
#    y -0.002550 1.818430 -0.017910 
#    z -0.004020 -0.017910 1.829110 
# 
# From -- ./inp_files/46982.got.cif
#   From: 2010.05.17/outbox.cif.g08.bks.cpg/sg2_24_cif.got.tgz:46982.got - 2010.06.03 11:33:40.
