data_PCOD9067653
_publ_section_title
;
Structure prediction by ZEFSAII (Michael W. Deem and Ramdas Pophale) SiO2 
 PCOD9067653
Probable space group: P -1
;
_chemical_formula_sum "Si O2"
_cell_formula_units_Z 14
_cell_length_a 23.133929
_cell_length_b 5.348630
_cell_length_c 8.832894
_cell_angle_alpha 83.283645
_cell_angle_beta 33.057248
_cell_angle_gamma 81.224777
_cell_volume 589.072327
_symmetry_space_group_name_H-M "P -1"
_symmetry_group_IT_number 2
_symmetry_cell_setting 'triclinic'
loop_
_space_group_symop_operation_xyz
x,y,z
-x,-y,-z
loop_
_atom_site_type_symbol
_atom_site_label
_atom_site_fract_x
_atom_site_fract_y
_atom_site_fract_z
Si Si1 0.776403 0.594042 0.129943
Si Si2 0.041869 0.253290 0.827442
Si Si3 0.757841 0.564106 0.524099
Si Si4 0.650509 0.151380 0.316477
Si Si5 0.071264 0.170380 0.432780
Si Si6 0.278664 0.878077 0.156077
Si Si7 0.553070 0.847968 0.035330
O O1 0.792750 0.556558 0.275057
O O2 0.728625 0.342341 0.198791
O O3 0.696275 0.855647 0.265223
O O4 0.879674 0.632179 0.799770
O O5 0.169161 0.238731 0.574642
O O6 0.018284 0.271612 0.699168
O O7 0.000000 0.500000 0.000000
O O8 0.000000 0.000000 0.000000
O O9 0.774985 0.320748 0.608822
O O10 0.630468 0.622627 0.808050
O O11 0.539423 0.207632 0.643517
O O12 0.646139 0.219335 0.143839
O O13 0.178876 0.015582 0.273035
O O14 0.000000 0.000000 0.500000
O O15 0.361258 0.012085 0.067861
O O16 0.500000 0.000000 0.000000
#
# Coordination Sequence:
#
# PCOD9067653 Si02
#       7
#     2   2   2   2   2   2   2
#     4  11  26  47  75 112 154 199 259 312 382 468
#     4  12  27  48  78 112 149 202 255 321 389 456
#     4  12  26  46  77 111 157 198 262 320 379 467
#     4  11  26  46  73 111 153 205 252 315 384 452
#     4  11  25  53  81 113 156 205 259 328 397 462
#     4  11  26  47  76 111 156 198 264 314 383 466
#     4  12  25  46  77 108 157 202 258 312 389 451
#
# _framework density 23.766183999999999
#
# number of rings (size 3 to 8) (size 9 to 14) (size 15 to 20)
#    0.000    0.571    2.857    3.857    4.000    5.143 
#    0.000    6.429    0.000    0.000    0.000    0.000 
#    0.000    0.000    0.000    0.000    0.000    0.000 
#
# Total GULP energy -78292.495358 kJ/mol
# GULP energy per Si atom -5592.321097 kJ/mol
# Density = 2.371209 g / cm^3
# Si number density = 23.766184 Si / 1000 Ang^3
#
#
#
# Elastic Constant Matrix: (Units=GPa)
#
#
# Indices 1 2 3 4 5 6 
#
# 1 175.4057 32.4611 65.9363 -7.3801 28.4412 3.9015
# 2 32.4611 76.0980 46.1408 -11.1548 15.7549 -7.8792
# 3 65.9363 46.1408 172.5163 -15.6832 24.5151 -3.4199
# 4 -7.3801 -11.1548 -15.6832 47.2020 -1.6247 1.8753
# 5 28.4412 15.7549 24.5151 -1.6247 51.4746 -3.3805
# 6 3.9015 -7.8792 -3.4199 1.8753 -3.3805 45.3179
#
#
#
# Elastic Compliance Matrix: (Units=1/GPa)
#
#
# Indices 1 2 3 4 5 6 
#
# 1 0.007177 -0.001410 -0.002005 0.000080 -0.002656 -0.001216
# 2 -0.001410 0.016928 -0.003349 0.002479 -0.002564 0.002518
# 3 -0.002005 -0.003349 0.007808 0.001436 -0.001540 0.000005
# 4 0.000080 0.002479 0.001436 0.022251 -0.000814 -0.000449
# 5 -0.002656 -0.002564 -0.001540 -0.000814 0.022477 0.001377
# 6 -0.001216 0.002518 0.000005 -0.000449 0.001377 0.022731
#
#
# Mechanical properties :
#
#
# Convention : Reuss Voigt Hill
#
# Bulk Modulus (GPa) = 54.39396 79.23294 66.81345
# Shear Modulus (GPa) = 42.00678 47.43102 44.71890
#
# Velocity S-wave (km/s) = 4.20873 4.47221 4.34247
# Velocity P-wave (km/s) = 6.82310 7.75103 7.30182
#
# Compressibility (1/GPa) = 0.01838440
#
# Stress axis : x y z
#
# Youngs Moduli (GPa) = 139.33617 59.07440 128.06969
#
# Poissons Ratio (x) = 0.08328 0.25683
# Poissons Ratio (y) = 0.19644 0.42892
# Poissons Ratio (z) = 0.27942 0.19784
#
# Static dielectric constant tensor:
#      x y z
#    x 1.881910 -0.020600 0.004530 
#    y -0.020600 2.084470 0.178930 
#    z 0.004530 0.178930 2.003020 
# 
# From -- ./inp_files/141037.got.cif
#   From: 2010.05.17/outbox.cif.g08.bks.cpg/sg2_71_cif.got.tgz:141037.got - 2010.06.03 11:33:40.
