data_PCOD9067190
_publ_section_title
;
Structure prediction by ZEFSAII (Michael W. Deem and Ramdas Pophale) SiO2 
 PCOD9067190
Probable space group: P -1
;
_chemical_formula_sum "Si O2"
_cell_formula_units_Z 15
_cell_length_a 9.227134
_cell_length_b 9.011049
_cell_length_c 13.878654
_cell_angle_alpha 135.503019
_cell_angle_beta 66.490426
_cell_angle_gamma 127.421676
_cell_volume 641.079040
_symmetry_space_group_name_H-M "P -1"
_symmetry_group_IT_number 2
_symmetry_cell_setting 'triclinic'
loop_
_space_group_symop_operation_xyz
x,y,z
-x,-y,-z
loop_
_atom_site_type_symbol
_atom_site_label
_atom_site_fract_x
_atom_site_fract_y
_atom_site_fract_z
Si Si1 0.358277 0.041781 0.494772
Si Si2 0.275997 0.751939 0.843112
Si Si3 0.500000 0.500000 0.000000
Si Si4 0.097166 0.788725 0.088796
Si Si5 0.106287 0.249927 0.306084
Si Si6 0.958533 0.573033 0.405830
Si Si7 0.591758 0.097096 0.790122
Si Si8 0.492469 0.542103 0.791213
O O1 0.380565 0.290023 0.645421
O O2 0.500000 0.000000 0.500000
O O3 0.155835 0.813640 0.456085
O O4 0.408394 0.043016 0.370610
O O5 0.412389 0.710593 0.854664
O O6 0.143551 0.509012 0.706047
O O7 0.394008 0.956440 0.828211
O O8 0.162323 0.821933 0.976608
O O9 0.377487 0.636311 0.117193
O O10 0.532022 0.493034 0.104843
O O11 0.261981 0.897006 0.171800
O O12 0.004073 0.954956 0.202906
O O13 0.000000 0.500000 0.000000
O O14 0.989775 0.353890 0.333284
O O15 0.296518 0.344377 0.243546
O O16 0.146528 0.368376 0.456598
#
# Coordination Sequence:
#
# PCOD9067190 Si02
#       8
#     2   2   1   2   2   2   2   2
#     4  12  25  45  76 106 144 190 250 296 365 437
#     4  12  27  47  75 109 148 189 247 302 377 431
#     4  12  24  42  78 106 142 186 250 292 360 442
#     4  12  27  46  71 108 149 192 246 305 365 439
#     4  11  25  48  73 104 153 189 246 301 366 436
#     4  11  27  46  73 113 145 193 244 309 368 432
#     4  12  25  45  74 108 139 194 243 301 363 438
#     4  12  25  47  77 109 144 196 238 307 361 445
#
# _framework density 23.398050999999999
#
# number of rings (size 3 to 8) (size 9 to 14) (size 15 to 20)
#    0.000    0.267    5.333    2.800    5.600    3.200 
#    0.000    0.000    0.000    0.000    0.000    0.000 
#    0.000    0.000    0.000    0.000    0.000    0.000 
#
# Total GULP energy -83780.418159 kJ/mol
# GULP energy per Si atom -5585.361211 kJ/mol
# Density = 2.334480 g / cm^3
# Si number density = 23.398051 Si / 1000 Ang^3
#
#
#
# Elastic Constant Matrix: (Units=GPa)
#
#
# Indices 1 2 3 4 5 6 
#
# 1 40.1852 15.9188 39.1749 -5.5769 5.4938 -5.0610
# 2 15.9188 71.5239 54.8897 12.4153 5.7805 1.1646
# 3 39.1749 54.8897 193.4486 -13.0722 10.2514 -8.3615
# 4 -5.5769 12.4153 -13.0722 38.8659 -19.8645 -3.9987
# 5 5.4938 5.7805 10.2514 -19.8645 43.0808 7.2404
# 6 -5.0610 1.1646 -8.3615 -3.9987 7.2404 33.8771
#
#
#
# Elastic Compliance Matrix: (Units=1/GPa)
#
#
# Indices 1 2 3 4 5 6 
#
# 1 0.032636 -0.004250 -0.004852 0.004241 -0.001254 0.004593
# 2 -0.004250 0.022778 -0.006310 -0.013841 -0.006867 -0.003141
# 3 -0.004852 -0.006310 0.008282 0.005073 0.001530 0.001808
# 4 0.004241 -0.013841 0.005073 0.042622 0.019210 0.003287
# 5 -0.001254 -0.006867 0.001530 0.019210 0.033539 -0.004474
# 6 0.004593 -0.003141 0.001808 0.003287 -0.004474 0.032103
#
#
# Mechanical properties :
#
#
# Convention : Reuss Voigt Hill
#
# Bulk Modulus (GPa) = 30.41924 58.34719 44.38321
# Shear Modulus (GPa) = 23.39269 36.17637 29.78453
#
# Velocity S-wave (km/s) = 3.16535 3.93635 3.57171
# Velocity P-wave (km/s) = 5.13694 6.75653 6.00162
#
# Compressibility (1/GPa) = 0.03287393
#
# Stress axis : x y z
#
# Youngs Moduli (GPa) = 30.64068 43.90138 120.74257
#
# Poissons Ratio (x) = 0.18658 0.58581
# Poissons Ratio (y) = 0.13022 0.76186
# Poissons Ratio (z) = 0.14866 0.27701
#
# Static dielectric constant tensor:
#      x y z
#    x 1.835390 0.010240 -0.032010 
#    y 0.010240 1.964900 0.049890 
#    z -0.032010 0.049890 1.861990 
# 
# From -- ./inp_files/383489.got.cif
#   From: 2010.05.17/outbox.cif.g08.bks.cpg/sg2_192_cif.got.tgz:383489.got - 2010.06.03 11:33:40.
