data_PCOD9067329
_publ_section_title
;
Structure prediction by ZEFSAII (Michael W. Deem and Ramdas Pophale) SiO2 
 PCOD9067329
Probable space group: P -1
;
_chemical_formula_sum "Si O2"
_cell_formula_units_Z 11
_cell_length_a 8.667257
_cell_length_b 6.361980
_cell_length_c 8.631658
_cell_angle_alpha 104.257200
_cell_angle_beta 81.199552
_cell_angle_gamma 70.683094
_cell_volume 420.782545
_symmetry_space_group_name_H-M "P -1"
_symmetry_group_IT_number 2
_symmetry_cell_setting 'triclinic'
loop_
_space_group_symop_operation_xyz
x,y,z
-x,-y,-z
loop_
_atom_site_type_symbol
_atom_site_label
_atom_site_fract_x
_atom_site_fract_y
_atom_site_fract_z
Si Si1 0.330907 0.782140 0.912738
Si Si2 0.000000 0.500000 0.500000
Si Si3 0.330105 0.060423 0.439045
Si Si4 0.164858 0.842122 0.632730
Si Si5 0.928738 0.355632 0.869990
Si Si6 0.685590 0.769667 0.854942
O O1 0.292394 0.729993 0.734162
O O2 0.529890 0.694590 0.899665
O O3 0.218915 0.692308 0.024661
O O4 0.275999 0.064771 0.996365
O O5 0.187435 0.322459 0.523779
O O6 0.031175 0.731450 0.596039
O O7 0.370914 0.061729 0.252872
O O8 0.260586 0.865654 0.468140
O O9 0.500000 0.000000 0.500000
O O10 0.060779 0.108027 0.752988
O O11 0.851575 0.530066 0.764930
O O12 0.000000 0.500000 0.000000
#
# Coordination Sequence:
#
# PCOD9067329 Si02
#       6
#     2   1   2   2   2   2
#     4  11  25  48  79 111 154 201 265 317 392 464
#     4  12  30  50  76 110 162 208 254 318 390 460
#     4  12  27  52  80 114 160 206 263 321 396 471
#     4  12  27  52  77 115 154 207 261 321 392 469
#     4  12  26  46  83 113 152 203 262 327 388 460
#     4  11  25  50  78 113 156 204 254 331 390 459
#
# _framework density 26.141766000000001
#
# number of rings (size 3 to 8) (size 9 to 14) (size 15 to 20)
#    0.000    0.364    3.636    3.818    5.091    2.182 
#    6.545    0.000    0.000    0.000    0.000    0.000 
#    0.000    0.000    0.000    0.000    0.000    0.000 
#
# Total GULP energy -61473.527724 kJ/mol
# GULP energy per Si atom -5588.502520 kJ/mol
# Density = 2.608227 g / cm^3
# Si number density = 26.141766 Si / 1000 Ang^3
#
#
#
# Elastic Constant Matrix: (Units=GPa)
#
#
# Indices 1 2 3 4 5 6 
#
# 1 165.7740 71.2549 40.0643 -4.3292 18.4386 30.2053
# 2 71.2549 92.7767 33.0337 -3.9606 24.1421 -2.9217
# 3 40.0643 33.0337 81.7060 -10.0921 26.8104 15.6302
# 4 -4.3292 -3.9606 -10.0921 63.6735 14.9960 -4.8210
# 5 18.4386 24.1421 26.8104 14.9960 54.2631 -4.8209
# 6 30.2053 -2.9217 15.6302 -4.8210 -4.8209 68.1011
#
#
#
# Elastic Compliance Matrix: (Units=1/GPa)
#
#
# Indices 1 2 3 4 5 6 
#
# 1 0.010547 -0.007896 -0.001176 -0.000365 0.000188 -0.004760
# 2 -0.007896 0.019350 -0.003293 0.001525 -0.004286 0.004893
# 3 -0.001176 -0.003293 0.018365 0.004382 -0.008789 -0.004147
# 4 -0.000365 0.001525 0.004382 0.018299 -0.007779 -0.000034
# 5 0.000188 -0.004286 -0.008789 -0.007779 0.027041 0.003113
# 6 -0.004760 0.004893 -0.004147 -0.000034 0.003113 0.018175
#
#
# Mechanical properties :
#
#
# Convention : Reuss Voigt Hill
#
# Bulk Modulus (GPa) = 42.49336 69.88470 56.18903
# Shear Modulus (GPa) = 34.63781 50.26778 42.45279
#
# Velocity S-wave (km/s) = 3.64400 4.38984 4.03419
# Velocity P-wave (km/s) = 5.83055 7.24467 6.57573
#
# Compressibility (1/GPa) = 0.02353309
#
# Stress axis : x y z
#
# Youngs Moduli (GPa) = 94.81021 51.67963 54.45096
#
# Poissons Ratio (x) = 0.40809 0.06401
# Poissons Ratio (y) = 0.74867 0.17928
# Poissons Ratio (z) = 0.11146 0.17016
#
# Static dielectric constant tensor:
#      x y z
#    x 1.968500 -0.065860 -0.001190 
#    y -0.065860 1.991480 0.004690 
#    z -0.001190 0.004690 2.050650 
# 
# From -- ./inp_files/143800.got.cif
#   From: 2010.05.17/outbox.cif.g08.bks.cpg/sg2_72_cif.got.tgz:143800.got - 2010.06.03 11:33:40.
