data_PCOD9067288
_publ_section_title
;
Structure prediction by ZEFSAII (Michael W. Deem and Ramdas Pophale) SiO2 
 PCOD9067288
Probable space group: P -1
;
_chemical_formula_sum "Si O2"
_cell_formula_units_Z 16
_cell_length_a 11.267217
_cell_length_b 11.906861
_cell_length_c 12.744168
_cell_angle_alpha 38.095976
_cell_angle_beta 77.135701
_cell_angle_gamma 105.031100
_cell_volume 711.035992
_symmetry_space_group_name_H-M "P -1"
_symmetry_group_IT_number 2
_symmetry_cell_setting 'triclinic'
loop_
_space_group_symop_operation_xyz
x,y,z
-x,-y,-z
loop_
_atom_site_type_symbol
_atom_site_label
_atom_site_fract_x
_atom_site_fract_y
_atom_site_fract_z
Si Si1 0.739124 0.366270 0.686348
Si Si2 0.600395 0.836736 0.039952
Si Si3 0.377682 0.258442 0.123692
Si Si4 0.733764 0.264777 0.009245
Si Si5 0.598690 0.103686 0.518770
Si Si6 0.042054 0.962157 0.131563
Si Si7 0.974969 0.694292 0.994099
Si Si8 0.885520 0.735390 0.779706
O O1 0.738308 0.305326 0.854168
O O2 0.688084 0.132805 0.802149
O O3 0.576425 0.331660 0.734413
O O4 0.919679 0.655914 0.405367
O O5 0.549773 0.719525 0.019494
O O6 0.753948 0.873795 0.023976
O O7 0.334820 0.025860 0.364534
O O8 0.229347 0.249525 0.139384
O O9 0.500000 0.500000 0.000000
O O10 0.775670 0.493052 0.899700
O O11 0.888083 0.291623 0.988582
O O12 0.547538 0.998925 0.290081
O O13 0.500000 0.000000 0.500000
O O14 0.772715 0.414318 0.256481
O O15 0.995796 0.072462 0.139801
O O16 0.000000 0.000000 0.000000
O O17 0.996612 0.726580 0.840533
O O18 0.000000 0.000000 0.500000
#
# Coordination Sequence:
#
# PCOD9067288 Si02
#       8
#     2   2   2   2   2   2   2   2
#     4  11  26  48  75 107 138 194 244 296 370 436
#     4  11  25  48  77 103 145 187 247 301 359 430
#     4  12  23  45  73 106 142 190 242 295 362 432
#     4  12  25  45  70 103 145 188 240 299 363 439
#     4  12  26  44  70 106 146 189 238 296 365 431
#     4  12  28  47  72 107 145 188 245 300 363 442
#     4  12  27  44  68 105 146 188 236 301 370 422
#     4  12  24  43  68 101 142 190 242 293 360 431
#
# _framework density 22.502378
#
# number of rings (size 3 to 8) (size 9 to 14) (size 15 to 20)
#    0.000    0.250    5.000    3.000    5.250    1.500 
#    0.000    0.000    0.000    0.000    0.000    0.000 
#    0.000    0.000    0.000    0.000    0.000    0.000 
#
# Total GULP energy -89509.697560 kJ/mol
# GULP energy per Si atom -5594.356098 kJ/mol
# Density = 2.245116 g / cm^3
# Si number density = 22.502378 Si / 1000 Ang^3
#
#
#
# Elastic Constant Matrix: (Units=GPa)
#
#
# Indices 1 2 3 4 5 6 
#
# 1 127.5232 17.7749 4.4652 7.5159 -6.3119 16.7932
# 2 17.7749 99.5008 3.4526 2.7118 2.1014 6.7188
# 3 4.4652 3.4526 75.5964 3.0778 -4.2440 20.2505
# 4 7.5159 2.7118 3.0778 29.7546 1.3832 9.3589
# 5 -6.3119 2.1014 -4.2440 1.3832 28.0018 1.4773
# 6 16.7932 6.7188 20.2505 9.3589 1.4773 41.1509
#
#
#
# Elastic Compliance Matrix: (Units=1/GPa)
#
#
# Indices 1 2 3 4 5 6 
#
# 1 0.008649 -0.001354 0.000658 -0.001154 0.002390 -0.003456
# 2 -0.001354 0.010392 -0.000187 -0.000235 -0.001051 -0.000961
# 3 0.000658 -0.000187 0.015511 0.000667 0.002909 -0.008127
# 4 -0.001154 -0.000235 0.000667 0.036456 -0.001517 -0.008056
# 5 0.002390 -0.001051 0.002909 -0.001517 0.037015 -0.003219
# 6 -0.003456 -0.000961 -0.008127 -0.008056 -0.003219 0.031815
#
#
# Mechanical properties :
#
#
# Convention : Reuss Voigt Hill
#
# Bulk Modulus (GPa) = 30.49988 39.33400 34.91694
# Shear Modulus (GPa) = 32.77996 38.24330 35.51163
#
# Velocity S-wave (km/s) = 3.82086 4.12700 3.97688
# Velocity P-wave (km/s) = 5.74881 6.34251 6.05294
#
# Compressibility (1/GPa) = 0.03278701
#
# Stress axis : x y z
#
# Youngs Moduli (GPa) = 115.62456 96.22830 64.47027
#
# Poissons Ratio (x) = 0.13025 -0.04241
# Poissons Ratio (y) = 0.15650 0.01203
# Poissons Ratio (z) = -0.07606 0.01795
#
# Static dielectric constant tensor:
#      x y z
#    x 1.789490 -0.042110 -0.079840 
#    y -0.042110 1.690430 -0.105420 
#    z -0.079840 -0.105420 1.765540 
# 
# From -- ./inp_files/427398.got.cif
#   From: 2010.05.17/outbox.cif.g08.bks.cpg/sg2_214_cif.got.tgz:427398.got - 2010.06.03 11:33:40.
