data_PCOD9067619
_publ_section_title
;
Structure prediction by ZEFSAII (Michael W. Deem and Ramdas Pophale) SiO2 
 PCOD9067619
Probable space group: P -1
;
_chemical_formula_sum "Si O2"
_cell_formula_units_Z 14
_cell_length_a 7.627339
_cell_length_b 7.608279
_cell_length_c 10.900888
_cell_angle_alpha 112.761182
_cell_angle_beta 100.351206
_cell_angle_gamma 79.167346
_cell_volume 568.921347
_symmetry_space_group_name_H-M "P -1"
_symmetry_group_IT_number 2
_symmetry_cell_setting 'triclinic'
loop_
_space_group_symop_operation_xyz
x,y,z
-x,-y,-z
loop_
_atom_site_type_symbol
_atom_site_label
_atom_site_fract_x
_atom_site_fract_y
_atom_site_fract_z
Si Si1 0.166321 0.191623 0.315199
Si Si2 0.560085 0.593242 0.909741
Si Si3 0.140239 0.756543 0.220287
Si Si4 0.273096 0.164784 0.825683
Si Si5 0.289905 0.580883 0.412494
Si Si6 0.613371 0.795473 0.425853
Si Si7 0.755388 0.276061 0.283002
O O1 0.280257 0.354635 0.319926
O O2 0.207931 0.211493 0.470945
O O3 0.963610 0.259218 0.264658
O O4 0.201050 0.959536 0.236751
O O5 0.628523 0.783585 0.024348
O O6 0.723180 0.431544 0.846866
O O7 0.500000 0.500000 0.000000
O O8 0.390546 0.641163 0.812433
O O9 0.148331 0.731638 0.361585
O O10 0.935306 0.751920 0.157864
O O11 0.345359 0.228958 0.719922
O O12 0.283052 0.938039 0.751700
O O13 0.478065 0.651846 0.419259
O O14 0.250662 0.617083 0.559439
O O15 0.500000 0.000000 0.500000
#
# Coordination Sequence:
#
# PCOD9067619 Si02
#       7
#     2   2   2   2   2   2   2
#     4  11  26  45  75 117 152 194 252 319 385 453
#     4  12  29  48  76 107 157 208 259 313 379 458
#     4  11  26  50  76 114 152 203 251 319 387 453
#     4  11  25  51  79 108 157 202 257 314 382 458
#     4  12  25  43  78 114 156 193 247 320 391 448
#     4  12  23  43  79 117 154 194 250 319 389 450
#     4  11  26  49  75 116 151 202 259 315 386 462
#
# _framework density 24.607973000000001
#
# number of rings (size 3 to 8) (size 9 to 14) (size 15 to 20)
#    0.000    0.571    2.857    3.429    8.000    2.286 
#    2.571    1.429    0.000    0.000    0.000    0.000 
#    0.000    0.000    0.000    0.000    0.000    0.000 
#
# Total GULP energy -78256.145625 kJ/mol
# GULP energy per Si atom -5589.724688 kJ/mol
# Density = 2.455196 g / cm^3
# Si number density = 24.607973 Si / 1000 Ang^3
#
#
#
# Elastic Constant Matrix: (Units=GPa)
#
#
# Indices 1 2 3 4 5 6 
#
# 1 86.1074 30.7820 36.9444 -10.9576 11.2289 -12.2264
# 2 30.7820 101.1234 4.5463 2.3791 -1.4510 -4.1270
# 3 36.9444 4.5463 99.2666 -4.4658 26.6999 -17.3056
# 4 -10.9576 2.3791 -4.4658 42.2887 -6.7860 5.6199
# 5 11.2289 -1.4510 26.6999 -6.7860 40.6250 -4.8189
# 6 -12.2264 -4.1270 -17.3056 5.6199 -4.8189 35.6312
#
#
#
# Elastic Compliance Matrix: (Units=1/GPa)
#
#
# Indices 1 2 3 4 5 6 
#
# 1 0.016357 -0.004757 -0.005273 0.003637 -0.000396 0.001874
# 2 -0.004757 0.011365 0.001055 -0.001707 0.000810 0.000576
# 3 -0.005273 0.001055 0.014894 -0.001771 -0.008027 0.004740
# 4 0.003637 -0.001707 -0.001771 0.025576 0.003978 -0.003306
# 5 -0.000396 0.000810 -0.008027 0.003978 0.030643 -0.000424
# 6 0.001874 0.000576 0.004740 -0.003306 -0.000424 0.031541
#
#
# Mechanical properties :
#
#
# Convention : Reuss Voigt Hill
#
# Bulk Modulus (GPa) = 40.54061 47.89363 44.21712
# Shear Modulus (GPa) = 31.93943 37.99064 34.96504
#
# Velocity S-wave (km/s) = 3.60659 3.93343 3.77355
# Velocity P-wave (km/s) = 5.81839 6.33514 6.08226
#
# Compressibility (1/GPa) = 0.02466663
#
# Stress axis : x y z
#
# Youngs Moduli (GPa) = 61.13735 87.99213 67.14215
#
# Poissons Ratio (x) = 0.41855 0.35404
# Poissons Ratio (y) = 0.29081 -0.07087
# Poissons Ratio (z) = 0.32238 -0.09287
#
# Static dielectric constant tensor:
#      x y z
#    x 2.020570 0.013480 -0.009790 
#    y 0.013480 2.036640 0.038720 
#    z -0.009790 0.038720 2.135230 
# 
# From -- ./inp_files/306425.got.cif
#   From: 2010.05.17/outbox.cif.g08.bks.cpg/sg2_154_cif.got.tgz:306425.got - 2010.06.03 11:33:40.
