data_PCOD9067629
_publ_section_title
;
Structure prediction by ZEFSAII (Michael W. Deem and Ramdas Pophale) SiO2 
 PCOD9067629
Probable space group: P -1
;
_chemical_formula_sum "Si O2"
_cell_formula_units_Z 16
_cell_length_a 8.320228
_cell_length_b 14.523195
_cell_length_c 14.562833
_cell_angle_alpha 30.104332
_cell_angle_beta 113.995253
_cell_angle_gamma 95.074080
_cell_volume 659.867762
_symmetry_space_group_name_H-M "P -1"
_symmetry_group_IT_number 2
_symmetry_cell_setting 'triclinic'
loop_
_space_group_symop_operation_xyz
x,y,z
-x,-y,-z
loop_
_atom_site_type_symbol
_atom_site_label
_atom_site_fract_x
_atom_site_fract_y
_atom_site_fract_z
Si Si1 0.267998 0.727031 0.238323
Si Si2 0.262211 0.796015 0.970331
Si Si3 0.768246 0.560937 0.001817
Si Si4 0.061445 0.405712 0.697182
Si Si5 0.855102 0.738197 0.522587
Si Si6 0.377656 0.948666 0.218141
Si Si7 0.209212 0.048224 0.299674
Si Si8 0.522706 0.471530 0.165009
O O1 0.500000 0.500000 0.500000
O O2 0.091161 0.674288 0.243072
O O3 0.254600 0.868904 0.199780
O O4 0.270895 0.826364 0.054993
O O5 0.045871 0.810237 0.891681
O O6 0.218323 0.008462 0.721249
O O7 0.465325 0.568239 0.170887
O O8 0.610159 0.586492 0.024986
O O9 0.007003 0.385190 0.248366
O O10 0.736108 0.794913 0.772273
O O11 0.696969 0.475947 0.975076
O O12 0.006941 0.594026 0.596228
O O13 0.000000 0.500000 0.500000
O O14 0.303417 0.184480 0.950727
O O15 0.632075 0.763089 0.438402
O O16 0.302368 0.007538 0.253875
O O17 0.308855 0.797242 0.574665
#
# Coordination Sequence:
#
# PCOD9067629 Si02
#       8
#     2   2   2   2   2   2   2   2
#     4  12  25  45  67 102 145 185 245 294 346 430
#     4  12  27  46  72 107 145 188 243 295 365 424
#     4  11  25  52  74 108 148 184 245 296 365 436
#     4  12  27  44  68 101 141 193 242 292 356 422
#     4  12  26  47  69 107 147 186 243 300 352 440
#     4  12  26  45  72  99 147 196 232 294 362 420
#     4  12  25  48  74 109 143 190 242 296 361 431
#     4  11  27  50  77 106 144 193 233 306 367 426
#
# _framework density 24.247281999999998
#
# number of rings (size 3 to 8) (size 9 to 14) (size 15 to 20)
#    0.000    0.250    5.000    3.000    5.250    2.000 
#    2.250    0.000    0.000    0.000    0.000    0.000 
#    0.000    0.000    0.000    0.000    0.000    0.000 
#
# Total GULP energy -89628.760445 kJ/mol
# GULP energy per Si atom -5601.797528 kJ/mol
# Density = 2.419209 g / cm^3
# Si number density = 24.247282 Si / 1000 Ang^3
#
#
#
# Elastic Constant Matrix: (Units=GPa)
#
#
# Indices 1 2 3 4 5 6 
#
# 1 45.6804 11.6849 8.5998 -7.6966 4.8455 13.9284
# 2 11.6849 60.9611 -13.2076 0.1503 7.4217 6.3222
# 3 8.5998 -13.2076 97.0985 -3.0218 16.2520 6.6309
# 4 -7.6966 0.1503 -3.0218 38.9565 6.0441 -0.4671
# 5 4.8455 7.4217 16.2520 6.0441 38.7781 1.4243
# 6 13.9284 6.3222 6.6309 -0.4671 1.4243 38.4870
#
#
#
# Elastic Compliance Matrix: (Units=1/GPa)
#
#
# Indices 1 2 3 4 5 6 
#
# 1 0.027184 -0.004453 -0.001868 0.005497 -0.002301 -0.008633
# 2 -0.004453 0.018862 0.003868 0.000039 -0.004608 -0.001982
# 3 -0.001868 0.003868 0.012120 0.001425 -0.005742 -0.001818
# 4 0.005497 0.000039 0.001425 0.027706 -0.005548 -0.001700
# 5 -0.002301 -0.004608 -0.005742 -0.005548 0.030177 0.001395
# 6 -0.008633 -0.001982 -0.001818 -0.001700 0.001395 0.029674
#
#
# Mechanical properties :
#
#
# Convention : Reuss Voigt Hill
#
# Bulk Modulus (GPa) = 18.77578 24.21046 21.49312
# Shear Modulus (GPa) = 29.69425 36.35518 33.02471
#
# Velocity S-wave (km/s) = 3.50329 3.87635 3.69453
# Velocity P-wave (km/s) = 4.91165 5.48099 5.20411
#
# Compressibility (1/GPa) = 0.05326010
#
# Stress axis : x y z
#
# Youngs Moduli (GPa) = 36.78575 53.01679 82.50902
#
# Poissons Ratio (x) = 0.23610 0.15410
# Poissons Ratio (y) = 0.16382 -0.31913
# Poissons Ratio (z) = 0.06870 -0.20506
#
# Static dielectric constant tensor:
#      x y z
#    x 1.946720 0.010270 0.014840 
#    y 0.010270 1.943310 -0.048840 
#    z 0.014840 -0.048840 1.959940 
# 
# From -- ./inp_files/505082.got.cif
#   From: 2010.05.17/outbox.cif.g08.bks.cpg/sg2_253_cif.got.tgz:505082.got - 2010.06.03 11:33:40.
