data_PCOD9067670
_publ_section_title
;
Structure prediction by ZEFSAII (Michael W. Deem and Ramdas Pophale) SiO2 
 PCOD9067670
Probable space group: P -1
;
_chemical_formula_sum "Si O2"
_cell_formula_units_Z 14
_cell_length_a 13.246293
_cell_length_b 20.210840
_cell_length_c 9.407239
_cell_angle_alpha 35.023788
_cell_angle_beta 59.745875
_cell_angle_gamma 33.265950
_cell_volume 648.895833
_symmetry_space_group_name_H-M "P -1"
_symmetry_group_IT_number 2
_symmetry_cell_setting 'triclinic'
loop_
_space_group_symop_operation_xyz
x,y,z
-x,-y,-z
loop_
_atom_site_type_symbol
_atom_site_label
_atom_site_fract_x
_atom_site_fract_y
_atom_site_fract_z
Si Si1 0.476097 0.128205 0.187322
Si Si2 0.865638 0.455639 0.784644
Si Si3 0.234875 0.723079 0.858743
Si Si4 0.909450 0.888949 0.298344
Si Si5 0.311776 0.214901 0.850060
Si Si6 0.869834 0.498551 0.027072
Si Si7 0.720521 0.297094 0.799619
O O1 0.500000 0.000000 0.500000
O O2 0.703606 0.988501 0.209581
O O3 0.339560 0.201456 0.021277
O O4 0.351216 0.325157 0.028995
O O5 0.701410 0.645530 0.449147
O O6 0.098924 0.310579 0.818410
O O7 0.850216 0.332982 0.019625
O O8 0.819014 0.551921 0.802992
O O9 0.500000 0.500000 0.000000
O O10 0.289139 0.689579 0.046908
O O11 0.000000 0.000000 0.500000
O O12 0.995344 0.733072 0.637008
O O13 0.103846 0.753469 0.287811
O O14 0.820542 0.086685 0.064830
O O15 0.500000 0.000000 0.000000
O O16 0.000000 0.500000 0.000000
O O17 0.500000 0.500000 0.500000
#
# Coordination Sequence:
#
# PCOD9067670 Si02
#       7
#     2   2   2   2   2   2   2
#     4  12  24  41  72 107 142 195 240 308 375 463
#     4  11  27  46  70 104 150 197 245 319 383 463
#     4  12  32  53  81 113 159 208 265 326 397 459
#     4  11  26  43  78 101 149 186 259 313 377 449
#     4  11  26  43  70 106 149 191 248 309 397 462
#     4  12  23  44  69 103 144 186 244 295 375 453
#     4  11  28  51  77 108 146 204 267 317 384 454
#
# _framework density 21.575113000000002
#
# number of rings (size 3 to 8) (size 9 to 14) (size 15 to 20)
#    0.000    0.571    2.857    2.571   16.000    0.000 
#    0.000    0.000    0.000    0.000    0.000    0.000 
#    0.000    0.000    0.000    0.000    0.000    0.000 
#
# Total GULP energy -78025.501585 kJ/mol
# GULP energy per Si atom -5573.250113 kJ/mol
# Density = 2.152601 g / cm^3
# Si number density = 21.575113 Si / 1000 Ang^3
#
#
#
# Elastic Constant Matrix: (Units=GPa)
#
#
# Indices 1 2 3 4 5 6 
#
# 1 79.2494 32.8381 49.4848 3.7776 -13.3590 -7.6936
# 2 32.8381 131.3372 51.7632 0.7151 6.9337 2.0054
# 3 49.4848 51.7632 133.4592 10.9244 -5.6013 10.4445
# 4 3.7776 0.7151 10.9244 32.1448 1.0542 9.3782
# 5 -13.3590 6.9337 -5.6013 1.0542 36.5650 9.7574
# 6 -7.6936 2.0054 10.4445 9.3782 9.7574 48.5402
#
#
#
# Elastic Compliance Matrix: (Units=1/GPa)
#
#
# Indices 1 2 3 4 5 6 
#
# 1 0.018719 -0.002732 -0.005807 -0.001361 0.005580 0.003471
# 2 -0.002732 0.009642 -0.002984 0.001153 -0.003389 0.000269
# 3 -0.005807 -0.002984 0.011265 -0.002239 0.001034 -0.002996
# 4 -0.001361 0.001153 -0.002239 0.033839 -0.000368 -0.006245
# 5 0.005580 -0.003389 0.001034 -0.000368 0.031664 -0.005492
# 6 0.003471 0.000269 -0.002996 -0.006245 -0.005492 0.024096
#
#
# Mechanical properties :
#
#
# Convention : Reuss Voigt Hill
#
# Bulk Modulus (GPa) = 60.31779 68.02423 64.17101
# Shear Modulus (GPa) = 31.68618 37.44731 34.56674
#
# Velocity S-wave (km/s) = 3.83645 4.17066 4.00704
# Velocity P-wave (km/s) = 6.90234 7.40203 7.15654
#
# Compressibility (1/GPa) = 0.01657886
#
# Stress axis : x y z
#
# Youngs Moduli (GPa) = 53.42187 103.71562 88.77157
#
# Poissons Ratio (x) = 0.28332 0.51551
# Poissons Ratio (y) = 0.14593 0.26493
# Poissons Ratio (z) = 0.31023 0.30953
#
# Static dielectric constant tensor:
#      x y z
#    x 1.926580 0.082920 -0.447850 
#    y 0.082920 1.900110 -0.486530 
#    z -0.447850 -0.486530 3.799870 
# 
# From -- ./inp_files/262386.got.cif
#   From: 2010.05.17/outbox.cif.g08.bks.cpg/sg2_132_cif.got.tgz:262386.got - 2010.06.03 11:33:40.
