data_PCOD9067460
_publ_section_title
;
Structure prediction by ZEFSAII (Michael W. Deem and Ramdas Pophale) SiO2 
 PCOD9067460
Probable space group: P -1
;
_chemical_formula_sum "Si O2"
_cell_formula_units_Z 12
_cell_length_a 11.230545
_cell_length_b 5.355867
_cell_length_c 9.690564
_cell_angle_alpha 95.775459
_cell_angle_beta 102.568778
_cell_angle_gamma 50.498373
_cell_volume 438.423335
_symmetry_space_group_name_H-M "P -1"
_symmetry_group_IT_number 2
_symmetry_cell_setting 'triclinic'
loop_
_space_group_symop_operation_xyz
x,y,z
-x,-y,-z
loop_
_atom_site_type_symbol
_atom_site_label
_atom_site_fract_x
_atom_site_fract_y
_atom_site_fract_z
Si Si1 0.020162 0.207495 0.910895
Si Si2 0.480784 0.027255 0.230468
Si Si3 0.195997 0.533959 0.609019
Si Si4 0.669394 0.377448 0.587043
Si Si5 0.103983 0.301174 0.329629
Si Si6 0.364431 0.862102 0.947614
O O1 0.933421 0.408404 0.759337
O O2 0.200135 0.945034 0.899705
O O3 0.000000 0.500000 0.000000
O O4 0.000000 0.000000 0.000000
O O5 0.623986 0.675270 0.303859
O O6 0.381273 0.295895 0.335940
O O7 0.587566 0.090191 0.182490
O O8 0.371812 0.057867 0.083208
O O9 0.202489 0.749573 0.510385
O O10 0.056688 0.657777 0.690389
O O11 0.169100 0.328278 0.491209
O O12 0.500000 0.500000 0.500000
O O13 0.756063 0.074450 0.698773
O O14 0.500000 0.500000 0.000000
#
# Coordination Sequence:
#
# PCOD9067460 Si02
#       6
#     2   2   2   2   2   2
#     4  12  32  54  83 119 164 223 283 347 419 501
#     4  11  26  50  78 120 163 210 291 332 419 496
#     4  11  25  49  78 115 166 209 274 340 418 496
#     4  12  27  46  83 123 164 218 268 350 416 502
#     4  11  27  51  77 117 163 217 271 342 423 490
#     4  11  29  51  81 109 163 225 272 350 407 496
#
# _framework density 27.370802000000001
#
# number of rings (size 3 to 8) (size 9 to 14) (size 15 to 20)
#    0.000    0.667    3.333    1.000   14.000    0.000 
#    0.000    0.000    0.000    0.000    0.000    0.000 
#    0.000    0.000    0.000    0.000    0.000    0.000 
#
# Total GULP energy -67125.857082 kJ/mol
# GULP energy per Si atom -5593.821424 kJ/mol
# Density = 2.730850 g / cm^3
# Si number density = 27.370802 Si / 1000 Ang^3
#
#
#
# Elastic Constant Matrix: (Units=GPa)
#
#
# Indices 1 2 3 4 5 6 
#
# 1 193.2632 45.0086 38.0542 -25.8408 -18.3658 -10.8349
# 2 45.0086 142.2150 28.5101 -36.3848 -6.1930 2.0688
# 3 38.0542 28.5101 84.6440 -19.9614 -1.7321 -9.4213
# 4 -25.8408 -36.3848 -19.9614 49.1413 5.1889 2.1281
# 5 -18.3658 -6.1930 -1.7321 5.1889 51.6203 -16.7443
# 6 -10.8349 2.0688 -9.4213 2.1281 -16.7443 58.7762
#
#
#
# Elastic Compliance Matrix: (Units=1/GPa)
#
#
# Indices 1 2 3 4 5 6 
#
# 1 0.006322 -0.001192 -0.001902 0.001348 0.002406 0.001539
# 2 -0.001192 0.009127 -0.001323 0.005668 -0.000280 -0.001038
# 3 -0.001902 -0.001323 0.014189 0.003722 -0.000152 0.001792
# 4 0.001348 0.005668 0.003722 0.026981 -0.001691 -0.000813
# 5 0.002406 -0.000280 -0.000152 -0.001691 0.022608 0.006931
# 6 0.001539 -0.001038 0.001792 -0.000813 0.006931 0.019625
#
#
# Mechanical properties :
#
#
# Convention : Reuss Voigt Hill
#
# Bulk Modulus (GPa) = 48.06787 71.47423 59.77105
# Shear Modulus (GPa) = 43.62225 52.47751 48.04988
#
# Velocity S-wave (km/s) = 3.99651 4.38343 4.19443
# Velocity P-wave (km/s) = 6.23667 7.19647 6.73369
#
# Compressibility (1/GPa) = 0.02080392
#
# Stress axis : x y z
#
# Youngs Moduli (GPa) = 158.18718 109.56335 70.47652
#
# Poissons Ratio (x) = 0.13060 0.13405
# Poissons Ratio (y) = 0.18857 0.09323
# Poissons Ratio (z) = 0.30088 0.14494
#
# Static dielectric constant tensor:
#      x y z
#    x 2.210530 0.036440 0.215100 
#    y 0.036440 2.018020 0.338600 
#    z 0.215100 0.338600 2.857740 
# 
# From -- ./inp_files/410859.got.cif
#   From: 2010.05.17/outbox.cif.g08.bks.cpg/sg2_206_cif.got.tgz:410859.got - 2010.06.03 11:33:40.
