data_PCOD9067465
_publ_section_title
;
Structure prediction by ZEFSAII (Michael W. Deem and Ramdas Pophale) SiO2 
 PCOD9067465
Probable space group: P -1
;
_chemical_formula_sum "Si O2"
_cell_formula_units_Z 12
_cell_length_a 9.828299
_cell_length_b 9.199354
_cell_length_c 13.852861
_cell_angle_alpha 46.643518
_cell_angle_beta 31.852795
_cell_angle_gamma 42.888043
_cell_volume 442.605614
_symmetry_space_group_name_H-M "P -1"
_symmetry_group_IT_number 2
_symmetry_cell_setting 'triclinic'
loop_
_space_group_symop_operation_xyz
x,y,z
-x,-y,-z
loop_
_atom_site_type_symbol
_atom_site_label
_atom_site_fract_x
_atom_site_fract_y
_atom_site_fract_z
Si Si1 0.258691 0.362619 0.640472
Si Si2 0.300253 0.815663 0.377730
Si Si3 0.221200 0.930786 0.167202
Si Si4 0.334020 0.380025 0.099718
Si Si5 0.215469 0.274177 0.428311
Si Si6 0.147787 0.966821 0.820930
O O1 0.318544 0.565443 0.467008
O O2 0.496999 0.224666 0.633982
O O3 0.191659 0.198231 0.683674
O O4 0.970627 0.477391 0.821197
O O5 0.364534 0.916163 0.193076
O O6 0.000000 0.000000 0.500000
O O7 0.948571 0.880923 0.383752
O O8 0.055845 0.086212 0.107092
O O9 0.457909 0.742925 0.052364
O O10 0.261194 0.269240 0.287223
O O11 0.500000 0.500000 0.000000
O O12 0.000000 0.500000 0.500000
O O13 0.535524 0.205070 0.301284
O O14 0.000000 0.000000 0.000000
#
# Coordination Sequence:
#
# PCOD9067465 Si02
#       6
#     2   2   2   2   2   2
#     4  11  25  49  79 108 162 205 260 329 390 478
#     4  11  27  51  78 111 158 214 266 321 393 481
#     4  12  25  44  79 110 153 209 255 332 397 460
#     4  12  22  43  72 116 152 189 258 327 391 463
#     4  12  23  40  70 111 157 197 248 326 392 459
#     4  12  25  46  77 122 154 202 270 331 395 471
#
# _framework density 27.112174
#
# number of rings (size 3 to 8) (size 9 to 14) (size 15 to 20)
#    0.000    0.333    6.667    1.500    0.000    2.000 
#    0.000    3.333    0.000    0.000    0.000    0.000 
#    0.000    0.000    0.000    0.000    0.000    0.000 
#
# Total GULP energy -66990.059063 kJ/mol
# GULP energy per Si atom -5582.504922 kJ/mol
# Density = 2.705047 g / cm^3
# Si number density = 27.112174 Si / 1000 Ang^3
#
#
#
# Elastic Constant Matrix: (Units=GPa)
#
#
# Indices 1 2 3 4 5 6 
#
# 1 165.6799 47.1564 19.1259 8.9091 -4.1835 -26.3338
# 2 47.1564 127.8050 50.6575 17.3023 -5.6099 -24.9370
# 3 19.1259 50.6575 127.4998 36.6575 25.4240 -5.3512
# 4 8.9091 17.3023 36.6575 72.0163 -4.1663 -18.5947
# 5 -4.1835 -5.6099 25.4240 -4.1663 60.2525 4.5400
# 6 -26.3338 -24.9370 -5.3512 -18.5947 4.5400 61.5357
#
#
#
# Elastic Compliance Matrix: (Units=1/GPa)
#
#
# Indices 1 2 3 4 5 6 
#
# 1 0.006999 -0.002069 -0.000297 0.000372 0.000277 0.002223
# 2 -0.002069 0.011125 -0.004821 0.001053 0.002749 0.003319
# 3 -0.000297 -0.004821 0.012712 -0.006251 -0.006084 -0.002415
# 4 0.000372 0.001053 -0.006251 0.018352 0.003630 0.005320
# 5 0.000277 0.002749 -0.006084 0.003630 0.019664 0.000350
# 6 0.002223 0.003319 -0.002415 0.005320 0.000350 0.019919
#
#
# Mechanical properties :
#
#
# Convention : Reuss Voigt Hill
#
# Bulk Modulus (GPa) = 60.74820 72.76271 66.75546
# Shear Modulus (GPa) = 46.02643 59.03055 52.52849
#
# Velocity S-wave (km/s) = 4.12470 4.67119 4.40642
# Velocity P-wave (km/s) = 6.71856 7.48259 7.11085
#
# Compressibility (1/GPa) = 0.01646139
#
# Stress axis : x y z
#
# Youngs Moduli (GPa) = 142.87152 89.89063 78.66389
#
# Poissons Ratio (x) = 0.18603 0.02333
# Poissons Ratio (y) = 0.29567 0.37926
# Poissons Ratio (z) = 0.04238 0.43339
#
# Static dielectric constant tensor:
#      x y z
#    x 2.220340 0.045930 -0.144880 
#    y 0.045930 2.170850 -0.084170 
#    z -0.144880 -0.084170 2.012260 
# 
# From -- ./inp_files/518718.got.cif
#   From: 2010.05.17/outbox.cif.g08.bks.cpg/sg2_260_cif.got.tgz:518718.got - 2010.06.03 11:33:40.
