data_PCOD9067613
_publ_section_title
;
Structure prediction by ZEFSAII (Michael W. Deem and Ramdas Pophale) SiO2 
 PCOD9067613
Probable space group: P -1
;
_chemical_formula_sum "Si O2"
_cell_formula_units_Z 16
_cell_length_a 19.661838
_cell_length_b 11.528533
_cell_length_c 6.872047
_cell_angle_alpha 56.836986
_cell_angle_beta 139.752326
_cell_angle_gamma 132.925820
_cell_volume 735.717665
_symmetry_space_group_name_H-M "P -1"
_symmetry_group_IT_number 2
_symmetry_cell_setting 'triclinic'
loop_
_space_group_symop_operation_xyz
x,y,z
-x,-y,-z
loop_
_atom_site_type_symbol
_atom_site_label
_atom_site_fract_x
_atom_site_fract_y
_atom_site_fract_z
Si Si1 0.237206 0.912960 0.326033
Si Si2 0.884563 0.326508 0.394257
Si Si3 0.378652 0.364468 0.760078
Si Si4 0.536544 0.803984 0.220725
Si Si5 0.016495 0.909464 0.307549
Si Si6 0.404999 0.849654 0.544336
Si Si7 0.665702 0.384856 0.725818
Si Si8 0.166390 0.138230 0.766886
O O1 0.161069 0.753383 0.422775
O O2 0.288004 0.867690 0.291470
O O3 0.349327 0.045635 0.573919
O O4 0.166435 0.999643 0.021593
O O5 0.918736 0.197248 0.494296
O O6 0.000000 0.500000 0.500000
O O7 0.774344 0.350283 0.049354
O O8 0.413439 0.276236 0.750595
O O9 0.304903 0.437065 0.417565
O O10 0.297336 0.258009 0.858976
O O11 0.500000 0.500000 0.000000
O O12 0.444017 0.692023 0.287416
O O13 0.456230 0.851374 0.866481
O O14 0.896310 0.797789 0.276354
O O15 0.092607 0.052690 0.491551
O O16 0.000000 0.000000 0.000000
O O17 0.381896 0.699961 0.507379
O O18 0.500000 0.000000 0.500000
#
# Coordination Sequence:
#
# PCOD9067613 Si02
#       8
#     2   2   2   2   2   2   2   2
#     4  12  23  45  73 106 141 187 237 297 362 430
#     4  12  28  45  73 107 143 191 241 299 367 416
#     4  12  26  46  70 110 149 189 235 292 372 438
#     4  12  24  44  72 103 145 191 240 288 356 444
#     4  11  25  51  77 102 136 193 255 301 351 424
#     4  12  22  41  70 101 144 181 238 289 354 431
#     4  12  26  46  69 105 151 192 232 303 365 427
#     4  11  26  46  79 103 138 190 249 299 351 429
#
# _framework density 21.747471999999998
#
# number of rings (size 3 to 8) (size 9 to 14) (size 15 to 20)
#    0.000    0.250    5.000    4.500    1.750    2.000 
#    0.000    1.875    0.000    0.000    0.000    0.000 
#    0.000    0.000    0.000    0.000    0.000    0.000 
#
# Total GULP energy -89355.071397 kJ/mol
# GULP energy per Si atom -5584.691962 kJ/mol
# Density = 2.169797 g / cm^3
# Si number density = 21.747472 Si / 1000 Ang^3
#
#
#
# Elastic Constant Matrix: (Units=GPa)
#
#
# Indices 1 2 3 4 5 6 
#
# 1 156.6363 40.3899 14.8030 -0.3641 11.2673 -5.9531
# 2 40.3899 85.7070 27.5710 -4.6553 2.1729 12.5989
# 3 14.8030 27.5710 106.4455 -11.2330 3.3458 6.8718
# 4 -0.3641 -4.6553 -11.2330 29.6080 -10.4364 8.1129
# 5 11.2673 2.1729 3.3458 -10.4364 34.0993 -6.4705
# 6 -5.9531 12.5989 6.8718 8.1129 -6.4705 33.5385
#
#
#
# Elastic Compliance Matrix: (Units=1/GPa)
#
#
# Indices 1 2 3 4 5 6 
#
# 1 0.007751 -0.004045 -0.000406 -0.002391 -0.002409 0.003093
# 2 -0.004045 0.015612 -0.002700 0.003360 0.000350 -0.006775
# 3 -0.000406 -0.002700 0.010749 0.004323 0.000142 -0.002278
# 4 -0.002391 0.003360 0.004323 0.042816 0.011213 -0.010766
# 5 -0.002409 0.000350 0.000142 0.011213 0.034141 0.003286
# 6 0.003093 -0.006775 -0.002278 -0.010766 0.003286 0.036616
#
#
# Mechanical properties :
#
#
# Convention : Reuss Voigt Hill
#
# Bulk Modulus (GPa) = 50.48346 57.14628 53.81487
# Shear Modulus (GPa) = 29.65730 37.18415 33.42072
#
# Velocity S-wave (km/s) = 3.69685 4.13948 3.92441
# Velocity P-wave (km/s) = 6.44098 7.01294 6.73303
#
# Compressibility (1/GPa) = 0.01980847
#
# Stress axis : x y z
#
# Youngs Moduli (GPa) = 129.01593 64.05210 93.02995
#
# Poissons Ratio (x) = 0.25912 0.03780
# Poissons Ratio (y) = 0.52192 0.25120
# Poissons Ratio (z) = 0.05243 0.17296
#
# Static dielectric constant tensor:
#      x y z
#    x 1.761400 -0.008670 0.010150 
#    y -0.008670 1.854220 0.037460 
#    z 0.010150 0.037460 1.808620 
# 
# From -- ./inp_files/109604.got.cif
#   From: 2010.05.17/outbox.cif.g08.bks.cpg/sg2_55_cif.got.tgz:109604.got - 2010.06.03 11:33:40.
