data_PCOD9067744
_publ_section_title
;
Structure prediction by ZEFSAII (Michael W. Deem and Ramdas Pophale) SiO2 
 PCOD9067744
Probable space group: P -1
;
_chemical_formula_sum "Si O2"
_cell_formula_units_Z 12
_cell_length_a 9.958861
_cell_length_b 8.883258
_cell_length_c 15.752727
_cell_angle_alpha 140.024867
_cell_angle_beta 137.299670
_cell_angle_gamma 67.296894
_cell_volume 554.676021
_symmetry_space_group_name_H-M "P -1"
_symmetry_group_IT_number 2
_symmetry_cell_setting 'triclinic'
loop_
_space_group_symop_operation_xyz
x,y,z
-x,-y,-z
loop_
_atom_site_type_symbol
_atom_site_label
_atom_site_fract_x
_atom_site_fract_y
_atom_site_fract_z
Si Si1 0.186401 0.870995 0.038702
Si Si2 0.066380 0.166579 0.395899
Si Si3 0.857392 0.557278 0.029199
Si Si4 0.535114 0.289129 0.626068
Si Si5 0.376360 0.679104 0.507392
Si Si6 0.939320 0.447443 0.315923
O O1 0.138337 0.627608 0.972919
O O2 0.204251 0.762105 0.908182
O O3 0.426314 0.055554 0.261882
O O4 0.000000 0.000000 0.000000
O O5 0.290819 0.259204 0.488255
O O6 0.931579 0.275333 0.320371
O O7 0.112405 0.320070 0.572046
O O8 0.953706 0.860701 0.223498
O O9 0.634162 0.461203 0.829456
O O10 0.000000 0.500000 0.000000
O O11 0.669832 0.353403 0.629082
O O12 0.500000 0.000000 0.500000
O O13 0.500000 0.500000 0.500000
O O14 0.167994 0.588061 0.431812
#
# Coordination Sequence:
#
# PCOD9067744 Si02
#       6
#     2   2   2   2   2   2
#     4  12  24  41  68 100 129 173 227 273 328 394
#     4  11  26  46  66  98 137 175 218 275 339 386
#     4  12  24  40  69  99 131 176 221 274 330 393
#     4  12  23  43  67 101 133 172 222 273 325 396
#     4  12  23  41  70 101 129 173 223 273 322 394
#     4  11  26  45  67  98 137 174 219 278 330 392
#
# _framework density 21.634250000000002
#
# number of rings (size 3 to 8) (size 9 to 14) (size 15 to 20)
#    0.000    0.333    6.667    2.000    2.333    2.000 
#    0.000    5.000    0.000    0.000    0.000    0.000 
#    0.000    0.000    0.000    0.000    0.000    0.000 
#
# Total GULP energy -66822.620951 kJ/mol
# GULP energy per Si atom -5568.551746 kJ/mol
# Density = 2.158501 g / cm^3
# Si number density = 21.634250 Si / 1000 Ang^3
#
#
#
# Elastic Constant Matrix: (Units=GPa)
#
#
# Indices 1 2 3 4 5 6 
#
# 1 67.4524 6.7427 21.3883 16.9411 -14.3747 8.6873
# 2 6.7427 93.2118 38.7076 20.0509 -12.4213 22.5740
# 3 21.3883 38.7076 129.9479 10.9411 -17.0925 -8.1654
# 4 16.9411 20.0509 10.9411 36.7125 -0.7106 -8.1152
# 5 -14.3747 -12.4213 -17.0925 -0.7106 46.8324 0.6961
# 6 8.6873 22.5740 -8.1654 -8.1152 0.6961 25.8195
#
#
#
# Elastic Compliance Matrix: (Units=1/GPa)
#
#
# Indices 1 2 3 4 5 6 
#
# 1 0.031707 0.020199 -0.009639 -0.031777 0.011709 -0.041680
# 2 0.020199 0.038897 -0.013703 -0.039011 0.011781 -0.057717
# 3 -0.009639 -0.013703 0.013509 0.013102 -0.001816 0.023663
# 4 -0.031777 -0.039011 0.013102 0.075138 -0.015263 0.072970
# 5 0.011709 0.011781 -0.001816 -0.015263 0.027480 -0.020352
# 6 -0.041680 -0.057717 0.023663 0.072970 -0.020352 0.134183
#
#
# Mechanical properties :
#
#
# Convention : Reuss Voigt Hill
#
# Bulk Modulus (GPa) = 12.84915 47.14325 29.99620
# Shear Modulus (GPa) = 14.15863 36.79110 25.47487
#
# Velocity S-wave (km/s) = 2.56101 4.12830 3.43523
# Velocity P-wave (km/s) = 3.83369 6.67549 5.44331
#
# Compressibility (1/GPa) = 0.07782614
#
# Stress axis : x y z
#
# Youngs Moduli (GPa) = 31.53910 25.70888 74.02705
#
# Poissons Ratio (x) = -0.51929 0.71352
# Poissons Ratio (y) = -0.63705 1.01442
# Poissons Ratio (z) = 0.30399 0.35230
#
# Static dielectric constant tensor:
#      x y z
#    x 2.188740 0.095110 0.510630 
#    y 0.095110 1.888820 0.069540 
#    z 0.510630 0.069540 2.367850 
# 
# From -- ./inp_files/246318.got.cif
#   From: 2010.05.17/outbox.cif.g08.bks.cpg/sg2_124_cif.got.tgz:246318.got - 2010.06.03 11:33:40.
