data_PCOD9067351
_publ_section_title
;
Structure prediction by ZEFSAII (Michael W. Deem and Ramdas Pophale) SiO2 
 PCOD9067351
Probable space group: P -1
;
_chemical_formula_sum "Si O2"
_cell_formula_units_Z 14
_cell_length_a 14.169524
_cell_length_b 9.708881
_cell_length_c 11.311477
_cell_angle_alpha 120.154259
_cell_angle_beta 148.397246
_cell_angle_gamma 49.524687
_cell_volume 615.297776
_symmetry_space_group_name_H-M "P -1"
_symmetry_group_IT_number 2
_symmetry_cell_setting 'triclinic'
loop_
_space_group_symop_operation_xyz
x,y,z
-x,-y,-z
loop_
_atom_site_type_symbol
_atom_site_label
_atom_site_fract_x
_atom_site_fract_y
_atom_site_fract_z
Si Si1 0.384181 0.146224 0.542243
Si Si2 0.607072 0.500992 0.992206
Si Si3 0.766050 0.442403 0.500236
Si Si4 0.787221 0.741714 0.205944
Si Si5 0.725336 0.332215 0.653028
Si Si6 0.938521 0.201603 0.064280
Si Si7 0.442171 0.926820 0.728980
O O1 0.359212 0.339958 0.561376
O O2 0.147149 0.195241 0.322100
O O3 0.500000 0.000000 0.500000
O O4 0.487894 0.044297 0.730808
O O5 0.733560 0.610138 0.170681
O O6 0.766410 0.301054 0.024105
O O7 0.500000 0.500000 0.000000
O O8 0.408651 0.610278 0.742710
O O9 0.827138 0.377902 0.671236
O O10 0.971148 0.353123 0.603348
O O11 0.706398 0.930430 0.270451
O O12 0.651770 0.787771 0.960738
O O13 0.500000 0.500000 0.500000
O O14 0.678877 0.166434 0.503364
O O15 0.846037 0.313764 0.893896
O O16 0.000000 0.000000 0.000000
#
# Coordination Sequence:
#
# PCOD9067351 Si02
#       7
#     2   2   2   2   2   2   2
#     4  12  26  44  70 109 147 187 245 305 368 432
#     4  12  26  48  75 108 151 194 247 306 369 439
#     4  12  26  45  77 106 141 196 241 298 373 430
#     4  11  26  49  73 106 145 196 247 297 369 442
#     4  12  24  47  74 103 148 186 243 300 365 436
#     4  12  25  46  73 108 148 192 246 304 364 437
#     4  11  25  49  70 102 154 184 245 310 351 445
#
# _framework density 22.753208999999998
#
# number of rings (size 3 to 8) (size 9 to 14) (size 15 to 20)
#    0.000    0.286    5.714    2.571    4.000    2.286 
#    2.571    0.000    0.000    0.000    0.000    0.000 
#    0.000    0.000    0.000    0.000    0.000    0.000 
#
# Total GULP energy -78320.998571 kJ/mol
# GULP energy per Si atom -5594.357041 kJ/mol
# Density = 2.270142 g / cm^3
# Si number density = 22.753209 Si / 1000 Ang^3
#
#
#
# Elastic Constant Matrix: (Units=GPa)
#
#
# Indices 1 2 3 4 5 6 
#
# 1 130.1026 28.3098 17.5600 -14.1291 9.0720 -17.8692
# 2 28.3098 97.8576 8.1422 -3.6670 10.1140 -13.2729
# 3 17.5600 8.1422 55.3568 -11.3070 13.1832 -12.4189
# 4 -14.1291 -3.6670 -11.3070 31.6708 3.5749 0.7572
# 5 9.0720 10.1140 13.1832 3.5749 50.9054 -12.9861
# 6 -17.8692 -13.2729 -12.4189 0.7572 -12.9861 42.7134
#
#
#
# Elastic Compliance Matrix: (Units=1/GPa)
#
#
# Indices 1 2 3 4 5 6 
#
# 1 0.009037 -0.001985 -0.001186 0.003370 -0.000479 0.002613
# 2 -0.001985 0.011259 -0.000117 0.000472 -0.001318 0.002225
# 3 -0.001186 -0.000117 0.022204 0.007844 -0.004977 0.004271
# 4 0.003370 0.000472 0.007844 0.036439 -0.004847 0.001718
# 5 -0.000479 -0.001318 -0.004977 -0.004847 0.022894 0.004989
# 6 0.002613 0.002225 0.004271 0.001718 0.004989 0.027925
#
#
# Mechanical properties :
#
#
# Convention : Reuss Voigt Hill
#
# Bulk Modulus (GPa) = 27.83728 43.48232 35.65980
# Shear Modulus (GPa) = 33.71388 40.34491 37.02940
#
# Velocity S-wave (km/s) = 3.85349 4.21545 4.03853
# Velocity P-wave (km/s) = 5.66217 6.54563 6.11986
#
# Compressibility (1/GPa) = 0.03592305
#
# Stress axis : x y z
#
# Youngs Moduli (GPa) = 110.66119 88.82012 45.03762
#
# Poissons Ratio (x) = 0.17634 0.05341
# Poissons Ratio (y) = 0.21970 0.00526
# Poissons Ratio (z) = 0.13123 0.01037
#
# Static dielectric constant tensor:
#      x y z
#    x 3.145100 1.196600 -0.085040 
#    y 1.196600 2.938540 0.006040 
#    z -0.085040 0.006040 1.873360 
# 
# From -- ./inp_files/242299.got.cif
#   From: 2010.05.17/outbox.cif.g08.bks.cpg/sg2_122_cif.got.tgz:242299.got - 2010.06.03 11:33:40.
