data_PCOD9067513
_publ_section_title
;
Structure prediction by ZEFSAII (Michael W. Deem and Ramdas Pophale) SiO2 
 PCOD9067513
Probable space group: P -1
;
_chemical_formula_sum "Si O2"
_cell_formula_units_Z 14
_cell_length_a 21.302970
_cell_length_b 11.311828
_cell_length_c 5.290419
_cell_angle_alpha 108.605849
_cell_angle_beta 104.323584
_cell_angle_gamma 33.944034
_cell_volume 674.295999
_symmetry_space_group_name_H-M "P -1"
_symmetry_group_IT_number 2
_symmetry_cell_setting 'triclinic'
loop_
_space_group_symop_operation_xyz
x,y,z
-x,-y,-z
loop_
_atom_site_type_symbol
_atom_site_label
_atom_site_fract_x
_atom_site_fract_y
_atom_site_fract_z
Si Si1 0.031678 0.695495 0.607664
Si Si2 0.356047 0.277727 0.289170
Si Si3 0.455379 0.501600 0.206914
Si Si4 0.200747 0.835827 0.295382
Si Si5 0.534253 0.791480 0.158284
Si Si6 0.892582 0.133368 0.260013
Si Si7 0.103104 0.608181 0.130506
O O1 0.067084 0.786770 0.655135
O O2 0.061457 0.585967 0.299573
O O3 0.102340 0.544308 0.815143
O O4 0.898489 0.906516 0.656140
O O5 0.392422 0.312665 0.580270
O O6 0.224608 0.464208 0.239445
O O7 0.420545 0.048502 0.267863
O O8 0.401600 0.246882 0.040071
O O9 0.500000 0.500000 0.500000
O O10 0.322187 0.699950 0.268653
O O11 0.500000 0.500000 0.000000
O O12 0.491264 0.304095 0.041439
O O13 0.176188 0.808431 0.523516
O O14 0.177872 0.776888 0.002490
O O15 0.004666 0.869366 0.174812
#
# Coordination Sequence:
#
# PCOD9067513 Si02
#       7
#     2   2   2   2   2   2   2
#     4  10  19  29  46  84 112 144 176 214 295 359
#     4  10  21  37  58  89 110 158 175 239 298 344
#     4  12  26  42  58  83 108 161 210 236 275 322
#     4  10  20  33  51  72 112 147 176 237 279 323
#     4  10  23  39  58  80 118 143 207 233 283 339
#     4  10  19  30  47  84 110 145 175 215 301 354
#     4  10  18  28  48  77 118 138 175 206 279 373
#
# _framework density 20.762394
#
# number of rings (size 3 to 8) (size 9 to 14) (size 15 to 20)
#    0.000    1.714    0.000    6.857    8.000    0.000 
#    0.000    0.000    0.000    0.000    0.000   24.000 
#    0.000    0.000    0.000    0.000    0.000    0.000 
#
# Total GULP energy -78050.937420 kJ/mol
# GULP energy per Si atom -5575.066959 kJ/mol
# Density = 2.071514 g / cm^3
# Si number density = 20.762394 Si / 1000 Ang^3
#
#
#
# Elastic Constant Matrix: (Units=GPa)
#
#
# Indices 1 2 3 4 5 6 
#
# 1 64.4076 43.4612 34.0774 1.3912 -7.9912 -32.0032
# 2 43.4612 102.4686 43.8076 -9.3754 2.7263 -23.3903
# 3 34.0774 43.8076 163.6732 -22.1023 -19.9812 -13.0122
# 4 1.3912 -9.3754 -22.1023 31.7667 -1.8442 1.9383
# 5 -7.9912 2.7263 -19.9812 -1.8442 39.0689 3.2633
# 6 -32.0032 -23.3903 -13.0122 1.9383 3.2633 23.7448
#
#
#
# Elastic Compliance Matrix: (Units=1/GPa)
#
#
# Indices 1 2 3 4 5 6 
#
# 1 0.059258 -0.008010 -0.006088 -0.013240 0.003154 0.069288
# 2 -0.008010 0.015239 -0.002252 0.002848 -0.003994 0.003298
# 3 -0.006088 -0.002252 0.008837 0.006409 0.004293 -0.006694
# 4 -0.013240 0.002848 0.006409 0.038483 0.003452 -0.015143
# 5 0.003154 -0.003994 0.004293 0.003452 0.029012 -0.001601
# 6 0.069288 0.003298 -0.006694 -0.015143 -0.001601 0.136537
#
#
# Mechanical properties :
#
#
# Convention : Reuss Voigt Hill
#
# Bulk Modulus (GPa) = 19.74953 63.69352 41.72152
# Shear Modulus (GPa) = 14.83926 32.86296 23.85111
#
# Velocity S-wave (km/s) = 2.67632 3.98277 3.39302
# Velocity P-wave (km/s) = 4.36842 7.20374 5.95722
#
# Compressibility (1/GPa) = 0.05063411
#
# Stress axis : x y z
#
# Youngs Moduli (GPa) = 16.87544 65.62167 113.15592
#
# Poissons Ratio (x) = 0.52562 0.68892
# Poissons Ratio (y) = 0.13517 0.25481
# Poissons Ratio (z) = 0.10274 0.14777
#
# Static dielectric constant tensor:
#      x y z
#    x 1.753570 0.001170 -0.041640 
#    y 0.001170 1.800240 0.016140 
#    z -0.041640 0.016140 1.885350 
# 
# From -- ./inp_files/118334.got.cif
#   From: 2010.05.17/outbox.cif.g08.bks.cpg/sg2_60_cif.got.tgz:118334.got - 2010.06.03 11:33:40.
