data_PCOD9067099
_publ_section_title
;
Structure prediction by ZEFSAII (Michael W. Deem and Ramdas Pophale) SiO2 
 PCOD9067099
Probable space group: P -1
;
_chemical_formula_sum "Si O2"
_cell_formula_units_Z 14
_cell_length_a 8.731316
_cell_length_b 9.704651
_cell_length_c 11.429066
_cell_angle_alpha 127.140753
_cell_angle_beta 133.896182
_cell_angle_gamma 73.325911
_cell_volume 541.476670
_symmetry_space_group_name_H-M "P -1"
_symmetry_group_IT_number 2
_symmetry_cell_setting 'triclinic'
loop_
_space_group_symop_operation_xyz
x,y,z
-x,-y,-z
loop_
_atom_site_type_symbol
_atom_site_label
_atom_site_fract_x
_atom_site_fract_y
_atom_site_fract_z
Si Si1 0.504533 0.961424 0.128887
Si Si2 0.848865 0.839020 0.907674
Si Si3 0.007196 0.308963 0.863002
Si Si4 0.664407 0.993325 0.476746
Si Si5 0.203224 0.430766 0.459838
Si Si6 0.945386 0.213076 0.404071
Si Si7 0.513602 0.582279 0.916454
O O1 0.348860 0.095327 0.104585
O O2 0.514078 0.932541 0.256769
O O3 0.737561 0.058835 0.249147
O O4 0.426673 0.760454 0.944173
O O5 0.756186 0.668464 0.688350
O O6 0.986806 0.797200 0.068151
O O7 0.000000 0.000000 0.000000
O O8 0.801721 0.193557 0.628672
O O9 0.000000 0.500000 0.000000
O O10 0.229547 0.342438 0.927160
O O11 0.500000 0.000000 0.500000
O O12 0.844693 0.872784 0.504315
O O13 0.107045 0.605790 0.475328
O O14 0.395374 0.468336 0.682167
O O15 0.012948 0.285351 0.346981
O O16 0.500000 0.500000 0.000000
#
# Coordination Sequence:
#
# PCOD9067099 Si02
#       7
#     2   2   2   2   2   2   2
#     4  12  28  48  84 112 161 208 272 328 410 475
#     4  12  30  54  83 118 161 217 271 335 407 488
#     4  12  31  49  81 118 164 210 276 330 406 483
#     4  12  27  51  76 116 161 209 260 332 408 478
#     4  11  28  49  82 112 163 205 273 333 409 480
#     4  11  25  47  79 109 151 208 265 326 402 473
#     4  12  30  50  80 121 163 213 269 339 407 479
#
# _framework density 25.855222999999999
#
# number of rings (size 3 to 8) (size 9 to 14) (size 15 to 20)
#    0.000    0.286    1.429    4.714   18.000    2.286 
#    0.000    0.000    0.000    0.000    0.000    0.000 
#    0.000    0.000    0.000    0.000    0.000    0.000 
#
# Total GULP energy -78292.712032 kJ/mol
# GULP energy per Si atom -5592.336574 kJ/mol
# Density = 2.579638 g / cm^3
# Si number density = 25.855223 Si / 1000 Ang^3
#
#
#
# Elastic Constant Matrix: (Units=GPa)
#
#
# Indices 1 2 3 4 5 6 
#
# 1 119.1503 26.7640 36.8528 -2.3601 -1.7775 9.3040
# 2 26.7640 103.7335 -15.3876 7.2319 -14.4918 -0.5515
# 3 36.8528 -15.3876 74.2784 9.4338 -19.0823 -2.3725
# 4 -2.3601 7.2319 9.4338 35.2429 -4.6952 -4.9413
# 5 -1.7775 -14.4918 -19.0823 -4.6952 50.3914 4.6571
# 6 9.3040 -0.5515 -2.3725 -4.9413 4.6571 56.7993
#
#
#
# Elastic Compliance Matrix: (Units=1/GPa)
#
#
# Indices 1 2 3 4 5 6 
#
# 1 0.012464 -0.005324 -0.008799 0.003502 -0.003928 -0.001834
# 2 -0.005324 0.013263 0.007487 -0.004216 0.006027 0.000453
# 3 -0.008799 0.007487 0.022776 -0.006774 0.009737 0.001078
# 4 0.003502 -0.004216 -0.006774 0.031435 -0.000902 0.001911
# 5 -0.003928 0.006027 0.009737 -0.000902 0.025138 -0.001031
# 6 -0.001834 0.000453 0.001078 0.001911 -0.001031 0.018207
#
#
# Mechanical properties :
#
#
# Convention : Reuss Voigt Hill
#
# Bulk Modulus (GPa) = 28.38455 43.73561 36.06008
# Shear Modulus (GPa) = 33.71605 45.08226 39.39916
#
# Velocity S-wave (km/s) = 3.61506 4.18022 3.90787
# Velocity P-wave (km/s) = 5.33169 6.34439 5.85996
#
# Compressibility (1/GPa) = 0.03523044
#
# Stress axis : x y z
#
# Youngs Moduli (GPa) = 80.22989 75.40037 43.90639
#
# Poissons Ratio (x) = 0.40141 0.38634
# Poissons Ratio (y) = 0.42712 -0.32873
# Poissons Ratio (z) = 0.70597 -0.56452
#
# Static dielectric constant tensor:
#      x y z
#    x 2.114920 -0.158970 0.084930 
#    y -0.158970 2.171330 -0.138260 
#    z 0.084930 -0.138260 2.164860 
# 
# From -- ./inp_files/383413.got.cif
#   From: 2010.05.17/outbox.cif.g08.bks.cpg/sg2_192_cif.got.tgz:383413.got - 2010.06.03 11:33:40.
