data_PCOD9067773
_publ_section_title
;
Structure prediction by ZEFSAII (Michael W. Deem and Ramdas Pophale) SiO2 
 PCOD9067773
Probable space group: P -1
;
_chemical_formula_sum "Si O2"
_cell_formula_units_Z 14
_cell_length_a 19.626457
_cell_length_b 14.200568
_cell_length_c 8.137271
_cell_angle_alpha 54.899361
_cell_angle_beta 33.928506
_cell_angle_gamma 32.768141
_cell_volume 626.092129
_symmetry_space_group_name_H-M "P -1"
_symmetry_group_IT_number 2
_symmetry_cell_setting 'triclinic'
loop_
_space_group_symop_operation_xyz
x,y,z
-x,-y,-z
loop_
_atom_site_type_symbol
_atom_site_label
_atom_site_fract_x
_atom_site_fract_y
_atom_site_fract_z
Si Si1 0.688833 0.898501 0.837599
Si Si2 0.822256 0.209097 0.727719
Si Si3 0.479596 0.726112 0.196028
Si Si4 0.884247 0.420361 0.872879
Si Si5 0.189400 0.373097 0.869459
Si Si6 0.425164 0.395113 0.238790
Si Si7 0.819178 0.219153 0.101583
O O1 0.899828 0.721777 0.498639
O O2 0.656717 0.058665 0.765849
O O3 0.717323 0.807795 0.042768
O O4 0.500000 0.000000 0.000000
O O5 0.752579 0.377921 0.604781
O O6 0.621304 0.282043 0.061274
O O7 0.855411 0.221911 0.835855
O O8 0.000000 0.000000 0.500000
O O9 0.378937 0.707121 0.535424
O O10 0.696714 0.602677 0.953473
O O11 0.509562 0.645918 0.040253
O O12 0.874186 0.493779 0.989710
O O13 0.841894 0.315790 0.068210
O O14 0.356029 0.318779 0.490338
O O15 0.000000 0.500000 0.000000
O O16 0.000000 0.000000 0.000000
#
# Coordination Sequence:
#
# PCOD9067773 Si02
#       7
#     2   2   2   2   2   2   2
#     4  12  28  50  76 106 146 201 261 303 361 451
#     4  11  26  45  71 109 152 186 239 307 374 438
#     4  12  25  48  78 108 148 197 249 309 374 450
#     4  12  26  49  77 103 151 195 254 305 370 449
#     4  12  29  49  76 108 151 202 248 311 375 433
#     4  11  27  46  71 106 149 192 240 305 374 429
#     4  12  25  45  78 111 144 198 248 302 378 449
#
# _framework density 22.360925000000002
#
# number of rings (size 3 to 8) (size 9 to 14) (size 15 to 20)
#    0.000    0.286    4.286    3.429    8.000    0.571 
#    0.000    0.000    0.000    0.000    0.000    0.000 
#    0.000    0.000    0.000    0.000    0.000    0.000 
#
# Total GULP energy -78331.286742 kJ/mol
# GULP energy per Si atom -5595.091910 kJ/mol
# Density = 2.231003 g / cm^3
# Si number density = 22.360925 Si / 1000 Ang^3
#
#
#
# Elastic Constant Matrix: (Units=GPa)
#
#
# Indices 1 2 3 4 5 6 
#
# 1 106.4630 19.0971 5.2038 6.8375 -11.9678 0.7166
# 2 19.0971 135.2768 31.3790 -0.2217 -5.4941 5.1819
# 3 5.2038 31.3790 92.6981 1.3200 -9.9861 -9.8104
# 4 6.8375 -0.2217 1.3200 37.7667 3.0394 -3.2353
# 5 -11.9678 -5.4941 -9.9861 3.0394 39.9837 10.1170
# 6 0.7166 5.1819 -9.8104 -3.2353 10.1170 39.4884
#
#
#
# Elastic Compliance Matrix: (Units=1/GPa)
#
#
# Indices 1 2 3 4 5 6 
#
# 1 0.010139 -0.001297 0.000152 -0.002202 0.003317 -0.001006
# 2 -0.001297 0.008342 -0.002901 0.000182 0.000502 -0.001906
# 3 0.000152 -0.002901 0.012289 -0.000389 0.002016 0.002883
# 4 -0.002202 0.000182 -0.000389 0.027446 -0.003600 0.003090
# 5 0.003317 0.000502 0.002016 -0.003600 0.028689 -0.007270
# 6 -0.001006 -0.001906 0.002883 0.003090 -0.007270 0.028424
#
#
# Mechanical properties :
#
#
# Convention : Reuss Voigt Hill
#
# Bulk Modulus (GPa) = 44.09595 49.53310 46.81452
# Shear Modulus (GPa) = 38.17357 42.03161 40.10259
#
# Velocity S-wave (km/s) = 4.13626 4.34024 4.23948
# Velocity P-wave (km/s) = 6.52491 6.87871 6.70414
#
# Compressibility (1/GPa) = 0.02267782
#
# Stress axis : x y z
#
# Youngs Moduli (GPa) = 98.62765 119.87539 81.37308
#
# Poissons Ratio (x) = 0.15548 -0.01237
# Poissons Ratio (y) = 0.12792 0.23608
# Poissons Ratio (z) = -0.01499 0.34778
#
# Static dielectric constant tensor:
#      x y z
#    x 1.860970 -0.035650 -0.039410 
#    y -0.035650 1.868900 0.003460 
#    z -0.039410 0.003460 1.835520 
# 
# From -- ./inp_files/347486.got.cif
#   From: 2010.05.17/outbox.cif.g08.bks.cpg/sg2_174_cif.got.tgz:347486.got - 2010.06.03 11:33:40.
