data_PCOD9067171
_publ_section_title
;
Structure prediction by ZEFSAII (Michael W. Deem and Ramdas Pophale) SiO2 
 PCOD9067171
Probable space group: P -1
;
_chemical_formula_sum "Si O2"
_cell_formula_units_Z 16
_cell_length_a 16.349013
_cell_length_b 8.615633
_cell_length_c 6.790089
_cell_angle_alpha 84.125792
_cell_angle_beta 120.048515
_cell_angle_gamma 118.032441
_cell_volume 719.608562
_symmetry_space_group_name_H-M "P -1"
_symmetry_group_IT_number 2
_symmetry_cell_setting 'triclinic'
loop_
_space_group_symop_operation_xyz
x,y,z
-x,-y,-z
loop_
_atom_site_type_symbol
_atom_site_label
_atom_site_fract_x
_atom_site_fract_y
_atom_site_fract_z
Si Si1 0.458148 0.367181 0.651244
Si Si2 0.208536 0.817038 0.515275
Si Si3 0.987862 0.667190 0.047361
Si Si4 0.136516 0.456244 0.698444
Si Si5 0.613262 0.012580 0.583972
Si Si6 0.019164 0.866862 0.683686
Si Si7 0.650826 0.566818 0.128014
Si Si8 0.268433 0.044556 0.926111
O O1 0.500000 0.500000 0.500000
O O2 0.382644 0.415848 0.692198
O O3 0.407704 0.170651 0.523536
O O4 0.556076 0.402967 0.916269
O O5 0.103895 0.791862 0.273718
O O6 0.169492 0.651012 0.636459
O O7 0.302275 0.833674 0.479114
O O8 0.256674 0.986844 0.693175
O O9 0.892627 0.583570 0.103310
O O10 0.967475 0.785499 0.844818
O O11 0.000000 0.500000 0.000000
O O12 0.234634 0.424714 0.754645
O O13 0.028114 0.314373 0.475308
O O14 0.500000 0.000000 0.500000
O O15 0.673686 0.034751 0.859731
O O16 0.146376 0.967211 0.861252
O O17 0.000000 0.000000 0.500000
O O18 0.664981 0.743499 0.012633
#
# Coordination Sequence:
#
# PCOD9067171 Si02
#       8
#     2   2   2   2   2   2   2   2
#     4  11  25  48  72 100 144 194 247 311 384 440
#     4  12  26  45  73 103 154 196 246 311 375 443
#     4  12  25  46  73 107 153 203 248 303 377 454
#     4  12  27  44  73 112 147 199 252 299 374 461
#     4  12  29  46  74 111 142 194 258 313 373 446
#     4  12  25  45  74 112 151 190 248 304 376 455
#     4  11  26  46  72 104 146 192 242 314 377 446
#     4  12  24  48  71 105 148 192 238 311 381 438
#
# _framework density 22.234311999999999
#
# number of rings (size 3 to 8) (size 9 to 14) (size 15 to 20)
#    0.000    0.250    7.500    1.125    3.500    2.000 
#    2.250    0.000    0.000    0.000    0.000    0.000 
#    0.000    0.000    0.000    0.000    0.000    0.000 
#
# Total GULP energy -89437.002872 kJ/mol
# GULP energy per Si atom -5589.812680 kJ/mol
# Density = 2.218371 g / cm^3
# Si number density = 22.234312 Si / 1000 Ang^3
#
#
#
# Elastic Constant Matrix: (Units=GPa)
#
#
# Indices 1 2 3 4 5 6 
#
# 1 150.2079 22.0833 48.7556 -26.5477 -14.8045 23.7934
# 2 22.0833 68.6450 32.3804 -14.7502 -6.6531 14.8899
# 3 48.7556 32.3804 118.6768 -11.6723 -6.0166 3.5821
# 4 -26.5477 -14.7502 -11.6723 51.9362 6.1392 -9.9897
# 5 -14.8045 -6.6531 -6.0166 6.1392 35.1460 -2.2905
# 6 23.7934 14.8899 3.5821 -9.9897 -2.2905 25.0732
#
#
#
# Elastic Compliance Matrix: (Units=1/GPa)
#
#
# Indices 1 2 3 4 5 6 
#
# 1 0.009676 0.001186 -0.003664 0.002585 0.002694 -0.008087
# 2 0.001186 0.019776 -0.005178 0.002715 0.002176 -0.010850
# 3 -0.003664 -0.005178 0.011195 0.000169 -0.000311 0.004992
# 4 0.002585 0.002715 0.000169 0.022526 -0.001996 0.004702
# 5 0.002694 0.002176 -0.000311 -0.001996 0.030175 -0.001843
# 6 -0.008087 -0.010850 0.004992 0.004702 -0.001843 0.054992
#
#
# Mechanical properties :
#
#
# Convention : Reuss Voigt Hill
#
# Bulk Modulus (GPa) = 39.47123 60.44092 49.95608
# Shear Modulus (GPa) = 29.05351 38.05177 33.55264
#
# Velocity S-wave (km/s) = 3.61875 4.14139 3.88886
# Velocity P-wave (km/s) = 5.93729 7.07890 6.53308
#
# Compressibility (1/GPa) = 0.02533491
#
# Stress axis : x y z
#
# Youngs Moduli (GPa) = 103.35173 50.56508 89.32937
#
# Poissons Ratio (x) = -0.05998 0.32728
# Poissons Ratio (y) = -0.12261 0.46259
# Poissons Ratio (z) = 0.37865 0.26185
#
# Static dielectric constant tensor:
#      x y z
#    x 1.817600 0.007530 -0.016270 
#    y 0.007530 1.844780 -0.007540 
#    z -0.016270 -0.007540 1.804370 
# 
# From -- ./inp_files/106773.got.cif
#   From: 2010.05.17/outbox.cif.g08.bks.cpg/sg2_54_cif.got.tgz:106773.got - 2010.06.03 11:33:40.
