data_PCOD9067915
_publ_section_title
;
Structure prediction by ZEFSAII (Michael W. Deem and Ramdas Pophale) SiO2 
 PCOD9067915
Probable space group: P -1
;
_chemical_formula_sum "Si O2"
_cell_formula_units_Z 16
_cell_length_a 9.502930
_cell_length_b 6.836853
_cell_length_c 21.903224
_cell_angle_alpha 127.494807
_cell_angle_beta 49.281198
_cell_angle_gamma 133.138031
_cell_volume 752.235333
_symmetry_space_group_name_H-M "P -1"
_symmetry_group_IT_number 2
_symmetry_cell_setting 'triclinic'
loop_
_space_group_symop_operation_xyz
x,y,z
-x,-y,-z
loop_
_atom_site_type_symbol
_atom_site_label
_atom_site_fract_x
_atom_site_fract_y
_atom_site_fract_z
Si Si1 0.765789 0.055132 0.829582
Si Si2 0.785365 0.565962 0.276633
Si Si3 0.921196 0.329216 0.552572
Si Si4 0.552536 0.779492 0.073846
Si Si5 0.748645 0.673616 0.449278
Si Si6 0.148545 0.823978 0.035528
Si Si7 0.544216 0.437696 0.724408
Si Si8 0.787406 0.980309 0.166752
O O1 0.655424 0.196312 0.846875
O O2 0.750378 0.139004 0.919445
O O3 0.009222 0.187788 0.766967
O O4 0.642447 0.724787 0.789835
O O5 0.783999 0.632700 0.360725
O O6 0.575920 0.527102 0.293889
O O7 0.803356 0.282547 0.211619
O O8 0.734038 0.377942 0.641459
O O9 0.000000 0.500000 0.500000
O O10 0.112355 0.414720 0.562896
O O11 0.829009 0.000555 0.501928
O O12 0.684020 0.807018 0.101818
O O13 0.500000 0.500000 0.000000
O O14 0.690659 0.037468 0.038832
O O15 0.500000 0.500000 0.500000
O O16 0.009172 0.983749 0.111383
O O17 0.000000 0.500000 0.000000
O O18 0.367997 0.185094 0.765561
#
# Coordination Sequence:
#
# PCOD9067915 Si02
#       8
#     2   2   2   2   2   2   2   2
#     4  12  25  44  69 101 137 181 231 283 345 403
#     4  12  26  46  69 102 141 179 227 282 335 407
#     4  11  26  46  73 106 140 179 225 274 335 405
#     4  12  24  42  66  98 134 178 232 286 340 406
#     4  11  26  46  73 106 140 179 225 274 335 405
#     4  12  24  44  68  98 136 178 232 288 346 406
#     4  12  26  46  69 102 141 179 227 282 335 407
#     4  12  25  44  69 101 137 181 231 283 345 403
#
# _framework density 21.269939000000001
#
# number of rings (size 3 to 8) (size 9 to 14) (size 15 to 20)
#    0.000    0.250    2.500    6.750    3.500    6.000 
#    0.000    0.000    0.000    0.000    0.000    0.000 
#    0.000    0.000    0.000    0.000    0.000    0.000 
#
# Total GULP energy -89631.499010 kJ/mol
# GULP energy per Si atom -5601.968688 kJ/mol
# Density = 2.122153 g / cm^3
# Si number density = 21.269939 Si / 1000 Ang^3
#
#
#
# Elastic Constant Matrix: (Units=GPa)
#
#
# Indices 1 2 3 4 5 6 
#
# 1 121.7199 47.3344 26.5349 -11.1018 -5.3499 5.3555
# 2 47.3344 67.1375 14.6836 -1.5424 3.2823 1.3767
# 3 26.5349 14.6836 80.8907 -13.4790 2.1293 4.5952
# 4 -11.1018 -1.5424 -13.4790 30.2680 -1.3862 2.6349
# 5 -5.3499 3.2823 2.1293 -1.3862 50.0806 -1.7666
# 6 5.3555 1.3767 4.5952 2.6349 -1.7666 27.3228
#
#
#
# Elastic Compliance Matrix: (Units=1/GPa)
#
#
# Indices 1 2 3 4 5 6 
#
# 1 0.012331 -0.008253 -0.001907 0.003508 0.001970 -0.001891
# 2 -0.008253 0.021086 -0.001590 -0.002846 -0.002241 0.000952
# 3 -0.001907 -0.001590 0.014411 0.005832 -0.000642 -0.002574
# 4 0.003508 -0.002846 0.005832 0.037269 0.001167 -0.005044
# 5 0.001970 -0.002241 -0.000642 0.001167 0.020421 0.001043
# 6 -0.001891 0.000952 -0.002574 -0.005044 0.001043 0.037909
#
#
# Mechanical properties :
#
#
# Convention : Reuss Voigt Hill
#
# Bulk Modulus (GPa) = 41.10356 49.65044 45.37700
# Shear Modulus (GPa) = 28.56553 33.61395 31.08974
#
# Velocity S-wave (km/s) = 3.66867 3.97967 3.82733
# Velocity P-wave (km/s) = 6.10837 6.67164 6.39621
#
# Compressibility (1/GPa) = 0.02432879
#
# Stress axis : x y z
#
# Youngs Moduli (GPa) = 81.09958 47.42468 69.39037
#
# Poissons Ratio (x) = 0.39142 0.13229
# Poissons Ratio (y) = 0.66935 0.11030
# Poissons Ratio (z) = 0.15462 0.07539
#
# Static dielectric constant tensor:
#      x y z
#    x 1.777060 0.035560 -0.027860 
#    y 0.035560 1.769240 -0.024110 
#    z -0.027860 -0.024110 1.743170 
# 
# From -- ./inp_files/53613.got.cif
#   From: 2010.05.17/outbox.cif.g08.bks.cpg/sg2_27_cif.got.tgz:53613.got - 2010.06.03 11:33:40.
