data_PCOD9067814
_publ_section_title
;
Structure prediction by ZEFSAII (Michael W. Deem and Ramdas Pophale) SiO2 
 PCOD9067814
Probable space group: P -1
;
_chemical_formula_sum "Si O2"
_cell_formula_units_Z 14
_cell_length_a 11.425751
_cell_length_b 9.976489
_cell_length_c 9.466417
_cell_angle_alpha 133.831455
_cell_angle_beta 107.751355
_cell_angle_gamma 57.089116
_cell_volume 648.937260
_symmetry_space_group_name_H-M "P -1"
_symmetry_group_IT_number 2
_symmetry_cell_setting 'triclinic'
loop_
_space_group_symop_operation_xyz
x,y,z
-x,-y,-z
loop_
_atom_site_type_symbol
_atom_site_label
_atom_site_fract_x
_atom_site_fract_y
_atom_site_fract_z
Si Si1 0.603320 0.516362 0.939174
Si Si2 0.891399 0.182918 0.915884
Si Si3 0.513651 0.613057 0.448208
Si Si4 0.168496 0.564656 0.649390
Si Si5 0.085912 0.228517 0.489918
Si Si6 0.905129 0.754638 0.160458
Si Si7 0.419942 0.062990 0.867974
O O1 0.760035 0.398780 0.968673
O O2 0.591877 0.399924 0.711154
O O3 0.500000 0.500000 0.000000
O O4 0.553956 0.758889 0.064217
O O5 0.023299 0.144556 0.840308
O O6 0.857765 0.992954 0.733854
O O7 0.902346 0.240769 0.123741
O O8 0.500000 0.500000 0.500000
O O9 0.672833 0.491109 0.361467
O O10 0.474556 0.852193 0.642189
O O11 0.160702 0.364766 0.569268
O O12 0.074867 0.630718 0.521203
O O13 0.097548 0.191512 0.635078
O O14 0.748047 0.833963 0.105862
O O15 0.000000 0.500000 0.000000
O O16 0.500000 0.000000 0.000000
#
# Coordination Sequence:
#
# PCOD9067814 Si02
#       7
#     2   2   2   2   2   2   2
#     4  12  26  47  72 108 146 190 243 306 365 435
#     4  12  25  47  75 105 145 188 243 298 367 433
#     4  12  28  46  72 104 148 189 250 293 367 437
#     4  11  26  46  70 109 144 187 242 302 359 436
#     4  11  26  45  74 106 143 192 235 301 367 427
#     4  12  25  48  76 105 147 184 246 294 360 435
#     4  12  28  48  76 108 145 199 243 304 366 433
#
# _framework density 21.573734000000002
#
# number of rings (size 3 to 8) (size 9 to 14) (size 15 to 20)
#    0.000    0.286    5.714    1.714    8.000    0.571 
#    0.000    0.000    0.000    0.000    0.000    0.000 
#    0.000    0.000    0.000    0.000    0.000    0.000 
#
# Total GULP energy -78393.674569 kJ/mol
# GULP energy per Si atom -5599.548183 kJ/mol
# Density = 2.152463 g / cm^3
# Si number density = 21.573734 Si / 1000 Ang^3
#
#
#
# Elastic Constant Matrix: (Units=GPa)
#
#
# Indices 1 2 3 4 5 6 
#
# 1 116.7501 47.4648 23.2273 -12.1535 -2.0427 8.8278
# 2 47.4648 90.3453 47.3237 1.3390 1.0597 -7.9711
# 3 23.2273 47.3237 132.7610 7.1570 18.8496 18.2913
# 4 -12.1535 1.3390 7.1570 47.6424 3.3724 19.8917
# 5 -2.0427 1.0597 18.8496 3.3724 29.3001 -0.6246
# 6 8.8278 -7.9711 18.2913 19.8917 -0.6246 36.0888
#
#
#
# Elastic Compliance Matrix: (Units=1/GPa)
#
#
# Indices 1 2 3 4 5 6 
#
# 1 0.013587 -0.009385 0.002236 0.008083 -0.001317 -0.011008
# 2 -0.009385 0.022225 -0.008918 -0.009116 0.005687 0.016847
# 3 0.002236 -0.008918 0.012899 0.004328 -0.008565 -0.011588
# 4 0.008083 -0.009116 0.004328 0.033419 -0.006264 -0.024713
# 5 -0.001317 0.005687 -0.008565 -0.006264 0.040278 0.010069
# 6 -0.011008 0.016847 -0.011588 -0.024713 0.010069 0.053792
#
#
# Mechanical properties :
#
#
# Convention : Reuss Voigt Hill
#
# Bulk Modulus (GPa) = 60.32016 63.98754 62.15385
# Shear Modulus (GPa) = 23.37985 37.39562 30.38774
#
# Velocity S-wave (km/s) = 3.29556 4.16791 3.75714
# Velocity P-wave (km/s) = 6.51933 7.27230 6.90608
#
# Compressibility (1/GPa) = 0.01657821
#
# Stress axis : x y z
#
# Youngs Moduli (GPa) = 73.60238 44.99418 77.52379
#
# Poissons Ratio (x) = 0.42226 -0.17335
# Poissons Ratio (y) = 0.69074 0.69133
# Poissons Ratio (z) = -0.16458 0.40124
#
# Static dielectric constant tensor:
#      x y z
#    x 1.779860 -0.011190 0.040280 
#    y -0.011190 1.834750 -0.049640 
#    z 0.040280 -0.049640 1.822220 
# 
# From -- ./inp_files/241967.got.cif
#   From: 2010.05.17/outbox.cif.g08.bks.cpg/sg2_121_cif.got.tgz:241967.got - 2010.06.03 11:33:40.
