data_PCOD9067972
_publ_section_title
;
Structure prediction by ZEFSAII (Michael W. Deem and Ramdas Pophale) SiO2 
 PCOD9067972
Probable space group: P -1
;
_chemical_formula_sum "Si O2"
_cell_formula_units_Z 14
_cell_length_a 9.267819
_cell_length_b 10.882368
_cell_length_c 9.232194
_cell_angle_alpha 74.586772
_cell_angle_beta 53.239844
_cell_angle_gamma 111.445705
_cell_volume 527.717213
_symmetry_space_group_name_H-M "P -1"
_symmetry_group_IT_number 2
_symmetry_cell_setting 'triclinic'
loop_
_space_group_symop_operation_xyz
x,y,z
-x,-y,-z
loop_
_atom_site_type_symbol
_atom_site_label
_atom_site_fract_x
_atom_site_fract_y
_atom_site_fract_z
Si Si1 0.886783 0.320257 0.430748
Si Si2 0.621785 0.042978 0.230474
Si Si3 0.940981 0.324461 0.723709
Si Si4 0.484170 0.481560 0.344504
Si Si5 0.233991 0.248370 0.157124
Si Si6 0.480727 0.714160 0.745593
Si Si7 0.094961 0.021430 0.773672
O O1 0.018177 0.521440 0.261986
O O2 0.827115 0.299229 0.644619
O O3 0.066674 0.286538 0.300935
O O4 0.620067 0.160717 0.572736
O O5 0.558425 0.158189 0.263882
O O6 0.797494 0.068494 0.237650
O O7 0.779218 0.140104 0.959777
O O8 0.202630 0.390638 0.513829
O O9 0.500000 0.500000 0.500000
O O10 0.689485 0.471895 0.165389
O O11 0.608250 0.649377 0.113085
O O12 0.405979 0.285877 0.174395
O O13 0.060704 0.055094 0.256130
O O14 0.678344 0.781949 0.473562
O O15 0.000000 0.000000 0.000000
#
# Coordination Sequence:
#
# PCOD9067972 Si02
#       7
#     2   2   2   2   2   2   2
#     4  11  26  46  76 113 154 199 259 313 387 454
#     4  12  27  48  78 111 154 203 255 319 386 453
#     4  11  26  47  73 113 156 197 256 319 380 457
#     4  12  27  48  75 113 153 201 253 321 388 452
#     4  12  26  48  77 108 152 203 254 316 381 460
#     4  12  26  47  76 110 151 200 260 309 383 461
#     4  12  28  48  72 112 153 197 257 316 388 454
#
# _framework density 26.52936
#
# number of rings (size 3 to 8) (size 9 to 14) (size 15 to 20)
#    0.000    0.286    2.857    5.143    8.000    0.000 
#    0.000    2.857    0.000    0.000    0.000    0.000 
#    0.000    0.000    0.000    0.000    0.000    0.000 
#
# Total GULP energy -78096.855432 kJ/mol
# GULP energy per Si atom -5578.346817 kJ/mol
# Density = 2.646898 g / cm^3
# Si number density = 26.529360 Si / 1000 Ang^3
#
#
#
# Elastic Constant Matrix: (Units=GPa)
#
#
# Indices 1 2 3 4 5 6 
#
# 1 94.4169 21.1289 -23.3733 58.6835 -1.1217 -9.2001
# 2 21.1289 117.7759 -17.7655 19.1733 -9.7994 1.9273
# 3 -23.3733 -17.7655 85.1638 -6.4216 17.9696 23.0455
# 4 58.6835 19.1733 -6.4216 119.3060 -14.9930 -11.3687
# 5 -1.1217 -9.7994 17.9696 -14.9930 49.5848 15.7083
# 6 -9.2001 1.9273 23.0455 -11.3687 15.7083 47.6793
#
#
#
# Elastic Compliance Matrix: (Units=1/GPa)
#
#
# Indices 1 2 3 4 5 6 
#
# 1 0.017361 -0.001399 0.004583 -0.008555 -0.004313 0.000572
# 2 -0.001399 0.009296 0.001749 -0.000714 0.001655 -0.002207
# 3 0.004583 0.001749 0.015670 -0.002791 -0.004155 -0.006057
# 4 -0.008555 -0.000714 -0.002791 0.013225 0.004202 0.001496
# 5 -0.004313 0.001655 -0.004155 0.004202 0.025127 -0.006167
# 6 0.000572 -0.002207 -0.006057 0.001496 -0.006167 0.026489
#
#
# Mechanical properties :
#
#
# Convention : Reuss Voigt Hill
#
# Bulk Modulus (GPa) = 19.15938 28.59298 23.87618
# Shear Modulus (GPa) = 43.59268 64.47181 54.03224
#
# Velocity S-wave (km/s) = 4.05802 4.93506 4.51787
# Velocity P-wave (km/s) = 5.40318 6.57832 6.01950
#
# Compressibility (1/GPa) = 0.05219375
#
# Stress axis : x y z
#
# Youngs Moduli (GPa) = 57.60095 107.57885 63.81610
#
# Poissons Ratio (x) = 0.15046 -0.29247
# Poissons Ratio (y) = 0.08056 -0.11164
# Poissons Ratio (z) = -0.26398 -0.18819
#
# Static dielectric constant tensor:
#      x y z
#    x 2.132840 0.061060 0.031330 
#    y 0.061060 2.036080 -0.224550 
#    z 0.031330 -0.224550 2.088380 
# 
# From -- ./inp_files/185721.got.cif
#   From: 2010.05.17/outbox.cif.g08.bks.cpg/sg2_93_cif.got.tgz:185721.got - 2010.06.03 11:33:40.
