data_PCOD9067106
_publ_section_title
;
Structure prediction by ZEFSAII (Michael W. Deem and Ramdas Pophale) SiO2 
 PCOD9067106
Probable space group: P -1
;
_chemical_formula_sum "Si O2"
_cell_formula_units_Z 13
_cell_length_a 5.330070
_cell_length_b 12.421723
_cell_length_c 19.408851
_cell_angle_alpha 153.633748
_cell_angle_beta 68.557670
_cell_angle_gamma 100.686249
_cell_volume 498.818375
_symmetry_space_group_name_H-M "P -1"
_symmetry_group_IT_number 2
_symmetry_cell_setting 'triclinic'
loop_
_space_group_symop_operation_xyz
x,y,z
-x,-y,-z
loop_
_atom_site_type_symbol
_atom_site_label
_atom_site_fract_x
_atom_site_fract_y
_atom_site_fract_z
Si Si1 0.000000 0.500000 0.500000
Si Si2 0.939579 0.988760 0.257301
Si Si3 0.673562 0.433399 0.118388
Si Si4 0.350340 0.432859 0.561182
Si Si5 0.899496 0.377930 0.685065
Si Si6 0.169840 0.102699 0.640175
Si Si7 0.318193 0.827902 0.891501
O O1 0.797441 0.448207 0.427088
O O2 0.075192 0.207070 0.353935
O O3 0.020245 0.871136 0.258076
O O4 0.597802 0.152629 0.381146
O O5 0.067752 0.759750 0.060354
O O6 0.362726 0.400826 0.125620
O O7 0.638729 0.721565 0.260666
O O8 0.733188 0.346404 0.141643
O O9 0.480747 0.637333 0.702929
O O10 0.093929 0.435184 0.640014
O O11 0.062862 0.221002 0.644103
O O12 0.747536 0.201183 0.556968
O O13 0.500000 0.000000 0.000000
O O14 0.000000 0.000000 0.000000
#
# Coordination Sequence:
#
# PCOD9067106 Si02
#       7
#     1   2   2   2   2   2   2
#     4  12  28  52  80 112 164 218 266 332 416 488
#     4  12  29  47  76 113 163 209 269 337 420 486
#     4  12  27  48  75 116 160 209 272 333 409 487
#     4  12  27  53  80 117 159 217 274 337 414 491
#     4  11  25  48  81 113 153 212 272 334 404 495
#     4  11  25  47  79 113 157 210 268 337 409 482
#     4  12  28  50  83 118 162 219 284 343 407 495
#
# _framework density 26.061588
#
# number of rings (size 3 to 8) (size 9 to 14) (size 15 to 20)
#    0.000    0.308    3.077    4.154    8.615    1.846 
#    0.000    0.000    0.000    0.000    0.000    0.000 
#    0.000    0.000    0.000    0.000    0.000    0.000 
#
# Total GULP energy -72392.615096 kJ/mol
# GULP energy per Si atom -5568.662700 kJ/mol
# Density = 2.600227 g / cm^3
# Si number density = 26.061588 Si / 1000 Ang^3
#
#
#
# Elastic Constant Matrix: (Units=GPa)
#
#
# Indices 1 2 3 4 5 6 
#
# 1 90.3557 15.8183 37.2930 7.8645 -0.2733 8.8742
# 2 15.8183 138.7901 13.0865 -2.3325 17.4166 8.5964
# 3 37.2930 13.0865 80.9833 -21.0024 -0.6550 5.3176
# 4 7.8645 -2.3325 -21.0024 40.5672 -2.0664 10.4025
# 5 -0.2733 17.4166 -0.6550 -2.0664 40.8706 1.4232
# 6 8.8742 8.5964 5.3176 10.4025 1.4232 33.7954
#
#
#
# Elastic Compliance Matrix: (Units=1/GPa)
#
#
# Indices 1 2 3 4 5 6 
#
# 1 0.015674 -0.001064 -0.009063 -0.007785 0.000020 -0.000024
# 2 -0.001064 0.007907 -0.000532 0.000657 -0.003292 -0.001712
# 3 -0.009063 -0.000532 0.020494 0.013683 0.001360 -0.004978
# 4 -0.007785 0.000657 0.013683 0.036353 0.002128 -0.011555
# 5 0.000020 -0.003292 0.001360 0.002128 0.026039 -0.001133
# 6 -0.000024 -0.001712 -0.004978 -0.011555 -0.001133 0.034419
#
#
# Mechanical properties :
#
#
# Convention : Reuss Voigt Hill
#
# Bulk Modulus (GPa) = 43.94164 49.16942 46.55553
# Shear Modulus (GPa) = 29.44811 39.30873 34.37842
#
# Velocity S-wave (km/s) = 3.36511 3.88790 3.63591
# Velocity P-wave (km/s) = 5.65649 6.24995 5.96061
#
# Compressibility (1/GPa) = 0.02275746
#
# Stress axis : x y z
#
# Youngs Moduli (GPa) = 63.79823 126.47518 48.79413
#
# Poissons Ratio (x) = 0.13454 0.44225
# Poissons Ratio (y) = 0.06787 0.02595
# Poissons Ratio (z) = 0.57823 0.06725
#
# Static dielectric constant tensor:
#      x y z
#    x 2.081210 0.004280 0.080950 
#    y 0.004280 2.175420 0.012240 
#    z 0.080950 0.012240 2.158460 
# 
# From -- ./inp_files/549351.got.cif
#   From: 2010.05.17/outbox.cif.g08.bks.cpg/sg2_275_cif.got.tgz:549351.got - 2010.06.03 11:33:40.
