data_PCOD9067122
_publ_section_title
;
Structure prediction by ZEFSAII (Michael W. Deem and Ramdas Pophale) SiO2 
 PCOD9067122
Probable space group: P -1
;
_chemical_formula_sum "Si O2"
_cell_formula_units_Z 12
_cell_length_a 6.044273
_cell_length_b 8.644167
_cell_length_c 15.847356
_cell_angle_alpha 39.696333
_cell_angle_beta 112.493454
_cell_angle_gamma 94.384465
_cell_volume 454.081564
_symmetry_space_group_name_H-M "P -1"
_symmetry_group_IT_number 2
_symmetry_cell_setting 'triclinic'
loop_
_space_group_symop_operation_xyz
x,y,z
-x,-y,-z
loop_
_atom_site_type_symbol
_atom_site_label
_atom_site_fract_x
_atom_site_fract_y
_atom_site_fract_z
Si Si1 0.199308 0.813962 0.174114
Si Si2 0.540818 0.795126 0.965502
Si Si3 0.075887 0.675245 0.869062
Si Si4 0.071937 0.466053 0.426020
Si Si5 0.420472 0.522236 0.747515
Si Si6 0.518854 0.994771 0.607064
O O1 0.081570 0.730559 0.273887
O O2 0.359113 0.546790 0.261975
O O3 0.397187 0.959232 0.158684
O O4 0.000000 0.000000 0.000000
O O5 0.298711 0.769015 0.894367
O O6 0.797880 0.540336 0.093079
O O7 0.505985 0.748438 0.077914
O O8 0.818977 0.910000 0.707573
O O9 0.000000 0.500000 0.000000
O O10 0.000000 0.500000 0.500000
O O11 0.849842 0.405591 0.368168
O O12 0.337868 0.233664 0.536397
O O13 0.440322 0.744261 0.718313
O O14 0.500000 0.000000 0.500000
#
# Coordination Sequence:
#
# PCOD9067122 Si02
#       6
#     2   2   2   2   2   2
#     4  12  26  51  84 117 168 218 284 343 415 512
#     4  11  25  47  82 127 157 215 281 354 415 496
#     4  11  25  48  79 122 166 210 284 349 420 493
#     4  12  30  54  81 127 173 221 280 355 434 490
#     4  12  25  52  83 120 158 224 285 341 419 506
#     4  12  25  55  88 116 168 225 284 342 420 518
#
# _framework density 26.426970000000001
#
# number of rings (size 3 to 8) (size 9 to 14) (size 15 to 20)
#    0.000    0.333    5.000    3.000    0.000    2.000 
#    9.000    0.833    0.000    0.000    0.000    0.000 
#    0.000    0.000    0.000    0.000    0.000    0.000 
#
# Total GULP energy -67307.955392 kJ/mol
# GULP energy per Si atom -5608.996283 kJ/mol
# Density = 2.636682 g / cm^3
# Si number density = 26.426970 Si / 1000 Ang^3
#
#
#
# Elastic Constant Matrix: (Units=GPa)
#
#
# Indices 1 2 3 4 5 6 
#
# 1 140.9760 59.5375 72.5129 10.5270 11.3461 0.8858
# 2 59.5375 116.6209 61.4893 -10.7926 3.1849 -5.6377
# 3 72.5129 61.4893 140.5542 8.6030 -11.2873 -6.2096
# 4 10.5270 -10.7926 8.6030 48.5634 1.5725 0.3022
# 5 11.3461 3.1849 -11.2873 1.5725 80.2432 -0.3859
# 6 0.8858 -5.6377 -6.2096 0.3022 -0.3859 65.8465
#
#
#
# Elastic Compliance Matrix: (Units=1/GPa)
#
#
# Indices 1 2 3 4 5 6 
#
# 1 0.011154 -0.003701 -0.004183 -0.002430 -0.001975 -0.000862
# 2 -0.003701 0.013101 -0.004114 0.004459 -0.000659 0.000759
# 3 -0.004183 -0.004114 0.011431 -0.002116 0.002408 0.000806
# 4 -0.002430 0.004459 -0.002116 0.022502 -0.000571 0.000108
# 5 -0.001975 -0.000659 0.002408 -0.000571 0.013119 0.000277
# 6 -0.000862 0.000759 0.000806 0.000108 0.000277 0.015341
#
#
# Mechanical properties :
#
#
# Convention : Reuss Voigt Hill
#
# Bulk Modulus (GPa) = 85.55179 87.24786 86.39983
# Shear Modulus (GPa) = 43.65230 52.57137 48.11184
#
# Velocity S-wave (km/s) = 4.06865 4.46500 4.27143
# Velocity P-wave (km/s) = 7.38344 7.72451 7.55590
#
# Compressibility (1/GPa) = 0.01168883
#
# Stress axis : x y z
#
# Youngs Moduli (GPa) = 89.65299 76.32966 87.48035
#
# Poissons Ratio (x) = 0.28253 0.36594
# Poissons Ratio (y) = 0.33184 0.35991
# Poissons Ratio (z) = 0.37503 0.31403
#
# Static dielectric constant tensor:
#      x y z
#    x 2.174520 -0.035300 -0.147940 
#    y -0.035300 2.077170 -0.016220 
#    z -0.147940 -0.016220 2.237730 
# 
# From -- ./inp_files/480167.got.cif
#   From: 2010.05.17/outbox.cif.g08.bks.cpg/sg2_241_cif.got.tgz:480167.got - 2010.06.03 11:33:40.
