data_PCOD9067819
_publ_section_title
;
Structure prediction by ZEFSAII (Michael W. Deem and Ramdas Pophale) SiO2 
 PCOD9067819
Probable space group: P -1
;
_chemical_formula_sum "Si O2"
_cell_formula_units_Z 13
_cell_length_a 9.153947
_cell_length_b 14.755745
_cell_length_c 15.720184
_cell_angle_alpha 161.870088
_cell_angle_beta 51.043365
_cell_angle_gamma 126.841904
_cell_volume 513.784353
_symmetry_space_group_name_H-M "P -1"
_symmetry_group_IT_number 2
_symmetry_cell_setting 'triclinic'
loop_
_space_group_symop_operation_xyz
x,y,z
-x,-y,-z
loop_
_atom_site_type_symbol
_atom_site_label
_atom_site_fract_x
_atom_site_fract_y
_atom_site_fract_z
Si Si1 0.367267 0.866949 0.354465
Si Si2 0.629846 0.021069 0.089984
Si Si3 0.217591 0.582352 0.475271
Si Si4 0.296911 0.383146 0.082674
Si Si5 0.000000 0.000000 0.500000
Si Si6 0.902778 0.360116 0.172166
Si Si7 0.806970 0.979864 0.727823
O O1 0.290271 0.579571 0.174536
O O2 0.184029 0.025934 0.527133
O O3 0.500000 0.000000 0.500000
O O4 0.509362 0.783863 0.151877
O O5 0.726939 0.125470 0.235237
O O6 0.731994 0.211636 0.151496
O O7 0.411411 0.070702 0.221320
O O8 0.668455 0.682417 0.759449
O O9 0.283049 0.563704 0.336476
O O10 0.000000 0.500000 0.500000
O O11 0.096620 0.219713 0.006027
O O12 0.854713 0.987610 0.619392
O O13 0.906138 0.705100 0.491032
O O14 0.871729 0.281198 0.015204
#
# Coordination Sequence:
#
# PCOD9067819 Si02
#       7
#     2   2   2   2   1   2   2
#     4  11  26  50  77 112 152 210 258 325 384 472
#     4  12  26  47  74 109 151 202 261 320 386 470
#     4  12  26  44  73 108 147 198 257 323 387 465
#     4  11  26  45  74 110 155 200 261 318 396 458
#     4  12  26  50  76 114 156 198 268 318 392 458
#     4  12  25  48  75 107 156 198 259 319 392 459
#     4  12  27  46  74 111 149 208 251 324 391 463
#
# _framework density 25.302444000000001
#
# number of rings (size 3 to 8) (size 9 to 14) (size 15 to 20)
#    0.000    0.308    3.077    5.077    4.308    0.615 
#    2.769    0.000    0.000    0.000    0.000    0.000 
#    0.000    0.000    0.000    0.000    0.000    0.000 
#
# Total GULP energy -72551.269945 kJ/mol
# GULP energy per Si atom -5580.866919 kJ/mol
# Density = 2.524485 g / cm^3
# Si number density = 25.302444 Si / 1000 Ang^3
#
#
#
# Elastic Constant Matrix: (Units=GPa)
#
#
# Indices 1 2 3 4 5 6 
#
# 1 140.4876 19.5192 27.3666 -15.2916 -2.6390 25.3257
# 2 19.5192 83.9336 34.8294 -60.6792 -0.4389 15.4634
# 3 27.3666 34.8294 65.9124 -10.6443 0.8781 4.5302
# 4 -15.2916 -60.6792 -10.6443 20.1538 15.6966 12.2558
# 5 -2.6390 -0.4389 0.8781 15.6966 38.4174 -22.3036
# 6 25.3257 15.4634 4.5302 12.2558 -22.3036 46.2133
#
#
#
# Elastic Compliance Matrix: (Units=1/GPa)
#
#
# Indices 1 2 3 4 5 6 
#
# 1 0.007964 -0.002906 -0.002163 -0.003208 0.000725 -0.001980
# 2 -0.002906 0.001802 -0.002888 -0.013950 0.011771 0.010653
# 3 -0.002163 -0.002888 0.018735 0.005246 -0.004693 -0.003341
# 4 -0.003208 -0.013950 0.005246 -0.013245 0.014425 0.016386
# 5 0.000725 0.011771 -0.004693 0.014425 0.022167 0.002997
# 6 -0.001980 0.010653 -0.003341 0.016386 0.002997 0.016587
#
#
# Mechanical properties :
#
#
# Convention : Reuss Voigt Hill
#
# Bulk Modulus (GPa) = 79.43601 50.41820 64.92711
# Shear Modulus (GPa) = 67.45799 34.86480 51.16140
#
# Velocity S-wave (km/s) = 5.16900 3.71606 4.50154
# Velocity P-wave (km/s) = 8.19069 6.19529 7.26186
#
# Compressibility (1/GPa) = 0.01258875
#
# Stress axis : x y z
#
# Youngs Moduli (GPa) = 125.55895 554.87183 53.37582
#
# Poissons Ratio (x) = 1.61221 0.11546
# Poissons Ratio (y) = 0.36482 0.15414
# Poissons Ratio (z) = 0.27161 1.60233
#
# Static dielectric constant tensor:
#      x y z
#    x 2.020080 -0.038640 0.008930 
#    y -0.038640 1.993530 0.026160 
#    z 0.008930 0.026160 1.985380 
# 
# From -- ./inp_files/23044.got.cif
#   From: 2010.05.17/outbox.cif.g08.bks.cpg/sg2_12_cif.got.tgz:23044.got - 2010.06.03 11:33:40.
