data_PCOD9067554
_publ_section_title
;
Structure prediction by ZEFSAII (Michael W. Deem and Ramdas Pophale) SiO2 
 PCOD9067554
Probable space group: P -1
;
_chemical_formula_sum "Si O2"
_cell_formula_units_Z 13
_cell_length_a 9.302068
_cell_length_b 8.781167
_cell_length_c 12.396401
_cell_angle_alpha 139.803977
_cell_angle_beta 114.469374
_cell_angle_gamma 85.102572
_cell_volume 546.896640
_symmetry_space_group_name_H-M "P -1"
_symmetry_group_IT_number 2
_symmetry_cell_setting 'triclinic'
loop_
_space_group_symop_operation_xyz
x,y,z
-x,-y,-z
loop_
_atom_site_type_symbol
_atom_site_label
_atom_site_fract_x
_atom_site_fract_y
_atom_site_fract_z
Si Si1 0.916555 0.559365 0.751827
Si Si2 0.636494 0.012153 0.958912
Si Si3 0.008235 0.053369 0.181045
Si Si4 0.077196 0.177432 0.517537
Si Si5 0.442996 0.524494 0.876715
Si Si6 0.572714 0.280143 0.617480
Si Si7 0.500000 0.500000 0.500000
O O1 0.761197 0.361624 0.665644
O O2 0.858696 0.695541 0.707010
O O3 0.013665 0.406743 0.640705
O O4 0.015432 0.798763 0.991427
O O5 0.558364 0.748663 0.729931
O O6 0.821829 0.052566 0.088304
O O7 0.624515 0.247571 0.016401
O O8 0.500000 0.000000 0.000000
O O9 0.027576 0.067384 0.322514
O O10 0.279916 0.285704 0.653148
O O11 0.000000 0.000000 0.500000
O O12 0.586170 0.505818 0.829563
O O13 0.500000 0.500000 0.000000
O O14 0.468302 0.308774 0.497076
O O15 0.500000 0.000000 0.500000
#
# Coordination Sequence:
#
# PCOD9067554 Si02
#       7
#     2   2   2   2   2   2   1
#     4  11  25  50  78 112 154 202 260 334 388 473
#     4  12  25  46  79 110 154 205 261 327 381 481
#     4  11  26  48  79 116 156 205 269 319 402 469
#     4  12  29  47  79 114 160 209 253 327 395 471
#     4  12  28  52  76 115 158 206 266 324 398 478
#     4  12  27  48  77 114 159 206 264 333 390 476
#     4  12  26  44  78 114 150 202 262 314 412 444
#
# _framework density 23.770486999999999
#
# number of rings (size 3 to 8) (size 9 to 14) (size 15 to 20)
#    0.000    0.308    4.615    2.308    8.615    0.615 
#    2.769    0.000    0.000    0.000    0.000    0.000 
#    0.000    0.000    0.000    0.000    0.000    0.000 
#
# Total GULP energy -72448.908599 kJ/mol
# GULP energy per Si atom -5572.992969 kJ/mol
# Density = 2.371638 g / cm^3
# Si number density = 23.770487 Si / 1000 Ang^3
#
#
#
# Elastic Constant Matrix: (Units=GPa)
#
#
# Indices 1 2 3 4 5 6 
#
# 1 83.5415 11.9748 31.8455 -18.6345 -27.1808 6.5406
# 2 11.9748 185.8488 90.8803 -15.2291 -10.7149 20.0496
# 3 31.8455 90.8803 144.8451 -26.1692 -30.6812 -1.0961
# 4 -18.6345 -15.2291 -26.1692 61.2091 13.0606 -4.1479
# 5 -27.1808 -10.7149 -30.6812 13.0606 32.4019 -0.0455
# 6 6.5406 20.0496 -1.0961 -4.1479 -0.0455 43.9139
#
#
#
# Elastic Compliance Matrix: (Units=1/GPa)
#
#
# Indices 1 2 3 4 5 6 
#
# 1 0.017083 0.000632 -0.001131 0.001993 0.012662 -0.002660
# 2 0.000632 0.008635 -0.006100 -0.000044 -0.002379 -0.004196
# 3 -0.001131 -0.006100 0.013243 0.002181 0.008700 0.003499
# 4 0.001993 -0.000044 0.002181 0.018792 -0.003851 0.001549
# 5 0.012662 -0.002379 0.008700 -0.003851 0.050486 -0.000894
# 6 -0.002660 -0.004196 0.003499 0.001549 -0.000894 0.025316
#
#
# Mechanical properties :
#
#
# Convention : Reuss Voigt Hill
#
# Bulk Modulus (GPa) = 38.81410 75.95961 57.38685
# Shear Modulus (GPa) = 32.18721 46.14063 39.16392
#
# Velocity S-wave (km/s) = 3.68378 4.41056 4.06345
# Velocity P-wave (km/s) = 5.87007 7.61329 6.79779
#
# Compressibility (1/GPa) = 0.02576383
#
# Stress axis : x y z
#
# Youngs Moduli (GPa) = 58.53853 115.80824 75.50879
#
# Poissons Ratio (x) = -0.07325 0.08538
# Poissons Ratio (y) = -0.03703 0.46064
# Poissons Ratio (z) = 0.06619 0.70648
#
# Static dielectric constant tensor:
#      x y z
#    x 2.401990 -0.307240 0.101980 
#    y -0.307240 2.386770 0.074390 
#    z 0.101980 0.074390 1.806320 
# 
# From -- ./inp_files/383735.got.cif
#   From: 2010.05.17/outbox.cif.g08.bks.cpg/sg2_192_cif.got.tgz:383735.got - 2010.06.03 11:33:40.
