data_PCOD9067421
_publ_section_title
;
Structure prediction by ZEFSAII (Michael W. Deem and Ramdas Pophale) SiO2 
 PCOD9067421
Probable space group: P -1
;
_chemical_formula_sum "Si O2"
_cell_formula_units_Z 16
_cell_length_a 26.597628
_cell_length_b 10.092231
_cell_length_c 6.568260
_cell_angle_alpha 58.666271
_cell_angle_beta 133.645517
_cell_angle_gamma 147.432282
_cell_volume 678.120561
_symmetry_space_group_name_H-M "P -1"
_symmetry_group_IT_number 2
_symmetry_cell_setting 'triclinic'
loop_
_space_group_symop_operation_xyz
x,y,z
-x,-y,-z
loop_
_atom_site_type_symbol
_atom_site_label
_atom_site_fract_x
_atom_site_fract_y
_atom_site_fract_z
Si Si1 0.042731 0.756399 0.675546
Si Si2 0.903386 0.710398 0.024958
Si Si3 0.649403 0.099454 0.278553
Si Si4 0.694167 0.471335 0.874375
Si Si5 0.439045 0.272799 0.362143
Si Si6 0.121121 0.554761 0.182545
Si Si7 0.459214 0.690997 0.755739
Si Si8 0.714613 0.736876 0.059483
O O1 0.958128 0.664351 0.340804
O O2 0.981605 0.683826 0.775895
O O3 0.154426 0.049554 0.714552
O O4 0.078137 0.637886 0.890102
O O5 0.810902 0.632991 0.966341
O O6 0.849049 0.528987 0.824791
O O7 0.000000 0.000000 0.000000
O O8 0.771075 0.233554 0.538467
O O9 0.579554 0.923367 0.421064
O O10 0.672428 0.318250 0.124054
O O11 0.570941 0.918064 0.014291
O O12 0.601440 0.295791 0.578824
O O13 0.693006 0.635259 0.852406
O O14 0.500000 0.500000 0.500000
O O15 0.502470 0.369812 0.252239
O O16 0.319110 0.142453 0.105370
O O17 0.364093 0.479789 0.820095
#
# Coordination Sequence:
#
# PCOD9067421 Si02
#       8
#     2   2   2   2   2   2   2   2
#     4  11  25  49  76 107 145 193 245 311 359 434
#     4  12  27  48  75 109 150 198 244 299 369 441
#     4  12  27  46  75 104 151 191 242 304 363 434
#     4  12  28  46  71 110 150 193 248 297 368 437
#     4  12  25  51  72 108 146 193 245 305 360 436
#     4  11  26  49  75 108 147 191 249 306 368 427
#     4  12  27  46  76 106 149 195 247 294 370 437
#     4  12  26  47  76 108 146 194 248 300 368 433
#
# _framework density 23.594622999999999
#
# number of rings (size 3 to 8) (size 9 to 14) (size 15 to 20)
#    0.000    0.250    5.000    2.625    5.250    3.000 
#    4.500    0.000    0.000    0.000    0.000    0.000 
#    0.000    0.000    0.000    0.000    0.000    0.000 
#
# Total GULP energy -89406.186977 kJ/mol
# GULP energy per Si atom -5587.886686 kJ/mol
# Density = 2.354092 g / cm^3
# Si number density = 23.594623 Si / 1000 Ang^3
#
#
#
# Elastic Constant Matrix: (Units=GPa)
#
#
# Indices 1 2 3 4 5 6 
#
# 1 131.6198 63.0183 43.0531 6.6257 -12.1060 32.7385
# 2 63.0183 97.2702 38.4956 1.2603 -3.3853 29.0950
# 3 43.0531 38.4956 144.3488 1.3019 12.0423 8.6784
# 4 6.6257 1.2603 1.3019 42.1716 -1.2536 5.3465
# 5 -12.1060 -3.3853 12.0423 -1.2536 32.3185 1.3333
# 6 32.7385 29.0950 8.6784 5.3465 1.3333 25.3751
#
#
#
# Elastic Compliance Matrix: (Units=1/GPa)
#
#
# Indices 1 2 3 4 5 6 
#
# 1 0.014398 -0.003900 -0.003002 -0.000157 0.006650 -0.013394
# 2 -0.003900 0.018968 -0.003144 0.002276 0.002456 -0.016251
# 3 -0.003002 -0.003144 0.008788 -0.000465 -0.004946 0.004831
# 4 -0.000157 0.002276 -0.000465 0.024687 0.001621 -0.007535
# 5 0.006650 0.002456 -0.004946 0.001621 0.036089 -0.011942
# 6 -0.013394 -0.016251 0.004831 -0.007535 -0.011942 0.075885
#
#
# Mechanical properties :
#
#
# Convention : Reuss Voigt Hill
#
# Bulk Modulus (GPa) = 45.32683 73.59697 59.46190
# Shear Modulus (GPa) = 24.24101 35.21781 29.72941
#
# Velocity S-wave (km/s) = 3.20878 3.86764 3.55351
# Velocity P-wave (km/s) = 5.74288 7.15575 6.48789
#
# Compressibility (1/GPa) = 0.02206199
#
# Stress axis : x y z
#
# Youngs Moduli (GPa) = 69.45336 52.71931 113.79282
#
# Poissons Ratio (x) = 0.20561 0.34165
# Poissons Ratio (y) = 0.27088 0.35774
# Poissons Ratio (z) = 0.20852 0.16574
#
# Static dielectric constant tensor:
#      x y z
#    x 1.864550 -0.021980 0.048990 
#    y -0.021980 1.900370 0.001910 
#    z 0.048990 0.001910 1.931950 
# 
# From -- ./inp_files/126854.got.cif
#   From: 2010.05.17/outbox.cif.g08.bks.cpg/sg2_64_cif.got.tgz:126854.got - 2010.06.03 11:33:40.
