data_PCOD9067225
_publ_section_title
;
Structure prediction by ZEFSAII (Michael W. Deem and Ramdas Pophale) SiO2 
 PCOD9067225
Probable space group: P -1
;
_chemical_formula_sum "Si O2"
_cell_formula_units_Z 16
_cell_length_a 9.270045
_cell_length_b 5.107117
_cell_length_c 22.154578
_cell_angle_alpha 111.252108
_cell_angle_beta 127.262110
_cell_angle_gamma 55.480801
_cell_volume 687.495143
_symmetry_space_group_name_H-M "P -1"
_symmetry_group_IT_number 2
_symmetry_cell_setting 'triclinic'
loop_
_space_group_symop_operation_xyz
x,y,z
-x,-y,-z
loop_
_atom_site_type_symbol
_atom_site_label
_atom_site_fract_x
_atom_site_fract_y
_atom_site_fract_z
Si Si1 0.948421 0.996515 0.807576
Si Si2 0.603856 0.278981 0.064874
Si Si3 0.426772 0.615000 0.423736
Si Si4 0.885051 0.493068 0.409000
Si Si5 0.813269 0.734785 0.639569
Si Si6 0.334425 0.867914 0.651209
Si Si7 0.721893 0.752530 0.819443
Si Si8 0.247331 0.283558 0.039008
O O1 0.883272 0.909314 0.720783
O O2 0.824385 0.930013 0.823441
O O3 0.188979 0.752686 0.856580
O O4 0.876042 0.372748 0.823064
O O5 0.422097 0.389138 0.077241
O O6 0.500000 0.500000 0.000000
O O7 0.703733 0.937036 0.026506
O O8 0.500000 0.500000 0.500000
O O9 0.264024 0.481206 0.362455
O O10 0.599671 0.423193 0.403246
O O11 0.344426 0.980329 0.418764
O O12 0.846928 0.185423 0.369198
O O13 0.000000 0.500000 0.500000
O O14 0.018379 0.478413 0.383199
O O15 0.696339 0.838134 0.374719
O O16 0.508837 0.815125 0.739406
O O17 0.694651 0.858664 0.891145
O O18 0.000000 0.500000 0.000000
#
# Coordination Sequence:
#
# PCOD9067225 Si02
#       8
#     2   2   2   2   2   2   2   2
#     4  12  25  47  71 104 146 186 239 301 365 433
#     4  11  27  45  75 112 147 192 248 295 363 440
#     4  12  23  43  70  97 132 181 239 292 347 426
#     4  12  26  44  67 100 143 187 235 301 361 424
#     4  12  24  44  66 101 139 185 230 294 365 410
#     4  12  24  44  67 102 136 181 244 284 356 433
#     4  12  26  46  75 102 144 192 238 301 365 430
#     4  11  25  48  74 108 147 195 241 299 364 429
#
# _framework density 23.27289
#
# number of rings (size 3 to 8) (size 9 to 14) (size 15 to 20)
#    0.000    0.250    3.750    5.250    5.250    2.000 
#    0.000    0.000    0.000    0.000    0.000    0.000 
#    0.000    0.000    0.000    0.000    0.000    0.000 
#
# Total GULP energy -89304.860571 kJ/mol
# GULP energy per Si atom -5581.553786 kJ/mol
# Density = 2.321992 g / cm^3
# Si number density = 23.272890 Si / 1000 Ang^3
#
#
#
# Elastic Constant Matrix: (Units=GPa)
#
#
# Indices 1 2 3 4 5 6 
#
# 1 110.9908 0.9359 21.7745 -17.8549 8.0930 4.5998
# 2 0.9359 88.0816 20.2402 -12.8757 -11.7537 9.4810
# 3 21.7745 20.2402 155.6663 -20.1289 -12.9044 -2.4876
# 4 -17.8549 -12.8757 -20.1289 30.9738 -2.0873 -12.2785
# 5 8.0930 -11.7537 -12.9044 -2.0873 41.2151 1.7672
# 6 4.5998 9.4810 -2.4876 -12.2785 1.7672 36.4677
#
#
#
# Elastic Compliance Matrix: (Units=1/GPa)
#
#
# Indices 1 2 3 4 5 6 
#
# 1 0.010203 0.000627 -0.000932 0.005594 -0.001853 0.000460
# 2 0.000627 0.012932 -0.000920 0.004528 0.003599 -0.002154
# 3 -0.000932 -0.000920 0.007584 0.005163 0.002450 0.002494
# 4 0.005594 0.004528 0.005163 0.046522 0.003567 0.013960
# 5 -0.001853 0.003599 0.002450 0.003567 0.026627 -0.000624
# 6 0.000460 -0.002154 0.002494 0.013960 -0.000624 0.032824
#
#
# Mechanical properties :
#
#
# Convention : Reuss Voigt Hill
#
# Bulk Modulus (GPa) = 35.37294 48.95996 42.16645
# Shear Modulus (GPa) = 33.65510 42.51719 38.08614
#
# Velocity S-wave (km/s) = 3.80690 4.27886 4.04976
# Velocity P-wave (km/s) = 5.87839 6.74496 6.32653
#
# Compressibility (1/GPa) = 0.02827020
#
# Stress axis : x y z
#
# Youngs Moduli (GPa) = 98.00837 77.32944 131.84829
#
# Poissons Ratio (x) = -0.04846 0.12283
# Poissons Ratio (y) = -0.06142 0.12126
# Poissons Ratio (z) = 0.09130 0.07112
#
# Static dielectric constant tensor:
#      x y z
#    x 1.956070 0.150960 0.111330 
#    y 0.150960 2.408080 -0.076550 
#    z 0.111330 -0.076550 1.917790 
# 
# From -- ./inp_files/585740.got.cif
#   From: 2010.05.17/outbox.cif.g08.bks.cpg/sg2_293_cif.got.tgz:585740.got - 2010.06.03 11:33:40.
