data_PCOD9067235
_publ_section_title
;
Structure prediction by ZEFSAII (Michael W. Deem and Ramdas Pophale) SiO2 
 PCOD9067235
Probable space group: P -1
;
_chemical_formula_sum "Si O2"
_cell_formula_units_Z 16
_cell_length_a 7.028519
_cell_length_b 12.232289
_cell_length_c 9.808065
_cell_angle_alpha 78.915754
_cell_angle_beta 46.035127
_cell_angle_gamma 84.792371
_cell_volume 594.528809
_symmetry_space_group_name_H-M "P -1"
_symmetry_group_IT_number 2
_symmetry_cell_setting 'triclinic'
loop_
_space_group_symop_operation_xyz
x,y,z
-x,-y,-z
loop_
_atom_site_type_symbol
_atom_site_label
_atom_site_fract_x
_atom_site_fract_y
_atom_site_fract_z
Si Si1 0.129029 0.659675 0.200136
Si Si2 0.118261 0.076903 0.090800
Si Si3 0.293895 0.507968 0.909516
Si Si4 0.712450 0.061216 0.714034
Si Si5 0.465139 0.910178 0.659484
Si Si6 0.534125 0.674598 0.531820
Si Si7 0.099666 0.691096 0.514947
Si Si8 0.335965 0.283013 0.080949
O O1 0.635636 0.616941 0.064465
O O2 0.110774 0.634489 0.376007
O O3 0.248301 0.570883 0.060684
O O4 0.366751 0.756667 0.039433
O O5 0.132308 0.189214 0.146483
O O6 0.843750 0.080146 0.146122
O O7 0.147418 0.977405 0.208736
O O8 0.402512 0.086324 0.875689
O O9 0.473869 0.574642 0.693089
O O10 0.000000 0.500000 0.000000
O O11 0.844794 0.176774 0.569274
O O12 0.677589 0.954729 0.655764
O O13 0.505369 0.789352 0.603831
O O14 0.500000 0.000000 0.500000
O O15 0.313144 0.658559 0.527892
O O16 0.808298 0.672522 0.726572
O O17 0.824927 0.680881 0.316190
#
# Coordination Sequence:
#
# PCOD9067235 Si02
#       8
#     2   2   2   2   2   2   2   2
#     4  12  31  50  82 115 156 203 267 320 388 468
#     4  11  25  48  74 112 156 204 252 324 385 461
#     4  12  28  54  82 114 157 207 257 325 397 459
#     4  11  26  44  79 112 151 206 258 314 389 460
#     4  12  25  44  73 110 154 202 256 314 381 456
#     4  12  29  51  80 116 157 211 258 322 391 466
#     4  12  26  51  79 117 155 204 262 321 385 468
#     4  12  26  53  78 112 161 202 257 328 386 460
#
# _framework density 26.912068999999999
#
# number of rings (size 3 to 8) (size 9 to 14) (size 15 to 20)
#    0.000    0.250    5.000    1.500    7.000    4.500 
#    0.000    0.000    0.000    0.000    0.000    0.000 
#    0.000    0.000    0.000    0.000    0.000    0.000 
#
# Total GULP energy -89691.736178 kJ/mol
# GULP energy per Si atom -5605.733511 kJ/mol
# Density = 2.685082 g / cm^3
# Si number density = 26.912069 Si / 1000 Ang^3
#
#
#
# Elastic Constant Matrix: (Units=GPa)
#
#
# Indices 1 2 3 4 5 6 
#
# 1 154.2210 14.3593 33.1772 -6.1316 -6.9358 -9.2201
# 2 14.3593 87.0155 17.4830 -19.8661 13.2501 -13.9009
# 3 33.1772 17.4830 119.9929 -8.8023 -22.5757 -19.8291
# 4 -6.1316 -19.8661 -8.8023 51.0463 -0.2085 -0.6035
# 5 -6.9358 13.2501 -22.5757 -0.2085 63.0754 13.4649
# 6 -9.2201 -13.9009 -19.8291 -0.6035 13.4649 36.2435
#
#
#
# Elastic Compliance Matrix: (Units=1/GPa)
#
#
# Indices 1 2 3 4 5 6 
#
# 1 0.006961 -0.000695 -0.001680 0.000283 0.000201 0.000515
# 2 -0.000695 0.015054 -0.001440 0.005586 -0.005194 0.006832
# 3 -0.001680 -0.001440 0.010237 0.001057 0.003036 0.003511
# 4 0.000283 0.005586 0.001057 0.022018 -0.001483 0.003711
# 5 0.000201 -0.005194 0.003036 -0.001483 0.019674 -0.007614
# 6 0.000515 0.006832 0.003511 0.003711 -0.007614 0.035154
#
#
# Mechanical properties :
#
#
# Convention : Reuss Voigt Hill
#
# Bulk Modulus (GPa) = 40.61152 54.58536 47.59844
# Shear Modulus (GPa) = 40.02076 49.82036 44.92056
#
# Velocity S-wave (km/s) = 3.86047 4.30726 4.08997
# Velocity P-wave (km/s) = 5.91559 6.71294 6.32683
#
# Compressibility (1/GPa) = 0.02462356
#
# Stress axis : x y z
#
# Youngs Moduli (GPa) = 143.64970 66.42806 97.68583
#
# Poissons Ratio (x) = 0.04617 0.16409
# Poissons Ratio (y) = 0.09983 0.14063
# Poissons Ratio (z) = 0.24129 0.09563
#
# Static dielectric constant tensor:
#      x y z
#    x 2.158000 0.014230 0.012640 
#    y 0.014230 2.145930 0.081310 
#    z 0.012640 0.081310 2.113900 
# 
# From -- ./inp_files/135098.got.cif
#   From: 2010.05.17/outbox.cif.g08.bks.cpg/sg2_68_cif.got.tgz:135098.got - 2010.06.03 11:33:40.
