data_PCOD9067992
_publ_section_title
;
Structure prediction by ZEFSAII (Michael W. Deem and Ramdas Pophale) SiO2 
 PCOD9067992
Probable space group: P -1
;
_chemical_formula_sum "Si O2"
_cell_formula_units_Z 14
_cell_length_a 16.870570
_cell_length_b 10.188812
_cell_length_c 4.860668
_cell_angle_alpha 77.955336
_cell_angle_beta 87.046544
_cell_angle_gamma 138.582618
_cell_volume 511.851100
_symmetry_space_group_name_H-M "P -1"
_symmetry_group_IT_number 2
_symmetry_cell_setting 'triclinic'
loop_
_space_group_symop_operation_xyz
x,y,z
-x,-y,-z
loop_
_atom_site_type_symbol
_atom_site_label
_atom_site_fract_x
_atom_site_fract_y
_atom_site_fract_z
Si Si1 0.955977 0.718750 0.242222
Si Si2 0.626805 0.168698 0.727675
Si Si3 0.402259 0.585456 0.635665
Si Si4 0.455493 0.302586 0.956647
Si Si5 0.231722 0.738419 0.815989
Si Si6 0.847243 0.848799 0.327132
Si Si7 0.187665 0.942334 0.424114
O O1 0.862857 0.497681 0.190894
O O2 0.893921 0.758465 0.417200
O O3 0.053578 0.757664 0.378379
O O4 0.040887 0.919443 0.932893
O O5 0.638887 0.334150 0.541409
O O6 0.643043 0.109373 0.465529
O O7 0.733920 0.257202 0.882520
O O8 0.500000 0.000000 0.000000
O O9 0.453539 0.674794 0.891655
O O10 0.276474 0.329951 0.763395
O O11 0.510148 0.665608 0.381864
O O12 0.310540 0.083609 0.148939
O O13 0.500000 0.500000 0.000000
O O14 0.187196 0.830762 0.715799
O O15 0.803345 0.891083 0.553939
#
# Coordination Sequence:
#
# PCOD9067992 Si02
#       7
#     2   2   2   2   2   2   2
#     4  11  27  49  74 110 148 204 252 305 373 452
#     4  12  26  50  77 109 151 198 250 306 373 452
#     4  12  25  47  76 109 149 195 250 309 370 445
#     4  12  25  43  75 113 153 193 243 309 385 432
#     4  12  28  48  78 110 150 195 253 309 376 436
#     4  11  26  46  78 104 151 197 255 304 376 440
#     4  12  27  46  75 109 154 195 251 314 373 448
#
# _framework density 27.351704000000002
#
# number of rings (size 3 to 8) (size 9 to 14) (size 15 to 20)
#    0.000    0.286    2.857    5.143    6.000    1.714 
#    0.000    0.000    0.000    0.000    0.000    0.000 
#    0.000    0.000    0.000    0.000    0.000    0.000 
#
# Total GULP energy -78518.039310 kJ/mol
# GULP energy per Si atom -5608.431379 kJ/mol
# Density = 2.728945 g / cm^3
# Si number density = 27.351704 Si / 1000 Ang^3
#
#
#
# Elastic Constant Matrix: (Units=GPa)
#
#
# Indices 1 2 3 4 5 6 
#
# 1 125.0922 46.7302 42.3889 6.6324 16.2177 -0.4143
# 2 46.7302 125.0277 30.6719 -4.1100 10.9254 1.6757
# 3 42.3889 30.6719 104.4428 15.2738 25.0868 -0.3928
# 4 6.6324 -4.1100 15.2738 54.9472 0.8458 3.4571
# 5 16.2177 10.9254 25.0868 0.8458 50.4288 1.4154
# 6 -0.4143 1.6757 -0.3928 3.4571 1.4154 49.0029
#
#
#
# Elastic Compliance Matrix: (Units=1/GPa)
#
#
# Indices 1 2 3 4 5 6 
#
# 1 0.010313 -0.003063 -0.002898 -0.000666 -0.001207 0.000251
# 2 -0.003063 0.009659 -0.001775 0.001619 -0.000238 -0.000478
# 3 -0.002898 -0.001775 0.012989 -0.003348 -0.005104 0.000524
# 4 -0.000666 0.001619 -0.003348 0.019406 0.001245 -0.001493
# 5 -0.001207 -0.000238 -0.005104 0.001245 0.022810 -0.000790
# 6 0.000251 -0.000478 0.000524 -0.001493 -0.000790 0.020558
#
#
# Mechanical properties :
#
#
# Convention : Reuss Voigt Hill
#
# Bulk Modulus (GPa) = 57.17573 66.01606 61.59590
# Shear Modulus (GPa) = 42.72149 46.52725 44.62437
#
# Velocity S-wave (km/s) = 3.95642 4.12888 4.04357
# Velocity P-wave (km/s) = 6.46686 6.84972 6.66104
#
# Compressibility (1/GPa) = 0.01748994
#
# Stress axis : x y z
#
# Youngs Moduli (GPa) = 96.96427 103.53000 76.98599
#
# Poissons Ratio (x) = 0.31716 0.22308
# Poissons Ratio (y) = 0.29705 0.13662
# Poissons Ratio (z) = 0.28097 0.18372
#
# Static dielectric constant tensor:
#      x y z
#    x 2.252310 -0.015010 0.023390 
#    y -0.015010 2.094510 -0.041800 
#    z 0.023390 -0.041800 2.111870 
# 
# From -- ./inp_files/108442.got.cif
#   From: 2010.05.17/outbox.cif.g08.bks.cpg/sg2_55_cif.got.tgz:108442.got - 2010.06.03 11:33:40.
