data_PCOD9067435
_publ_section_title
;
Structure prediction by ZEFSAII (Michael W. Deem and Ramdas Pophale) SiO2 
 PCOD9067435
Probable space group: P -1
;
_chemical_formula_sum "Si O2"
_cell_formula_units_Z 13
_cell_length_a 14.364298
_cell_length_b 11.961593
_cell_length_c 9.668100
_cell_angle_alpha 136.831884
_cell_angle_beta 35.349881
_cell_angle_gamma 149.581263
_cell_volume 484.701652
_symmetry_space_group_name_H-M "P -1"
_symmetry_group_IT_number 2
_symmetry_cell_setting 'triclinic'
loop_
_space_group_symop_operation_xyz
x,y,z
-x,-y,-z
loop_
_atom_site_type_symbol
_atom_site_label
_atom_site_fract_x
_atom_site_fract_y
_atom_site_fract_z
Si Si1 0.916658 0.188908 0.802301
Si Si2 0.014886 0.316558 0.316155
Si Si3 0.500000 0.500000 0.000000
Si Si4 0.677317 0.997193 0.212735
Si Si5 0.285495 0.630867 0.891259
Si Si6 0.397718 0.471048 0.843128
Si Si7 0.752231 0.940569 0.517058
O O1 0.154642 0.395107 0.761322
O O2 0.861726 0.009507 0.597061
O O3 0.865824 0.315978 0.885038
O O4 0.752786 0.070556 0.027337
O O5 0.000000 0.500000 0.500000
O O6 0.899955 0.179624 0.192203
O O7 0.889589 0.148438 0.439410
O O8 0.260375 0.411405 0.100653
O O9 0.407397 0.240986 0.869263
O O10 0.605337 0.560294 0.757290
O O11 0.500000 0.000000 0.500000
O O12 0.366084 0.613518 0.924059
O O13 0.507769 0.838155 0.737448
O O14 0.293710 0.260153 0.686694
#
# Coordination Sequence:
#
# PCOD9067435 Si02
#       7
#     2   2   1   2   2   2   2
#     4  11  26  48  82 113 161 213 267 333 415 487
#     4  12  26  49  79 111 159 211 267 339 404 481
#     4  12  28  48  82 114 160 210 272 340 404 484
#     4  12  26  52  80 123 157 213 276 334 411 492
#     4  11  25  49  76 113 158 209 270 324 408 493
#     4  12  26  50  74 119 156 207 275 333 411 484
#     4  12  26  46  77 115 160 207 264 341 402 488
#
# _framework density 26.820623999999999
#
# number of rings (size 3 to 8) (size 9 to 14) (size 15 to 20)
#    0.000    0.308    3.077    5.077    2.154    1.846 
#    0.000    0.000    0.000    0.000    0.000    0.000 
#    0.000    0.000    0.000    0.000    0.000    0.000 
#
# Total GULP energy -72661.529388 kJ/mol
# GULP energy per Si atom -5589.348414 kJ/mol
# Density = 2.675958 g / cm^3
# Si number density = 26.820624 Si / 1000 Ang^3
#
#
#
# Elastic Constant Matrix: (Units=GPa)
#
#
# Indices 1 2 3 4 5 6 
#
# 1 183.1267 39.2112 30.7645 19.9388 35.5138 -2.1272
# 2 39.2112 101.2149 15.5102 31.2784 -3.8295 13.9941
# 3 30.7645 15.5102 76.7688 15.6367 30.7816 7.5733
# 4 19.9388 31.2784 15.6367 57.3846 5.0505 5.3090
# 5 35.5138 -3.8295 30.7816 5.0505 44.3383 3.1970
# 6 -2.1272 13.9941 7.5733 5.3090 3.1970 65.4796
#
#
#
# Elastic Compliance Matrix: (Units=1/GPa)
#
#
# Indices 1 2 3 4 5 6 
#
# 1 0.007409 -0.003176 0.000203 -0.000452 -0.006388 0.001244
# 2 -0.003176 0.014022 -0.002650 -0.006146 0.006483 -0.002612
# 3 0.000203 -0.002650 0.019564 -0.002684 -0.013609 -0.000808
# 4 -0.000452 -0.006146 -0.002684 0.021744 -0.000774 -0.000116
# 5 -0.006388 0.006483 -0.013609 -0.000774 0.037897 -0.001807
# 6 0.001244 -0.002612 -0.000808 -0.000116 -0.001807 0.016061
#
#
# Mechanical properties :
#
#
# Convention : Reuss Voigt Hill
#
# Bulk Modulus (GPa) = 33.61457 59.12026 46.36742
# Shear Modulus (GPa) = 36.26897 51.81548 44.04222
#
# Velocity S-wave (km/s) = 3.68132 4.40014 4.05668
# Velocity P-wave (km/s) = 5.53442 6.92139 6.26640
#
# Compressibility (1/GPa) = 0.02974900
#
# Stress axis : x y z
#
# Youngs Moduli (GPa) = 134.97122 71.31584 51.11545
#
# Poissons Ratio (x) = 0.22647 -0.01038
# Poissons Ratio (y) = 0.42861 0.13547
# Poissons Ratio (z) = -0.02741 0.18901
#
# Static dielectric constant tensor:
#      x y z
#    x 2.219170 0.037630 -0.008720 
#    y 0.037630 2.176160 -0.051220 
#    z -0.008720 -0.051220 2.244940 
# 
# From -- ./inp_files/241633.got.cif
#   From: 2010.05.17/outbox.cif.g08.bks.cpg/sg2_121_cif.got.tgz:241633.got - 2010.06.03 11:33:40.
