data_PCOD9067727
_publ_section_title
;
Structure prediction by ZEFSAII (Michael W. Deem and Ramdas Pophale) SiO2 
 PCOD9067727
Probable space group: P -1
;
_chemical_formula_sum "Si O2"
_cell_formula_units_Z 14
_cell_length_a 20.248671
_cell_length_b 10.142812
_cell_length_c 9.542090
_cell_angle_alpha 134.955807
_cell_angle_beta 136.055427
_cell_angle_gamma 25.750437
_cell_volume 579.792827
_symmetry_space_group_name_H-M "P -1"
_symmetry_group_IT_number 2
_symmetry_cell_setting 'triclinic'
loop_
_space_group_symop_operation_xyz
x,y,z
-x,-y,-z
loop_
_atom_site_type_symbol
_atom_site_label
_atom_site_fract_x
_atom_site_fract_y
_atom_site_fract_z
Si Si1 0.879915 0.076656 0.475574
Si Si2 0.877877 0.692926 0.327489
Si Si3 0.623239 0.970157 0.532868
Si Si4 0.395423 0.408978 0.754602
Si Si5 0.034945 0.829982 0.065923
Si Si6 0.482058 0.822345 0.771914
Si Si7 0.692897 0.264296 0.875623
O O1 0.717553 0.319088 0.325282
O O2 0.866735 0.216639 0.702797
O O3 0.920626 0.805349 0.383911
O O4 0.000000 0.000000 0.500000
O O5 0.000000 0.500000 0.500000
O O6 0.694084 0.979881 0.312722
O O7 0.895918 0.475070 0.103453
O O8 0.549745 0.106673 0.677795
O O9 0.506815 0.176380 0.377493
O O10 0.724994 0.997582 0.698631
O O11 0.683948 0.665883 0.379906
O O12 0.423520 0.493801 0.994944
O O13 0.858604 0.082747 0.045286
O O14 0.000000 0.000000 0.000000
O O15 0.616571 0.480785 0.786630
O O16 0.500000 0.000000 0.000000
#
# Coordination Sequence:
#
# PCOD9067727 Si02
#       7
#     2   2   2   2   2   2   2
#     4  12  28  48  74 108 155 195 251 308 376 448
#     4  12  28  49  79 111 153 198 251 308 378 446
#     4  11  26  44  74 102 143 192 242 307 372 435
#     4  11  26  47  68 105 149 189 240 309 372 440
#     4  12  27  45  77 109 148 197 248 305 376 446
#     4  12  26  47  78 110 148 195 258 309 365 445
#     4  12  25  46  74 105 144 191 251 304 367 440
#
# _framework density 24.146557000000001
#
# number of rings (size 3 to 8) (size 9 to 14) (size 15 to 20)
#    0.000    0.286    4.286    3.429    8.000    1.714 
#    0.000    0.000    0.000    0.000    0.000    0.000 
#    0.000    0.000    0.000    0.000    0.000    0.000 
#
# Total GULP energy -78349.483034 kJ/mol
# GULP energy per Si atom -5596.391645 kJ/mol
# Density = 2.409160 g / cm^3
# Si number density = 24.146557 Si / 1000 Ang^3
#
#
#
# Elastic Constant Matrix: (Units=GPa)
#
#
# Indices 1 2 3 4 5 6 
#
# 1 85.2361 26.9986 29.4008 8.5613 7.3756 18.3368
# 2 26.9986 103.3886 24.9407 3.2612 11.4970 28.3074
# 3 29.4008 24.9407 142.0335 9.7470 -9.4801 23.0291
# 4 8.5613 3.2612 9.7470 48.5724 5.6342 5.5370
# 5 7.3756 11.4970 -9.4801 5.6342 43.0520 0.7156
# 6 18.3368 28.3074 23.0291 5.5370 0.7156 52.4297
#
#
#
# Elastic Compliance Matrix: (Units=1/GPa)
#
#
# Indices 1 2 3 4 5 6 
#
# 1 0.014037 -0.002153 -0.002147 -0.001357 -0.002081 -0.002632
# 2 -0.002153 0.012321 -0.001098 0.000762 -0.003172 -0.005455
# 3 -0.002147 -0.001098 0.008302 -0.001275 0.002693 -0.002206
# 4 -0.001357 0.000762 -0.001275 0.021569 -0.003048 -0.001613
# 5 -0.002081 -0.003172 0.002693 -0.003048 0.025403 0.001233
# 6 -0.002632 -0.005455 -0.002206 -0.001613 0.001233 0.024061
#
#
# Mechanical properties :
#
#
# Convention : Reuss Voigt Hill
#
# Bulk Modulus (GPa) = 41.89881 54.81539 48.35710
# Shear Modulus (GPa) = 40.17878 45.43202 42.80540
#
# Velocity S-wave (km/s) = 4.08359 4.34234 4.21495
# Velocity P-wave (km/s) = 6.29474 6.92038 6.61496
#
# Compressibility (1/GPa) = 0.02386702
#
# Stress axis : x y z
#
# Youngs Moduli (GPa) = 71.23920 81.15967 120.44585
#
# Poissons Ratio (x) = 0.17472 0.25855
# Poissons Ratio (y) = 0.15336 0.13220
# Poissons Ratio (z) = 0.15292 0.08908
#
# Static dielectric constant tensor:
#      x y z
#    x 1.860480 -0.039720 -0.034030 
#    y -0.039720 1.892570 0.045560 
#    z -0.034030 0.045560 1.864520 
# 
# From -- ./inp_files/242305.got.cif
#   From: 2010.05.17/outbox.cif.g08.bks.cpg/sg2_122_cif.got.tgz:242305.got - 2010.06.03 11:33:40.
