data_PCOD9067147
_publ_section_title
;
Structure prediction by ZEFSAII (Michael W. Deem and Ramdas Pophale) SiO2 
 PCOD9067147
Probable space group: P -1
;
_chemical_formula_sum "Si O2"
_cell_formula_units_Z 12
_cell_length_a 12.027874
_cell_length_b 11.648786
_cell_length_c 11.673862
_cell_angle_alpha 33.050154
_cell_angle_beta 143.319892
_cell_angle_gamma 142.986358
_cell_volume 491.192161
_symmetry_space_group_name_H-M "P -1"
_symmetry_group_IT_number 2
_symmetry_cell_setting 'triclinic'
loop_
_space_group_symop_operation_xyz
x,y,z
-x,-y,-z
loop_
_atom_site_type_symbol
_atom_site_label
_atom_site_fract_x
_atom_site_fract_y
_atom_site_fract_z
Si Si1 0.367153 0.617666 0.502776
Si Si2 0.987498 0.975297 0.874487
Si Si3 0.839330 0.868254 0.330297
Si Si4 0.689604 0.470722 0.020107
Si Si5 0.709055 0.020341 0.313631
Si Si6 0.298037 0.777608 0.538147
O O1 0.235500 0.405294 0.493560
O O2 0.518000 0.833495 0.376708
O O3 0.237499 0.674903 0.447130
O O4 0.511248 0.530586 0.770320
O O5 0.860521 0.132208 0.613268
O O6 0.876082 0.712019 0.971535
O O7 0.177663 0.073298 0.865941
O O8 0.000000 0.000000 0.000000
O O9 0.713217 0.958307 0.235764
O O10 0.077116 0.984557 0.461163
O O11 0.661854 0.384664 0.200397
O O12 0.714527 0.270233 0.134691
O O13 0.500000 0.000000 0.500000
#
# Coordination Sequence:
#
# PCOD9067147 Si02
#       6
#     2   2   2   2   2   2
#     4  12  25  44  72 102 136 184 230 279 343 406
#     4  12  27  44  68 107 135 178 234 276 346 410
#     4  11  25  48  70  98 140 184 226 287 339 400
#     4  12  23  44  69 100 143 180 225 284 340 408
#     4  11  25  49  68  99 142 179 233 284 335 405
#     4  12  23  43  67 100 143 176 221 288 339 400
#
# _framework density 24.430356
#
# number of rings (size 3 to 8) (size 9 to 14) (size 15 to 20)
#    0.000    0.333    6.667    2.000    4.667    2.667 
#    0.000    0.000    0.000    0.000    0.000    0.000 
#    0.000    0.000    0.000    0.000    0.000    0.000 
#
# Total GULP energy -67212.426335 kJ/mol
# GULP energy per Si atom -5601.035528 kJ/mol
# Density = 2.437475 g / cm^3
# Si number density = 24.430356 Si / 1000 Ang^3
#
#
#
# Elastic Constant Matrix: (Units=GPa)
#
#
# Indices 1 2 3 4 5 6 
#
# 1 204.6537 50.6827 48.0358 -28.0915 -1.1563 -40.1182
# 2 50.6827 125.6002 17.7335 -45.6265 -2.6607 -7.7419
# 3 48.0358 17.7335 96.0040 -17.9871 -0.1097 5.7922
# 4 -28.0915 -45.6265 -17.9871 46.4809 -2.9122 4.1895
# 5 -1.1563 -2.6607 -0.1097 -2.9122 24.6290 -7.8930
# 6 -40.1182 -7.7419 5.7922 4.1895 -7.8930 41.0279
#
#
#
# Elastic Compliance Matrix: (Units=1/GPa)
#
#
# Indices 1 2 3 4 5 6 
#
# 1 0.008136 -0.001721 -0.004075 0.001061 0.003089 0.008692
# 2 -0.001721 0.013053 0.000749 0.012240 0.002766 -0.000043
# 3 -0.004075 0.000749 0.013446 0.003955 -0.001654 -0.006464
# 4 0.001061 0.012240 0.003955 0.036040 0.005718 0.000208
# 5 0.003089 0.002766 -0.001654 0.005718 0.045546 0.011954
# 6 0.008692 -0.000043 -0.006464 0.000208 0.011954 0.036056
#
#
# Mechanical properties :
#
#
# Convention : Reuss Voigt Hill
#
# Bulk Modulus (GPa) = 40.74924 73.24021 56.99473
# Shear Modulus (GPa) = 29.31676 43.08129 36.19903
#
# Velocity S-wave (km/s) = 3.46788 4.20388 3.85349
# Velocity P-wave (km/s) = 5.72284 7.32173 6.57110
#
# Compressibility (1/GPa) = 0.02454033
#
# Stress axis : x y z
#
# Youngs Moduli (GPa) = 122.91055 76.61218 74.37230
#
# Poissons Ratio (x) = 0.13186 0.30307
# Poissons Ratio (y) = 0.21155 -0.05572
# Poissons Ratio (z) = 0.50087 -0.05739
#
# Static dielectric constant tensor:
#      x y z
#    x 1.928490 -0.047700 -0.016200 
#    y -0.047700 1.999680 0.063840 
#    z -0.016200 0.063840 2.002920 
# 
# From -- ./inp_files/21580.got.cif
#   From: 2010.05.17/outbox.cif.g08.bks.cpg/sg2_11_cif.got.tgz:21580.got - 2010.06.03 11:33:40.
