data_PCOD9067111
_publ_section_title
;
Structure prediction by ZEFSAII (Michael W. Deem and Ramdas Pophale) SiO2 
 PCOD9067111
Probable space group: P -1
;
_chemical_formula_sum "Si O2"
_cell_formula_units_Z 12
_cell_length_a 8.834629
_cell_length_b 5.625052
_cell_length_c 14.216898
_cell_angle_alpha 54.470708
_cell_angle_beta 119.382748
_cell_angle_gamma 95.047451
_cell_volume 481.259504
_symmetry_space_group_name_H-M "P -1"
_symmetry_group_IT_number 2
_symmetry_cell_setting 'triclinic'
loop_
_space_group_symop_operation_xyz
x,y,z
-x,-y,-z
loop_
_atom_site_type_symbol
_atom_site_label
_atom_site_fract_x
_atom_site_fract_y
_atom_site_fract_z
Si Si1 0.098648 0.732618 0.518952
Si Si2 0.787240 0.822037 0.670722
Si Si3 0.655695 0.669675 0.161230
Si Si4 0.570127 0.791758 0.441733
Si Si5 0.096175 0.262728 0.946136
Si Si6 0.491713 0.151892 0.152822
O O1 0.260911 0.546719 0.675854
O O2 0.000000 0.500000 0.500000
O O3 0.150412 0.886477 0.405628
O O4 0.000000 0.000000 0.500000
O O5 0.744540 0.716780 0.578154
O O6 0.939047 0.578172 0.828984
O O7 0.591442 0.921897 0.635814
O O8 0.815500 0.736676 0.131241
O O9 0.560940 0.447281 0.125830
O O10 0.543714 0.976525 0.109612
O O11 0.500000 0.500000 0.500000
O O12 0.586751 0.902118 0.316915
O O13 0.272932 0.231874 0.072096
O O14 0.000000 0.000000 0.000000
#
# Coordination Sequence:
#
# PCOD9067111 Si02
#       6
#     2   2   2   2   2   2
#     4  12  25  45  79 115 149 197 261 330 389 461
#     4  11  26  49  76 117 157 199 266 330 397 468
#     4  12  27  54  80 114 159 214 263 325 401 476
#     4  11  25  47  80 113 154 208 256 329 404 473
#     4  12  29  51  80 118 160 212 269 332 393 475
#     4  12  28  53  81 112 163 213 264 319 401 477
#
# _framework density 24.934574000000001
#
# number of rings (size 3 to 8) (size 9 to 14) (size 15 to 20)
#    0.000    0.333    3.333    4.000    7.000    2.000 
#    3.000    0.000    0.000    0.000    0.000    0.000 
#    0.000    0.000    0.000    0.000    0.000    0.000 
#
# Total GULP energy -67132.815880 kJ/mol
# GULP energy per Si atom -5594.401323 kJ/mol
# Density = 2.487782 g / cm^3
# Si number density = 24.934574 Si / 1000 Ang^3
#
#
#
# Elastic Constant Matrix: (Units=GPa)
#
#
# Indices 1 2 3 4 5 6 
#
# 1 120.0959 72.1962 21.2387 -9.5487 -3.6252 5.6341
# 2 72.1962 195.9209 65.9925 8.3049 -1.4964 22.9849
# 3 21.2387 65.9925 117.1689 -7.2413 4.9909 10.7472
# 4 -9.5487 8.3049 -7.2413 42.2496 7.0491 -9.4787
# 5 -3.6252 -1.4964 4.9909 7.0491 53.8155 -3.4996
# 6 5.6341 22.9849 10.7472 -9.4787 -3.4996 62.3106
#
#
#
# Elastic Compliance Matrix: (Units=1/GPa)
#
#
# Indices 1 2 3 4 5 6 
#
# 1 0.011278 -0.004701 0.000727 0.003840 0.000135 0.001181
# 2 -0.004701 0.008714 -0.004098 -0.004193 0.000681 -0.002682
# 3 0.000727 -0.004098 0.010971 0.003085 -0.001491 -0.000061
# 4 0.003840 -0.004193 0.003085 0.027510 -0.003444 0.004659
# 5 0.000135 0.000681 -0.001491 -0.003444 0.019235 0.000550
# 6 0.001181 -0.002682 -0.000061 0.004659 0.000550 0.017681
#
#
# Mechanical properties :
#
#
# Convention : Reuss Voigt Hill
#
# Bulk Modulus (GPa) = 67.48350 83.56006 75.52178
# Shear Modulus (GPa) = 42.92796 49.92569 46.42683
#
# Velocity S-wave (km/s) = 4.15375 4.47952 4.31971
# Velocity P-wave (km/s) = 7.08010 7.76784 7.43193
#
# Compressibility (1/GPa) = 0.01481844
#
# Stress axis : x y z
#
# Youngs Moduli (GPa) = 88.66671 114.75256 91.15026
#
# Poissons Ratio (x) = 0.53945 -0.06623
# Poissons Ratio (y) = 0.41682 0.37355
# Poissons Ratio (z) = -0.06443 0.47027
#
# Static dielectric constant tensor:
#      x y z
#    x 2.026390 -0.096200 -0.038250 
#    y -0.096200 2.009570 0.054140 
#    z -0.038250 0.054140 2.053280 
# 
# From -- ./inp_files/339684.got.cif
#   From: 2010.05.17/outbox.cif.g08.bks.cpg/sg2_170_cif.got.tgz:339684.got - 2010.06.03 11:33:40.
