data_PCOD9067544
_publ_section_title
;
Structure prediction by ZEFSAII (Michael W. Deem and Ramdas Pophale) SiO2 
 PCOD9067544
Probable space group: P -1
;
_chemical_formula_sum "Si O2"
_cell_formula_units_Z 13
_cell_length_a 16.753690
_cell_length_b 12.093806
_cell_length_c 15.669919
_cell_angle_alpha 147.094985
_cell_angle_beta 163.328064
_cell_angle_gamma 31.255678
_cell_volume 468.044923
_symmetry_space_group_name_H-M "P -1"
_symmetry_group_IT_number 2
_symmetry_cell_setting 'triclinic'
loop_
_space_group_symop_operation_xyz
x,y,z
-x,-y,-z
loop_
_atom_site_type_symbol
_atom_site_label
_atom_site_fract_x
_atom_site_fract_y
_atom_site_fract_z
Si Si1 0.932837 0.646414 0.206600
Si Si2 0.558170 0.395256 0.730279
Si Si3 0.300929 0.460047 0.693764
Si Si4 0.000000 0.500000 0.000000
Si Si5 0.799459 0.934718 0.006887
Si Si6 0.217577 0.119017 0.631278
Si Si7 0.088799 0.050608 0.218219
O O1 0.784485 0.845613 0.246811
O O2 0.283705 0.585158 0.534906
O O3 0.837830 0.652572 0.015813
O O4 0.844591 0.457150 0.041042
O O5 0.501419 0.397118 0.773872
O O6 0.620412 0.156634 0.603103
O O7 0.969670 0.328789 0.473439
O O8 0.167102 0.267687 0.447713
O O9 0.500000 0.500000 0.000000
O O10 0.823213 0.687290 0.874129
O O11 0.856173 0.028689 0.035452
O O12 0.097181 0.925843 0.358672
O O13 0.520662 0.082560 0.869049
O O14 0.000000 0.000000 0.000000
#
# Coordination Sequence:
#
# PCOD9067544 Si02
#       7
#     2   2   2   1   2   2   2
#     4  11  26  52  83 115 161 208 278 342 424 483
#     4  11  25  50  77 119 163 216 269 347 399 501
#     4  11  28  49  84 123 175 228 277 337 426 506
#     4  12  30  56  90 118 154 220 282 362 414 500
#     4  12  31  52  86 119 164 220 287 344 422 499
#     4  11  28  53  78 122 172 213 274 354 417 508
#     4  12  28  51  83 124 170 228 279 342 417 511
#
# _framework density 27.775112
#
# number of rings (size 3 to 8) (size 9 to 14) (size 15 to 20)
#    0.000    0.615    1.538    4.154    8.615    4.923 
#    2.769    0.000    0.000    0.000    0.000    0.000 
#    0.000    0.000    0.000    0.000    0.000    0.000 
#
# Total GULP energy -72750.397212 kJ/mol
# GULP energy per Si atom -5596.184401 kJ/mol
# Density = 2.771189 g / cm^3
# Si number density = 27.775112 Si / 1000 Ang^3
#
#
#
# Elastic Constant Matrix: (Units=GPa)
#
#
# Indices 1 2 3 4 5 6 
#
# 1 234.7954 20.9225 53.3723 -18.3638 -3.2581 -29.6203
# 2 20.9225 86.2834 19.4910 -24.3814 2.2742 2.0234
# 3 53.3723 19.4910 110.5401 -15.5746 4.3224 -3.5920
# 4 -18.3638 -24.3814 -15.5746 28.3804 -12.1071 4.7023
# 5 -3.2581 2.2742 4.3224 -12.1071 41.9656 -6.1282
# 6 -29.6203 2.0234 -3.5920 4.7023 -6.1282 49.8162
#
#
#
# Elastic Compliance Matrix: (Units=1/GPa)
#
#
# Indices 1 2 3 4 5 6 
#
# 1 0.005369 -0.000282 -0.002192 0.002275 0.001759 0.003048
# 2 -0.000282 0.015971 -0.000783 0.014776 0.003182 -0.001876
# 3 -0.002192 -0.000783 0.010767 0.003857 -0.000254 -0.000890
# 4 0.002275 0.014776 0.003857 0.058557 0.015494 -0.002591
# 5 0.001759 0.003182 -0.000254 0.015494 0.028723 0.002969
# 6 0.003048 -0.001876 -0.000890 -0.002591 0.002969 0.022508
#
#
# Mechanical properties :
#
#
# Convention : Reuss Voigt Hill
#
# Bulk Modulus (GPa) = 39.07385 68.79895 53.93640
# Shear Modulus (GPa) = 31.85927 46.55465 39.20696
#
# Velocity S-wave (km/s) = 3.39048 4.09850 3.76118
# Velocity P-wave (km/s) = 5.42454 6.87173 6.19057
#
# Compressibility (1/GPa) = 0.02559256
#
# Stress axis : x y z
#
# Youngs Moduli (GPa) = 186.24796 62.61538 92.87307
#
# Poissons Ratio (x) = 0.01765 0.20358
# Poissons Ratio (y) = 0.05250 0.07276
# Poissons Ratio (z) = 0.40825 0.04905
#
# Static dielectric constant tensor:
#      x y z
#    x 2.185740 0.011730 -0.091780 
#    y 0.011730 2.318090 0.017260 
#    z -0.091780 0.017260 2.233690 
# 
# From -- ./inp_files/532093.got.cif
#   From: 2010.05.17/outbox.cif.g08.bks.cpg/sg2_267_cif.got.tgz:532093.got - 2010.06.03 11:33:40.
