data_PCOD9067467
_publ_section_title
;
Structure prediction by ZEFSAII (Michael W. Deem and Ramdas Pophale) SiO2 
 PCOD9067467
Probable space group: P -1
;
_chemical_formula_sum "Si O2"
_cell_formula_units_Z 12
_cell_length_a 11.162628
_cell_length_b 7.988954
_cell_length_c 7.909056
_cell_angle_alpha 118.081884
_cell_angle_beta 46.660836
_cell_angle_gamma 98.192294
_cell_volume 434.296094
_symmetry_space_group_name_H-M "P -1"
_symmetry_group_IT_number 2
_symmetry_cell_setting 'triclinic'
loop_
_space_group_symop_operation_xyz
x,y,z
-x,-y,-z
loop_
_atom_site_type_symbol
_atom_site_label
_atom_site_fract_x
_atom_site_fract_y
_atom_site_fract_z
Si Si1 0.777973 0.634525 0.906830
Si Si2 0.812108 0.947247 0.432774
Si Si3 0.321103 0.652315 0.707749
Si Si4 0.000000 0.500000 0.000000
Si Si5 0.323228 0.021067 0.081877
Si Si6 0.500000 0.000000 0.500000
Si Si7 0.878519 0.294558 0.404163
O O1 0.809114 0.417314 0.698561
O O2 0.963148 0.641593 0.805773
O O3 0.759064 0.764650 0.813908
O O4 0.622327 0.768707 0.226665
O O5 0.868342 0.713794 0.278503
O O6 0.791353 0.024808 0.680793
O O7 0.637005 0.012868 0.525467
O O8 0.933490 0.061355 0.277214
O O9 0.500000 0.500000 0.500000
O O10 0.269570 0.652667 0.563851
O O11 0.342107 0.868685 0.836046
O O12 0.166677 0.595135 0.923338
O O13 0.500000 0.000000 0.000000
#
# Coordination Sequence:
#
# PCOD9067467 Si02
#       7
#     2   2   2   1   2   1   2
#     4  11  25  49  79 114 165 208 271 334 411 491
#     4  12  28  48  80 115 157 210 269 331 412 487
#     4  12  28  50  83 116 165 212 274 337 412 487
#     4  12  28  50  78 122 158 216 268 334 414 490
#     4  12  25  50  76 118 158 214 267 337 408 490
#     4  12  26  44  78 114 156 208 262 338 388 486
#     4  11  27  52  80 117 159 218 269 339 411 495
#
# _framework density 27.630917
#
# number of rings (size 3 to 8) (size 9 to 14) (size 15 to 20)
#    0.000    0.333    1.667    6.000    2.333   10.667 
#    0.000    0.000    0.000    0.000    0.000    0.000 
#    0.000    0.000    0.000    0.000    0.000    0.000 
#
# Total GULP energy -66903.581589 kJ/mol
# GULP energy per Si atom -5575.298466 kJ/mol
# Density = 2.756803 g / cm^3
# Si number density = 27.630917 Si / 1000 Ang^3
#
#
#
# Elastic Constant Matrix: (Units=GPa)
#
#
# Indices 1 2 3 4 5 6 
#
# 1 169.1518 -4.0610 38.6262 8.2397 -16.8202 10.8571
# 2 -4.0610 100.0729 4.1344 24.7185 -3.4104 22.6721
# 3 38.6262 4.1344 119.0023 21.3908 5.7293 2.2580
# 4 8.2397 24.7185 21.3908 54.9817 -2.8648 1.7040
# 5 -16.8202 -3.4104 5.7293 -2.8648 69.9731 5.5667
# 6 10.8571 22.6721 2.2580 1.7040 5.5667 33.0137
#
#
#
# Elastic Compliance Matrix: (Units=1/GPa)
#
#
# Indices 1 2 3 4 5 6 
#
# 1 0.006912 0.001350 -0.002230 -0.000558 0.002156 -0.003383
# 2 0.001350 0.013856 0.000304 -0.006164 0.001512 -0.009917
# 3 -0.002230 0.000304 0.009852 -0.003723 -0.001504 0.000297
# 4 -0.000558 -0.006164 -0.003723 0.022412 0.000515 0.003427
# 5 0.002156 0.001512 -0.001504 0.000515 0.015366 -0.004262
# 6 -0.003383 -0.009917 0.000297 0.003427 -0.004262 0.038735
#
#
# Mechanical properties :
#
#
# Convention : Reuss Voigt Hill
#
# Bulk Modulus (GPa) = 33.93429 51.73625 42.83527
# Shear Modulus (GPa) = 42.33428 54.89553 48.61491
#
# Velocity S-wave (km/s) = 3.91850 4.46213 4.19912
# Velocity P-wave (km/s) = 5.72545 6.73143 6.24871
#
# Compressibility (1/GPa) = 0.02946872
#
# Stress axis : x y z
#
# Youngs Moduli (GPa) = 144.67224 72.17260 101.49827
#
# Poissons Ratio (x) = -0.09746 0.22632
# Poissons Ratio (y) = -0.19536 -0.03082
# Poissons Ratio (z) = 0.32258 -0.02191
#
# Static dielectric constant tensor:
#      x y z
#    x 2.074950 0.242660 -0.139170 
#    y 0.242660 3.660590 -0.685110 
#    z -0.139170 -0.685110 2.351580 
# 
# From -- ./inp_files/150605.got.cif
#   From: 2010.05.17/outbox.cif.g08.bks.cpg/sg2_76_cif.got.tgz:150605.got - 2010.06.03 11:33:40.
