data_PCOD9067268
_publ_section_title
;
Structure prediction by ZEFSAII (Michael W. Deem and Ramdas Pophale) SiO2 
 PCOD9067268
Probable space group: P -1
;
_chemical_formula_sum "Si O2"
_cell_formula_units_Z 12
_cell_length_a 9.817740
_cell_length_b 4.838811
_cell_length_c 12.632683
_cell_angle_alpha 91.922973
_cell_angle_beta 58.837463
_cell_angle_gamma 75.536832
_cell_volume 487.566437
_symmetry_space_group_name_H-M "P -1"
_symmetry_group_IT_number 2
_symmetry_cell_setting 'triclinic'
loop_
_space_group_symop_operation_xyz
x,y,z
-x,-y,-z
loop_
_atom_site_type_symbol
_atom_site_label
_atom_site_fract_x
_atom_site_fract_y
_atom_site_fract_z
Si Si1 0.238736 0.526103 0.821565
Si Si2 0.415026 0.915580 0.249549
Si Si3 0.843920 0.118171 0.334204
Si Si4 0.925886 0.293875 0.895947
Si Si5 0.635349 0.566212 0.870597
Si Si6 0.161811 0.371212 0.508368
O O1 0.273955 0.714263 0.712177
O O2 0.151387 0.176041 0.611987
O O3 0.092469 0.382882 0.853030
O O4 0.169636 0.717591 0.956508
O O5 0.592114 0.724663 0.221479
O O6 0.434155 0.118447 0.148099
O O7 0.304537 0.148969 0.378898
O O8 0.328307 0.682477 0.238322
O O9 0.813625 0.346903 0.443734
O O10 0.016873 0.007195 0.196061
O O11 0.798798 0.523660 0.874266
O O12 0.500000 0.500000 0.000000
O O13 0.000000 0.500000 0.500000
#
# Coordination Sequence:
#
# PCOD9067268 Si02
#       6
#     2   2   2   2   2   2
#     4  11  27  46  76 112 151 194 239 314 368 439
#     4  12  28  49  74 115 149 189 254 300 369 430
#     4  12  25  48  73 105 144 201 245 288 376 432
#     4  11  25  48  76 108 154 190 251 297 377 431
#     4  12  26  47  77 110 147 192 244 306 365 437
#     4  12  26  49  75 104 147 198 246 304 354 444
#
# _framework density 24.612027000000001
#
# number of rings (size 3 to 8) (size 9 to 14) (size 15 to 20)
#    0.000    0.333    3.333    4.500    4.667    2.667 
#    0.000    0.000    0.000    0.000    0.000    0.000 
#    0.000    0.000    0.000    0.000    0.000    0.000 
#
# Total GULP energy -67177.280822 kJ/mol
# GULP energy per Si atom -5598.106735 kJ/mol
# Density = 2.455601 g / cm^3
# Si number density = 24.612027 Si / 1000 Ang^3
#
#
#
# Elastic Constant Matrix: (Units=GPa)
#
#
# Indices 1 2 3 4 5 6 
#
# 1 109.7863 11.7617 12.0797 -10.4506 2.1116 -35.9542
# 2 11.7617 100.2423 6.4729 -17.4422 3.7190 -24.9469
# 3 12.0797 6.4729 132.4212 16.9683 3.7595 -17.6655
# 4 -10.4506 -17.4422 16.9683 54.8606 -15.9460 8.7054
# 5 2.1116 3.7190 3.7595 -15.9460 21.8888 -2.2229
# 6 -35.9542 -24.9469 -17.6655 8.7054 -2.2229 54.2099
#
#
#
# Elastic Compliance Matrix: (Units=1/GPa)
#
#
# Indices 1 2 3 4 5 6 
#
# 1 0.011763 0.000842 -0.000282 0.001549 0.000699 0.007877
# 2 0.000842 0.011802 -0.000424 0.003514 0.001088 0.005332
# 3 -0.000282 -0.000424 0.008729 -0.004677 -0.004500 0.003029
# 4 0.001549 0.003514 -0.004677 0.027172 0.019604 -0.002439
# 5 0.000699 0.001088 -0.004500 0.019604 0.060368 -0.001175
# 6 0.007877 0.005332 0.003029 -0.002439 -0.001175 0.027456
#
#
# Mechanical properties :
#
#
# Convention : Reuss Voigt Hill
#
# Bulk Modulus (GPa) = 30.70454 44.78647 37.74551
# Shear Modulus (GPa) = 31.67089 47.00089 39.33589
#
# Velocity S-wave (km/s) = 3.59110 4.37472 4.00213
# Velocity P-wave (km/s) = 5.44951 6.61469 6.06017
#
# Compressibility (1/GPa) = 0.03256847
#
# Stress axis : x y z
#
# Youngs Moduli (GPa) = 85.01104 84.72834 114.55771
#
# Poissons Ratio (x) = -0.07134 0.03226
# Poissons Ratio (y) = -0.07158 0.04852
# Poissons Ratio (z) = 0.02394 0.03589
#
# Static dielectric constant tensor:
#      x y z
#    x 1.994690 0.013030 0.016780 
#    y 0.013030 1.976750 -0.029200 
#    z 0.016780 -0.029200 2.010620 
# 
# From -- ./inp_files/372626.got.cif
#   From: 2010.05.17/outbox.cif.g08.bks.cpg/sg2_187_cif.got.tgz:372626.got - 2010.06.03 11:33:40.
