data_PCOD9067836
_publ_section_title
;
Structure prediction by ZEFSAII (Michael W. Deem and Ramdas Pophale) SiO2 
 PCOD9067836
Probable space group: P -1
;
_chemical_formula_sum "Si O2"
_cell_formula_units_Z 15
_cell_length_a 8.710462
_cell_length_b 5.178228
_cell_length_c 20.305779
_cell_angle_alpha 67.688171
_cell_angle_beta 51.997558
_cell_angle_gamma 85.521271
_cell_volume 652.273686
_symmetry_space_group_name_H-M "P -1"
_symmetry_group_IT_number 2
_symmetry_cell_setting 'triclinic'
loop_
_space_group_symop_operation_xyz
x,y,z
-x,-y,-z
loop_
_atom_site_type_symbol
_atom_site_label
_atom_site_fract_x
_atom_site_fract_y
_atom_site_fract_z
Si Si1 0.605418 0.744071 0.511225
Si Si2 0.267952 0.386824 0.054986
Si Si3 0.171909 0.728065 0.166938
Si Si4 0.877427 0.683882 0.556911
Si Si5 0.661317 0.152155 0.210451
Si Si6 0.000000 0.500000 0.000000
Si Si7 0.412059 0.642103 0.236956
Si Si8 0.767439 0.784760 0.335518
O O1 0.685457 0.727351 0.564053
O O2 0.794552 0.820424 0.403723
O O3 0.435250 0.456524 0.582263
O O4 0.500000 0.000000 0.500000
O O5 0.160263 0.487689 0.137682
O O6 0.194346 0.525506 0.996311
O O7 0.224738 0.045445 0.091775
O O8 0.500000 0.500000 0.000000
O O9 0.347102 0.720793 0.174086
O O10 0.957380 0.696431 0.261601
O O11 0.794649 0.522169 0.660144
O O12 0.000000 0.500000 0.500000
O O13 0.000000 0.000000 0.500000
O O14 0.868617 0.259121 0.107179
O O15 0.560651 0.424441 0.216763
O O16 0.515494 0.907327 0.229995
O O17 0.710231 0.027082 0.280409
#
# Coordination Sequence:
#
# PCOD9067836 Si02
#       8
#     2   2   2   2   2   1   2   2
#     4  11  26  45  76 104 153 196 245 312 370 442
#     4  12  28  50  76 114 150 196 253 316 380 450
#     4  12  27  48  76 108 150 194 248 309 376 448
#     4  12  27  45  71 108 146 193 250 298 371 446
#     4  12  27  49  75 109 148 196 253 306 385 446
#     4  12  28  50  82 110 154 198 254 314 382 452
#     4  12  26  48  75 106 154 195 245 318 371 446
#     4  11  26  47  71 112 147 196 249 307 372 454
#
# _framework density 22.996480999999999
#
# number of rings (size 3 to 8) (size 9 to 14) (size 15 to 20)
#    0.000    0.267    2.667    5.200    9.333    2.133 
#    0.000    0.000    0.000    0.000    0.000    0.000 
#    0.000    0.000    0.000    0.000    0.000    0.000 
#
# Total GULP energy -83647.986546 kJ/mol
# GULP energy per Si atom -5576.532436 kJ/mol
# Density = 2.294414 g / cm^3
# Si number density = 22.996481 Si / 1000 Ang^3
#
#
#
# Elastic Constant Matrix: (Units=GPa)
#
#
# Indices 1 2 3 4 5 6 
#
# 1 106.6169 -8.7136 6.0319 1.5353 15.3854 -21.1680
# 2 -8.7136 55.2721 -3.6941 2.7761 -2.5193 -6.4025
# 3 6.0319 -3.6941 102.9342 -16.2597 -2.5766 -7.2183
# 4 1.5353 2.7761 -16.2597 27.7960 -2.5382 -6.6879
# 5 15.3854 -2.5193 -2.5766 -2.5382 48.8395 -9.8378
# 6 -21.1680 -6.4025 -7.2183 -6.6879 -9.8378 36.2676
#
#
#
# Elastic Compliance Matrix: (Units=1/GPa)
#
#
# Indices 1 2 3 4 5 6 
#
# 1 0.011148 0.002378 -0.000099 0.000445 -0.002077 0.006426
# 2 0.002378 0.019213 0.000942 -0.000096 0.001358 0.005318
# 3 -0.000099 0.000942 0.011332 0.007759 0.001952 0.004324
# 4 0.000445 -0.000096 0.007759 0.043612 0.004771 0.011124
# 5 -0.002077 0.001358 0.001952 0.004771 0.022859 0.006496
# 6 0.006426 0.005318 0.004324 0.011124 0.006496 0.036936
#
#
# Mechanical properties :
#
#
# Convention : Reuss Voigt Hill
#
# Bulk Modulus (GPa) = 20.77449 28.00796 24.39122
# Shear Modulus (GPa) = 32.31971 40.66054 36.49013
#
# Velocity S-wave (km/s) = 3.75296 4.20946 3.98775
# Velocity P-wave (km/s) = 5.27570 5.98597 5.64202
#
# Compressibility (1/GPa) = 0.04813597
#
# Stress axis : x y z
#
# Youngs Moduli (GPa) = 89.69866 52.04838 88.24346
#
# Poissons Ratio (x) = -0.12378 0.00874
# Poissons Ratio (y) = -0.21332 -0.08312
# Poissons Ratio (z) = 0.00888 -0.04903
#
# Static dielectric constant tensor:
#      x y z
#    x 2.367520 0.410010 0.033400 
#    y 0.410010 2.143750 0.093710 
#    z 0.033400 0.093710 1.861160 
# 
# From -- ./inp_files/105664.got.cif
#   From: 2010.05.17/outbox.cif.g08.bks.cpg/sg2_53_cif.got.tgz:105664.got - 2010.06.03 11:33:40.
