data_PCOD9067245
_publ_section_title
;
Structure prediction by ZEFSAII (Michael W. Deem and Ramdas Pophale) SiO2 
 PCOD9067245
Probable space group: P -1
;
_chemical_formula_sum "Si O2"
_cell_formula_units_Z 14
_cell_length_a 17.718355
_cell_length_b 4.941147
_cell_length_c 8.460714
_cell_angle_alpha 63.409727
_cell_angle_beta 56.032419
_cell_angle_gamma 72.598232
_cell_volume 548.148380
_symmetry_space_group_name_H-M "P -1"
_symmetry_group_IT_number 2
_symmetry_cell_setting 'triclinic'
loop_
_space_group_symop_operation_xyz
x,y,z
-x,-y,-z
loop_
_atom_site_type_symbol
_atom_site_label
_atom_site_fract_x
_atom_site_fract_y
_atom_site_fract_z
Si Si1 0.921924 0.791427 0.700019
Si Si2 0.431533 0.978807 0.729306
Si Si3 0.560639 0.709363 0.062551
Si Si4 0.059022 0.390321 0.810509
Si Si5 0.821721 0.183032 0.263595
Si Si6 0.754519 0.724573 0.687195
Si Si7 0.775199 0.136122 0.984610
O O1 0.847890 0.781650 0.652522
O O2 0.986126 0.489519 0.734358
O O3 0.000000 0.000000 0.500000
O O4 0.862278 0.916706 0.888770
O O5 0.453356 0.640815 0.868937
O O6 0.321738 0.998348 0.830782
O O7 0.500000 0.000000 0.500000
O O8 0.448074 0.259502 0.748442
O O9 0.662241 0.785252 0.875544
O O10 0.500000 0.000000 0.000000
O O11 0.093838 0.053425 0.816777
O O12 0.148888 0.578551 0.700065
O O13 0.000000 0.500000 0.000000
O O14 0.752387 0.951451 0.481886
O O15 0.792641 0.300587 0.090805
O O16 0.761994 0.356596 0.788733
#
# Coordination Sequence:
#
# PCOD9067245 Si02
#       7
#     2   2   2   2   2   2   2
#     4  12  23  42  68  95 145 190 234 290 353 412
#     4  11  25  48  75 109 143 188 235 296 375 434
#     4  11  25  48  75 108 147 181 236 305 362 434
#     4  12  25  42  65  97 138 182 240 292 342 410
#     4  12  27  44  69 102 136 189 244 286 352 417
#     4  11  26  46  70 104 143 187 241 290 361 424
#     4  11  26  46  71 101 146 186 237 301 348 428
#
# _framework density 25.540531000000001
#
# number of rings (size 3 to 8) (size 9 to 14) (size 15 to 20)
#    0.000    0.571    4.286    3.000    4.000    1.143 
#    2.571    0.000    0.000    0.000    0.000    0.000 
#    0.000    0.000    0.000    0.000    0.000    0.000 
#
# Total GULP energy -78116.765328 kJ/mol
# GULP energy per Si atom -5579.768952 kJ/mol
# Density = 2.548240 g / cm^3
# Si number density = 25.540531 Si / 1000 Ang^3
#
#
#
# Elastic Constant Matrix: (Units=GPa)
#
#
# Indices 1 2 3 4 5 6 
#
# 1 52.2307 32.4970 1.9430 -2.3420 -8.0632 -7.0286
# 2 32.4970 109.7035 11.8448 4.4398 -14.9357 0.9854
# 3 1.9430 11.8448 147.4224 5.6687 -19.5952 -1.5391
# 4 -2.3420 4.4398 5.6687 40.2314 -6.5474 -5.2438
# 5 -8.0632 -14.9357 -19.5952 -6.5474 32.8909 5.1151
# 6 -7.0286 0.9854 -1.5391 -5.2438 5.1151 44.1433
#
#
#
# Elastic Compliance Matrix: (Units=1/GPa)
#
#
# Indices 1 2 3 4 5 6 
#
# 1 0.024749 -0.007129 0.000589 0.003200 0.003175 0.004133
# 2 -0.007129 0.011807 -0.000367 -0.001365 0.003430 -0.001971
# 3 0.000589 -0.000367 0.007393 -0.000282 0.004354 -0.000178
# 4 0.003200 -0.001365 -0.000282 0.026415 0.004771 0.003115
# 5 0.003175 0.003430 0.004354 0.004771 0.036767 -0.003113
# 6 0.004133 -0.001971 -0.000178 0.003115 -0.003113 0.024080
#
#
# Mechanical properties :
#
#
# Convention : Reuss Voigt Hill
#
# Bulk Modulus (GPa) = 33.18512 44.65845 38.92179
# Shear Modulus (GPa) = 32.24337 40.99125 36.61731
#
# Velocity S-wave (km/s) = 3.55694 4.01053 3.79052
# Velocity P-wave (km/s) = 5.46721 6.24252 5.86768
#
# Compressibility (1/GPa) = 0.03013399
#
# Stress axis : x y z
#
# Youngs Moduli (GPa) = 40.40506 84.69623 135.27056
#
# Poissons Ratio (x) = 0.60383 -0.07964
# Poissons Ratio (y) = 0.28806 0.04962
# Poissons Ratio (z) = -0.02379 0.03107
#
# Static dielectric constant tensor:
#      x y z
#    x 2.111950 0.000830 0.050990 
#    y 0.000830 2.017370 -0.090880 
#    z 0.050990 -0.090880 2.086580 
# 
# From -- ./inp_files/44160.got.cif
#   From: 2010.05.17/outbox.cif.g08.bks.cpg/sg2_23_cif.got.tgz:44160.got - 2010.06.03 11:33:40.
