data_PCOD9067627
_publ_section_title
;
Structure prediction by ZEFSAII (Michael W. Deem and Ramdas Pophale) SiO2 
 PCOD9067627
Probable space group: P -1
;
_chemical_formula_sum "Si O2"
_cell_formula_units_Z 16
_cell_length_a 14.420630
_cell_length_b 16.951927
_cell_length_c 6.835668
_cell_angle_alpha 97.818047
_cell_angle_beta 92.926066
_cell_angle_gamma 153.286393
_cell_volume 686.066297
_symmetry_space_group_name_H-M "P -1"
_symmetry_group_IT_number 2
_symmetry_cell_setting 'triclinic'
loop_
_space_group_symop_operation_xyz
x,y,z
-x,-y,-z
loop_
_atom_site_type_symbol
_atom_site_label
_atom_site_fract_x
_atom_site_fract_y
_atom_site_fract_z
Si Si1 0.900296 0.794175 0.395945
Si Si2 0.535425 0.766615 0.941450
Si Si3 0.834775 0.095127 0.779700
Si Si4 0.495292 0.854126 0.325072
Si Si5 0.768995 0.543125 0.528603
Si Si6 0.304260 0.841083 0.083623
Si Si7 0.356426 0.248400 0.684059
Si Si8 0.047359 0.467521 0.342712
O O1 0.853722 0.697521 0.536722
O O2 0.708221 0.709798 0.327164
O O3 0.928986 0.759777 0.197553
O O4 0.134606 0.026174 0.515444
O O5 0.338851 0.581265 0.718961
O O6 0.712913 0.941685 0.867089
O O7 0.486351 0.799120 0.102159
O O8 0.609352 0.753518 0.089834
O O9 0.807388 0.162343 0.879178
O O10 0.716719 0.012840 0.526338
O O11 0.420946 0.885831 0.286317
O O12 0.304326 0.672649 0.384454
O O13 0.573675 0.398450 0.623944
O O14 0.971406 0.639919 0.634163
O O15 0.108954 0.638555 0.893948
O O16 0.500000 0.000000 0.000000
O O17 0.000000 0.500000 0.500000
#
# Coordination Sequence:
#
# PCOD9067627 Si02
#       8
#     2   2   2   2   2   2   2   2
#     4  11  26  46  76 106 141 190 241 300 364 422
#     4  12  22  46  74  97 147 190 229 297 365 415
#     4  12  25  46  69 109 139 186 241 297 351 424
#     4  12  24  48  66  97 149 189 227 296 355 420
#     4  12  26  47  73 106 147 189 240 297 354 432
#     4  12  27  41  71 102 137 186 238 283 355 429
#     4  11  25  52  71 103 147 188 238 306 362 420
#     4  12  26  45  69 105 142 189 236 290 352 421
#
# _framework density 23.321363000000002
#
# number of rings (size 3 to 8) (size 9 to 14) (size 15 to 20)
#    0.000    0.250    6.250    2.625    7.000    1.000 
#    0.000    0.000    0.000    0.000    0.000    0.000 
#    0.000    0.000    0.000    0.000    0.000    0.000 
#
# Total GULP energy -89446.805541 kJ/mol
# GULP energy per Si atom -5590.425346 kJ/mol
# Density = 2.326828 g / cm^3
# Si number density = 23.321363 Si / 1000 Ang^3
#
#
#
# Elastic Constant Matrix: (Units=GPa)
#
#
# Indices 1 2 3 4 5 6 
#
# 1 195.3409 42.0023 62.6280 -22.0785 0.7456 -3.7395
# 2 42.0023 75.5563 15.5273 -28.0842 -3.4301 -7.0266
# 3 62.6280 15.5273 107.4791 -8.6867 0.8806 1.9110
# 4 -22.0785 -28.0842 -8.6867 30.4389 -4.7674 6.6295
# 5 0.7456 -3.4301 0.8806 -4.7674 35.0203 -12.3289
# 6 -3.7395 -7.0266 1.9110 6.6295 -12.3289 36.9615
#
#
#
# Elastic Compliance Matrix: (Units=1/GPa)
#
#
# Indices 1 2 3 4 5 6 
#
# 1 0.007003 -0.002514 -0.003581 0.001711 -0.000039 0.000096
# 2 -0.002514 0.022228 -0.000306 0.018948 0.005694 0.002488
# 3 -0.003581 -0.000306 0.011512 0.000597 -0.000631 -0.001333
# 4 0.001711 0.018948 0.000597 0.053699 0.007979 -0.003226
# 5 -0.000039 0.005694 -0.000631 0.007979 0.034108 0.011057
# 6 0.000096 0.002488 -0.001333 -0.003226 0.011057 0.031874
#
#
# Mechanical properties :
#
#
# Convention : Reuss Voigt Hill
#
# Bulk Modulus (GPa) = 35.78784 68.74349 52.26567
# Shear Modulus (GPa) = 27.39141 37.69873 32.54507
#
# Velocity S-wave (km/s) = 3.43085 4.02492 3.73970
# Velocity P-wave (km/s) = 5.57433 7.15126 6.41146
#
# Compressibility (1/GPa) = 0.02794245
#
# Stress axis : x y z
#
# Youngs Moduli (GPa) = 142.79152 44.98770 86.86647
#
# Poissons Ratio (x) = 0.11310 0.31104
# Poissons Ratio (y) = 0.35898 0.02657
# Poissons Ratio (z) = 0.51129 0.01376
#
# Static dielectric constant tensor:
#      x y z
#    x 1.900270 -0.112410 -0.031720 
#    y -0.112410 1.936000 0.013020 
#    z -0.031720 0.013020 1.914850 
# 
# From -- ./inp_files/99830.got.cif
#   From: 2010.05.17/outbox.cif.g08.bks.cpg/sg2_50_cif.got.tgz:99830.got - 2010.06.03 11:33:40.
