data_PCOD9067029
_publ_section_title
;
Structure prediction by ZEFSAII (Michael W. Deem and Ramdas Pophale) SiO2 
 PCOD9067029
Probable space group: P -1
;
_chemical_formula_sum "Si O2"
_cell_formula_units_Z 15
_cell_length_a 9.796578
_cell_length_b 4.896895
_cell_length_c 13.665958
_cell_angle_alpha 106.254263
_cell_angle_beta 75.420615
_cell_angle_gamma 108.672283
_cell_volume 586.713946
_symmetry_space_group_name_H-M "P -1"
_symmetry_group_IT_number 2
_symmetry_cell_setting 'triclinic'
loop_
_space_group_symop_operation_xyz
x,y,z
-x,-y,-z
loop_
_atom_site_type_symbol
_atom_site_label
_atom_site_fract_x
_atom_site_fract_y
_atom_site_fract_z
Si Si1 0.000000 0.000000 0.000000
Si Si2 0.905520 0.102784 0.667077
Si Si3 0.721520 0.970260 0.189248
Si Si4 0.449687 0.245943 0.600676
Si Si5 0.249333 0.134554 0.133846
Si Si6 0.091217 0.715802 0.659936
Si Si7 0.439362 0.734046 0.094760
Si Si8 0.268056 0.406172 0.476257
O O1 0.892716 0.942131 0.918332
O O2 0.154917 0.117179 0.910136
O O3 0.947643 0.444675 0.668943
O O4 0.794633 0.992964 0.763736
O O5 0.841432 0.895285 0.567496
O O6 0.047699 0.011803 0.672292
O O7 0.641817 0.824591 0.290220
O O8 0.576877 0.945697 0.148392
O O9 0.822258 0.265781 0.251467
O O10 0.353756 0.370992 0.555104
O O11 0.605876 0.477091 0.614305
O O12 0.500000 0.000000 0.500000
O O13 0.324050 0.484039 0.154450
O O14 0.356372 0.929259 0.067030
O O15 0.180368 0.636793 0.545963
O O16 0.500000 0.500000 0.000000
#
# Coordination Sequence:
#
# PCOD9067029 Si02
#       8
#     1   2   2   2   2   2   2   2
#     4  12  28  54  82 120 162 216 266 348 404 482
#     4  12  27  46  78 115 164 207 263 335 405 487
#     4  12  27  52  83 114 164 214 265 341 401 487
#     4  11  25  47  75 115 153 210 270 318 405 484
#     4  12  28  53  79 123 156 216 274 336 410 485
#     4  12  26  47  74 119 157 210 266 323 412 481
#     4  12  28  53  81 115 160 211 282 334 405 476
#     4  11  26  45  76 112 159 210 267 333 399 485
#
# _framework density 25.566122
#
# number of rings (size 3 to 8) (size 9 to 14) (size 15 to 20)
#    0.000    0.267    4.000    3.600    3.733    2.667 
#    0.000    0.000    0.000    0.000    0.000    0.000 
#    0.000    0.000    0.000    0.000    0.000    0.000 
#
# Total GULP energy -83560.614739 kJ/mol
# GULP energy per Si atom -5570.707649 kJ/mol
# Density = 2.550793 g / cm^3
# Si number density = 25.566122 Si / 1000 Ang^3
#
#
#
# Elastic Constant Matrix: (Units=GPa)
#
#
# Indices 1 2 3 4 5 6 
#
# 1 127.1281 43.2800 26.0236 2.5963 2.9028 26.0292
# 2 43.2800 92.6121 22.5739 -11.9241 -8.7705 8.5678
# 3 26.0236 22.5739 111.8547 -28.6617 -10.8476 0.0657
# 4 2.5963 -11.9241 -28.6617 42.2830 20.9709 -0.8581
# 5 2.9028 -8.7705 -10.8476 20.9709 52.3491 -0.4007
# 6 26.0292 8.5678 0.0657 -0.8581 -0.4007 42.7798
#
#
#
# Elastic Compliance Matrix: (Units=1/GPa)
#
#
# Indices 1 2 3 4 5 6 
#
# 1 0.011302 -0.004591 -0.002692 -0.003674 -0.000528 -0.006032
# 2 -0.004591 0.013622 -0.000798 0.003006 0.001168 0.000137
# 3 -0.002692 -0.000798 0.011797 0.008422 -0.000899 0.001940
# 4 -0.003674 0.003006 0.008422 0.036506 -0.012155 0.002239
# 5 -0.000528 0.001168 -0.000899 -0.012155 0.024011 0.000070
# 6 -0.006032 0.000137 0.001940 0.002239 0.000070 0.027061
#
#
# Mechanical properties :
#
#
# Convention : Reuss Voigt Hill
#
# Bulk Modulus (GPa) = 48.63547 57.26109 52.94828
# Shear Modulus (GPa) = 33.94104 43.46354 38.70229
#
# Velocity S-wave (km/s) = 3.64755 4.12763 3.89499
# Velocity P-wave (km/s) = 6.06664 6.72029 6.40182
#
# Compressibility (1/GPa) = 0.02056112
#
# Stress axis : x y z
#
# Youngs Moduli (GPa) = 88.47913 73.40832 84.76486
#
# Poissons Ratio (x) = 0.33699 0.22820
# Poissons Ratio (y) = 0.40617 0.06761
# Poissons Ratio (z) = 0.23820 0.05855
#
# Static dielectric constant tensor:
#      x y z
#    x 2.083460 0.068250 -0.136680 
#    y 0.068250 2.058010 -0.059880 
#    z -0.136680 -0.059880 2.096020 
# 
# From -- ./inp_files/487886.got.cif
#   From: 2010.05.17/outbox.cif.g08.bks.cpg/sg2_244_cif.got.tgz:487886.got - 2010.06.03 11:33:40.
