data_PCOD9067063
_publ_section_title
;
Structure prediction by ZEFSAII (Michael W. Deem and Ramdas Pophale) SiO2 
 PCOD9067063
Probable space group: P -1
;
_chemical_formula_sum "Si O2"
_cell_formula_units_Z 12
_cell_length_a 9.561896
_cell_length_b 9.197607
_cell_length_c 8.509422
_cell_angle_alpha 66.165703
_cell_angle_beta 110.592105
_cell_angle_gamma 133.780264
_cell_volume 491.289161
_symmetry_space_group_name_H-M "P -1"
_symmetry_group_IT_number 2
_symmetry_cell_setting 'triclinic'
loop_
_space_group_symop_operation_xyz
x,y,z
-x,-y,-z
loop_
_atom_site_type_symbol
_atom_site_label
_atom_site_fract_x
_atom_site_fract_y
_atom_site_fract_z
Si Si1 0.202160 0.930159 0.384657
Si Si2 0.261412 0.663163 0.705724
Si Si3 0.337623 0.378935 0.281590
Si Si4 0.246210 0.379944 0.605306
Si Si5 0.985921 0.658774 0.014044
Si Si6 0.393429 0.024252 0.089201
O O1 0.234049 0.828799 0.584230
O O2 0.303645 0.921740 0.274051
O O3 0.971074 0.813906 0.344151
O O4 0.306846 0.169521 0.347470
O O5 0.283955 0.585180 0.586732
O O6 0.427797 0.752535 0.864401
O O7 0.071658 0.448273 0.792744
O O8 0.272196 0.383316 0.428468
O O9 0.565611 0.581277 0.262835
O O10 0.190704 0.359343 0.113102
O O11 0.000000 0.500000 0.000000
O O12 0.180115 0.898421 0.980299
O O13 0.500000 0.000000 0.000000
#
# Coordination Sequence:
#
# PCOD9067063 Si02
#       6
#     2   2   2   2   2   2
#     4  12  26  49  77 112 151 196 254 310 368 445
#     4  12  26  47  78 109 147 200 251 303 374 448
#     4  11  28  48  75 112 153 196 249 312 374 442
#     4  11  25  47  77 110 150 199 250 306 373 447
#     4  12  27  49  75 109 153 199 250 309 377 447
#     4  12  27  46  77 112 149 196 253 309 372 442
#
# _framework density 24.425533000000001
#
# number of rings (size 3 to 8) (size 9 to 14) (size 15 to 20)
#    0.000    0.333    5.000    2.500    2.333    4.000 
#    0.000    0.000    0.000    0.000    0.000    0.000 
#    0.000    0.000    0.000    0.000    0.000    0.000 
#
# Total GULP energy -66831.196005 kJ/mol
# GULP energy per Si atom -5569.266334 kJ/mol
# Density = 2.436994 g / cm^3
# Si number density = 24.425533 Si / 1000 Ang^3
#
#
#
# Elastic Constant Matrix: (Units=GPa)
#
#
# Indices 1 2 3 4 5 6 
#
# 1 123.9207 55.9367 59.4038 -5.6719 -19.7955 29.6521
# 2 55.9367 141.5055 35.6575 12.2517 -4.5320 31.1890
# 3 59.4038 35.6575 81.0636 0.3996 -4.9897 -7.6931
# 4 -5.6719 12.2517 0.3996 27.2098 -8.0939 -4.1464
# 5 -19.7955 -4.5320 -4.9897 -8.0939 39.1190 7.9654
# 6 29.6521 31.1890 -7.6931 -4.1464 7.9654 68.7174
#
#
#
# Elastic Compliance Matrix: (Units=1/GPa)
#
#
# Indices 1 2 3 4 5 6 
#
# 1 0.021048 -0.002637 -0.014542 0.007836 0.012242 -0.010460
# 2 -0.002637 0.010264 -0.003001 -0.006033 -0.000939 -0.004112
# 3 -0.014542 -0.003001 0.024930 -0.002527 -0.007314 0.011123
# 4 0.007836 -0.006033 -0.002527 0.044806 0.012139 0.000371
# 5 0.012242 -0.000939 -0.007314 0.012139 0.035062 -0.009007
# 6 -0.010460 -0.004112 0.011123 0.000371 -0.009007 0.023244
#
#
# Mechanical properties :
#
#
# Convention : Reuss Voigt Hill
#
# Bulk Modulus (GPa) = 62.96049 72.05397 67.50723
# Shear Modulus (GPa) = 24.38949 40.04201 32.21575
#
# Velocity S-wave (km/s) = 3.16337 4.05328 3.63566
# Velocity P-wave (km/s) = 6.25900 7.17419 6.73216
#
# Compressibility (1/GPa) = 0.01588298
#
# Stress axis : x y z
#
# Youngs Moduli (GPa) = 47.51084 97.42893 40.11195
#
# Poissons Ratio (x) = 0.25689 0.58330
# Poissons Ratio (y) = 0.12527 0.12037
# Poissons Ratio (z) = 0.69090 0.29237
#
# Static dielectric constant tensor:
#      x y z
#    x 2.037140 -0.000470 -0.030090 
#    y -0.000470 1.944200 0.062020 
#    z -0.030090 0.062020 1.956620 
# 
# From -- ./inp_files/157746.got.cif
#   From: 2010.05.17/outbox.cif.g08.bks.cpg/sg2_79_cif.got.tgz:157746.got - 2010.06.03 11:33:40.
