data_PCOD9067450
_publ_section_title
;
Structure prediction by ZEFSAII (Michael W. Deem and Ramdas Pophale) SiO2 
 PCOD9067450
Probable space group: P -1
;
_chemical_formula_sum "Si O2"
_cell_formula_units_Z 16
_cell_length_a 9.158951
_cell_length_b 14.401441
_cell_length_c 14.835678
_cell_angle_alpha 148.188319
_cell_angle_beta 67.028462
_cell_angle_gamma 91.566892
_cell_volume 739.839257
_symmetry_space_group_name_H-M "P -1"
_symmetry_group_IT_number 2
_symmetry_cell_setting 'triclinic'
loop_
_space_group_symop_operation_xyz
x,y,z
-x,-y,-z
loop_
_atom_site_type_symbol
_atom_site_label
_atom_site_fract_x
_atom_site_fract_y
_atom_site_fract_z
Si Si1 0.488226 0.908987 0.785614
Si Si2 0.739828 0.461457 0.244898
Si Si3 0.906991 0.296747 0.527127
Si Si4 0.469014 0.455871 0.809996
Si Si5 0.504411 0.145018 0.693438
Si Si6 0.155263 0.977085 0.373367
Si Si7 0.179551 0.275453 0.024317
Si Si8 0.287469 0.931278 0.038323
O O1 0.648197 0.653807 0.501171
O O2 0.372191 0.920399 0.911109
O O3 0.329766 0.050537 0.860224
O O4 0.595832 0.018455 0.878693
O O5 0.645595 0.576485 0.265613
O O6 0.682837 0.296381 0.138235
O O7 0.982697 0.313107 0.065762
O O8 0.682518 0.371958 0.648387
O O9 0.887621 0.519285 0.724701
O O10 0.029019 0.144600 0.460197
O O11 0.048279 0.141207 0.281850
O O12 0.510769 0.320775 0.780054
O O13 0.316356 0.721326 0.087957
O O14 0.702783 0.986630 0.577160
O O15 0.500000 0.000000 0.500000
O O16 0.307910 0.270654 0.907920
O O17 0.000000 0.000000 0.500000
#
# Coordination Sequence:
#
# PCOD9067450 Si02
#       8
#     2   2   2   2   2   2   2   2
#     4  11  26  52  73 107 145 184 238 302 353 432
#     4  12  27  47  74 107 144 188 239 296 355 428
#     4  12  24  47  72 104 142 190 236 295 352 431
#     4  12  26  46  69 101 143 189 240 286 355 420
#     4  12  27  43  67 104 142 188 235 293 348 423
#     4  12  24  44  70  97 138 188 240 286 348 419
#     4  12  27  46  71 105 147 185 239 294 358 419
#     4  11  25  49  78 105 143 189 236 293 369 420
#
# _framework density 21.626318999999999
#
# number of rings (size 3 to 8) (size 9 to 14) (size 15 to 20)
#    0.000    0.250    5.000    3.750    7.000    1.500 
#    2.250    0.000    0.000    0.000    0.000    0.000 
#    0.000    0.000    0.000    0.000    0.000    0.000 
#
# Total GULP energy -89605.613189 kJ/mol
# GULP energy per Si atom -5600.350824 kJ/mol
# Density = 2.157710 g / cm^3
# Si number density = 21.626319 Si / 1000 Ang^3
#
#
#
# Elastic Constant Matrix: (Units=GPa)
#
#
# Indices 1 2 3 4 5 6 
#
# 1 145.2324 31.7889 41.0357 -8.8366 -19.3184 4.2124
# 2 31.7889 53.4881 10.8524 -14.2646 -15.3094 17.6210
# 3 41.0357 10.8524 105.2912 -11.6862 -10.0432 6.0719
# 4 -8.8366 -14.2646 -11.6862 39.2030 3.9365 1.4397
# 5 -19.3184 -15.3094 -10.0432 3.9365 44.8406 -1.8418
# 6 4.2124 17.6210 6.0719 1.4397 -1.8418 26.9054
#
#
#
# Elastic Compliance Matrix: (Units=1/GPa)
#
#
# Indices 1 2 3 4 5 6 
#
# 1 0.009043 -0.005690 -0.003115 -0.001228 0.001494 0.003182
# 2 -0.005690 0.034360 0.002012 0.011853 0.007779 -0.022168
# 3 -0.003115 0.002012 0.011211 0.003356 0.001420 -0.003442
# 4 -0.001228 0.011853 0.003356 0.030792 0.001160 -0.009896
# 5 0.001494 0.007779 0.001420 0.001160 0.025654 -0.003955
# 6 0.003182 -0.022168 -0.003442 -0.009896 -0.003955 0.052223
#
#
# Mechanical properties :
#
#
# Convention : Reuss Voigt Hill
#
# Bulk Modulus (GPa) = 24.37440 52.37395 38.37417
# Shear Modulus (GPa) = 26.24051 36.87876 31.55964
#
# Velocity S-wave (km/s) = 3.48711 4.13397 3.82424
# Velocity P-wave (km/s) = 5.24485 6.85978 6.10594
#
# Compressibility (1/GPa) = 0.04102666
#
# Stress axis : x y z
#
# Youngs Moduli (GPa) = 110.58314 29.10368 89.20178
#
# Poissons Ratio (x) = 0.16561 0.27787
# Poissons Ratio (y) = 0.62927 -0.17949
# Poissons Ratio (z) = 0.34448 -0.05856
#
# Static dielectric constant tensor:
#      x y z
#    x 1.796950 0.012410 0.019940 
#    y 0.012410 1.798400 0.009370 
#    z 0.019940 0.009370 1.790020 
# 
# From -- ./inp_files/340282.got.cif
#   From: 2010.05.17/outbox.cif.g08.bks.cpg/sg2_171_cif.got.tgz:340282.got - 2010.06.03 11:33:40.
