data_PCOD9067873
_publ_section_title
;
Structure prediction by ZEFSAII (Michael W. Deem and Ramdas Pophale) SiO2 
 PCOD9067873
Probable space group: P -1
;
_chemical_formula_sum "Si O2"
_cell_formula_units_Z 10
_cell_length_a 5.002199
_cell_length_b 15.256822
_cell_length_c 5.238238
_cell_angle_alpha 92.472045
_cell_angle_beta 93.804546
_cell_angle_gamma 102.494180
_cell_volume 388.763884
_symmetry_space_group_name_H-M "P -1"
_symmetry_group_IT_number 2
_symmetry_cell_setting 'triclinic'
loop_
_space_group_symop_operation_xyz
x,y,z
-x,-y,-z
loop_
_atom_site_type_symbol
_atom_site_label
_atom_site_fract_x
_atom_site_fract_y
_atom_site_fract_z
Si Si1 0.871483 0.733076 0.806781
Si Si2 0.192847 0.011423 0.758450
Si Si3 0.831001 0.466638 0.734443
Si Si4 0.618164 0.636596 0.288392
Si Si5 0.467307 0.851976 0.885621
O O1 0.790626 0.669519 0.550831
O O2 0.705565 0.812026 0.768351
O O3 0.190257 0.776050 0.865481
O O4 0.749224 0.680259 0.046512
O O5 0.374906 0.936342 0.759968
O O6 0.401811 0.107446 0.830538
O O7 0.000000 0.000000 0.500000
O O8 0.000000 0.000000 0.000000
O O9 0.510106 0.471240 0.741568
O O10 0.000000 0.500000 0.500000
O O11 0.000000 0.500000 0.000000
O O12 0.296227 0.642079 0.296438
#
# Coordination Sequence:
#
# PCOD9067873 Si02
#       5
#     2   2   2   2   2
#     4  12  26  44  70  98 148 181 230 281 358 410
#     4  11  26  46  71 101 137 178 254 290 345 411
#     4  12  24  45  74 101 138 179 228 279 338 401
#     4  12  26  45  68 107 138 181 228 279 340 425
#     4  11  26  47  70 103 136 194 232 298 348 411
#
# _framework density 25.722555
#
# number of rings (size 3 to 8) (size 9 to 14) (size 15 to 20)
#    0.000    0.400    2.000    6.000    2.800    6.400 
#    0.000    0.000    0.000    0.000    0.000    0.000 
#    0.000    0.000    0.000    0.000    0.000    0.000 
#
# Total GULP energy -55764.809366 kJ/mol
# GULP energy per Si atom -5576.480937 kJ/mol
# Density = 2.566401 g / cm^3
# Si number density = 25.722555 Si / 1000 Ang^3
#
#
#
# Elastic Constant Matrix: (Units=GPa)
#
#
# Indices 1 2 3 4 5 6 
#
# 1 130.2803 43.1555 73.2649 20.5566 21.8967 3.8597
# 2 43.1555 69.8260 62.6351 24.1556 14.1006 35.8133
# 3 73.2649 62.6351 262.0511 24.8933 18.6899 53.1043
# 4 20.5566 24.1556 24.8933 38.1532 14.4887 18.9908
# 5 21.8967 14.1006 18.6899 14.4887 44.6391 6.4184
# 6 3.8597 35.8133 53.1043 18.9908 6.4184 63.1538
#
#
#
# Elastic Compliance Matrix: (Units=1/GPa)
#
#
# Indices 1 2 3 4 5 6 
#
# 1 0.012146 -0.007081 -0.002580 -0.002569 -0.002741 0.006493
# 2 -0.007081 0.029305 -0.001756 -0.006996 -0.000979 -0.012505
# 3 -0.002580 -0.001756 0.005677 0.000809 -0.000268 -0.003836
# 4 -0.002569 -0.006996 0.000809 0.038212 -0.008234 -0.007209
# 5 -0.002741 -0.000979 -0.000268 -0.008234 0.026739 0.000707
# 6 0.006493 -0.012505 -0.003836 -0.007209 0.000707 0.027851
#
#
# Mechanical properties :
#
#
# Convention : Reuss Voigt Hill
#
# Bulk Modulus (GPa) = 41.16219 91.14091 66.15155
# Shear Modulus (GPa) = 29.26399 48.06268 38.66334
#
# Velocity S-wave (km/s) = 3.37661 4.32731 3.88118
# Velocity P-wave (km/s) = 5.58919 7.77668 6.77184
#
# Compressibility (1/GPa) = 0.02429414
#
# Stress axis : x y z
#
# Youngs Moduli (GPa) = 82.33464 34.12429 176.16276
#
# Poissons Ratio (x) = 0.24162 0.45443
# Poissons Ratio (y) = 0.58298 0.30936
# Poissons Ratio (z) = 0.21239 0.05993
#
# Static dielectric constant tensor:
#      x y z
#    x 1.981370 -0.119770 -0.002970 
#    y -0.119770 2.110960 -0.050640 
#    z -0.002970 -0.050640 1.971540 
# 
# From -- ./inp_files/6773.got.cif
#   From: 2010.05.17/outbox.cif.g08.bks.cpg/sg2_4_cif.got.tgz:6773.got - 2010.06.03 11:33:40.
