data_PCOD9067112
_publ_section_title
;
Structure prediction by ZEFSAII (Michael W. Deem and Ramdas Pophale) SiO2 
 PCOD9067112
Probable space group: P -1
;
_chemical_formula_sum "Si O2"
_cell_formula_units_Z 11
_cell_length_a 8.663731
_cell_length_b 11.736558
_cell_length_c 8.831401
_cell_angle_alpha 40.610333
_cell_angle_beta 107.271432
_cell_angle_gamma 127.286886
_cell_volume 441.412117
_symmetry_space_group_name_H-M "P -1"
_symmetry_group_IT_number 2
_symmetry_cell_setting 'triclinic'
loop_
_space_group_symop_operation_xyz
x,y,z
-x,-y,-z
loop_
_atom_site_type_symbol
_atom_site_label
_atom_site_fract_x
_atom_site_fract_y
_atom_site_fract_z
Si Si1 0.296388 0.249423 0.202164
Si Si2 0.000000 0.500000 0.000000
Si Si3 0.837477 0.954733 0.306660
Si Si4 0.261898 0.827517 0.188311
Si Si5 0.087145 0.382976 0.453829
Si Si6 0.483260 0.878766 0.770117
O O1 0.275123 0.138445 0.470217
O O2 0.342238 0.152195 0.174466
O O3 0.500000 0.500000 0.000000
O O4 0.069053 0.179615 0.187521
O O5 0.971268 0.393384 0.267546
O O6 0.746981 0.343874 0.060258
O O7 0.847454 0.766207 0.430908
O O8 0.753863 0.031463 0.082467
O O9 0.258143 0.633374 0.307511
O O10 0.061036 0.721127 0.340278
O O11 0.444781 0.972430 0.211875
O O12 0.500000 0.000000 0.500000
#
# Coordination Sequence:
#
# PCOD9067112 Si02
#       6
#     2   1   2   2   2   2
#     4  11  26  46  77 115 154 206 259 310 396 469
#     4  12  26  48  80 106 156 204 264 312 388 460
#     4  11  25  51  78 115 161 202 253 331 385 466
#     4  11  26  47  80 117 158 201 262 324 391 457
#     4  11  25  47  80 116 154 206 256 322 388 472
#     4  12  26  50  74 113 151 206 258 318 386 465
#
# _framework density 24.920023
#
# number of rings (size 3 to 8) (size 9 to 14) (size 15 to 20)
#    0.000    0.727    3.636    1.636   10.182    0.727 
#    3.273    1.818    0.000    0.000    0.000    0.000 
#    0.000    0.000    0.000    0.000    0.000    0.000 
#
# Total GULP energy -61366.040162 kJ/mol
# GULP energy per Si atom -5578.730924 kJ/mol
# Density = 2.486330 g / cm^3
# Si number density = 24.920023 Si / 1000 Ang^3
#
#
#
# Elastic Constant Matrix: (Units=GPa)
#
#
# Indices 1 2 3 4 5 6 
#
# 1 97.6488 59.7866 58.4995 -4.4308 -33.7483 -5.4821
# 2 59.7866 175.8943 86.0394 -4.6274 -1.9585 -3.8892
# 3 58.4995 86.0394 146.2341 14.2501 -23.7203 6.4154
# 4 -4.4308 -4.6274 14.2501 51.4143 3.5115 2.8006
# 5 -33.7483 -1.9585 -23.7203 3.5115 43.2024 -8.5361
# 6 -5.4821 -3.8892 6.4154 2.8006 -8.5361 42.4095
#
#
#
# Elastic Compliance Matrix: (Units=1/GPa)
#
#
# Indices 1 2 3 4 5 6 
#
# 1 0.021149 -0.005341 -0.003114 0.000820 0.015650 0.005811
# 2 -0.005341 0.009918 -0.004997 0.002308 -0.006760 -0.000538
# 3 -0.003114 -0.004997 0.012169 -0.004280 0.004053 -0.001603
# 4 0.000820 0.002308 -0.004280 0.021220 -0.003558 -0.001152
# 5 0.015650 -0.006760 0.004053 -0.003558 0.039348 0.008945
# 6 0.005811 -0.000538 -0.001603 -0.001152 0.008945 0.026400
#
#
# Mechanical properties :
#
#
# Convention : Reuss Voigt Hill
#
# Bulk Modulus (GPa) = 61.22833 92.04757 76.63795
# Shear Modulus (GPa) = 30.75913 41.76869 36.26391
#
# Velocity S-wave (km/s) = 3.51709 4.09847 3.81886
# Velocity P-wave (km/s) = 6.41222 7.70805 7.08980
#
# Compressibility (1/GPa) = 0.01633231
#
# Stress axis : x y z
#
# Youngs Moduli (GPa) = 47.28413 100.82210 82.17491
#
# Poissons Ratio (x) = 0.53848 0.25591
# Poissons Ratio (y) = 0.25254 0.41063
# Poissons Ratio (z) = 0.14725 0.50381
#
# Static dielectric constant tensor:
#      x y z
#    x 2.044790 -0.053880 0.060590 
#    y -0.053880 2.023740 -0.121860 
#    z 0.060590 -0.121860 1.969440 
# 
# From -- ./inp_files/173678.got.cif
#   From: 2010.05.17/outbox.cif.g08.bks.cpg/sg2_87_cif.got.tgz:173678.got - 2010.06.03 11:33:40.
