data_PCOD9067078
_publ_section_title
;
Structure prediction by ZEFSAII (Michael W. Deem and Ramdas Pophale) SiO2 
 PCOD9067078
Probable space group: P -1
;
_chemical_formula_sum "Si O2"
_cell_formula_units_Z 14
_cell_length_a 9.875632
_cell_length_b 5.003371
_cell_length_c 26.586168
_cell_angle_alpha 67.576637
_cell_angle_beta 153.770795
_cell_angle_gamma 107.597749
_cell_volume 534.134023
_symmetry_space_group_name_H-M "P -1"
_symmetry_group_IT_number 2
_symmetry_cell_setting 'triclinic'
loop_
_space_group_symop_operation_xyz
x,y,z
-x,-y,-z
loop_
_atom_site_type_symbol
_atom_site_label
_atom_site_fract_x
_atom_site_fract_y
_atom_site_fract_z
Si Si1 0.128467 0.672122 0.076258
Si Si2 0.181900 0.086478 0.860417
Si Si3 0.276896 0.115735 0.699714
Si Si4 0.364664 0.979098 0.625825
Si Si5 0.974511 0.597951 0.684051
Si Si6 0.111999 0.473560 0.193113
Si Si7 0.342842 0.550881 0.515523
O O1 0.492991 0.694337 0.206957
O O2 0.003968 0.546103 0.095355
O O3 0.000000 0.500000 0.000000
O O4 0.000000 0.000000 0.000000
O O5 0.163550 0.327224 0.793670
O O6 0.966390 0.240357 0.821245
O O7 0.068263 0.784860 0.826343
O O8 0.500000 0.000000 0.000000
O O9 0.432868 0.014830 0.705752
O O10 0.943619 0.280318 0.563479
O O11 0.187050 0.847771 0.722797
O O12 0.433884 0.240140 0.593213
O O13 0.541512 0.679718 0.686166
O O14 0.000000 0.000000 0.500000
O O15 0.661717 0.696714 0.604822
O O16 0.818413 0.493935 0.588561
#
# Coordination Sequence:
#
# PCOD9067078 Si02
#       7
#     2   2   2   2   2   2   2
#     4  12  29  51  82 115 160 218 284 358 417 489
#     4  12  29  52  84 112 162 224 282 341 415 498
#     4  12  27  46  81 120 167 221 285 348 429 508
#     4  12  24  46  79 123 169 221 273 342 435 512
#     4  11  27  47  76 123 166 221 283 345 424 501
#     4  12  28  54  77 119 160 213 279 347 415 497
#     4  11  25  47  77 119 173 219 279 344 422 509
#
# _framework density 26.210650000000001
#
# number of rings (size 3 to 8) (size 9 to 14) (size 15 to 20)
#    0.000    0.286    2.857    4.714    8.000    1.143 
#    0.000    0.000    0.000    0.000    0.000    0.000 
#    0.000    0.000    0.000    0.000    0.000    0.000 
#
# Total GULP energy -78523.403704 kJ/mol
# GULP energy per Si atom -5608.814550 kJ/mol
# Density = 2.615099 g / cm^3
# Si number density = 26.210650 Si / 1000 Ang^3
#
#
#
# Elastic Constant Matrix: (Units=GPa)
#
#
# Indices 1 2 3 4 5 6 
#
# 1 117.7073 39.7820 50.1332 -1.3845 -18.1098 2.5113
# 2 39.7820 120.1540 53.8724 -1.7653 -17.8982 21.9450
# 3 50.1332 53.8724 186.3982 -2.5796 -16.5494 6.5957
# 4 -1.3845 -1.7653 -2.5796 61.8342 -2.1173 -6.7722
# 5 -18.1098 -17.8982 -16.5494 -2.1173 56.0642 -8.3485
# 6 2.5113 21.9450 6.5957 -6.7722 -8.3485 53.0529
#
#
#
# Elastic Compliance Matrix: (Units=1/GPa)
#
#
# Indices 1 2 3 4 5 6 
#
# 1 0.010478 -0.002476 -0.001944 0.000285 0.002203 0.001153
# 2 -0.002476 0.011108 -0.002276 -0.000220 0.001472 -0.003991
# 3 -0.001944 -0.002276 0.006594 0.000227 0.000652 0.000345
# 4 0.000285 -0.000220 0.000227 0.016472 0.001056 0.002318
# 5 0.002203 0.001472 0.000652 0.001056 0.019612 0.002427
# 6 0.001153 -0.003991 0.000345 0.002318 0.002427 0.021080
#
#
# Mechanical properties :
#
#
# Convention : Reuss Voigt Hill
#
# Bulk Modulus (GPa) = 67.61655 79.09276 73.35465
# Shear Modulus (GPa) = 48.23274 52.88838 50.56056
#
# Velocity S-wave (km/s) = 4.29440 4.49689 4.39681
# Velocity P-wave (km/s) = 7.10229 7.56333 7.33644
#
# Compressibility (1/GPa) = 0.01478928
#
# Stress axis : x y z
#
# Youngs Moduli (GPa) = 95.43800 90.02852 151.64920
#
# Poissons Ratio (x) = 0.22290 0.29478
# Poissons Ratio (y) = 0.23629 0.34508
# Poissons Ratio (z) = 0.18552 0.20486
#
# Static dielectric constant tensor:
#      x y z
#    x 2.172280 0.031350 0.094520 
#    y 0.031350 2.076010 0.076520 
#    z 0.094520 0.076520 2.062220 
# 
# From -- ./inp_files/616318.got.cif
#   From: 2010.05.17/outbox.cif.g08.bks.cpg/sg2_309_cif.got.tgz:616318.got - 2010.06.03 11:33:40.
