data_PCOD9067266
_publ_section_title
;
Structure prediction by ZEFSAII (Michael W. Deem and Ramdas Pophale) SiO2 
 PCOD9067266
Probable space group: P -1
;
_chemical_formula_sum "Si O2"
_cell_formula_units_Z 12
_cell_length_a 13.480623
_cell_length_b 9.427767
_cell_length_c 12.790835
_cell_angle_alpha 131.915821
_cell_angle_beta 31.786065
_cell_angle_gamma 145.819012
_cell_volume 477.665285
_symmetry_space_group_name_H-M "P -1"
_symmetry_group_IT_number 2
_symmetry_cell_setting 'triclinic'
loop_
_space_group_symop_operation_xyz
x,y,z
-x,-y,-z
loop_
_atom_site_type_symbol
_atom_site_label
_atom_site_fract_x
_atom_site_fract_y
_atom_site_fract_z
Si Si1 0.601834 0.486006 0.269938
Si Si2 0.018242 0.959229 0.844733
Si Si3 0.877101 0.631782 0.295356
Si Si4 0.444545 0.141178 0.050463
Si Si5 0.763934 0.287161 0.427145
Si Si6 0.484425 0.707707 0.151839
O O1 0.769691 0.485483 0.205826
O O2 0.322088 0.334843 0.484320
O O3 0.732919 0.779803 0.294621
O O4 0.564239 0.387870 0.136565
O O5 0.050189 0.752273 0.712850
O O6 0.782668 0.929995 0.006703
O O7 0.000000 0.000000 0.000000
O O8 0.856713 0.461676 0.325194
O O9 0.144283 0.918356 0.196184
O O10 0.500000 0.000000 0.000000
O O11 0.579769 0.214334 0.853933
O O12 0.684704 0.373526 0.635816
O O13 0.500000 0.000000 0.500000
O O14 0.500000 0.500000 0.000000
#
# Coordination Sequence:
#
# PCOD9067266 Si02
#       6
#     2   2   2   2   2   2
#     4  11  25  48  76 107 149 200 254 313 385 450
#     4  12  24  46  79 108 150 201 252 313 383 450
#     4  11  25  49  77 107 149 196 255 317 376 456
#     4  12  29  46  74 111 152 199 252 313 387 455
#     4  12  26  47  79 113 146 202 257 310 384 455
#     4  12  28  51  72 114 160 198 254 318 381 461
#
# _framework density 25.122195000000001
#
# number of rings (size 3 to 8) (size 9 to 14) (size 15 to 20)
#    0.000    0.333    5.000    2.500    7.000    1.333 
#    3.000    0.000    0.000    0.000    0.000    0.000 
#    0.000    0.000    0.000    0.000    0.000    0.000 
#
# Total GULP energy -66942.466211 kJ/mol
# GULP energy per Si atom -5578.538851 kJ/mol
# Density = 2.506502 g / cm^3
# Si number density = 25.122195 Si / 1000 Ang^3
#
#
#
# Elastic Constant Matrix: (Units=GPa)
#
#
# Indices 1 2 3 4 5 6 
#
# 1 159.3246 35.4800 38.2214 -12.3922 27.5742 -17.8412
# 2 35.4800 80.5131 21.0769 -14.0686 18.0094 -4.4064
# 3 38.2214 21.0769 92.4735 -7.9035 5.2250 -0.4561
# 4 -12.3922 -14.0686 -7.9035 39.7437 -2.9797 -4.2477
# 5 27.5742 18.0094 5.2250 -2.9797 47.8929 -3.0158
# 6 -17.8412 -4.4064 -0.4561 -4.2477 -3.0158 43.9086
#
#
#
# Elastic Compliance Matrix: (Units=1/GPa)
#
#
# Indices 1 2 3 4 5 6 
#
# 1 0.008410 -0.001751 -0.002728 0.001523 -0.003595 0.003114
# 2 -0.001751 0.015524 -0.002202 0.004293 -0.004262 0.000946
# 3 -0.002728 -0.002202 0.012450 0.000810 0.001025 -0.001052
# 4 0.001523 0.004293 0.000810 0.027664 -0.000626 0.003691
# 5 -0.003595 -0.004262 0.001025 -0.000626 0.024385 -0.000264
# 6 0.003114 0.000946 -0.001052 0.003691 -0.000264 0.024463
#
#
# Mechanical properties :
#
#
# Convention : Reuss Voigt Hill
#
# Bulk Modulus (GPa) = 43.43941 57.98528 50.71234
# Shear Modulus (GPa) = 37.33210 42.14457 39.73834
#
# Velocity S-wave (km/s) = 3.85908 4.10027 3.98150
# Velocity P-wave (km/s) = 6.09798 6.74891 6.43169
#
# Compressibility (1/GPa) = 0.02302057
#
# Stress axis : x y z
#
# Youngs Moduli (GPa) = 118.90089 64.41719 80.32363
#
# Poissons Ratio (x) = 0.11281 0.21915
# Poissons Ratio (y) = 0.20822 0.17687
# Poissons Ratio (z) = 0.32441 0.14185
#
# Static dielectric constant tensor:
#      x y z
#    x 2.045580 0.023220 0.114000 
#    y 0.023220 1.877490 -0.067680 
#    z 0.114000 -0.067680 1.818600 
# 
# From -- ./inp_files/419650.got.cif
#   From: 2010.05.17/outbox.cif.g08.bks.cpg/sg2_210_cif.got.tgz:419650.got - 2010.06.03 11:33:40.
