data_PCOD9067368
_publ_section_title
;
Structure prediction by ZEFSAII (Michael W. Deem and Ramdas Pophale) SiO2 
 PCOD9067368
Probable space group: P -1
;
_chemical_formula_sum "Si O2"
_cell_formula_units_Z 15
_cell_length_a 9.757137
_cell_length_b 13.986229
_cell_length_c 15.627978
_cell_angle_alpha 28.970725
_cell_angle_beta 55.224586
_cell_angle_gamma 74.206603
_cell_volume 697.092847
_symmetry_space_group_name_H-M "P -1"
_symmetry_group_IT_number 2
_symmetry_cell_setting 'triclinic'
loop_
_space_group_symop_operation_xyz
x,y,z
-x,-y,-z
loop_
_atom_site_type_symbol
_atom_site_label
_atom_site_fract_x
_atom_site_fract_y
_atom_site_fract_z
Si Si1 0.883536 0.744398 0.911299
Si Si2 0.518951 0.695458 0.534180
Si Si3 0.704614 0.547950 0.851686
Si Si4 0.545392 0.933762 0.159773
Si Si5 0.000000 0.000000 0.500000
Si Si6 0.694521 0.116606 0.277502
Si Si7 0.743832 0.490888 0.684341
Si Si8 0.194346 0.928281 0.199082
O O1 0.863026 0.781887 0.789529
O O2 0.105555 0.805831 0.801892
O O3 0.849394 0.912575 0.851341
O O4 0.708134 0.474857 0.214187
O O5 0.622119 0.550409 0.616723
O O6 0.519582 0.786024 0.368647
O O7 0.646441 0.922056 0.374657
O O8 0.889781 0.810650 0.608166
O O9 0.690215 0.525209 0.772458
O O10 0.500000 0.500000 0.000000
O O11 0.729552 0.346210 0.037703
O O12 0.330960 0.863951 0.253115
O O13 0.668547 0.217372 0.915680
O O14 0.674447 0.921495 0.047824
O O15 0.500000 0.000000 0.500000
O O16 0.983313 0.686268 0.436280
#
# Coordination Sequence:
#
# PCOD9067368 Si02
#       8
#     2   2   2   2   1   2   2   2
#     4  12  26  44  72 105 148 190 236 299 361 427
#     4  12  26  45  74 106 145 189 243 294 359 432
#     4  12  26  42  71 101 143 186 232 296 358 420
#     4  11  27  47  75 106 143 194 241 305 357 424
#     4  12  24  44  70 100 136 192 224 288 356 428
#     4  12  26  46  67 107 144 185 244 292 353 436
#     4  12  23  49  72 105 146 190 240 299 359 429
#     4  11  25  49  72 107 146 187 247 297 364 421
#
# _framework density 21.517938000000001
#
# number of rings (size 3 to 8) (size 9 to 14) (size 15 to 20)
#    0.000    0.267    5.333    3.600    1.867    5.333 
#    0.000    0.000    0.000    0.000    0.000    0.000 
#    0.000    0.000    0.000    0.000    0.000    0.000 
#
# Total GULP energy -83794.075668 kJ/mol
# GULP energy per Si atom -5586.271711 kJ/mol
# Density = 2.146896 g / cm^3
# Si number density = 21.517938 Si / 1000 Ang^3
#
#
#
# Elastic Constant Matrix: (Units=GPa)
#
#
# Indices 1 2 3 4 5 6 
#
# 1 95.8992 20.9855 59.1645 12.9837 4.5870 2.2340
# 2 20.9855 70.5357 15.3188 7.4674 7.9467 5.5175
# 3 59.1645 15.3188 110.5235 -0.9975 9.2889 2.6892
# 4 12.9837 7.4674 -0.9975 31.7195 9.4243 -0.9468
# 5 4.5870 7.9467 9.2889 9.4243 53.8623 4.9718
# 6 2.2340 5.5175 2.6892 -0.9468 4.9718 29.9093
#
#
#
# Elastic Compliance Matrix: (Units=1/GPa)
#
#
# Indices 1 2 3 4 5 6 
#
# 1 0.017681 -0.002611 -0.009312 -0.007480 0.001845 -0.000545
# 2 -0.002611 0.015681 -0.000623 -0.002316 -0.001349 -0.002491
# 3 -0.009312 -0.000623 0.014374 0.005158 -0.002505 0.000098
# 4 -0.007480 -0.002316 0.005158 0.037373 -0.006710 0.002821
# 5 0.001845 -0.001349 -0.002505 -0.006710 0.020517 -0.003287
# 6 -0.000545 -0.002491 0.000098 0.002821 -0.003287 0.034562
#
#
# Mechanical properties :
#
#
# Convention : Reuss Voigt Hill
#
# Bulk Modulus (GPa) = 44.16165 51.98845 48.07505
# Shear Modulus (GPa) = 28.93023 35.19754 32.06388
#
# Velocity S-wave (km/s) = 3.67068 4.04880 3.86437
# Velocity P-wave (km/s) = 6.20749 6.78749 6.50396
#
# Compressibility (1/GPa) = 0.02264408
#
# Stress axis : x y z
#
# Youngs Moduli (GPa) = 56.55638 63.77019 69.57044
#
# Poissons Ratio (x) = 0.16653 0.64787
# Poissons Ratio (y) = 0.14769 0.04331
# Poissons Ratio (z) = 0.52668 0.03970
#
# Static dielectric constant tensor:
#      x y z
#    x 1.766480 -0.016120 -0.003270 
#    y -0.016120 1.768290 -0.017900 
#    z -0.003270 -0.017900 1.789860 
# 
# From -- ./inp_files/337505.got.cif
#   From: 2010.05.17/outbox.cif.g08.bks.cpg/sg2_169_cif.got.tgz:337505.got - 2010.06.03 11:33:40.
