data_PCOD9067660
_publ_section_title
;
Structure prediction by ZEFSAII (Michael W. Deem and Ramdas Pophale) SiO2 
 PCOD9067660
Probable space group: P -1
;
_chemical_formula_sum "Si O2"
_cell_formula_units_Z 15
_cell_length_a 9.893362
_cell_length_b 9.931325
_cell_length_c 19.571753
_cell_angle_alpha 28.896486
_cell_angle_beta 41.510150
_cell_angle_gamma 57.774951
_cell_volume 569.144563
_symmetry_space_group_name_H-M "P -1"
_symmetry_group_IT_number 2
_symmetry_cell_setting 'triclinic'
loop_
_space_group_symop_operation_xyz
x,y,z
-x,-y,-z
loop_
_atom_site_type_symbol
_atom_site_label
_atom_site_fract_x
_atom_site_fract_y
_atom_site_fract_z
Si Si1 0.500000 0.000000 0.500000
Si Si2 0.796313 0.805288 0.259423
Si Si3 0.244413 0.109851 0.008593
Si Si4 0.361709 0.782321 0.494934
Si Si5 0.381717 0.354226 0.041812
Si Si6 0.845708 0.248452 0.547148
Si Si7 0.347434 0.520061 0.246268
Si Si8 0.011312 0.775662 0.826124
O O1 0.380097 0.892033 0.515977
O O2 0.262838 0.967165 0.635685
O O3 0.601944 0.905776 0.311719
O O4 0.720414 0.585327 0.320185
O O5 0.810180 0.561485 0.418969
O O6 0.043524 0.055621 0.056678
O O7 0.325463 0.836624 0.094960
O O8 0.130641 0.081985 0.138527
O O9 0.463137 0.421924 0.792464
O O10 0.197630 0.847973 0.473625
O O11 0.138174 0.354026 0.125719
O O12 0.327793 0.997921 0.230188
O O13 0.500000 0.500000 0.000000
O O14 0.532676 0.529674 0.844212
O O15 0.095390 0.308735 0.447731
O O16 0.000000 0.500000 0.000000
#
# Coordination Sequence:
#
# PCOD9067660 Si02
#       8
#     1   2   2   2   2   2   2   2
#     4  12  24  42  70  92 134 182 232 260 346 408
#     4   8  16  36  67  93 135 173 213 285 328 386
#     4   9  17  40  64  90 133 172 219 276 329 396
#     4   9  19  36  67  99 130 175 224 272 329 403
#     4  11  26  42  67  99 134 177 231 273 342 412
#     4   9  20  40  67  95 131 172 220 284 331 392
#     4   9  20  39  65  96 131 172 216 278 341 393
#     4  11  27  44  61  96 138 177 223 284 331 402
#
# _framework density 26.355345
#
# number of rings (size 3 to 8) (size 9 to 14) (size 15 to 20)
#    0.800    1.600    1.333    0.000    3.733    2.667 
#    2.400   16.667    0.000    4.000    0.000    0.000 
#    0.000    0.000    0.000    0.000    0.000    0.000 
#
# Total GULP energy -83572.230922 kJ/mol
# GULP energy per Si atom -5571.482061 kJ/mol
# Density = 2.629536 g / cm^3
# Si number density = 26.355345 Si / 1000 Ang^3
#
#
#
# Elastic Constant Matrix: (Units=GPa)
#
#
# Indices 1 2 3 4 5 6 
#
# 1 137.1786 24.2797 37.1499 -0.8732 -40.1698 2.6163
# 2 24.2797 63.1007 25.5136 8.4315 -7.4354 4.1745
# 3 37.1499 25.5136 128.2255 12.5083 -31.1293 0.9528
# 4 -0.8732 8.4315 12.5083 24.5227 -7.4468 -15.6971
# 5 -40.1698 -7.4354 -31.1293 -7.4468 61.7508 1.0883
# 6 2.6163 4.1745 0.9528 -15.6971 1.0883 44.9516
#
#
#
# Elastic Compliance Matrix: (Units=1/GPa)
#
#
# Indices 1 2 3 4 5 6 
#
# 1 0.009990 -0.003358 -0.001241 0.004796 0.006025 0.001286
# 2 -0.003358 0.019433 -0.002475 -0.009203 -0.002119 -0.004719
# 3 -0.001241 -0.002475 0.009891 -0.004117 0.003409 -0.001428
# 4 0.004796 -0.009203 -0.004117 0.062699 0.007103 0.022385
# 5 0.006025 -0.002119 0.003409 0.007103 0.022403 0.001712
# 6 0.001286 -0.004719 -0.001428 0.022385 0.001712 0.030415
#
#
# Mechanical properties :
#
#
# Convention : Reuss Voigt Hill
#
# Bulk Modulus (GPa) = 39.73821 55.82124 47.77973
# Shear Modulus (GPa) = 28.18978 42.34911 35.26945
#
# Velocity S-wave (km/s) = 3.27403 4.01290 3.66215
# Velocity P-wave (km/s) = 5.42245 6.53433 6.00418
#
# Compressibility (1/GPa) = 0.02516470
#
# Stress axis : x y z
#
# Youngs Moduli (GPa) = 100.09576 51.45919 101.10480
#
# Poissons Ratio (x) = 0.17281 0.12547
# Poissons Ratio (y) = 0.33615 0.25027
# Poissons Ratio (z) = 0.12422 0.12738
#
# Static dielectric constant tensor:
#      x y z
#    x 2.089280 0.043770 -0.038740 
#    y 0.043770 1.969670 -0.045660 
#    z -0.038740 -0.045660 2.044470 
# 
# From -- ./inp_files/610056.got.cif
#   From: 2010.05.17/outbox.cif.g08.bks.cpg/sg2_306_cif.got.tgz:610056.got - 2010.06.03 11:33:40.
