data_PCOD9067745
_publ_section_title
;
Structure prediction by ZEFSAII (Michael W. Deem and Ramdas Pophale) SiO2 
 PCOD9067745
Probable space group: P -1
;
_chemical_formula_sum "Si O2"
_cell_formula_units_Z 14
_cell_length_a 17.736607
_cell_length_b 8.274642
_cell_length_c 7.833016
_cell_angle_alpha 35.131470
_cell_angle_beta 125.057694
_cell_angle_gamma 118.692491
_cell_volume 541.393496
_symmetry_space_group_name_H-M "P -1"
_symmetry_group_IT_number 2
_symmetry_cell_setting 'triclinic'
loop_
_space_group_symop_operation_xyz
x,y,z
-x,-y,-z
loop_
_atom_site_type_symbol
_atom_site_label
_atom_site_fract_x
_atom_site_fract_y
_atom_site_fract_z
Si Si1 0.334411 0.694228 0.845430
Si Si2 0.548688 0.810045 0.585885
Si Si3 0.364043 0.598543 0.369697
Si Si4 0.033166 0.270273 0.953590
Si Si5 0.080576 0.851406 0.630789
Si Si6 0.151042 0.512629 0.591470
Si Si7 0.745261 0.895169 0.176531
O O1 0.390107 0.441608 0.046089
O O2 0.341812 0.635833 0.108220
O O3 0.230868 0.680525 0.652238
O O4 0.385240 0.984460 0.614711
O O5 0.469867 0.663110 0.494552
O O6 0.500000 0.000000 0.500000
O O7 0.327296 0.300096 0.646482
O O8 0.308345 0.837639 0.193615
O O9 0.923700 0.313556 0.762628
O O10 0.071452 0.517314 0.915459
O O11 0.911707 0.658592 0.207358
O O12 0.060279 0.967264 0.315887
O O13 0.177059 0.971402 0.715457
O O14 0.000000 0.000000 0.500000
O O15 0.202502 0.294507 0.726203
#
# Coordination Sequence:
#
# PCOD9067745 Si02
#       7
#     2   2   2   2   2   2   2
#     4  12  25  45  72  99 142 178 228 278 345 410
#     4  12  25  46  73 104 137 176 225 286 343 406
#     4  12  26  46  70 103 136 182 229 279 344 409
#     4  11  27  45  69  98 143 181 234 283 347 408
#     4  12  24  45  68  98 134 183 231 281 342 402
#     4  11  26  45  68 104 138 186 228 289 343 405
#     4  12  25  42  71  99 139 178 234 279 339 408
#
# _framework density 25.859197000000002
#
# number of rings (size 3 to 8) (size 9 to 14) (size 15 to 20)
#    0.000    0.286    1.429    7.714    2.000    5.714 
#    0.000    0.000    0.000    0.000    0.000    0.000 
#    0.000    0.000    0.000    0.000    0.000    0.000 
#
# Total GULP energy -78651.725826 kJ/mol
# GULP energy per Si atom -5617.980416 kJ/mol
# Density = 2.580034 g / cm^3
# Si number density = 25.859197 Si / 1000 Ang^3
#
#
#
# Elastic Constant Matrix: (Units=GPa)
#
#
# Indices 1 2 3 4 5 6 
#
# 1 97.2772 59.0488 24.7157 -1.3252 21.6733 10.5329
# 2 59.0488 182.2760 26.0897 -1.8518 3.8448 36.9834
# 3 24.7157 26.0897 89.4231 -15.3131 10.1944 26.6024
# 4 -1.3252 -1.8518 -15.3131 47.7986 7.7548 7.9160
# 5 21.6733 3.8448 10.1944 7.7548 43.8871 3.8444
# 6 10.5329 36.9834 26.6024 7.9160 3.8444 54.7993
#
#
#
# Elastic Compliance Matrix: (Units=1/GPa)
#
#
# Indices 1 2 3 4 5 6 
#
# 1 0.015114 -0.004796 -0.002605 0.000138 -0.006642 0.002042
# 2 -0.004796 0.007942 0.000381 0.000800 0.001869 -0.004870
# 3 -0.002605 0.000381 0.015713 0.006796 -0.002883 -0.008164
# 4 0.000138 0.000800 0.006796 0.025212 -0.005548 -0.007118
# 5 -0.006642 0.001869 -0.002883 -0.005548 0.027527 0.000285
# 6 0.002042 -0.004870 -0.008164 -0.007118 0.000285 0.026114
#
#
# Mechanical properties :
#
#
# Convention : Reuss Voigt Hill
#
# Bulk Modulus (GPa) = 40.43891 65.40941 52.92416
# Shear Modulus (GPa) = 35.73883 46.57181 41.15532
#
# Velocity S-wave (km/s) = 3.72163 4.24840 3.99371
# Velocity P-wave (km/s) = 5.84290 7.02955 6.46351
#
# Compressibility (1/GPa) = 0.02472866
#
# Stress axis : x y z
#
# Youngs Moduli (GPa) = 66.16575 125.91029 63.64343
#
# Poissons Ratio (x) = 0.60389 0.16577
# Poissons Ratio (y) = 0.31734 -0.02425
# Poissons Ratio (z) = 0.17234 -0.04798
#
# Static dielectric constant tensor:
#      x y z
#    x 2.041480 -0.066700 -0.010290 
#    y -0.066700 2.069710 0.041730 
#    z -0.010290 0.041730 1.972640 
# 
# From -- ./inp_files/217394.got.cif
#   From: 2010.05.17/outbox.cif.g08.bks.cpg/sg2_109_cif.got.tgz:217394.got - 2010.06.03 11:33:40.
