data_PCOD9067862
_publ_section_title
;
Structure prediction by ZEFSAII (Michael W. Deem and Ramdas Pophale) SiO2 
 PCOD9067862
Probable space group: P -1
;
_chemical_formula_sum "Si O2"
_cell_formula_units_Z 9
_cell_length_a 8.928185
_cell_length_b 15.053991
_cell_length_c 7.447284
_cell_angle_alpha 46.308448
_cell_angle_beta 126.426384
_cell_angle_gamma 152.455965
_cell_volume 334.163568
_symmetry_space_group_name_H-M "P -1"
_symmetry_group_IT_number 2
_symmetry_cell_setting 'triclinic'
loop_
_space_group_symop_operation_xyz
x,y,z
-x,-y,-z
loop_
_atom_site_type_symbol
_atom_site_label
_atom_site_fract_x
_atom_site_fract_y
_atom_site_fract_z
Si Si1 0.630423 0.838073 0.019494
Si Si2 0.113002 0.931228 0.757840
Si Si3 0.731147 0.531540 0.267884
Si Si4 0.622773 0.206802 0.462482
Si Si5 0.500000 0.500000 0.500000
O O1 0.453592 0.613333 0.224874
O O2 0.650956 0.912040 0.124118
O O3 0.479212 0.836275 0.755603
O O4 0.000000 0.000000 0.000000
O O5 0.327985 0.991281 0.668794
O O6 0.000000 0.000000 0.500000
O O7 0.839312 0.699589 0.978385
O O8 0.676327 0.375159 0.341523
O O9 0.470403 0.425022 0.380965
O O10 0.049823 0.687035 0.406855
#
# Coordination Sequence:
#
# PCOD9067862 Si02
#       5
#     2   2   2   2   1
#     4  12  25  43  70 103 135 187 229 281 347 405
#     4  12  24  45  72 103 139 182 233 284 342 416
#     4  11  26  46  70 105 138 187 225 288 349 403
#     4  11  26  47  69 102 145 177 233 285 344 413
#     4  12  24  44  70 100 140 178 236 274 344 416
#
# _framework density 26.932918999999998
#
# number of rings (size 3 to 8) (size 9 to 14) (size 15 to 20)
#    0.000    0.444    6.667    0.667    3.111    3.556 
#    0.000    0.000    0.000    0.000    0.000    0.000 
#    0.000    0.000    0.000    0.000    0.000    0.000 
#
# Total GULP energy -50245.718927 kJ/mol
# GULP energy per Si atom -5582.857659 kJ/mol
# Density = 2.687162 g / cm^3
# Si number density = 26.932919 Si / 1000 Ang^3
#
#
#
# Elastic Constant Matrix: (Units=GPa)
#
#
# Indices 1 2 3 4 5 6 
#
# 1 33.1097 23.3756 40.2361 9.9970 -12.1784 -26.8648
# 2 23.3756 102.2406 52.7467 29.0700 -11.1193 -18.2527
# 3 40.2361 52.7467 182.4443 25.8965 -19.8544 -25.7575
# 4 9.9970 29.0700 25.8965 75.5786 -8.1765 -12.6381
# 5 -12.1784 -11.1193 -19.8544 -8.1765 41.3338 4.2074
# 6 -26.8648 -18.2527 -25.7575 -12.6381 4.2074 47.1326
#
#
#
# Elastic Compliance Matrix: (Units=1/GPa)
#
#
# Indices 1 2 3 4 5 6 
#
# 1 0.082127 -0.006098 -0.009722 0.002839 0.014519 0.038602
# 2 -0.006098 0.013172 -0.001999 -0.003639 0.000113 -0.000453
# 3 -0.009722 -0.001999 0.008092 -0.001034 0.000506 -0.002216
# 4 0.002839 -0.003639 -0.001034 0.015433 0.002048 0.003600
# 5 0.014519 0.000113 0.000506 0.002048 0.028478 0.006603
# 6 0.038602 -0.000453 -0.002216 0.003600 0.006603 0.042209
#
#
# Mechanical properties :
#
#
# Convention : Reuss Voigt Hill
#
# Bulk Modulus (GPa) = 14.75939 61.16792 37.96365
# Shear Modulus (GPa) = 20.18309 46.23810 33.21060
#
# Velocity S-wave (km/s) = 2.74046 4.14791 3.51534
# Velocity P-wave (km/s) = 3.93769 6.76023 5.53200
#
# Compressibility (1/GPa) = 0.06775350
#
# Stress axis : x y z
#
# Youngs Moduli (GPa) = 12.17628 75.91787 123.57808
#
# Poissons Ratio (x) = 0.46294 1.20148
# Poissons Ratio (y) = 0.07425 0.24697
# Poissons Ratio (z) = 0.11838 0.15172
#
# Static dielectric constant tensor:
#      x y z
#    x 2.121620 0.108590 -0.005850 
#    y 0.108590 2.228110 -0.019790 
#    z -0.005850 -0.019790 2.049720 
# 
# From -- ./inp_files/191413.got.cif
#   From: 2010.05.17/outbox.cif.g08.bks.cpg/sg2_96_cif.got.tgz:191413.got - 2010.06.03 11:33:40.
