data_PCOD9067717
_publ_section_title
;
Structure prediction by ZEFSAII (Michael W. Deem and Ramdas Pophale) SiO2 
 PCOD9067717
Probable space group: P -1
;
_chemical_formula_sum "Si O2"
_cell_formula_units_Z 14
_cell_length_a 13.832678
_cell_length_b 6.259042
_cell_length_c 20.645127
_cell_angle_alpha 81.363535
_cell_angle_beta 159.845377
_cell_angle_gamma 92.590054
_cell_volume 584.324311
_symmetry_space_group_name_H-M "P -1"
_symmetry_group_IT_number 2
_symmetry_cell_setting 'triclinic'
loop_
_space_group_symop_operation_xyz
x,y,z
-x,-y,-z
loop_
_atom_site_type_symbol
_atom_site_label
_atom_site_fract_x
_atom_site_fract_y
_atom_site_fract_z
Si Si1 0.794773 0.682626 0.409536
Si Si2 0.495862 0.380816 0.311328
Si Si3 0.664414 0.359090 0.191096
Si Si4 0.335655 0.149962 0.089378
Si Si5 0.328313 0.020171 0.459724
Si Si6 0.659241 0.174344 0.059697
Si Si7 0.794515 0.197112 0.816610
O O1 0.712052 0.522624 0.417971
O O2 0.000000 0.500000 0.500000
O O3 0.037354 0.793623 0.583574
O O4 0.510684 0.886573 0.207114
O O5 0.427765 0.259197 0.208475
O O6 0.611227 0.206074 0.449141
O O7 0.243580 0.577575 0.176795
O O8 0.414081 0.271527 0.070453
O O9 0.721812 0.309713 0.154864
O O10 0.572845 0.627501 0.133632
O O11 0.992564 0.192160 0.878645
O O12 0.500000 0.000000 0.500000
O O13 0.488537 0.164298 0.600658
O O14 0.974431 0.095715 0.226799
O O15 0.500000 0.000000 0.000000
O O16 0.000000 0.000000 0.000000
#
# Coordination Sequence:
#
# PCOD9067717 Si02
#       7
#     2   2   2   2   2   2   2
#     4  12  25  42  74 112 145 189 240 312 382 444
#     4  12  24  46  75 104 152 190 248 306 381 434
#     4  11  26  44  73 104 146 191 253 304 373 443
#     4  12  26  43  75 111 147 191 247 312 383 451
#     4  12  30  48  74 108 153 201 254 307 378 450
#     4  11  27  50  73 102 146 202 252 304 367 451
#     4  12  26  48  74 108 150 193 248 309 374 445
#
# _framework density 23.959299000000001
#
# number of rings (size 3 to 8) (size 9 to 14) (size 15 to 20)
#    0.000    0.286    4.286    3.429    8.000    1.714 
#    0.000    0.000    0.000    0.000    0.000    0.000 
#    0.000    0.000    0.000    0.000    0.000    0.000 
#
# Total GULP energy -78119.141243 kJ/mol
# GULP energy per Si atom -5579.938660 kJ/mol
# Density = 2.390477 g / cm^3
# Si number density = 23.959299 Si / 1000 Ang^3
#
#
#
# Elastic Constant Matrix: (Units=GPa)
#
#
# Indices 1 2 3 4 5 6 
#
# 1 129.4108 37.9030 35.9884 -19.8898 32.1167 5.3057
# 2 37.9030 89.6312 40.3213 -14.2179 14.0828 3.2022
# 3 35.9884 40.3213 120.5057 -2.3862 27.3971 -0.2978
# 4 -19.8898 -14.2179 -2.3862 38.2821 3.5359 7.0062
# 5 32.1167 14.0828 27.3971 3.5359 49.7763 5.0492
# 6 5.3057 3.2022 -0.2978 7.0062 5.0492 62.3669
#
#
#
# Elastic Compliance Matrix: (Units=1/GPa)
#
#
# Indices 1 2 3 4 5 6 
#
# 1 0.011158 -0.002353 -0.001008 0.005615 -0.006281 -0.000956
# 2 -0.002353 0.014769 -0.004008 0.004257 -0.000655 -0.001002
# 3 -0.001008 -0.004008 0.010877 -0.001094 -0.004207 0.000807
# 4 0.005615 0.004257 -0.001094 0.031808 -0.006101 -0.003781
# 5 -0.006281 -0.000655 -0.004207 -0.006101 0.027174 -0.000967
# 6 -0.000956 -0.001002 0.000807 -0.003781 -0.000967 0.016674
#
#
# Mechanical properties :
#
#
# Convention : Reuss Voigt Hill
#
# Bulk Modulus (GPa) = 45.32085 63.10812 54.21449
# Shear Modulus (GPa) = 37.15982 45.10740 41.13361
#
# Velocity S-wave (km/s) = 3.94249 4.34368 4.14794
# Velocity P-wave (km/s) = 6.29930 7.18009 6.75406
#
# Compressibility (1/GPa) = 0.02206490
#
# Stress axis : x y z
#
# Youngs Moduli (GPa) = 89.62327 67.70938 91.93425
#
# Poissons Ratio (x) = 0.15933 0.09268
# Poissons Ratio (y) = 0.21090 0.36850
# Poissons Ratio (z) = 0.09035 0.27140
#
# Static dielectric constant tensor:
#      x y z
#    x 2.001250 -0.065340 0.030830 
#    y -0.065340 1.963480 0.057490 
#    z 0.030830 0.057490 1.866670 
# 
# From -- ./inp_files/611250.got.cif
#   From: 2010.05.17/outbox.cif.g08.bks.cpg/sg2_306_cif.got.tgz:611250.got - 2010.06.03 11:33:40.
