data_PCOD9067824
_publ_section_title
;
Structure prediction by ZEFSAII (Michael W. Deem and Ramdas Pophale) SiO2 
 PCOD9067824
Probable space group: P -1
;
_chemical_formula_sum "Si O2"
_cell_formula_units_Z 14
_cell_length_a 7.934022
_cell_length_b 5.026667
_cell_length_c 17.041813
_cell_angle_alpha 116.536033
_cell_angle_beta 80.822579
_cell_angle_gamma 67.473306
_cell_volume 514.744224
_symmetry_space_group_name_H-M "P -1"
_symmetry_group_IT_number 2
_symmetry_cell_setting 'triclinic'
loop_
_space_group_symop_operation_xyz
x,y,z
-x,-y,-z
loop_
_atom_site_type_symbol
_atom_site_label
_atom_site_fract_x
_atom_site_fract_y
_atom_site_fract_z
Si Si1 0.932518 0.239941 0.188845
Si Si2 0.692841 0.685729 0.673438
Si Si3 0.681683 0.195892 0.496982
Si Si4 0.557408 0.623048 0.175773
Si Si5 0.766156 0.588672 0.836728
Si Si6 0.200107 0.478683 0.010460
Si Si7 0.895768 0.397241 0.392396
O O1 0.739810 0.303119 0.164747
O O2 0.899666 0.261857 0.286696
O O3 0.000539 0.513776 0.195443
O O4 0.116306 0.868904 0.099960
O O5 0.670034 0.373475 0.604449
O O6 0.715515 0.723231 0.769216
O O7 0.891090 0.640150 0.613967
O O8 0.495877 0.052129 0.720857
O O9 0.500000 0.500000 0.500000
O O10 0.862547 0.171387 0.428871
O O11 0.728802 0.808177 0.455867
O O12 0.359516 0.604850 0.181490
O O13 0.645259 0.625913 0.084698
O O14 0.712860 0.755486 0.949454
O O15 0.000000 0.500000 0.000000
#
# Coordination Sequence:
#
# PCOD9067824 Si02
#       7
#     2   2   2   2   2   2   2
#     4  11  27  48  75 110 151 202 252 327 382 459
#     4  11  28  46  74 112 150 198 251 318 386 463
#     4  12  27  48  80 115 153 205 259 314 391 466
#     4  12  27  46  76 110 149 202 257 313 389 465
#     4  11  26  45  75 102 153 187 259 301 397 440
#     4  12  27  49  75 107 152 200 258 320 387 459
#     4  11  27  48  80 110 160 200 256 322 388 460
#
# _framework density 27.197972
#
# number of rings (size 3 to 8) (size 9 to 14) (size 15 to 20)
#    0.000    0.571    1.429    4.714   14.000    1.143 
#    0.000    0.000    0.000    0.000    0.000    0.000 
#    0.000    0.000    0.000    0.000    0.000    0.000 
#
# Total GULP energy -78314.476034 kJ/mol
# GULP energy per Si atom -5593.891145 kJ/mol
# Density = 2.713607 g / cm^3
# Si number density = 27.197972 Si / 1000 Ang^3
#
#
#
# Elastic Constant Matrix: (Units=GPa)
#
#
# Indices 1 2 3 4 5 6 
#
# 1 90.2202 40.4414 30.4516 8.2884 7.6721 12.2818
# 2 40.4414 77.4896 32.0849 -5.1459 -11.3777 7.7990
# 3 30.4516 32.0849 124.3054 8.0030 3.4670 3.6321
# 4 8.2884 -5.1459 8.0030 47.9862 -9.6904 -6.8115
# 5 7.6721 -11.3777 3.4670 -9.6904 37.0194 -7.0227
# 6 12.2818 7.7990 3.6321 -6.8115 -7.0227 47.5574
#
#
#
# Elastic Compliance Matrix: (Units=1/GPa)
#
#
# Indices 1 2 3 4 5 6 
#
# 1 0.018295 -0.010528 -0.000893 -0.006871 -0.009758 -0.005355
# 2 -0.010528 0.022049 -0.003989 0.007531 0.011724 0.002217
# 3 -0.000893 -0.003989 0.009547 -0.002497 -0.002702 -0.000601
# 4 -0.006871 0.007531 -0.002497 0.026600 0.012136 0.006332
# 5 -0.009758 0.011724 -0.002702 0.012136 0.037604 0.008095
# 6 -0.005355 0.002217 -0.000601 0.006332 0.008095 0.024195
#
#
# Mechanical properties :
#
#
# Convention : Reuss Voigt Hill
#
# Bulk Modulus (GPa) = 52.43685 55.33011 53.88348
# Shear Modulus (GPa) = 28.49551 39.11507 33.80529
#
# Velocity S-wave (km/s) = 3.24034 3.79642 3.52935
# Velocity P-wave (km/s) = 5.77246 6.29323 6.03846
#
# Compressibility (1/GPa) = 0.01907056
#
# Stress axis : x y z
#
# Youngs Moduli (GPa) = 54.66071 45.35270 104.74746
#
# Poissons Ratio (x) = 0.47748 0.09357
# Poissons Ratio (y) = 0.57547 0.41781
# Poissons Ratio (z) = 0.04883 0.18090
#
# Static dielectric constant tensor:
#      x y z
#    x 2.111920 -0.011260 -0.017170 
#    y -0.011260 2.230890 0.040140 
#    z -0.017170 0.040140 2.054380 
# 
# From -- ./inp_files/553832.got.cif
#   From: 2010.05.17/outbox.cif.g08.bks.cpg/sg2_277_cif.got.tgz:553832.got - 2010.06.03 11:33:40.
