data_PCOD9067759
_publ_section_title
;
Structure prediction by ZEFSAII (Michael W. Deem and Ramdas Pophale) SiO2 
 PCOD9067759
Probable space group: P -1
;
_chemical_formula_sum "Si O2"
_cell_formula_units_Z 14
_cell_length_a 16.152340
_cell_length_b 17.651408
_cell_length_c 5.001392
_cell_angle_alpha 77.798202
_cell_angle_beta 107.076374
_cell_angle_gamma 154.597815
_cell_volume 579.650748
_symmetry_space_group_name_H-M "P -1"
_symmetry_group_IT_number 2
_symmetry_cell_setting 'triclinic'
loop_
_space_group_symop_operation_xyz
x,y,z
-x,-y,-z
loop_
_atom_site_type_symbol
_atom_site_label
_atom_site_fract_x
_atom_site_fract_y
_atom_site_fract_z
Si Si1 0.722956 0.519749 0.149187
Si Si2 0.673623 0.577023 0.576297
Si Si3 0.028399 0.966696 0.803812
Si Si4 0.192292 0.652874 0.258659
Si Si5 0.363948 0.125289 0.212864
Si Si6 0.368392 0.027713 0.785273
Si Si7 0.058254 0.678849 0.458897
O O1 0.713773 0.582663 0.307571
O O2 0.940267 0.656189 0.234869
O O3 0.639980 0.477035 0.813214
O O4 0.573877 0.336862 0.264769
O O5 0.500000 0.500000 0.500000
O O6 0.864667 0.769643 0.746688
O O7 0.223551 0.075962 0.980674
O O8 0.000000 0.000000 0.500000
O O9 0.000000 0.000000 0.000000
O O10 0.405319 0.811478 0.204718
O O11 0.193593 0.734449 0.358480
O O12 0.118342 0.522112 0.470733
O O13 0.000000 0.500000 0.000000
O O14 0.369495 0.057026 0.068002
O O15 0.309511 0.050962 0.510710
O O16 0.203506 0.829594 0.712900
#
# Coordination Sequence:
#
# PCOD9067759 Si02
#       7
#     2   2   2   2   2   2   2
#     4  12  24  44  71  97 141 178 232 285 344 413
#     4  12  25  43  68 102 133 183 230 281 350 412
#     4  12  24  43  67  99 140 180 230 290 351 409
#     4  11  26  46  72 101 144 182 239 289 355 415
#     4  12  25  45  69 103 138 184 233 291 345 420
#     4  12  26  46  71 103 141 183 238 282 356 410
#     4  11  26  45  70 105 137 189 231 293 348 421
#
# _framework density 24.152474000000002
#
# number of rings (size 3 to 8) (size 9 to 14) (size 15 to 20)
#    0.000    0.286    1.429    7.714    6.000    0.571 
#    0.000    0.000    0.000    0.000    0.000    0.000 
#    0.000    0.000    0.000    0.000    0.000    0.000 
#
# Total GULP energy -78382.089671 kJ/mol
# GULP energy per Si atom -5598.720691 kJ/mol
# Density = 2.409750 g / cm^3
# Si number density = 24.152474 Si / 1000 Ang^3
#
#
#
# Elastic Constant Matrix: (Units=GPa)
#
#
# Indices 1 2 3 4 5 6 
#
# 1 142.5979 14.0950 33.6162 16.4833 11.3927 11.9638
# 2 14.0950 72.0707 -10.7090 17.2634 -5.6082 -4.8062
# 3 33.6162 -10.7090 99.8210 -3.5937 -0.1831 1.7958
# 4 16.4833 17.2634 -3.5937 46.9087 -4.2482 1.4115
# 5 11.3927 -5.6082 -0.1831 -4.2482 53.3786 15.7443
# 6 11.9638 -4.8062 1.7958 1.4115 15.7443 34.7005
#
#
#
# Elastic Compliance Matrix: (Units=1/GPa)
#
#
# Indices 1 2 3 4 5 6 
#
# 1 0.008544 -0.001766 -0.003126 -0.002669 -0.001583 -0.002202
# 2 -0.001766 0.015990 0.002083 -0.005096 0.000919 0.002506
# 3 -0.003126 0.002083 0.011336 0.001276 0.000937 0.000303
# 4 -0.002669 -0.005096 0.001276 0.024524 0.002587 -0.002023
# 5 -0.001583 0.000919 0.000937 0.002587 0.022195 -0.009551
# 6 -0.002202 0.002506 0.000303 -0.002023 -0.009551 0.034324
#
#
# Mechanical properties :
#
#
# Convention : Reuss Voigt Hill
#
# Bulk Modulus (GPa) = 33.05566 43.16599 38.11083
# Shear Modulus (GPa) = 37.70297 45.49672 41.59984
#
# Velocity S-wave (km/s) = 3.95529 4.34490 4.15466
# Velocity P-wave (km/s) = 5.88005 6.56369 6.23125
#
# Compressibility (1/GPa) = 0.03025200
#
# Stress axis : x y z
#
# Youngs Moduli (GPa) = 117.04168 62.54036 88.21117
#
# Poissons Ratio (x) = 0.11046 0.27576
# Poissons Ratio (y) = 0.20672 -0.18377
# Poissons Ratio (z) = 0.36589 -0.13029
#
# Static dielectric constant tensor:
#      x y z
#    x 3.971670 -2.091960 2.795010 
#    y -2.091960 4.011360 -2.859870 
#    z 2.795010 -2.859870 5.576350 
# 
# From -- ./inp_files/38382.got.cif
#   From: 2010.05.17/outbox.cif.g08.bks.cpg/sg2_20_cif.got.tgz:38382.got - 2010.06.03 11:33:40.
