data_PCOD9067705
_publ_section_title
;
Structure prediction by ZEFSAII (Michael W. Deem and Ramdas Pophale) SiO2 
 PCOD9067705
Probable space group: P -1
;
_chemical_formula_sum "Si O2"
_cell_formula_units_Z 16
_cell_length_a 17.480655
_cell_length_b 14.513212
_cell_length_c 6.410112
_cell_angle_alpha 133.328378
_cell_angle_beta 131.770757
_cell_angle_gamma 36.545170
_cell_volume 679.188882
_symmetry_space_group_name_H-M "P -1"
_symmetry_group_IT_number 2
_symmetry_cell_setting 'triclinic'
loop_
_space_group_symop_operation_xyz
x,y,z
-x,-y,-z
loop_
_atom_site_type_symbol
_atom_site_label
_atom_site_fract_x
_atom_site_fract_y
_atom_site_fract_z
Si Si1 0.044689 0.095817 0.334799
Si Si2 0.687368 0.173200 0.351694
Si Si3 0.665777 0.926885 0.756489
Si Si4 0.079799 0.397145 0.187637
Si Si5 0.465076 0.931616 0.642260
Si Si6 0.923836 0.368461 0.211554
Si Si7 0.803720 0.305651 0.548934
Si Si8 0.480199 0.399048 0.648303
O O1 0.028582 0.215233 0.313554
O O2 0.934544 0.209890 0.493231
O O3 0.191569 0.959808 0.481488
O O4 0.000000 0.000000 0.000000
O O5 0.754453 0.200839 0.331078
O O6 0.576839 0.340768 0.533940
O O7 0.620383 0.099754 0.024221
O O8 0.803424 0.794791 0.920100
O O9 0.575171 0.882778 0.596119
O O10 0.669205 0.929834 0.515861
O O11 0.143777 0.473729 0.520171
O O12 0.984130 0.404781 0.191353
O O13 0.000000 0.500000 0.000000
O O14 0.475707 0.775952 0.469925
O O15 0.500000 0.000000 0.000000
O O16 0.836964 0.332607 0.881113
O O17 0.676662 0.480116 0.501054
O O18 0.500000 0.500000 0.000000
#
# Coordination Sequence:
#
# PCOD9067705 Si02
#       8
#     2   2   2   2   2   2   2   2
#     4  12  26  47  73 109 149 195 245 305 374 448
#     4  12  25  48  75 109 150 194 252 306 372 446
#     4  11  26  44  75 102 144 192 249 299 375 440
#     4  11  26  45  72 106 147 191 247 311 367 446
#     4  11  26  48  71 104 145 194 242 306 367 445
#     4  11  26  44  71 107 145 195 242 302 378 440
#     4  12  27  46  75 106 151 191 245 309 373 443
#     4  12  28  48  77 108 149 194 251 309 374 442
#
# _framework density 23.557514000000001
#
# number of rings (size 3 to 8) (size 9 to 14) (size 15 to 20)
#    0.000    0.500    2.500    4.500    8.750    1.000 
#    0.000    0.000    0.000    0.000    0.000    0.000 
#    0.000    0.000    0.000    0.000    0.000    0.000 
#
# Total GULP energy -89452.490593 kJ/mol
# GULP energy per Si atom -5590.780662 kJ/mol
# Density = 2.350390 g / cm^3
# Si number density = 23.557514 Si / 1000 Ang^3
#
#
#
# Elastic Constant Matrix: (Units=GPa)
#
#
# Indices 1 2 3 4 5 6 
#
# 1 89.2539 43.1594 27.2624 -7.6833 -2.5530 16.4154
# 2 43.1594 124.4598 36.9406 -10.9252 -16.6478 14.6855
# 3 27.2624 36.9406 127.1448 13.5975 -0.7288 2.9294
# 4 -7.6833 -10.9252 13.5975 37.0559 7.2192 -1.5495
# 5 -2.5530 -16.6478 -0.7288 7.2192 31.6403 0.6727
# 6 16.4154 14.6855 2.9294 -1.5495 0.6727 51.2091
#
#
#
# Elastic Compliance Matrix: (Units=1/GPa)
#
#
# Indices 1 2 3 4 5 6 
#
# 1 0.014612 -0.003977 -0.002213 0.002831 -0.001540 -0.003311
# 2 -0.003977 0.011289 -0.002614 0.002404 0.005049 -0.001807
# 3 -0.002213 -0.002614 0.009577 -0.004655 -0.000287 0.000774
# 4 0.002831 0.002404 -0.004655 0.031088 -0.005700 -0.000315
# 5 -0.001540 0.005049 -0.000287 -0.005700 0.035465 -0.001576
# 6 -0.003311 -0.001807 0.000774 -0.000315 -0.001576 0.021074
#
#
# Mechanical properties :
#
#
# Convention : Reuss Voigt Hill
#
# Bulk Modulus (GPa) = 55.95659 61.73145 58.84402
# Shear Modulus (GPa) = 34.09051 39.54748 36.81899
#
# Velocity S-wave (km/s) = 3.80823 4.10172 3.95769
# Velocity P-wave (km/s) = 6.56822 6.97808 6.77625
#
# Compressibility (1/GPa) = 0.01787100
#
# Stress axis : x y z
#
# Youngs Moduli (GPa) = 68.43914 88.58115 104.41366
#
# Poissons Ratio (x) = 0.35228 0.23105
# Poissons Ratio (y) = 0.27218 0.27290
# Poissons Ratio (z) = 0.15144 0.23152
#
# Static dielectric constant tensor:
#      x y z
#    x 1.947190 0.010080 0.023110 
#    y 0.010080 1.962830 -0.050720 
#    z 0.023110 -0.050720 1.994540 
# 
# From -- ./inp_files/111080.got.cif
#   From: 2010.05.17/outbox.cif.g08.bks.cpg/sg2_56_cif.got.tgz:111080.got - 2010.06.03 11:33:40.
