data_PCOD9067246
_publ_section_title
;
Structure prediction by ZEFSAII (Michael W. Deem and Ramdas Pophale) SiO2 
 PCOD9067246
Probable space group: P -1
;
_chemical_formula_sum "Si O2"
_cell_formula_units_Z 12
_cell_length_a 11.710523
_cell_length_b 13.928807
_cell_length_c 7.206422
_cell_angle_alpha 81.858260
_cell_angle_beta 81.819606
_cell_angle_gamma 148.353525
_cell_volume 526.566747
_symmetry_space_group_name_H-M "P -1"
_symmetry_group_IT_number 2
_symmetry_cell_setting 'triclinic'
loop_
_space_group_symop_operation_xyz
x,y,z
-x,-y,-z
loop_
_atom_site_type_symbol
_atom_site_label
_atom_site_fract_x
_atom_site_fract_y
_atom_site_fract_z
Si Si1 0.745820 0.375368 0.642193
Si Si2 0.776973 0.571744 0.316833
Si Si3 0.869053 0.041809 0.655192
Si Si4 0.119725 0.487421 0.033197
Si Si5 0.348962 0.329092 0.240001
Si Si6 0.656594 0.021819 0.415891
O O1 0.771911 0.503364 0.521698
O O2 0.706837 0.354551 0.876478
O O3 0.000000 0.500000 0.500000
O O4 0.502747 0.150762 0.657845
O O5 0.532479 0.447249 0.340737
O O6 0.009848 0.818299 0.229815
O O7 0.797028 0.505298 0.171623
O O8 0.689118 0.979952 0.600856
O O9 0.100872 0.194659 0.415988
O O10 0.738796 0.840962 0.771751
O O11 0.922024 0.262403 0.223883
O O12 0.000000 0.500000 0.000000
O O13 0.500000 0.500000 0.000000
O O14 0.500000 0.000000 0.500000
#
# Coordination Sequence:
#
# PCOD9067246 Si02
#       6
#     2   2   2   2   2   2
#     4  12  23  45  69  98 150 189 228 298 362 429
#     4  12  24  47  73 104 146 190 242 303 362 436
#     4  11  25  48  75 108 147 192 244 304 370 431
#     4  12  26  42  69 109 145 193 244 286 366 443
#     4  11  26  48  77 108 144 191 252 304 363 436
#     4  12  23  44  73 103 145 190 235 299 371 434
#
# _framework density 22.789134000000001
#
# number of rings (size 3 to 8) (size 9 to 14) (size 15 to 20)
#    0.000    0.333    6.667    1.500    0.000    2.667 
#    0.000    0.000    0.000    0.000    0.000    0.000 
#    0.000    0.000    0.000    0.000    0.000    0.000 
#
# Total GULP energy -67134.355721 kJ/mol
# GULP energy per Si atom -5594.529643 kJ/mol
# Density = 2.273726 g / cm^3
# Si number density = 22.789134 Si / 1000 Ang^3
#
#
#
# Elastic Constant Matrix: (Units=GPa)
#
#
# Indices 1 2 3 4 5 6 
#
# 1 126.9315 40.8195 36.2570 5.7935 16.0450 -5.3727
# 2 40.8195 178.1265 23.0168 27.8142 10.0952 -23.5645
# 3 36.2570 23.0168 88.3073 8.9383 13.3615 -6.3798
# 4 5.7935 27.8142 8.9383 46.8776 -10.3657 5.7908
# 5 16.0450 10.0952 13.3615 -10.3657 35.9507 2.8778
# 6 -5.3727 -23.5645 -6.3798 5.7908 2.8778 41.8078
#
#
#
# Elastic Compliance Matrix: (Units=1/GPa)
#
#
# Indices 1 2 3 4 5 6 
#
# 1 0.009643 -0.001593 -0.003083 -0.000291 -0.002803 0.000104
# 2 -0.001593 0.007789 0.000159 -0.005918 -0.003664 0.005282
# 3 -0.003083 0.000159 0.013914 -0.003842 -0.005164 0.002704
# 4 -0.000291 -0.005918 -0.003842 0.029458 0.012425 -0.008895
# 5 -0.002803 -0.003664 -0.005164 0.012425 0.036192 -0.007426
# 6 0.000104 0.005282 0.002704 -0.008895 -0.007426 0.029065
#
#
# Mechanical properties :
#
#
# Convention : Reuss Voigt Hill
#
# Bulk Modulus (GPa) = 44.81952 65.95022 55.38487
# Shear Modulus (GPa) = 35.07938 44.47868 39.77903
#
# Velocity S-wave (km/s) = 3.92765 4.42265 4.18248
# Velocity P-wave (km/s) = 6.34652 7.42172 6.90508
#
# Compressibility (1/GPa) = 0.02231171
#
# Stress axis : x y z
#
# Youngs Moduli (GPa) = 103.69902 128.38681 71.86919
#
# Poissons Ratio (x) = 0.20458 0.22157
# Poissons Ratio (y) = 0.16524 -0.01143
# Poissons Ratio (z) = 0.31970 -0.02042
#
# Static dielectric constant tensor:
#      x y z
#    x 1.876240 0.002480 -0.056090 
#    y 0.002480 1.862430 -0.014470 
#    z -0.056090 -0.014470 1.800340 
# 
# From -- ./inp_files/77634.got.cif
#   From: 2010.05.17/outbox.cif.g08.bks.cpg/sg2_39_cif.got.tgz:77634.got - 2010.06.03 11:33:40.
