data_PCOD9067850
_publ_section_title
;
Structure prediction by ZEFSAII (Michael W. Deem and Ramdas Pophale) SiO2 
 PCOD9067850
Probable space group: P -1
;
_chemical_formula_sum "Si O2"
_cell_formula_units_Z 14
_cell_length_a 5.253642
_cell_length_b 24.353698
_cell_length_c 11.923038
_cell_angle_alpha 150.458515
_cell_angle_beta 127.578673
_cell_angle_gamma 58.293471
_cell_volume 596.045377
_symmetry_space_group_name_H-M "P -1"
_symmetry_group_IT_number 2
_symmetry_cell_setting 'triclinic'
loop_
_space_group_symop_operation_xyz
x,y,z
-x,-y,-z
loop_
_atom_site_type_symbol
_atom_site_label
_atom_site_fract_x
_atom_site_fract_y
_atom_site_fract_z
Si Si1 0.108543 0.994183 0.366529
Si Si2 0.046446 0.803765 0.167100
Si Si3 0.229302 0.602318 0.710161
Si Si4 0.810112 0.605094 0.394479
Si Si5 0.145911 0.951878 0.841685
Si Si6 0.100080 0.687507 0.385934
Si Si7 0.897202 0.614207 0.957829
O O1 0.958176 0.878920 0.168991
O O2 0.500000 0.000000 0.500000
O O3 0.907282 0.091139 0.548540
O O4 0.061938 0.010586 0.252870
O O5 0.247766 0.707551 0.987670
O O6 0.870801 0.721783 0.062101
O O7 0.576862 0.549662 0.721695
O O8 0.000000 0.500000 0.500000
O O9 0.077473 0.643041 0.625054
O O10 0.458867 0.639705 0.400475
O O11 0.904619 0.655218 0.387656
O O12 0.821892 0.470908 0.147774
O O13 0.135948 0.819281 0.614121
O O14 0.500000 0.000000 0.000000
O O15 0.000000 0.000000 0.000000
O O16 0.932807 0.642278 0.147293
#
# Coordination Sequence:
#
# PCOD9067850 Si02
#       7
#     2   2   2   2   2   2   2
#     4  11  27  50  78 110 144 201 263 312 378 452
#     4  11  26  45  81 107 151 194 259 311 383 444
#     4  12  27  46  76 113 155 193 252 317 382 444
#     4  12  28  47  76 114 154 197 249 312 380 452
#     4  12  30  50  76 112 155 195 252 322 383 441
#     4  12  29  50  76 109 155 206 249 305 381 462
#     4  12  26  49  77 109 150 200 255 305 374 465
#
# _framework density 23.488143000000001
#
# number of rings (size 3 to 8) (size 9 to 14) (size 15 to 20)
#    0.000    0.286    2.857    3.857   12.000    0.000 
#    0.000    0.000    0.000    0.000    0.000    0.000 
#    0.000    0.000    0.000    0.000    0.000    0.000 
#
# Total GULP energy -78144.841367 kJ/mol
# GULP energy per Si atom -5581.774383 kJ/mol
# Density = 2.343468 g / cm^3
# Si number density = 23.488143 Si / 1000 Ang^3
#
#
#
# Elastic Constant Matrix: (Units=GPa)
#
#
# Indices 1 2 3 4 5 6 
#
# 1 87.0393 46.7475 37.2150 4.8155 -1.8601 14.3918
# 2 46.7475 140.0272 34.1875 -25.1795 5.1319 23.1688
# 3 37.2150 34.1875 161.5062 48.0929 -5.1573 -18.2865
# 4 4.8155 -25.1795 48.0929 87.1344 23.2900 -4.6616
# 5 -1.8601 5.1319 -5.1573 23.2900 42.2180 -7.9166
# 6 14.3918 23.1688 -18.2865 -4.6616 -7.9166 46.8250
#
#
#
# Elastic Compliance Matrix: (Units=1/GPa)
#
#
# Indices 1 2 3 4 5 6 
#
# 1 0.015602 -0.003951 -0.002997 -0.000678 0.000424 -0.004006
# 2 -0.003951 0.013307 -0.005931 0.009362 -0.009240 -0.008316
# 3 -0.002997 -0.005931 0.012691 -0.010665 0.009786 0.009404
# 4 -0.000678 0.009362 -0.010665 0.024322 -0.017603 -0.009144
# 5 0.000424 -0.009240 0.009786 -0.017603 0.038166 0.012963
# 6 -0.004006 -0.008316 0.009404 -0.009144 0.012963 0.031656
#
#
# Mechanical properties :
#
#
# Convention : Reuss Voigt Hill
#
# Bulk Modulus (GPa) = 63.12536 69.43029 66.27783
# Shear Modulus (GPa) = 29.97956 53.26365 41.62161
#
# Velocity S-wave (km/s) = 3.57651 4.76719 4.21411
# Velocity P-wave (km/s) = 6.63242 7.74114 7.20813
#
# Compressibility (1/GPa) = 0.01584149
#
# Stress axis : x y z
#
# Youngs Moduli (GPa) = 64.09586 75.15089 78.79724
#
# Poissons Ratio (x) = 0.29696 0.23614
# Poissons Ratio (y) = 0.25327 0.46731
# Poissons Ratio (z) = 0.19208 0.44568
#
# Static dielectric constant tensor:
#      x y z
#    x 1.854050 -0.001470 -0.008590 
#    y -0.001470 1.928800 -0.036690 
#    z -0.008590 -0.036690 1.909220 
# 
# From -- ./inp_files/371173.got.cif
#   From: 2010.05.17/outbox.cif.g08.bks.cpg/sg2_186_cif.got.tgz:371173.got - 2010.06.03 11:33:40.
