data_PCOD9067961
_publ_section_title
;
Structure prediction by ZEFSAII (Michael W. Deem and Ramdas Pophale) SiO2 
 PCOD9067961
Probable space group: P -1
;
_chemical_formula_sum "Si O2"
_cell_formula_units_Z 16
_cell_length_a 19.094884
_cell_length_b 5.203388
_cell_length_c 14.684562
_cell_angle_alpha 52.443399
_cell_angle_beta 144.774502
_cell_angle_gamma 118.272629
_cell_volume 666.210202
_symmetry_space_group_name_H-M "P -1"
_symmetry_group_IT_number 2
_symmetry_cell_setting 'triclinic'
loop_
_space_group_symop_operation_xyz
x,y,z
-x,-y,-z
loop_
_atom_site_type_symbol
_atom_site_label
_atom_site_fract_x
_atom_site_fract_y
_atom_site_fract_z
Si Si1 0.723950 0.221776 0.529246
Si Si2 0.525509 0.877470 0.951955
Si Si3 0.951880 0.865858 0.885063
Si Si4 0.896069 0.192290 0.404343
Si Si5 0.685449 0.194816 0.918072
Si Si6 0.931907 0.851663 0.228604
Si Si7 0.547030 0.865927 0.676958
Si Si8 0.724973 0.926440 0.408774
O O1 0.580991 0.206073 0.395837
O O2 0.770869 0.552792 0.550677
O O3 0.748634 0.187878 0.455012
O O4 0.805612 0.918721 0.719789
O O5 0.646756 0.958620 0.010662
O O6 0.419447 0.076112 0.742181
O O7 0.500000 0.500000 0.000000
O O8 0.500000 0.000000 0.000000
O O9 0.004200 0.082916 0.812577
O O10 0.000000 0.500000 0.000000
O O11 0.000000 0.000000 0.000000
O O12 0.865240 0.517662 0.244835
O O13 0.964582 0.200523 0.573162
O O14 0.774269 0.028457 0.340941
O O15 0.000000 0.000000 0.500000
O O16 0.634344 0.550038 0.816546
O O17 0.620376 0.088661 0.777164
O O18 0.830511 0.140829 0.073947
O O19 0.500000 0.000000 0.500000
#
# Coordination Sequence:
#
# PCOD9067961 Si02
#       8
#     2   2   2   2   2   2   2   2
#     4  12  24  49  73 103 143 183 245 296 358 431
#     4  12  24  41  66 100 139 183 229 279 350 414
#     4  12  29  48  77 107 143 191 244 305 362 427
#     4  11  26  46  76 104 148 198 241 301 371 441
#     4  12  27  47  71 108 148 184 242 301 356 431
#     4  11  28  48  71 111 148 191 246 302 370 436
#     4  12  27  48  75 104 142 199 243 296 364 424
#     4  12  24  45  73 102 142 186 237 293 356 433
#
# _framework density 24.016442000000001
#
# number of rings (size 3 to 8) (size 9 to 14) (size 15 to 20)
#    0.000    0.250    3.750    4.125   10.500    0.000 
#    0.000    0.000    0.000    0.000    0.000    0.000 
#    0.000    0.000    0.000    0.000    0.000    0.000 
#
# Total GULP energy -89447.924943 kJ/mol
# GULP energy per Si atom -5590.495309 kJ/mol
# Density = 2.396178 g / cm^3
# Si number density = 24.016442 Si / 1000 Ang^3
#
#
#
# Elastic Constant Matrix: (Units=GPa)
#
#
# Indices 1 2 3 4 5 6 
#
# 1 140.9522 33.5279 29.7611 2.3774 -2.5710 -22.1864
# 2 33.5279 78.1257 21.5517 -17.5975 -2.4953 -33.4527
# 3 29.7611 21.5517 108.1668 -15.9270 15.0273 -14.0435
# 4 2.3774 -17.5975 -15.9270 40.7203 -7.6345 4.4738
# 5 -2.5710 -2.4953 15.0273 -7.6345 57.8900 3.7769
# 6 -22.1864 -33.4527 -14.0435 4.4738 3.7769 40.6492
#
#
#
# Elastic Compliance Matrix: (Units=1/GPa)
#
#
# Indices 1 2 3 4 5 6 
#
# 1 0.008547 -0.002933 -0.001963 -0.002683 0.000289 0.001841
# 2 -0.002933 0.023046 -0.000613 0.008318 0.001066 0.016139
# 3 -0.001963 -0.000613 0.011059 0.003443 -0.002668 0.002114
# 4 -0.002683 0.008318 0.003443 0.029907 0.003095 0.002991
# 5 0.000289 0.001066 -0.002668 0.003095 0.018561 -0.001952
# 6 0.001841 0.016139 0.002114 0.002991 -0.001952 0.039470
#
#
# Mechanical properties :
#
#
# Convention : Reuss Voigt Hill
#
# Bulk Modulus (GPa) = 31.61173 55.21401 43.41287
# Shear Modulus (GPa) = 32.86170 44.01217 38.43694
#
# Velocity S-wave (km/s) = 3.70307 4.28551 4.00489
# Velocity P-wave (km/s) = 5.61023 6.89402 6.28499
#
# Compressibility (1/GPa) = 0.03163383
#
# Stress axis : x y z
#
# Youngs Moduli (GPa) = 116.99764 43.39229 90.42089
#
# Poissons Ratio (x) = 0.12727 0.17753
# Poissons Ratio (y) = 0.34315 0.05541
# Poissons Ratio (z) = 0.22971 0.02659
#
# Static dielectric constant tensor:
#      x y z
#    x 1.903690 0.035000 0.004550 
#    y 0.035000 2.064430 0.114920 
#    z 0.004550 0.114920 2.043160 
# 
# From -- ./inp_files/536251.got.cif
#   From: 2010.05.17/outbox.cif.g08.bks.cpg/sg2_269_cif.got.tgz:536251.got - 2010.06.03 11:33:40.
