data_PCOD9067517
_publ_section_title
;
Structure prediction by ZEFSAII (Michael W. Deem and Ramdas Pophale) SiO2 
 PCOD9067517
Probable space group: P -1
;
_chemical_formula_sum "Si O2"
_cell_formula_units_Z 10
_cell_length_a 9.030506
_cell_length_b 12.095299
_cell_length_c 5.592785
_cell_angle_alpha 95.081593
_cell_angle_beta 98.293592
_cell_angle_gamma 43.407062
_cell_volume 415.275304
_symmetry_space_group_name_H-M "P -1"
_symmetry_group_IT_number 2
_symmetry_cell_setting 'triclinic'
loop_
_space_group_symop_operation_xyz
x,y,z
-x,-y,-z
loop_
_atom_site_type_symbol
_atom_site_label
_atom_site_fract_x
_atom_site_fract_y
_atom_site_fract_z
Si Si1 0.775680 0.588924 0.694284
Si Si2 0.030411 0.101595 0.146555
Si Si3 0.869303 0.732770 0.079495
Si Si4 0.496832 0.120381 0.651690
Si Si5 0.557562 0.406634 0.244897
O O1 0.651535 0.703589 0.460735
O O2 0.585303 0.629035 0.803191
O O3 0.965538 0.395189 0.698720
O O4 0.889288 0.635121 0.848181
O O5 0.814020 0.246090 0.268996
O O6 0.256269 0.974510 0.313890
O O7 0.071125 0.177980 0.978670
O O8 0.000000 0.000000 0.000000
O O9 0.623695 0.844712 0.124626
O O10 0.500000 0.000000 0.500000
O O11 0.500000 0.500000 0.500000
O O12 0.500000 0.500000 0.000000
#
# Coordination Sequence:
#
# PCOD9067517 Si02
#       5
#     2   2   2   2   2
#     4  11  26  47  80 104 155 205 266 317 400 482
#     4  12  28  50  79 116 164 205 266 340 409 469
#     4  11  25  50  75 110 153 205 266 320 403 486
#     4  12  27  44  75 114 150 200 261 332 398 473
#     4  12  30  53  80 117 164 215 271 331 408 492
#
# _framework density 24.080410000000001
#
# number of rings (size 3 to 8) (size 9 to 14) (size 15 to 20)
#    0.000    0.400    4.000    2.400   11.200    0.800 
#    0.000    0.000    0.000    0.000    0.000    0.000 
#    0.000    0.000    0.000    0.000    0.000    0.000 
#
# Total GULP energy -55931.824464 kJ/mol
# GULP energy per Si atom -5593.182446 kJ/mol
# Density = 2.402560 g / cm^3
# Si number density = 24.080410 Si / 1000 Ang^3
#
#
#
# Elastic Constant Matrix: (Units=GPa)
#
#
# Indices 1 2 3 4 5 6 
#
# 1 187.4505 49.8893 39.9892 -2.9062 2.9110 2.3013
# 2 49.8893 118.2308 53.3672 -23.2864 -7.4311 -19.8215
# 3 39.9892 53.3672 81.8498 -2.6071 -0.7860 5.4308
# 4 -2.9062 -23.2864 -2.6071 47.1634 3.2259 -0.6076
# 5 2.9110 -7.4311 -0.7860 3.2259 50.6615 -2.7994
# 6 2.3013 -19.8215 5.4308 -0.6076 -2.7994 68.4378
#
#
#
# Elastic Compliance Matrix: (Units=1/GPa)
#
#
# Indices 1 2 3 4 5 6 
#
# 1 0.006283 -0.002274 -0.001567 -0.000784 -0.000712 -0.000782
# 2 -0.002274 0.016310 -0.009649 0.007301 0.002225 0.005722
# 3 -0.001567 -0.009649 0.019434 -0.003773 -0.001024 -0.004360
# 4 -0.000784 0.007301 -0.003773 0.024610 -0.000364 0.002644
# 5 -0.000712 0.002225 -0.001024 -0.000364 0.020200 0.001573
# 6 -0.000782 0.005722 -0.004360 0.002644 0.001573 0.016729
#
#
# Mechanical properties :
#
#
# Convention : Reuss Voigt Hill
#
# Bulk Modulus (GPa) = 66.46037 74.89138 70.67587
# Shear Modulus (GPa) = 36.88380 49.53822 43.21101
#
# Velocity S-wave (km/s) = 3.91793 4.54056 4.24069
# Velocity P-wave (km/s) = 6.93730 7.65878 7.30695
#
# Compressibility (1/GPa) = 0.01504656
#
# Stress axis : x y z
#
# Youngs Moduli (GPa) = 159.16687 61.31170 51.45726
#
# Poissons Ratio (x) = 0.13942 0.08062
# Poissons Ratio (y) = 0.36195 0.49652
# Poissons Ratio (z) = 0.24938 0.59160
#
# Static dielectric constant tensor:
#      x y z
#    x 1.855060 0.000510 0.007660 
#    y 0.000510 1.973050 -0.003500 
#    z 0.007660 -0.003500 2.014470 
# 
# From -- ./inp_files/16160.got.cif
#   From: 2010.05.17/outbox.cif.g08.bks.cpg/sg2_9_cif.got.tgz:16160.got - 2010.06.03 11:33:40.
