data_PCOD9067253
_publ_section_title
;
Structure prediction by ZEFSAII (Michael W. Deem and Ramdas Pophale) SiO2 
 PCOD9067253
Probable space group: P -1
;
_chemical_formula_sum "Si O2"
_cell_formula_units_Z 14
_cell_length_a 14.352879
_cell_length_b 9.397558
_cell_length_c 11.668019
_cell_angle_alpha 131.697307
_cell_angle_beta 149.812611
_cell_angle_gamma 58.237804
_cell_volume 585.912259
_symmetry_space_group_name_H-M "P -1"
_symmetry_group_IT_number 2
_symmetry_cell_setting 'triclinic'
loop_
_space_group_symop_operation_xyz
x,y,z
-x,-y,-z
loop_
_atom_site_type_symbol
_atom_site_label
_atom_site_fract_x
_atom_site_fract_y
_atom_site_fract_z
Si Si1 0.138066 0.270907 0.492025
Si Si2 0.814003 0.931196 0.337330
Si Si3 0.603884 0.829106 0.467380
Si Si4 0.863297 0.690901 0.863532
Si Si5 0.726688 0.303738 0.097724
Si Si6 0.643740 0.902127 0.908762
Si Si7 0.250703 0.727160 0.379448
O O1 0.154617 0.230387 0.623239
O O2 0.258576 0.134467 0.476759
O O3 0.220631 0.492226 0.676202
O O4 0.919070 0.248885 0.219032
O O5 0.766447 0.107820 0.457184
O O6 0.659785 0.870049 0.043802
O O7 0.000000 0.000000 0.500000
O O8 0.742365 0.752594 0.664024
O O9 0.500000 0.000000 0.500000
O O10 0.431354 0.682876 0.157603
O O11 0.820569 0.828034 0.996531
O O12 0.790022 0.475563 0.708057
O O13 0.087364 0.714939 0.104101
O O14 0.651133 0.126793 0.005937
O O15 0.464168 0.776569 0.594529
#
# Coordination Sequence:
#
# PCOD9067253 Si02
#       7
#     2   2   2   2   2   2   2
#     4  11  27  49  75 110 148 197 245 312 369 433
#     4  12  24  46  78 105 146 186 248 305 360 437
#     4  12  27  47  75 105 153 197 246 300 370 451
#     4  11  26  48  70 111 147 190 248 300 366 449
#     4  11  25  48  75 110 149 190 254 302 372 443
#     4  12  24  48  74 111 142 191 248 303 370 438
#     4  11  26  45  75 106 147 194 242 308 369 424
#
# _framework density 23.894362000000001
#
# number of rings (size 3 to 8) (size 9 to 14) (size 15 to 20)
#    0.000    0.571    4.286    2.143    4.000    1.714 
#    0.000    0.000    0.000    0.000    0.000    0.000 
#    0.000    0.000    0.000    0.000    0.000    0.000 
#
# Total GULP energy -78355.912456 kJ/mol
# GULP energy per Si atom -5596.850890 kJ/mol
# Density = 2.383998 g / cm^3
# Si number density = 23.894362 Si / 1000 Ang^3
#
#
#
# Elastic Constant Matrix: (Units=GPa)
#
#
# Indices 1 2 3 4 5 6 
#
# 1 78.7023 7.8814 28.7400 -19.6451 7.7049 -1.2780
# 2 7.8814 86.8228 52.1649 -11.8461 7.4127 12.5980
# 3 28.7400 52.1649 149.0285 -40.5604 20.4244 24.9995
# 4 -19.6451 -11.8461 -40.5604 57.1207 4.2089 2.6321
# 5 7.7049 7.4127 20.4244 4.2089 36.2590 -6.9284
# 6 -1.2780 12.5980 24.9995 2.6321 -6.9284 33.4631
#
#
#
# Elastic Compliance Matrix: (Units=1/GPa)
#
#
# Indices 1 2 3 4 5 6 
#
# 1 0.014539 0.000289 -0.001551 0.004117 -0.002612 0.000740
# 2 0.000289 0.014719 -0.004764 -0.000075 -0.000785 -0.002128
# 3 -0.001551 -0.004764 0.015222 0.010681 -0.010946 -0.012744
# 4 0.004117 -0.000075 0.010681 0.027995 -0.012532 -0.012591
# 5 -0.002612 -0.000785 -0.010946 -0.012532 0.039257 0.017487
# 6 0.000740 -0.002128 -0.012744 -0.012591 0.017487 0.044845
#
#
# Mechanical properties :
#
#
# Convention : Reuss Voigt Hill
#
# Bulk Modulus (GPa) = 30.83618 54.68070 42.75844
# Shear Modulus (GPa) = 27.86505 40.41971 34.14238
#
# Velocity S-wave (km/s) = 3.41864 4.11737 3.78417
# Velocity P-wave (km/s) = 5.34004 6.74816 6.08497
#
# Compressibility (1/GPa) = 0.03242943
#
# Stress axis : x y z
#
# Youngs Moduli (GPa) = 68.78108 67.93829 65.69653
#
# Poissons Ratio (x) = -0.01965 0.10188
# Poissons Ratio (y) = -0.01990 0.31296
# Poissons Ratio (z) = 0.10666 0.32363
#
# Static dielectric constant tensor:
#      x y z
#    x 1.919960 0.002540 0.025500 
#    y 0.002540 1.931630 -0.037220 
#    z 0.025500 -0.037220 1.939670 
# 
# From -- ./inp_files/448269.got.cif
#   From: 2010.05.17/outbox.cif.g08.bks.cpg/sg2_225_cif.got.tgz:448269.got - 2010.06.03 11:33:40.
