data_PCOD9067086
_publ_section_title
;
Structure prediction by ZEFSAII (Michael W. Deem and Ramdas Pophale) SiO2 
 PCOD9067086
Probable space group: P -1
;
_chemical_formula_sum "Si O2"
_cell_formula_units_Z 16
_cell_length_a 12.454732
_cell_length_b 9.171820
_cell_length_c 8.528485
_cell_angle_alpha 96.011704
_cell_angle_beta 73.854378
_cell_angle_gamma 131.141079
_cell_volume 700.615000
_symmetry_space_group_name_H-M "P -1"
_symmetry_group_IT_number 2
_symmetry_cell_setting 'triclinic'
loop_
_space_group_symop_operation_xyz
x,y,z
-x,-y,-z
loop_
_atom_site_type_symbol
_atom_site_label
_atom_site_fract_x
_atom_site_fract_y
_atom_site_fract_z
Si Si1 0.660419 0.464055 0.785986
Si Si2 0.176850 0.915753 0.773621
Si Si3 0.807820 0.098055 0.863776
Si Si4 0.942178 0.501731 0.695408
Si Si5 0.450979 0.313721 0.136612
Si Si6 0.505193 0.832333 0.467395
Si Si7 0.625773 0.519812 0.358535
Si Si8 0.944685 0.915047 0.337167
O O1 0.819904 0.525952 0.744039
O O2 0.660962 0.641998 0.810274
O O3 0.593090 0.330072 0.644127
O O4 0.539027 0.328264 0.953613
O O5 0.086218 0.691340 0.743557
O O6 0.325432 0.060845 0.626111
O O7 0.078754 0.968239 0.757990
O O8 0.217997 0.938555 0.942591
O O9 0.864189 0.302262 0.798964
O O10 0.940615 0.100872 0.778775
O O11 0.663679 0.916786 0.806507
O O12 0.000000 0.500000 0.500000
O O13 0.590465 0.514474 0.191531
O O14 0.429450 0.695341 0.634126
O O15 0.500000 0.000000 0.500000
O O16 0.500000 0.500000 0.500000
O O17 0.784197 0.696560 0.378497
O O18 0.000000 0.000000 0.500000
#
# Coordination Sequence:
#
# PCOD9067086 Si02
#       8
#     2   2   2   2   2   2   2   2
#     4  11  25  48  75 108 145 196 242 308 373 442
#     4  12  26  50  70 106 149 197 248 305 369 444
#     4  12  28  47  73 108 148 199 245 306 377 443
#     4  12  29  47  73 106 154 197 251 305 380 450
#     4  11  25  47  78 108 148 190 250 310 365 442
#     4  12  27  46  75 106 151 192 247 307 373 439
#     4  12  25  45  74 110 145 191 254 300 367 446
#     4  12  27  46  77 108 148 192 248 307 366 437
#
# _framework density 22.837078999999999
#
# number of rings (size 3 to 8) (size 9 to 14) (size 15 to 20)
#    0.000    0.250    3.750    3.750   12.250    1.500 
#    0.000    0.000    0.000    0.000    0.000    0.000 
#    0.000    0.000    0.000    0.000    0.000    0.000 
#
# Total GULP energy -89321.863234 kJ/mol
# GULP energy per Si atom -5582.616452 kJ/mol
# Density = 2.278510 g / cm^3
# Si number density = 22.837079 Si / 1000 Ang^3
#
#
#
# Elastic Constant Matrix: (Units=GPa)
#
#
# Indices 1 2 3 4 5 6 
#
# 1 73.4857 31.7125 19.6164 13.8887 -8.2049 16.3505
# 2 31.7125 166.2529 16.4784 -5.8137 4.5835 29.1622
# 3 19.6164 16.4784 61.3618 14.7497 -7.2476 15.2798
# 4 13.8887 -5.8137 14.7497 30.5556 4.3503 3.3312
# 5 -8.2049 4.5835 -7.2476 4.3503 29.5115 4.2516
# 6 16.3505 29.1622 15.2798 3.3312 4.2516 45.8175
#
#
#
# Elastic Compliance Matrix: (Units=1/GPa)
#
#
# Indices 1 2 3 4 5 6 
#
# 1 0.018840 -0.003272 -0.000929 -0.009334 0.007521 -0.004350
# 2 -0.003272 0.007586 -0.001567 0.004416 -0.002661 -0.003212
# 3 -0.000929 -0.001567 0.022077 -0.011006 0.007889 -0.005966
# 4 -0.009334 0.004416 -0.011006 0.044725 -0.012884 0.002134
# 5 0.007521 -0.002661 0.007889 -0.012884 0.041163 -0.006504
# 6 -0.004350 -0.003212 -0.005966 0.002134 -0.006504 0.027860
#
#
# Mechanical properties :
#
#
# Convention : Reuss Voigt Hill
#
# Bulk Modulus (GPa) = 27.05154 48.52388 37.78771
# Shear Modulus (GPa) = 26.86592 36.72979 31.79786
#
# Velocity S-wave (km/s) = 3.43361 4.01476 3.73551
# Velocity P-wave (km/s) = 5.25269 6.54103 5.93194
#
# Compressibility (1/GPa) = 0.03696647
#
# Stress axis : x y z
#
# Youngs Moduli (GPa) = 53.07870 131.82802 45.29535
#
# Poissons Ratio (x) = 0.43139 0.04207
# Poissons Ratio (y) = 0.17369 0.07098
# Poissons Ratio (z) = 0.04930 0.20657
#
# Static dielectric constant tensor:
#      x y z
#    x 2.182990 -0.026930 0.278230 
#    y -0.026930 1.874060 -0.043110 
#    z 0.278230 -0.043110 2.083980 
# 
# From -- ./inp_files/243985.got.cif
#   From: 2010.05.17/outbox.cif.g08.bks.cpg/sg2_122_cif.got.tgz:243985.got - 2010.06.03 11:33:40.
