data_PCOD9067605
_publ_section_title
;
Structure prediction by ZEFSAII (Michael W. Deem and Ramdas Pophale) SiO2 
 PCOD9067605
Probable space group: P -1
;
_chemical_formula_sum "Si O2"
_cell_formula_units_Z 10
_cell_length_a 12.240370
_cell_length_b 5.190766
_cell_length_c 10.439886
_cell_angle_alpha 114.581250
_cell_angle_beta 50.413746
_cell_angle_gamma 81.575364
_cell_volume 376.251842
_symmetry_space_group_name_H-M "P -1"
_symmetry_group_IT_number 2
_symmetry_cell_setting 'triclinic'
loop_
_space_group_symop_operation_xyz
x,y,z
-x,-y,-z
loop_
_atom_site_type_symbol
_atom_site_label
_atom_site_fract_x
_atom_site_fract_y
_atom_site_fract_z
Si Si1 0.196534 0.834987 0.176693
Si Si2 0.966662 0.629385 0.198876
Si Si3 0.700274 0.665015 0.761531
Si Si4 0.287584 0.877843 0.857197
Si Si5 0.655475 0.657839 0.506663
O O1 0.032933 0.854136 0.245041
O O2 0.254368 0.596735 0.210180
O O3 0.186481 0.177569 0.289591
O O4 0.325251 0.687869 0.926307
O O5 0.765983 0.801817 0.415400
O O6 0.000000 0.500000 0.000000
O O7 0.103790 0.252823 0.086396
O O8 0.705386 0.535678 0.589333
O O9 0.500000 0.000000 0.000000
O O10 0.445148 0.905023 0.710039
O O11 0.281593 0.656472 0.703717
#
# Coordination Sequence:
#
# PCOD9067605 Si02
#       5
#     2   2   2   2   2
#     4  12  25  49  76 106 159 195 248 319 369 448
#     4  12  26  47  78 112 154 196 253 322 372 441
#     4  12  26  48  76 113 156 198 248 313 382 447
#     4  11  25  51  74 114 149 196 266 307 364 464
#     4  11  26  47  79 112 147 208 248 309 387 442
#
# _framework density 26.577943999999999
#
# number of rings (size 3 to 8) (size 9 to 14) (size 15 to 20)
#    0.000    0.400    6.000    1.200    0.000    4.000 
#    3.600    0.000    0.000    0.000    0.000    0.000 
#    0.000    0.000    0.000    0.000    0.000    0.000 
#
# Total GULP energy -56056.033468 kJ/mol
# GULP energy per Si atom -5605.603347 kJ/mol
# Density = 2.651745 g / cm^3
# Si number density = 26.577944 Si / 1000 Ang^3
#
#
#
# Elastic Constant Matrix: (Units=GPa)
#
#
# Indices 1 2 3 4 5 6 
#
# 1 181.6118 51.8968 58.1474 -21.4148 2.8336 28.9618
# 2 51.8968 134.5745 36.6981 -22.9176 -1.4251 11.0152
# 3 58.1474 36.6981 104.9487 -27.5910 6.2533 5.4015
# 4 -21.4148 -22.9176 -27.5910 36.3952 2.6360 -1.6116
# 5 2.8336 -1.4251 6.2533 2.6360 75.5488 -21.8381
# 6 28.9618 11.0152 5.4015 -1.6116 -21.8381 33.8406
#
#
#
# Elastic Compliance Matrix: (Units=1/GPa)
#
#
# Indices 1 2 3 4 5 6 
#
# 1 0.008382 -0.001525 -0.003225 0.001359 -0.002319 -0.007594
# 2 -0.001525 0.009130 -0.001248 0.003859 -0.000213 -0.001422
# 3 -0.003225 -0.001248 0.013881 0.007950 -0.001161 0.000579
# 4 0.001359 0.003859 0.007950 0.036780 -0.003048 -0.003903
# 5 -0.002319 -0.000213 -0.001161 -0.003048 0.017367 0.013301
# 6 -0.007594 -0.001422 0.000579 -0.003903 0.013301 0.044817
#
#
# Mechanical properties :
#
#
# Convention : Reuss Voigt Hill
#
# Bulk Modulus (GPa) = 51.54835 79.40217 65.47526
# Shear Modulus (GPa) = 33.59835 47.44977 40.52406
#
# Velocity S-wave (km/s) = 3.55934 4.22987 3.90901
# Velocity P-wave (km/s) = 6.02736 7.33456 6.71286
#
# Compressibility (1/GPa) = 0.01939926
#
# Stress axis : x y z
#
# Youngs Moduli (GPa) = 119.30646 109.52644 72.04241
#
# Poissons Ratio (x) = 0.16698 0.23231
# Poissons Ratio (y) = 0.18189 0.08988
# Poissons Ratio (z) = 0.38471 0.13665
#
# Static dielectric constant tensor:
#      x y z
#    x 2.080290 -0.016710 -0.025180 
#    y -0.016710 2.107020 0.021240 
#    z -0.025180 0.021240 2.079360 
# 
# From -- ./inp_files/95684.got.cif
#   From: 2010.05.17/outbox.cif.g08.bks.cpg/sg2_48_cif.got.tgz:95684.got - 2010.06.03 11:33:40.
