data_PCOD9067511
_publ_section_title
;
Structure prediction by ZEFSAII (Michael W. Deem and Ramdas Pophale) SiO2 
 PCOD9067511
Probable space group: P -1
;
_chemical_formula_sum "Si O2"
_cell_formula_units_Z 12
_cell_length_a 11.531172
_cell_length_b 15.449304
_cell_length_c 6.438093
_cell_angle_alpha 68.188957
_cell_angle_beta 78.681228
_cell_angle_gamma 28.217915
_cell_volume 480.495481
_symmetry_space_group_name_H-M "P -1"
_symmetry_group_IT_number 2
_symmetry_cell_setting 'triclinic'
loop_
_space_group_symop_operation_xyz
x,y,z
-x,-y,-z
loop_
_atom_site_type_symbol
_atom_site_label
_atom_site_fract_x
_atom_site_fract_y
_atom_site_fract_z
Si Si1 0.446066 0.337353 0.256341
Si Si2 0.143521 0.828144 0.946588
Si Si3 0.287094 0.577209 0.431489
Si Si4 0.700816 0.837738 0.764177
Si Si5 0.876401 0.906175 0.619130
Si Si6 0.966843 0.545778 0.229624
O O1 0.578226 0.324327 0.079265
O O2 0.414819 0.396804 0.450496
O O3 0.174105 0.483381 0.168660
O O4 0.654096 0.109858 0.382407
O O5 0.996670 0.903336 0.720444
O O6 0.161498 0.717466 0.155435
O O7 0.000000 0.000000 0.000000
O O8 0.500000 0.500000 0.500000
O O9 0.084683 0.715454 0.562328
O O10 0.759193 0.899013 0.778350
O O11 0.928237 0.621741 0.761485
O O12 0.500000 0.000000 0.500000
O O13 0.696770 0.771039 0.027346
O O14 0.000000 0.500000 0.500000
#
# Coordination Sequence:
#
# PCOD9067511 Si02
#       6
#     2   2   2   2   2   2
#     4  12  24  47  73 106 152 195 249 314 376 458
#     4  12  25  45  71 108 149 197 243 303 383 457
#     4  12  25  42  70 105 150 194 243 305 379 456
#     4  11  25  50  75 107 148 197 255 322 374 447
#     4  12  25  48  72 107 152 195 250 313 383 453
#     4  11  26  50  76 109 147 201 259 316 386 452
#
# _framework density 24.974219999999999
#
# number of rings (size 3 to 8) (size 9 to 14) (size 15 to 20)
#    0.000    0.333    5.000    4.000    2.333    0.667 
#    9.000    0.000    0.000    0.000    0.000    0.000 
#    0.000    0.000    0.000    0.000    0.000    0.000 
#
# Total GULP energy -67017.430725 kJ/mol
# GULP energy per Si atom -5584.785894 kJ/mol
# Density = 2.491738 g / cm^3
# Si number density = 24.974220 Si / 1000 Ang^3
#
#
#
# Elastic Constant Matrix: (Units=GPa)
#
#
# Indices 1 2 3 4 5 6 
#
# 1 110.2131 36.4158 32.8502 4.5354 15.6544 15.8429
# 2 36.4158 114.3696 30.0546 23.9980 3.0142 -0.2348
# 3 32.8502 30.0546 142.5164 -14.9579 -0.1568 -10.6283
# 4 4.5354 23.9980 -14.9579 53.9077 9.7994 3.0907
# 5 15.6544 3.0142 -0.1568 9.7994 38.2821 -2.5829
# 6 15.8429 -0.2348 -10.6283 3.0907 -2.5829 26.7201
#
#
#
# Elastic Compliance Matrix: (Units=1/GPa)
#
#
# Indices 1 2 3 4 5 6 
#
# 1 0.013399 -0.003646 -0.002919 0.001385 -0.006226 -0.009900
# 2 -0.003646 0.011652 -0.002069 -0.006000 0.002260 0.002354
# 3 -0.002919 -0.002069 0.008828 0.003166 0.000916 0.004947
# 4 0.001385 -0.006000 0.003166 0.023284 -0.006238 -0.002911
# 5 -0.006226 0.002260 0.000916 -0.006238 0.030614 0.007757
# 6 -0.009900 0.002354 0.004947 -0.002911 0.007757 0.046369
#
#
# Mechanical properties :
#
#
# Convention : Reuss Voigt Hill
#
# Bulk Modulus (GPa) = 60.19992 62.86004 61.52998
# Shear Modulus (GPa) = 31.85712 41.63389 36.74551
#
# Velocity S-wave (km/s) = 3.57543 4.08741 3.83996
# Velocity P-wave (km/s) = 6.41888 6.89206 6.65968
#
# Compressibility (1/GPa) = 0.01661132
#
# Stress axis : x y z
#
# Youngs Moduli (GPa) = 74.63521 85.81945 113.27530
#
# Poissons Ratio (x) = 0.31289 0.33068
# Poissons Ratio (y) = 0.27211 0.23433
# Poissons Ratio (z) = 0.21788 0.17753
#
# Static dielectric constant tensor:
#      x y z
#    x 2.015790 -0.053850 0.018410 
#    y -0.053850 2.030210 0.014500 
#    z 0.018410 0.014500 2.283720 
# 
# From -- ./inp_files/77620.got.cif
#   From: 2010.05.17/outbox.cif.g08.bks.cpg/sg2_39_cif.got.tgz:77620.got - 2010.06.03 11:33:40.
