data_PCOD9067430
_publ_section_title
;
Structure prediction by ZEFSAII (Michael W. Deem and Ramdas Pophale) SiO2 
 PCOD9067430
Probable space group: P -1
;
_chemical_formula_sum "Si O2"
_cell_formula_units_Z 11
_cell_length_a 14.483775
_cell_length_b 5.090308
_cell_length_c 12.084774
_cell_angle_alpha 119.240874
_cell_angle_beta 31.401579
_cell_angle_gamma 106.135197
_cell_volume 385.665988
_symmetry_space_group_name_H-M "P -1"
_symmetry_group_IT_number 2
_symmetry_cell_setting 'triclinic'
loop_
_space_group_symop_operation_xyz
x,y,z
-x,-y,-z
loop_
_atom_site_type_symbol
_atom_site_label
_atom_site_fract_x
_atom_site_fract_y
_atom_site_fract_z
Si Si1 0.746995 0.770875 0.081652
Si Si2 0.787177 0.717092 0.770131
Si Si3 0.910836 0.583559 0.227126
Si Si4 0.500000 0.000000 0.000000
Si Si5 0.569251 0.360534 0.539253
Si Si6 0.309036 0.815555 0.371175
O O1 0.652350 0.543127 0.200393
O O2 0.637478 0.104636 0.318953
O O3 0.738911 0.741898 0.953249
O O4 0.962126 0.677733 0.876342
O O5 0.698014 0.047416 0.866812
O O6 0.682401 0.537010 0.751168
O O7 0.000000 0.500000 0.500000
O O8 0.699800 0.578077 0.434629
O O9 0.894483 0.926856 0.363502
O O10 0.000000 0.500000 0.000000
O O11 0.578589 0.053173 0.806707
O O12 0.627245 0.219234 0.574109
#
# Coordination Sequence:
#
# PCOD9067430 Si02
#       6
#     2   2   2   1   2   2
#     4  11  25  49  76 111 152 198 255 324 368 458
#     4  12  28  49  76 114 156 195 259 316 378 460
#     4  12  27  47  78 111 150 204 250 313 391 448
#     4  12  26  48  80 104 152 206 238 310 388 448
#     4  11  25  50  75 107 155 197 256 317 379 444
#     4  12  26  50  74 110 151 198 251 314 382 452
#
# _framework density 28.522089999999999
#
# number of rings (size 3 to 8) (size 9 to 14) (size 15 to 20)
#    0.000    0.364    3.636    4.364    5.091    3.636 
#    0.000    0.000    0.000    0.000    0.000    0.000 
#    0.000    0.000    0.000    0.000    0.000    0.000 
#
# Total GULP energy -61397.879105 kJ/mol
# GULP energy per Si atom -5581.625373 kJ/mol
# Density = 2.845717 g / cm^3
# Si number density = 28.522090 Si / 1000 Ang^3
#
#
#
# Elastic Constant Matrix: (Units=GPa)
#
#
# Indices 1 2 3 4 5 6 
#
# 1 220.0855 23.2900 71.9511 -1.9662 41.8268 -20.5647
# 2 23.2900 79.1895 43.8234 -13.0517 37.4245 11.6057
# 3 71.9511 43.8234 173.4368 14.9128 48.4371 4.9853
# 4 -1.9662 -13.0517 14.9128 45.5318 2.2714 17.1959
# 5 41.8268 37.4245 48.4371 2.2714 73.7600 -1.6610
# 6 -20.5647 11.6057 4.9853 17.1959 -1.6610 38.4504
#
#
#
# Elastic Compliance Matrix: (Units=1/GPa)
#
#
# Indices 1 2 3 4 5 6 
#
# 1 0.005889 -0.000518 -0.001883 -0.000605 -0.001737 0.003746
# 2 -0.000518 0.023870 -0.003797 0.013679 -0.010051 -0.013541
# 3 -0.001883 -0.003797 0.008526 -0.004132 -0.002460 0.000775
# 4 -0.000605 0.013679 -0.004132 0.034952 -0.005405 -0.019782
# 5 -0.001737 -0.010051 -0.002460 -0.005405 0.021554 0.005772
# 6 0.003746 -0.013541 0.000775 -0.019782 0.005772 0.041094
#
#
# Mechanical properties :
#
#
# Convention : Reuss Voigt Hill
#
# Bulk Modulus (GPa) = 38.62295 83.42675 61.02485
# Shear Modulus (GPa) = 31.86556 53.79160 42.82858
#
# Velocity S-wave (km/s) = 3.34612 4.34748 3.87924
# Velocity P-wave (km/s) = 5.33849 7.38337 6.44258
#
# Compressibility (1/GPa) = 0.02589134
#
# Stress axis : x y z
#
# Youngs Moduli (GPa) = 169.81758 41.89309 117.28456
#
# Poissons Ratio (x) = 0.02169 0.22079
# Poissons Ratio (y) = 0.08793 0.44529
# Poissons Ratio (z) = 0.31968 0.15905
#
# Static dielectric constant tensor:
#      x y z
#    x 2.186730 0.247630 -0.068850 
#    y 0.247630 2.017460 -0.175490 
#    z -0.068850 -0.175490 2.094650 
# 
# From -- ./inp_files/21992.got.cif
#   From: 2010.05.17/outbox.cif.g08.bks.cpg/sg2_11_cif.got.tgz:21992.got - 2010.06.03 11:33:40.
