data_PCOD9067896
_publ_section_title
;
Structure prediction by ZEFSAII (Michael W. Deem and Ramdas Pophale) SiO2 
 PCOD9067896
Probable space group: P -1
;
_chemical_formula_sum "Si O2"
_cell_formula_units_Z 16
_cell_length_a 16.543928
_cell_length_b 11.014586
_cell_length_c 6.460874
_cell_angle_alpha 106.659338
_cell_angle_beta 52.452386
_cell_angle_gamma 129.577708
_cell_volume 709.448722
_symmetry_space_group_name_H-M "P -1"
_symmetry_group_IT_number 2
_symmetry_cell_setting 'triclinic'
loop_
_space_group_symop_operation_xyz
x,y,z
-x,-y,-z
loop_
_atom_site_type_symbol
_atom_site_label
_atom_site_fract_x
_atom_site_fract_y
_atom_site_fract_z
Si Si1 0.937514 0.260216 0.944786
Si Si2 0.544696 0.890649 0.846200
Si Si3 0.958029 0.837765 0.590588
Si Si4 0.504835 0.356819 0.844344
Si Si5 0.702360 0.708767 0.162655
Si Si6 0.353885 0.597379 0.732608
Si Si7 0.815325 0.013133 0.361148
Si Si8 0.091282 0.535851 0.179455
O O1 0.037261 0.264952 0.642766
O O2 0.866305 0.303367 0.924884
O O3 0.003817 0.391591 0.084859
O O4 0.854259 0.093761 0.113701
O O5 0.464615 0.775029 0.721953
O O6 0.696922 0.003472 0.626278
O O7 0.515458 0.765856 0.011622
O O8 0.500000 0.000000 0.000000
O O9 0.062816 0.888891 0.630690
O O10 0.000000 0.000000 0.500000
O O11 0.820255 0.751035 0.861918
O O12 0.387645 0.269096 0.820827
O O13 0.631254 0.415231 0.542399
O O14 0.500000 0.500000 0.000000
O O15 0.627671 0.527867 0.261914
O O16 0.762120 0.830795 0.321727
O O17 0.219922 0.550555 0.007365
O O18 0.000000 0.500000 0.500000
#
# Coordination Sequence:
#
# PCOD9067896 Si02
#       8
#     2   2   2   2   2   2   2   2
#     4  11  26  46  72 106 142 196 240 299 370 432
#     4  12  30  47  75 105 150 194 243 300 363 438
#     4  12  26  44  72 110 148 188 237 303 370 438
#     4  12  26  49  74 106 147 191 244 306 363 436
#     4  12  24  47  75 106 148 189 246 308 365 430
#     4  12  27  47  75 108 141 194 247 296 369 434
#     4  12  26  47  71 106 149 190 243 303 365 438
#     4  11  27  48  75 103 148 190 249 308 355 435
#
# _framework density 22.552724000000001
#
# number of rings (size 3 to 8) (size 9 to 14) (size 15 to 20)
#    0.000    0.250    3.750    4.500    8.750    1.500 
#    0.000    0.000    0.000    0.000    0.000    0.000 
#    0.000    0.000    0.000    0.000    0.000    0.000 
#
# Total GULP energy -89521.818022 kJ/mol
# GULP energy per Si atom -5595.113626 kJ/mol
# Density = 2.250139 g / cm^3
# Si number density = 22.552724 Si / 1000 Ang^3
#
#
#
# Elastic Constant Matrix: (Units=GPa)
#
#
# Indices 1 2 3 4 5 6 
#
# 1 87.3887 22.1534 58.6011 -2.7052 -9.0033 -22.5260
# 2 22.1534 82.4287 31.2566 20.8583 -1.8304 -12.4269
# 3 58.6011 31.2566 159.4353 23.6308 -24.8396 -4.8114
# 4 -2.7052 20.8583 23.6308 39.5973 0.8924 -0.9858
# 5 -9.0033 -1.8304 -24.8396 0.8924 35.1348 2.5316
# 6 -22.5260 -12.4269 -4.8114 -0.9858 2.5316 36.4528
#
#
#
# Elastic Compliance Matrix: (Units=1/GPa)
#
#
# Indices 1 2 3 4 5 6 
#
# 1 0.020496 -0.002863 -0.008084 0.008041 -0.001605 0.010952
# 2 -0.002863 0.015697 -0.000846 -0.007865 -0.000552 0.003296
# 3 -0.008084 -0.000846 0.011327 -0.007120 0.006392 -0.004425
# 4 0.008041 -0.007865 -0.007120 0.034360 -0.004442 0.002586
# 5 -0.001605 -0.000552 0.006392 -0.004442 0.032851 -0.002738
# 6 0.010952 0.003296 -0.004425 0.002586 -0.002738 0.035000
#
#
# Mechanical properties :
#
#
# Convention : Reuss Voigt Hill
#
# Bulk Modulus (GPa) = 41.77938 61.47499 51.62719
# Shear Modulus (GPa) = 27.57964 36.71976 32.14970
#
# Velocity S-wave (km/s) = 3.50079 4.03944 3.77972
# Velocity P-wave (km/s) = 5.90814 7.00526 6.47996
#
# Compressibility (1/GPa) = 0.02393525
#
# Stress axis : x y z
#
# Youngs Moduli (GPa) = 48.78986 63.70817 88.28586
#
# Poissons Ratio (x) = 0.18237 0.71367
# Poissons Ratio (y) = 0.13966 0.07468
# Poissons Ratio (z) = 0.39440 0.05389
#
# Static dielectric constant tensor:
#      x y z
#    x 1.841740 -0.011680 0.010890 
#    y -0.011680 1.856580 0.037120 
#    z 0.010890 0.037120 1.882270 
# 
# From -- ./inp_files/109816.got.cif
#   From: 2010.05.17/outbox.cif.g08.bks.cpg/sg2_55_cif.got.tgz:109816.got - 2010.06.03 11:33:40.
