data_PCOD9067986
_publ_section_title
;
Structure prediction by ZEFSAII (Michael W. Deem and Ramdas Pophale) SiO2 
 PCOD9067986
Probable space group: P -1
;
_chemical_formula_sum "Si O2"
_cell_formula_units_Z 13
_cell_length_a 15.818236
_cell_length_b 11.296360
_cell_length_c 9.439342
_cell_angle_alpha 127.123508
_cell_angle_beta 25.716413
_cell_angle_gamma 138.901141
_cell_volume 464.000582
_symmetry_space_group_name_H-M "P -1"
_symmetry_group_IT_number 2
_symmetry_cell_setting 'triclinic'
loop_
_space_group_symop_operation_xyz
x,y,z
-x,-y,-z
loop_
_atom_site_type_symbol
_atom_site_label
_atom_site_fract_x
_atom_site_fract_y
_atom_site_fract_z
Si Si1 0.926659 0.204090 0.280528
Si Si2 0.000000 0.000000 0.500000
Si Si3 0.277451 0.644624 0.731238
Si Si4 0.585689 0.289617 0.720370
Si Si5 0.128417 0.276941 0.341215
Si Si6 0.244751 0.306845 0.593821
Si Si7 0.484772 0.141370 0.214420
O O1 0.733364 0.248973 0.571544
O O2 0.076357 0.281857 0.258202
O O3 0.748095 0.982104 0.417132
O O4 0.100448 0.270575 0.931275
O O5 0.106006 0.918000 0.388338
O O6 0.946002 0.839674 0.339116
O O7 0.406267 0.775765 0.496377
O O8 0.371484 0.519509 0.513213
O O9 0.295043 0.726928 0.915320
O O10 0.000000 0.500000 0.000000
O O11 0.736142 0.514311 0.659325
O O12 0.300287 0.213947 0.105524
O O13 0.449023 0.275623 0.279699
O O14 0.500000 0.000000 0.000000
#
# Coordination Sequence:
#
# PCOD9067986 Si02
#       7
#     2   1   2   2   2   2   2
#     4  12  27  49  80 112 156 205 265 325 393 469
#     4  12  26  46  82 108 154 210 254 328 390 462
#     4  12  27  50  76 113 155 207 259 323 392 474
#     4  11  26  46  77 113 156 207 261 319 398 469
#     4  11  26  48  76 115 158 202 262 329 390 467
#     4  12  27  51  80 111 161 206 260 329 396 463
#     4  12  31  48  80 117 156 205 267 325 398 471
#
# _framework density 28.017208
#
# number of rings (size 3 to 8) (size 9 to 14) (size 15 to 20)
#    0.000    0.308    4.615    2.308    8.615    1.846 
#    0.000    0.000    0.000    0.000    0.000    0.000 
#    0.000    0.000    0.000    0.000    0.000    0.000 
#
# Total GULP energy -72631.267453 kJ/mol
# GULP energy per Si atom -5587.020573 kJ/mol
# Density = 2.795344 g / cm^3
# Si number density = 28.017208 Si / 1000 Ang^3
#
#
#
# Elastic Constant Matrix: (Units=GPa)
#
#
# Indices 1 2 3 4 5 6 
#
# 1 204.4621 47.3251 80.4888 26.6628 0.2165 -5.6911
# 2 47.3251 128.5255 11.3227 24.1814 -16.2911 -6.4903
# 3 80.4888 11.3227 102.0209 16.8722 -18.6064 -1.7269
# 4 26.6628 24.1814 16.8722 41.9078 -2.9946 -3.8014
# 5 0.2165 -16.2911 -18.6064 -2.9946 56.4389 10.1915
# 6 -5.6911 -6.4903 -1.7269 -3.8014 10.1915 59.5847
#
#
#
# Elastic Compliance Matrix: (Units=1/GPa)
#
#
# Indices 1 2 3 4 5 6 
#
# 1 0.008278 -0.002589 -0.006596 -0.001272 -0.003162 0.000777
# 2 -0.002589 0.009847 0.002349 -0.004738 0.003372 0.000014
# 3 -0.006596 0.002349 0.016414 -0.003434 0.006143 -0.001168
# 4 -0.001272 -0.004738 -0.003434 0.028820 -0.001202 0.001307
# 5 -0.003162 0.003372 0.006143 -0.001202 0.021293 -0.003475
# 6 0.000777 0.000014 -0.001168 0.001307 -0.003475 0.017503
#
#
# Mechanical properties :
#
#
# Convention : Reuss Voigt Hill
#
# Bulk Modulus (GPa) = 47.92802 79.25352 63.59077
# Shear Modulus (GPa) = 40.72245 51.31106 46.01676
#
# Velocity S-wave (km/s) = 3.81659 4.28414 4.05711
# Velocity P-wave (km/s) = 6.04695 7.26778 6.68529
#
# Compressibility (1/GPa) = 0.02086462
#
# Stress axis : x y z
#
# Youngs Moduli (GPa) = 120.80541 101.55872 60.92387
#
# Poissons Ratio (x) = 0.26294 0.40188
# Poissons Ratio (y) = 0.31277 -0.14309
# Poissons Ratio (z) = 0.79688 -0.23852
#
# Static dielectric constant tensor:
#      x y z
#    x 2.267590 -0.144820 0.074490 
#    y -0.144820 2.486500 -0.307720 
#    z 0.074490 -0.307720 2.621950 
# 
# From -- ./inp_files/159888.got.cif
#   From: 2010.05.17/outbox.cif.g08.bks.cpg/sg2_80_cif.got.tgz:159888.got - 2010.06.03 11:33:40.
