data_PCOD9067221
_publ_section_title
;
Structure prediction by ZEFSAII (Michael W. Deem and Ramdas Pophale) SiO2 
 PCOD9067221
Probable space group: P -1
;
_chemical_formula_sum "Si O2"
_cell_formula_units_Z 16
_cell_length_a 5.007791
_cell_length_b 18.064777
_cell_length_c 7.556266
_cell_angle_alpha 111.681832
_cell_angle_beta 113.247996
_cell_angle_gamma 74.812850
_cell_volume 578.210339
_symmetry_space_group_name_H-M "P -1"
_symmetry_group_IT_number 2
_symmetry_cell_setting 'triclinic'
loop_
_space_group_symop_operation_xyz
x,y,z
-x,-y,-z
loop_
_atom_site_type_symbol
_atom_site_label
_atom_site_fract_x
_atom_site_fract_y
_atom_site_fract_z
Si Si1 0.714421 0.226778 0.393393
Si Si2 0.521055 0.355511 0.756312
Si Si3 0.734124 0.828745 0.289002
Si Si4 0.978637 0.656281 0.616924
Si Si5 0.889904 0.080322 0.795243
Si Si6 0.471698 0.526805 0.720040
Si Si7 0.171039 0.328040 0.038297
Si Si8 0.730679 0.063290 0.141006
O O1 0.600618 0.281231 0.576021
O O2 0.573468 0.146966 0.248651
O O3 0.042149 0.186863 0.506448
O O4 0.791509 0.283010 0.303944
O O5 0.165520 0.360380 0.625135
O O6 0.540301 0.446858 0.780034
O O7 0.818033 0.337881 0.935121
O O8 0.436954 0.883564 0.314308
O O9 0.892926 0.869150 0.205770
O O10 0.687169 0.741069 0.120623
O O11 0.143017 0.574089 0.670180
O O12 0.776304 0.691670 0.757942
O O13 0.866395 0.085286 0.007585
O O14 0.015442 0.986692 0.717486
O O15 0.500000 0.500000 0.500000
O O16 0.684670 0.591318 0.891259
O O17 0.500000 0.000000 0.000000
#
# Coordination Sequence:
#
# PCOD9067221 Si02
#       8
#     2   2   2   2   2   2   2   2
#     4  11  27  46  74 103 146 190 247 309 373 448
#     4  11  26  47  70 108 146 192 259 309 379 452
#     4  11  27  48  73 112 148 195 252 306 371 449
#     4  12  25  45  74 105 146 199 251 311 379 446
#     4  11  25  48  74 107 151 188 247 301 373 446
#     4  12  24  46  70 105 149 198 249 312 378 447
#     4  11  27  44  75 106 150 198 251 312 379 442
#     4  11  25  48  76 111 146 195 245 303 375 455
#
# _framework density 27.671592
#
# number of rings (size 3 to 8) (size 9 to 14) (size 15 to 20)
#    0.000    0.750    3.750    1.500    8.750    4.500 
#    0.000    0.000    0.000    0.000    0.000    0.000 
#    0.000    0.000    0.000    0.000    0.000    0.000 
#
# Total GULP energy -89520.116540 kJ/mol
# GULP energy per Si atom -5595.007284 kJ/mol
# Density = 2.760861 g / cm^3
# Si number density = 27.671592 Si / 1000 Ang^3
#
#
#
# Elastic Constant Matrix: (Units=GPa)
#
#
# Indices 1 2 3 4 5 6 
#
# 1 100.2716 5.0649 4.5575 15.7189 23.8845 -1.4834
# 2 5.0649 100.6994 5.0867 28.7496 8.4320 0.4906
# 3 4.5575 5.0867 76.6732 11.0225 21.3745 16.4936
# 4 15.7189 28.7496 11.0225 65.3635 -4.2180 13.1122
# 5 23.8845 8.4320 21.3745 -4.2180 35.5134 6.9527
# 6 -1.4834 0.4906 16.4936 13.1122 6.9527 40.1120
#
#
#
# Elastic Compliance Matrix: (Units=1/GPa)
#
#
# Indices 1 2 3 4 5 6 
#
# 1 0.013852 0.002009 0.002757 -0.006241 -0.012904 0.003631
# 2 0.002009 0.012318 0.001268 -0.007100 -0.006438 0.002839
# 3 0.002757 0.001268 0.017704 -0.004298 -0.012616 -0.003602
# 4 -0.006241 -0.007100 -0.004298 0.023109 0.012810 -0.008151
# 5 -0.012904 -0.006438 -0.012616 0.012810 0.049026 -0.007896
# 6 0.003631 0.002839 -0.003602 -0.008151 -0.007896 0.030544
#
#
# Mechanical properties :
#
#
# Convention : Reuss Voigt Hill
#
# Bulk Modulus (GPa) = 17.87612 34.11806 25.99709
# Shear Modulus (GPa) = 32.65135 45.72678 39.18906
#
# Velocity S-wave (km/s) = 3.43878 4.06948 3.76735
# Velocity P-wave (km/s) = 4.71604 5.86833 5.32346
#
# Compressibility (1/GPa) = 0.05594056
#
# Stress axis : x y z
#
# Youngs Moduli (GPa) = 72.19184 81.18459 56.48434
#
# Poissons Ratio (x) = -0.16306 -0.15572
# Poissons Ratio (y) = -0.14500 -0.07162
# Poissons Ratio (z) = -0.19902 -0.10294
#
# Static dielectric constant tensor:
#      x y z
#    x 2.094680 -0.073660 0.058120 
#    y -0.073660 2.249530 -0.068630 
#    z 0.058120 -0.068630 2.187950 
# 
# From -- ./inp_files/139416.got.cif
#   From: 2010.05.17/outbox.cif.g08.bks.cpg/sg2_70_cif.got.tgz:139416.got - 2010.06.03 11:33:40.
