data_PCOD9067254
_publ_section_title
;
Structure prediction by ZEFSAII (Michael W. Deem and Ramdas Pophale) SiO2 
 PCOD9067254
Probable space group: P -1
;
_chemical_formula_sum "Si O2"
_cell_formula_units_Z 16
_cell_length_a 16.967323
_cell_length_b 5.413719
_cell_length_c 22.517699
_cell_angle_alpha 106.324357
_cell_angle_beta 158.914800
_cell_angle_gamma 82.145189
_cell_volume 665.192943
_symmetry_space_group_name_H-M "P -1"
_symmetry_group_IT_number 2
_symmetry_cell_setting 'triclinic'
loop_
_space_group_symop_operation_xyz
x,y,z
-x,-y,-z
loop_
_atom_site_type_symbol
_atom_site_label
_atom_site_fract_x
_atom_site_fract_y
_atom_site_fract_z
Si Si1 0.360825 0.466992 0.051834
Si Si2 0.208875 0.999999 0.602739
Si Si3 0.712632 0.233670 0.700274
Si Si4 0.595747 0.320093 0.098733
Si Si5 0.128350 0.395093 0.476819
Si Si6 0.904630 0.520590 0.734323
Si Si7 0.513720 0.424094 0.361663
Si Si8 0.839880 0.882744 0.999254
O O1 0.526549 0.787961 0.186363
O O2 0.512343 0.348798 0.108550
O O3 0.304674 0.361773 0.072910
O O4 0.098835 0.404605 0.838806
O O5 0.137506 0.137334 0.503668
O O6 0.228473 0.701131 0.596953
O O7 0.000000 0.000000 0.500000
O O8 0.839299 0.448043 0.751840
O O9 0.622693 0.383423 0.698147
O O10 0.500000 0.000000 0.500000
O O11 0.921645 0.137400 0.861459
O O12 0.868882 0.392835 0.284689
O O13 0.500000 0.500000 0.000000
O O14 0.500000 0.000000 0.000000
O O15 0.275465 0.408819 0.522530
O O16 0.661297 0.389005 0.519445
O O17 0.049473 0.849266 0.862417
O O18 0.340063 0.160118 0.185336
#
# Coordination Sequence:
#
# PCOD9067254 Si02
#       8
#     2   2   2   2   2   2   2   2
#     4  11  26  46  75 103 155 192 257 322 377 466
#     4  12  25  48  76 108 151 202 257 322 385 452
#     4  11  25  48  75 110 150 197 251 317 388 463
#     4  12  28  45  71 108 152 204 259 317 391 459
#     4  12  27  45  73 114 148 200 260 313 388 461
#     4  11  26  48  75 108 147 203 249 319 388 458
#     4  12  25  47  76 108 151 193 257 319 381 466
#     4  11  25  49  74 110 147 196 253 312 392 456
#
# _framework density 24.053170000000001
#
# number of rings (size 3 to 8) (size 9 to 14) (size 15 to 20)
#    0.000    0.500    3.750    3.375    3.500    1.500 
#    4.500    0.000    0.000    0.000    0.000    0.000 
#    0.000    0.000    0.000    0.000    0.000    0.000 
#
# Total GULP energy -89368.681337 kJ/mol
# GULP energy per Si atom -5585.542584 kJ/mol
# Density = 2.399842 g / cm^3
# Si number density = 24.053170 Si / 1000 Ang^3
#
#
#
# Elastic Constant Matrix: (Units=GPa)
#
#
# Indices 1 2 3 4 5 6 
#
# 1 115.7494 51.8286 13.1216 -12.5268 28.8118 -69.7672
# 2 51.8286 204.2754 34.2317 5.1513 9.8069 -220.0684
# 3 13.1216 34.2317 152.0556 -17.3130 5.1951 -14.2181
# 4 -12.5268 5.1513 -17.3130 56.2669 -4.5667 -8.9511
# 5 28.8118 9.8069 5.1951 -4.5667 51.8678 -24.8268
# 6 -69.7672 -220.0684 -14.2181 -8.9511 -24.8268 350.6680
#
#
#
# Elastic Compliance Matrix: (Units=1/GPa)
#
#
# Indices 1 2 3 4 5 6 
#
# 1 0.011592 -0.001854 -0.000044 0.002422 -0.005481 0.000815
# 2 -0.001854 0.016681 -0.002855 -0.000962 0.002944 0.010168
# 3 -0.000044 -0.002855 0.007360 0.002222 -0.000693 -0.001494
# 4 0.002422 -0.000962 0.002222 0.019207 0.000543 0.000497
# 5 -0.005481 0.002944 -0.000693 0.000543 0.023021 0.002373
# 6 0.000815 0.010168 -0.001494 0.000497 0.002373 0.009515
#
#
# Mechanical properties :
#
#
# Convention : Reuss Voigt Hill
#
# Bulk Modulus (GPa) = 38.27310 74.49379 56.38345
# Shear Modulus (GPa) = 47.35375 116.62045 81.98710
#
# Velocity S-wave (km/s) = 4.44183 6.97063 5.84464
# Velocity P-wave (km/s) = 6.50022 9.78897 8.30894
#
# Compressibility (1/GPa) = 0.02612801
#
# Stress axis : x y z
#
# Youngs Moduli (GPa) = 86.26671 59.94995 135.87025
#
# Poissons Ratio (x) = 0.11114 0.00595
# Poissons Ratio (y) = 0.15993 0.38786
# Poissons Ratio (z) = 0.00378 0.17113
#
# Static dielectric constant tensor:
#      x y z
#    x 1.490960 0.319000 -0.374490 
#    y 0.319000 1.718990 0.226150 
#    z -0.374490 0.226150 1.878060 
# 
# From -- ./inp_files/551208.got.cif
#   From: 2010.05.17/outbox.cif.g08.bks.cpg/sg2_276_cif.got.tgz:551208.got - 2010.06.03 11:33:40.
