data_PCOD9067763
_publ_section_title
;
Structure prediction by ZEFSAII (Michael W. Deem and Ramdas Pophale) SiO2 
 PCOD9067763
Probable space group: P -1
;
_chemical_formula_sum "Si O2"
_cell_formula_units_Z 13
_cell_length_a 9.076119
_cell_length_b 9.076228
_cell_length_c 9.530799
_cell_angle_alpha 68.665651
_cell_angle_beta 68.665942
_cell_angle_gamma 52.427476
_cell_volume 568.810631
_symmetry_space_group_name_H-M "P -1"
_symmetry_group_IT_number 2
_symmetry_cell_setting 'triclinic'
loop_
_space_group_symop_operation_xyz
x,y,z
-x,-y,-z
loop_
_atom_site_type_symbol
_atom_site_label
_atom_site_fract_x
_atom_site_fract_y
_atom_site_fract_z
Si Si1 0.014767 0.133132 0.838708
Si Si2 0.531764 0.647449 0.516160
Si Si3 0.366866 0.485236 0.161292
Si Si4 0.147451 0.031764 0.516160
Si Si5 0.783771 0.658979 0.207076
Si Si6 0.158977 0.283775 0.207076
Si Si7 0.500000 0.000000 0.000000
O O1 0.123245 0.221176 0.839686
O O2 0.804634 0.304633 0.816359
O O3 0.113785 0.039895 0.690627
O O4 0.000000 0.000000 0.000000
O O5 0.500000 0.500000 0.500000
O O6 0.539893 0.613783 0.690627
O O7 0.357066 0.857065 0.475486
O O8 0.714333 0.627578 0.390420
O O9 0.278819 0.376761 0.160315
O O10 0.500000 0.500000 0.000000
O O11 0.127579 0.214332 0.390419
O O12 0.000000 0.000000 0.500000
O O13 0.949296 0.449301 0.168218
O O14 0.601576 0.797327 0.126167
O O15 0.297326 0.101584 0.126165
#
# Coordination Sequence:
#
# PCOD9067763 Si02
#       7
#     2   2   2   2   2   2   1
#     4  11  26  45  71 102 141 184 234 292 352 418
#     4  12  26  45  72 103 141 187 236 291 354 421
#     4  11  26  45  71 102 141 184 234 292 352 418
#     4  12  26  45  72 103 141 187 236 291 354 421
#     4  11  26  47  71 105 143 187 235 293 351 418
#     4  11  26  47  71 105 143 187 235 293 351 418
#     4  12  26  44  78 102 144 186 240 288 356 422
#
# _framework density 22.854706
#
# number of rings (size 3 to 8) (size 9 to 14) (size 15 to 20)
#    0.000    0.615    1.538    5.077    8.615    3.692 
#    0.000    0.000    0.000    0.000    0.000    0.000 
#    0.000    0.000    0.000    0.000    0.000    0.000 
#
# Total GULP energy -72493.392297 kJ/mol
# GULP energy per Si atom -5576.414792 kJ/mol
# Density = 2.280269 g / cm^3
# Si number density = 22.854706 Si / 1000 Ang^3
#
#
#
# Elastic Constant Matrix: (Units=GPa)
#
#
# Indices 1 2 3 4 5 6 
#
# 1 57.3853 39.8715 29.0973 -5.5382 -19.4919 -12.6842
# 2 39.8715 149.3949 42.3032 -3.9896 -0.9417 -42.1333
# 3 29.0973 42.3032 178.9517 -10.9879 -23.5663 -7.8670
# 4 -5.5382 -3.9896 -10.9879 45.9670 -0.3775 -6.8473
# 5 -19.4919 -0.9417 -23.5663 -0.3775 45.3318 -8.2914
# 6 -12.6842 -42.1333 -7.8670 -6.8473 -8.2914 36.9487
#
#
#
# Elastic Compliance Matrix: (Units=1/GPa)
#
#
# Indices 1 2 3 4 5 6 
#
# 1 0.027571 -0.004807 -0.001145 0.003815 0.012519 0.007256
# 2 -0.004807 0.011708 -0.001416 0.001830 -0.000415 0.011645
# 3 -0.001145 -0.001416 0.006601 0.001390 0.002981 0.000324
# 4 0.003815 0.001830 0.001390 0.024098 0.004269 0.009116
# 5 0.012519 -0.000415 0.002981 0.004269 0.031262 0.012266
# 6 0.007256 0.011645 0.000324 0.009116 0.012266 0.047345
#
#
# Mechanical properties :
#
#
# Convention : Reuss Voigt Hill
#
# Bulk Modulus (GPa) = 32.10953 67.58623 49.84788
# Shear Modulus (GPa) = 28.78468 43.94683 36.36576
#
# Velocity S-wave (km/s) = 3.55274 4.38982 3.99328
# Velocity P-wave (km/s) = 5.55961 7.43844 6.56657
#
# Compressibility (1/GPa) = 0.03114341
#
# Stress axis : x y z
#
# Youngs Moduli (GPa) = 36.27057 85.41015 151.48751
#
# Poissons Ratio (x) = 0.41057 0.17342
# Poissons Ratio (y) = 0.17435 0.21458
# Poissons Ratio (z) = 0.04152 0.12098
#
# Static dielectric constant tensor:
#      x y z
#    x 1.854130 -0.028170 0.027040 
#    y -0.028170 1.901360 0.012580 
#    z 0.027040 0.012580 2.539950 
# 
# From -- ./inp_files/156501.got.cif
#   From: 2010.05.17/outbox.cif.g08.bks.cpg/sg2_79_cif.got.tgz:156501.got - 2010.06.03 11:33:40.
