data_PCOD9067340
_publ_section_title
;
Structure prediction by ZEFSAII (Michael W. Deem and Ramdas Pophale) SiO2 
 PCOD9067340
Probable space group: P -1
;
_chemical_formula_sum "Si O2"
_cell_formula_units_Z 10
_cell_length_a 7.903928
_cell_length_b 8.734006
_cell_length_c 9.414800
_cell_angle_alpha 132.214093
_cell_angle_beta 75.161187
_cell_angle_gamma 80.233273
_cell_volume 408.889938
_symmetry_space_group_name_H-M "P -1"
_symmetry_group_IT_number 2
_symmetry_cell_setting 'triclinic'
loop_
_space_group_symop_operation_xyz
x,y,z
-x,-y,-z
loop_
_atom_site_type_symbol
_atom_site_label
_atom_site_fract_x
_atom_site_fract_y
_atom_site_fract_z
Si Si1 0.936024 0.378451 0.563274
Si Si2 0.485933 0.735552 0.224070
Si Si3 0.499873 0.786308 0.948468
Si Si4 0.069183 0.894944 0.077315
Si Si5 0.838729 0.794362 0.297936
O O1 0.700148 0.545625 0.730218
O O2 0.000000 0.500000 0.500000
O O3 0.028794 0.338865 0.676785
O O4 0.014428 0.119929 0.326333
O O5 0.674633 0.709208 0.254242
O O6 0.286895 0.924488 0.462915
O O7 0.500000 0.500000 0.000000
O O8 0.488815 0.868532 0.163613
O O9 0.308431 0.755133 0.934213
O O10 0.500000 0.000000 0.000000
O O11 0.962456 0.772492 0.113235
O O12 0.000000 0.000000 0.000000
#
# Coordination Sequence:
#
# PCOD9067340 Si02
#       5
#     2   2   2   2   2
#     4  12  26  48  79 112 158 205 260 320 383 466
#     4  11  25  48  81 113 152 202 262 319 387 467
#     4  12  25  47  75 110 158 201 258 319 387 459
#     4  12  27  48  77 114 158 204 257 322 386 460
#     4  11  26  50  78 115 158 205 259 320 388 461
#
# _framework density 24.45646
#
# number of rings (size 3 to 8) (size 9 to 14) (size 15 to 20)
#    0.000    0.400    4.000    3.000    2.800    4.800 
#    0.000    0.000    0.000    0.000    0.000    0.000 
#    0.000    0.000    0.000    0.000    0.000    0.000 
#
# Total GULP energy -55942.969435 kJ/mol
# GULP energy per Si atom -5594.296944 kJ/mol
# Density = 2.440080 g / cm^3
# Si number density = 24.456460 Si / 1000 Ang^3
#
#
#
# Elastic Constant Matrix: (Units=GPa)
#
#
# Indices 1 2 3 4 5 6 
#
# 1 171.4395 87.0670 88.7452 3.1559 -31.7597 -30.7919
# 2 87.0670 171.8637 50.2215 -23.6107 -8.3133 -12.9609
# 3 88.7452 50.2215 144.3311 4.8839 -12.0712 -4.9360
# 4 3.1559 -23.6107 4.8839 56.4805 4.0326 2.4139
# 5 -31.7597 -8.3133 -12.0712 4.0326 62.3886 2.0853
# 6 -30.7919 -12.9609 -4.9360 2.4139 2.0853 55.3846
#
#
#
# Elastic Compliance Matrix: (Units=1/GPa)
#
#
# Indices 1 2 3 4 5 6 
#
# 1 0.013210 -0.004724 -0.005775 -0.002810 0.004971 0.005660
# 2 -0.004724 0.008776 -0.000444 0.004114 -0.001563 -0.000733
# 3 -0.005775 -0.000444 0.010504 -0.000611 -0.000849 -0.002320
# 4 -0.002810 0.004114 -0.000611 0.019856 -0.002236 -0.001435
# 5 0.004971 -0.001563 -0.000849 -0.002236 0.018273 0.001732
# 6 0.005660 -0.000733 -0.002320 -0.001435 0.001732 0.020821
#
#
# Mechanical properties :
#
#
# Convention : Reuss Voigt Hill
#
# Bulk Modulus (GPa) = 94.29350 104.41132 99.35241
# Shear Modulus (GPa) = 42.78632 52.29078 47.53855
#
# Velocity S-wave (km/s) = 4.18723 4.62899 4.41364
# Velocity P-wave (km/s) = 7.87506 8.44722 8.16615
#
# Compressibility (1/GPa) = 0.01060519
#
# Stress axis : x y z
#
# Youngs Moduli (GPa) = 75.69905 113.95084 95.20220
#
# Poissons Ratio (x) = 0.53828 0.54975
# Poissons Ratio (y) = 0.35758 0.04227
# Poissons Ratio (z) = 0.43713 0.05060
#
# Static dielectric constant tensor:
#      x y z
#    x 2.041610 0.031450 -0.048100 
#    y 0.031450 2.054710 0.026640 
#    z -0.048100 0.026640 1.961500 
# 
# From -- ./inp_files/156319.got.cif
#   From: 2010.05.17/outbox.cif.g08.bks.cpg/sg2_79_cif.got.tgz:156319.got - 2010.06.03 11:33:40.
