data_PCOD9067443
_publ_section_title
;
Structure prediction by ZEFSAII (Michael W. Deem and Ramdas Pophale) SiO2 
 PCOD9067443
Probable space group: P -1
;
_chemical_formula_sum "Si O2"
_cell_formula_units_Z 14
_cell_length_a 13.717219
_cell_length_b 24.102782
_cell_length_c 5.655022
_cell_angle_alpha 58.918762
_cell_angle_beta 118.999571
_cell_angle_gamma 158.117971
_cell_volume 596.688690
_symmetry_space_group_name_H-M "P -1"
_symmetry_group_IT_number 2
_symmetry_cell_setting 'triclinic'
loop_
_space_group_symop_operation_xyz
x,y,z
-x,-y,-z
loop_
_atom_site_type_symbol
_atom_site_label
_atom_site_fract_x
_atom_site_fract_y
_atom_site_fract_z
Si Si1 0.468514 0.427460 0.931132
Si Si2 0.351057 0.614739 0.543200
Si Si3 0.710521 0.986655 0.737585
Si Si4 0.934644 0.732938 0.528104
Si Si5 0.852533 0.933091 0.224863
Si Si6 0.604935 0.105726 0.085602
Si Si7 0.252386 0.699065 0.500211
O O1 0.686288 0.562529 0.701618
O O2 0.184127 0.292922 0.784044
O O3 0.500000 0.500000 0.000000
O O4 0.542718 0.394937 0.184478
O O5 0.575690 0.750299 0.319139
O O6 0.318629 0.661042 0.573378
O O7 0.052746 0.451863 0.455601
O O8 0.621210 0.999439 0.762951
O O9 0.459998 0.826471 0.663807
O O10 0.800876 0.981361 0.039027
O O11 0.927527 0.129649 0.498434
O O12 0.152404 0.794087 0.704207
O O13 0.000000 0.000000 0.500000
O O14 0.000000 0.000000 0.000000
O O15 0.693069 0.219132 0.818729
O O16 0.500000 0.000000 0.000000
#
# Coordination Sequence:
#
# PCOD9067443 Si02
#       7
#     2   2   2   2   2   2   2
#     4  11  27  47  75 108 155 203 255 318 392 471
#     4  11  25  52  76 113 159 206 270 334 401 480
#     4  12  27  46  77 114 150 206 266 325 406 473
#     4  11  26  45  72 112 147 204 258 313 390 470
#     4  12  28  50  78 113 160 213 266 326 400 486
#     4  12  25  46  77 111 155 196 266 332 394 479
#     4  11  25  49  77 114 157 208 264 336 405 471
#
# _framework density 23.462821999999999
#
# number of rings (size 3 to 8) (size 9 to 14) (size 15 to 20)
#    0.000    0.571    4.286    2.143    6.000    0.571 
#    5.143    0.000    0.000    0.000    0.000    0.000 
#    0.000    0.000    0.000    0.000    0.000    0.000 
#
# Total GULP energy -78073.671307 kJ/mol
# GULP energy per Si atom -5576.690808 kJ/mol
# Density = 2.340942 g / cm^3
# Si number density = 23.462822 Si / 1000 Ang^3
#
#
#
# Elastic Constant Matrix: (Units=GPa)
#
#
# Indices 1 2 3 4 5 6 
#
# 1 101.0817 39.0427 62.3661 22.7454 27.3836 1.2502
# 2 39.0427 123.9716 55.4456 4.4143 10.5367 7.7394
# 3 62.3661 55.4456 168.0378 3.7863 47.8105 10.7046
# 4 22.7454 4.4143 3.7863 52.1535 1.3592 7.2112
# 5 27.3836 10.5367 47.8105 1.3592 48.8916 0.8322
# 6 1.2502 7.7394 10.7046 7.2112 0.8322 38.5455
#
#
#
# Elastic Compliance Matrix: (Units=1/GPa)
#
#
# Indices 1 2 3 4 5 6 
#
# 1 0.016008 -0.002922 -0.003673 -0.006685 -0.004600 0.002437
# 2 -0.002922 0.010114 -0.002813 0.000751 0.002209 -0.001343
# 3 -0.003673 -0.002813 0.010531 0.001603 -0.007639 -0.002376
# 4 -0.006685 0.000751 0.001603 0.022510 0.001468 -0.004622
# 5 -0.004600 0.002209 -0.007639 0.001468 0.029967 0.000905
# 6 0.002437 -0.001343 -0.002376 -0.004622 0.000905 0.027639
#
#
# Mechanical properties :
#
#
# Convention : Reuss Voigt Hill
#
# Bulk Modulus (GPa) = 56.06107 78.53332 67.29719
# Shear Modulus (GPa) = 35.32806 43.66724 39.49765
#
# Velocity S-wave (km/s) = 3.88455 4.31876 4.10739
# Velocity P-wave (km/s) = 6.63815 7.64283 7.15814
#
# Compressibility (1/GPa) = 0.01783769
#
# Stress axis : x y z
#
# Youngs Moduli (GPa) = 62.46891 98.87429 94.95807
#
# Poissons Ratio (x) = 0.28890 0.34878
# Poissons Ratio (y) = 0.18253 0.26709
# Poissons Ratio (z) = 0.22945 0.27810
#
# Static dielectric constant tensor:
#      x y z
#    x 2.128000 0.007070 -0.020030 
#    y 0.007070 2.106260 -0.084470 
#    z -0.020030 -0.084470 1.933870 
# 
# From -- ./inp_files/101615.got.cif
#   From: 2010.05.17/outbox.cif.g08.bks.cpg/sg2_51_cif.got.tgz:101615.got - 2010.06.03 11:33:40.
