data_PCOD9067998
_publ_section_title
;
Structure prediction by ZEFSAII (Michael W. Deem and Ramdas Pophale) SiO2 
 PCOD9067998
Probable space group: P -1
;
_chemical_formula_sum "Si O2"
_cell_formula_units_Z 12
_cell_length_a 8.469517
_cell_length_b 5.102165
_cell_length_c 10.744721
_cell_angle_alpha 94.621572
_cell_angle_beta 77.638517
_cell_angle_gamma 94.261984
_cell_volume 451.294029
_symmetry_space_group_name_H-M "P -1"
_symmetry_group_IT_number 2
_symmetry_cell_setting 'triclinic'
loop_
_space_group_symop_operation_xyz
x,y,z
-x,-y,-z
loop_
_atom_site_type_symbol
_atom_site_label
_atom_site_fract_x
_atom_site_fract_y
_atom_site_fract_z
Si Si1 0.348069 0.058599 0.610464
Si Si2 0.056672 0.796123 0.725569
Si Si3 0.163059 0.341066 0.439994
Si Si4 0.978281 0.296591 0.882336
Si Si5 0.530547 0.456886 0.772676
Si Si6 0.365750 0.770884 0.998334
O O1 0.231647 0.222704 0.549228
O O2 0.428328 0.212314 0.720010
O O3 0.500000 0.000000 0.500000
O O4 0.237059 0.792777 0.640916
O O5 0.919492 0.871114 0.652023
O O6 0.993842 0.514703 0.778978
O O7 0.081832 0.050740 0.821505
O O8 0.324197 0.459775 0.343828
O O9 0.000000 0.500000 0.500000
O O10 0.810883 0.140220 0.941823
O O11 0.000000 0.500000 0.000000
O O12 0.613441 0.414116 0.891327
O O13 0.394306 0.647515 0.853647
O O14 0.500000 0.000000 0.000000
#
# Coordination Sequence:
#
# PCOD9067998 Si02
#       6
#     2   2   2   2   2   2
#     4  12  29  46  80 116 156 208 270 331 394 477
#     4  12  27  50  77 114 162 205 269 328 399 483
#     4  12  26  52  80 113 160 215 266 330 403 478
#     4  12  27  47  80 115 156 209 265 329 402 476
#     4  11  26  49  73 116 153 202 267 321 405 469
#     4  11  26  46  79 106 159 205 258 329 398 477
#
# _framework density 26.590202999999999
#
# number of rings (size 3 to 8) (size 9 to 14) (size 15 to 20)
#    0.000    0.333    1.667    5.500    9.333    1.333 
#    0.000    0.000    0.000    0.000    0.000    0.000 
#    0.000    0.000    0.000    0.000    0.000    0.000 
#
# Total GULP energy -67061.526141 kJ/mol
# GULP energy per Si atom -5588.460512 kJ/mol
# Density = 2.652968 g / cm^3
# Si number density = 26.590203 Si / 1000 Ang^3
#
#
#
# Elastic Constant Matrix: (Units=GPa)
#
#
# Indices 1 2 3 4 5 6 
#
# 1 107.5479 23.5857 40.1645 -18.1862 -18.9407 22.9708
# 2 23.5857 112.6843 35.8853 -3.0925 -18.3886 20.9262
# 3 40.1645 35.8853 119.7634 -1.6588 -11.5758 3.5442
# 4 -18.1862 -3.0925 -1.6588 49.5976 6.3646 -6.2222
# 5 -18.9407 -18.3886 -11.5758 6.3646 64.5414 -14.5870
# 6 22.9708 20.9262 3.5442 -6.2222 -14.5870 61.3879
#
#
#
# Elastic Compliance Matrix: (Units=1/GPa)
#
#
# Indices 1 2 3 4 5 6 
#
# 1 0.012473 -0.000379 -0.003748 0.003762 0.001711 -0.003534
# 2 -0.000379 0.010681 -0.002817 -0.000163 0.001781 -0.002930
# 3 -0.003748 -0.002817 0.010429 -0.001040 0.000470 0.001767
# 4 0.003762 -0.000163 -0.001040 0.021722 -0.001126 0.000642
# 5 0.001711 0.001781 0.000470 -0.001126 0.017315 0.002726
# 6 -0.003534 -0.002930 0.001767 0.000642 0.002726 0.019222
#
#
# Mechanical properties :
#
#
# Convention : Reuss Voigt Hill
#
# Bulk Modulus (GPa) = 50.76830 59.91851 55.34340
# Shear Modulus (GPa) = 44.52629 51.12938 47.82783
#
# Velocity S-wave (km/s) = 4.09655 4.38981 4.24571
# Velocity P-wave (km/s) = 6.44282 6.94815 6.70025
#
# Compressibility (1/GPa) = 0.01969733
#
# Stress axis : x y z
#
# Youngs Moduli (GPa) = 80.17343 93.62524 95.88304
#
# Poissons Ratio (x) = 0.03544 0.35933
# Poissons Ratio (y) = 0.03035 0.27009
# Poissons Ratio (z) = 0.30045 0.26373
#
# Static dielectric constant tensor:
#      x y z
#    x 2.248330 0.118690 0.224310 
#    y 0.118690 2.467020 0.341400 
#    z 0.224310 0.341400 2.465880 
# 
# From -- ./inp_files/372641.got.cif
#   From: 2010.05.17/outbox.cif.g08.bks.cpg/sg2_187_cif.got.tgz:372641.got - 2010.06.03 11:33:40.
