data_PCOD9067841
_publ_section_title
;
Structure prediction by ZEFSAII (Michael W. Deem and Ramdas Pophale) SiO2 
 PCOD9067841
Probable space group: P -1
;
_chemical_formula_sum "Si O2"
_cell_formula_units_Z 12
_cell_length_a 14.305543
_cell_length_b 17.797966
_cell_length_c 8.223400
_cell_angle_alpha 42.147682
_cell_angle_beta 36.289806
_cell_angle_gamma 21.591911
_cell_volume 455.716726
_symmetry_space_group_name_H-M "P -1"
_symmetry_group_IT_number 2
_symmetry_cell_setting 'triclinic'
loop_
_space_group_symop_operation_xyz
x,y,z
-x,-y,-z
loop_
_atom_site_type_symbol
_atom_site_label
_atom_site_fract_x
_atom_site_fract_y
_atom_site_fract_z
Si Si1 0.913005 0.425068 0.708441
Si Si2 0.484100 0.055370 0.661399
Si Si3 0.615212 0.344685 0.719551
Si Si4 0.067438 0.042773 0.985315
Si Si5 0.677243 0.731668 0.109279
Si Si6 0.566582 0.570243 0.638451
O O1 0.208190 0.189900 0.721774
O O2 0.000000 0.500000 0.500000
O O3 0.757089 0.274640 0.105301
O O4 0.671361 0.538251 0.993993
O O5 0.695997 0.013664 0.334067
O O6 0.383262 0.175446 0.779069
O O7 0.609970 0.862819 0.855723
O O8 0.730016 0.369607 0.648069
O O9 0.484848 0.291298 0.625425
O O10 0.816796 0.116458 0.787823
O O11 0.000000 0.000000 0.000000
O O12 0.761725 0.497577 0.630566
O O13 0.000000 0.500000 0.000000
O O14 0.500000 0.500000 0.500000
#
# Coordination Sequence:
#
# PCOD9067841 Si02
#       6
#     2   2   2   2   2   2
#     4  12  23  50  76 116 153 200 258 318 379 465
#     4  11  26  48  77 113 158 201 256 327 377 454
#     4  12  30  48  79 113 160 200 258 324 386 456
#     4  12  24  50  80 109 154 207 259 314 385 464
#     4  11  26  45  76 114 158 199 258 313 393 449
#     4  12  28  51  80 112 155 208 258 312 395 462
#
# _framework density 26.332146999999999
#
# number of rings (size 3 to 8) (size 9 to 14) (size 15 to 20)
#    0.000    0.333    6.667    0.500    7.000    2.000 
#    0.000    3.333    0.000    0.000    0.000    0.000 
#    0.000    0.000    0.000    0.000    0.000    0.000 
#
# Total GULP energy -67200.542879 kJ/mol
# GULP energy per Si atom -5600.045240 kJ/mol
# Density = 2.627221 g / cm^3
# Si number density = 26.332147 Si / 1000 Ang^3
#
#
#
# Elastic Constant Matrix: (Units=GPa)
#
#
# Indices 1 2 3 4 5 6 
#
# 1 84.5226 42.0176 42.6065 -11.6707 -1.3089 -25.1683
# 2 42.0176 155.7527 39.0675 -37.8902 3.5432 -12.3434
# 3 42.6065 39.0675 162.8716 -39.8794 -5.0511 -12.9847
# 4 -11.6707 -37.8902 -39.8794 63.7844 -10.8636 -1.6909
# 5 -1.3089 3.5432 -5.0511 -10.8636 34.1551 -4.5203
# 6 -25.1683 -12.3434 -12.9847 -1.6909 -4.5203 47.4184
#
#
#
# Elastic Compliance Matrix: (Units=1/GPa)
#
#
# Indices 1 2 3 4 5 6 
#
# 1 0.017348 -0.003412 -0.003166 -0.000388 0.001429 0.007575
# 2 -0.003412 0.008472 0.000036 0.004536 0.000520 0.000615
# 3 -0.003166 0.000036 0.008420 0.005235 0.002931 0.001100
# 4 -0.000388 0.004536 0.005235 0.023070 0.008157 0.004008
# 5 0.001429 0.000520 0.002931 0.008157 0.032986 0.005132
# 6 0.007575 0.000615 0.001100 0.004008 0.005132 0.026203
#
#
# Mechanical properties :
#
#
# Convention : Reuss Voigt Hill
#
# Bulk Modulus (GPa) = 47.27079 72.28111 59.77595
# Shear Modulus (GPa) = 36.59377 47.70194 42.14785
#
# Velocity S-wave (km/s) = 3.73191 4.26085 4.00512
# Velocity P-wave (km/s) = 6.04651 7.19137 6.64364
#
# Compressibility (1/GPa) = 0.02115471
#
# Stress axis : x y z
#
# Youngs Moduli (GPa) = 57.64458 118.03116 118.76785
#
# Poissons Ratio (x) = 0.40277 0.37607
# Poissons Ratio (y) = 0.19670 -0.00431
# Poissons Ratio (z) = 0.18253 -0.00428
#
# Static dielectric constant tensor:
#      x y z
#    x 2.186630 0.030150 0.068730 
#    y 0.030150 2.057940 0.005000 
#    z 0.068730 0.005000 2.118710 
# 
# From -- ./inp_files/317941.got.cif
#   From: 2010.05.17/outbox.cif.g08.bks.cpg/sg2_159_cif.got.tgz:317941.got - 2010.06.03 11:33:40.
