data_PCOD9067809
_publ_section_title
;
Structure prediction by ZEFSAII (Michael W. Deem and Ramdas Pophale) SiO2 
 PCOD9067809
Probable space group: P -1
;
_chemical_formula_sum "Si O2"
_cell_formula_units_Z 16
_cell_length_a 5.604496
_cell_length_b 15.815470
_cell_length_c 9.233265
_cell_angle_alpha 87.375420
_cell_angle_beta 100.142074
_cell_angle_gamma 127.207561
_cell_volume 639.716549
_symmetry_space_group_name_H-M "P -1"
_symmetry_group_IT_number 2
_symmetry_cell_setting 'triclinic'
loop_
_space_group_symop_operation_xyz
x,y,z
-x,-y,-z
loop_
_atom_site_type_symbol
_atom_site_label
_atom_site_fract_x
_atom_site_fract_y
_atom_site_fract_z
Si Si1 0.797411 0.753067 0.357442
Si Si2 0.244678 0.939686 0.601668
Si Si3 0.863610 0.628655 0.166984
Si Si4 0.256035 0.399696 0.170350
Si Si5 0.759016 0.912104 0.194229
Si Si6 0.412406 0.091398 0.130531
Si Si7 0.628846 0.304234 0.276267
Si Si8 0.225136 0.606149 0.427589
O O1 0.965571 0.732423 0.259483
O O2 0.652161 0.798182 0.244659
O O3 0.551888 0.640043 0.415299
O O4 0.977396 0.837525 0.495629
O O5 0.329626 0.899837 0.750798
O O6 0.500000 0.000000 0.500000
O O7 0.206441 0.021921 0.666673
O O8 0.510615 0.526705 0.164984
O O9 0.058029 0.596654 0.264540
O O10 0.891757 0.647182 0.999126
O O11 0.448015 0.355585 0.237934
O O12 0.970494 0.368316 0.240405
O O13 0.560722 0.904910 0.039997
O O14 0.097592 0.980435 0.155054
O O15 0.425641 0.190369 0.183640
O O16 0.686128 0.301655 0.454366
O O17 0.000000 0.500000 0.500000
#
# Coordination Sequence:
#
# PCOD9067809 Si02
#       8
#     2   2   2   2   2   2   2   2
#     4  12  27  45  77 104 147 195 252 304 384 449
#     4  12  26  45  70 107 147 193 244 309 374 446
#     4  11  27  47  77 106 147 197 251 312 379 447
#     4  11  28  49  77 110 155 197 253 314 375 457
#     4  11  26  48  70 104 144 191 249 308 375 443
#     4  11  26  45  74 104 146 191 248 308 370 448
#     4  12  27  48  75 113 151 201 251 309 383 444
#     4  12  27  46  73 107 150 196 250 311 374 451
#
# _framework density 25.011075999999999
#
# number of rings (size 3 to 8) (size 9 to 14) (size 15 to 20)
#    0.000    0.500    2.500    3.750   12.250    2.000 
#    0.000    0.000    0.000    0.000    0.000    0.000 
#    0.000    0.000    0.000    0.000    0.000    0.000 
#
# Total GULP energy -89524.933596 kJ/mol
# GULP energy per Si atom -5595.308350 kJ/mol
# Density = 2.495415 g / cm^3
# Si number density = 25.011076 Si / 1000 Ang^3
#
#
#
# Elastic Constant Matrix: (Units=GPa)
#
#
# Indices 1 2 3 4 5 6 
#
# 1 82.4569 13.4811 25.0024 -7.0172 2.4047 1.4623
# 2 13.4811 77.0752 9.2399 4.1818 -1.3559 12.3218
# 3 25.0024 9.2399 126.3499 23.3424 23.5370 5.5728
# 4 -7.0172 4.1818 23.3424 28.9005 -10.4404 -5.7074
# 5 2.4047 -1.3559 23.5370 -10.4404 38.9218 -1.2902
# 6 1.4623 12.3218 5.5728 -5.7074 -1.2902 46.5194
#
#
#
# Elastic Compliance Matrix: (Units=1/GPa)
#
#
# Indices 1 2 3 4 5 6 
#
# 1 0.015277 -0.002886 -0.006235 0.011851 0.005993 0.002651
# 2 -0.002886 0.014323 0.000834 -0.004774 -0.001254 -0.004424
# 3 -0.006235 0.000834 0.015969 -0.020931 -0.015021 -0.004923
# 4 0.011851 -0.004774 -0.020931 0.068627 0.030587 0.012667
# 5 0.005993 -0.001254 -0.015021 0.030587 0.042795 0.006883
# 6 0.002651 -0.004424 -0.004923 0.012667 0.006883 0.024919
#
#
# Mechanical properties :
#
#
# Convention : Reuss Voigt Hill
#
# Bulk Modulus (GPa) = 34.48650 42.36986 38.42818
# Shear Modulus (GPa) = 24.02138 38.74558 31.38348
#
# Velocity S-wave (km/s) = 3.10244 3.94018 3.54614
# Velocity P-wave (km/s) = 5.16255 6.13818 5.67138
#
# Compressibility (1/GPa) = 0.02899685
#
# Stress axis : x y z
#
# Youngs Moduli (GPa) = 65.45989 69.81675 62.62015
#
# Poissons Ratio (x) = 0.20149 0.39041
# Poissons Ratio (y) = 0.18892 -0.05225
# Poissons Ratio (z) = 0.40811 -0.05825
#
# Static dielectric constant tensor:
#      x y z
#    x 2.010090 0.014350 0.006070 
#    y 0.014350 2.081360 -0.008980 
#    z 0.006070 -0.008980 1.971960 
# 
# From -- ./inp_files/124688.got.cif
#   From: 2010.05.17/outbox.cif.g08.bks.cpg/sg2_63_cif.got.tgz:124688.got - 2010.06.03 11:33:40.
