data_PCOD9067601
_publ_section_title
;
Structure prediction by ZEFSAII (Michael W. Deem and Ramdas Pophale) SiO2 
 PCOD9067601
Probable space group: P -1
;
_chemical_formula_sum "Si O2"
_cell_formula_units_Z 13
_cell_length_a 16.506844
_cell_length_b 11.038197
_cell_length_c 9.063627
_cell_angle_alpha 56.733956
_cell_angle_beta 127.060071
_cell_angle_gamma 154.842502
_cell_volume 560.210359
_symmetry_space_group_name_H-M "P -1"
_symmetry_group_IT_number 2
_symmetry_cell_setting 'triclinic'
loop_
_space_group_symop_operation_xyz
x,y,z
-x,-y,-z
loop_
_atom_site_type_symbol
_atom_site_label
_atom_site_fract_x
_atom_site_fract_y
_atom_site_fract_z
Si Si1 0.947424 0.567992 0.503490
Si Si2 0.500000 0.000000 0.500000
Si Si3 0.497982 0.476137 0.190176
Si Si4 0.339053 0.028058 0.817312
Si Si5 0.187408 0.284417 0.425950
Si Si6 0.656148 0.245729 0.818491
Si Si7 0.900939 0.988534 0.785763
O O1 0.749694 0.301128 0.559139
O O2 0.000000 0.500000 0.500000
O O3 0.148146 0.837447 0.639661
O O4 0.936595 0.698748 0.303520
O O5 0.515253 0.028480 0.675068
O O6 0.573303 0.722537 0.173282
O O7 0.634483 0.522800 0.389715
O O8 0.279177 0.165777 0.215213
O O9 0.500000 0.500000 0.000000
O O10 0.517061 0.173689 0.820512
O O11 0.270833 0.811497 0.989968
O O12 0.176037 0.436680 0.263855
O O13 0.195716 0.205924 0.334764
O O14 0.000000 0.000000 0.500000
O O15 0.000000 0.000000 0.000000
#
# Coordination Sequence:
#
# PCOD9067601 Si02
#       7
#     2   1   2   2   2   2   2
#     4  12  27  49  76 108 153 200 249 312 380 449
#     4  12  28  46  76 112 148 196 262 300 376 460
#     4  12  27  48  76 110 150 199 256 309 382 457
#     4  11  25  51  73 108 149 199 247 312 385 443
#     4  12  25  48  70 107 148 196 247 311 382 446
#     4  11  26  44  77 105 148 194 249 311 372 456
#     4  12  27  47  74 108 151 194 249 314 384 449
#
# _framework density 23.205566999999999
#
# number of rings (size 3 to 8) (size 9 to 14) (size 15 to 20)
#    0.000    0.308    4.615    3.231    6.462    0.615 
#    0.000    0.000    0.000    0.000    0.000    0.000 
#    0.000    0.000    0.000    0.000    0.000    0.000 
#
# Total GULP energy -72513.550478 kJ/mol
# GULP energy per Si atom -5577.965421 kJ/mol
# Density = 2.315275 g / cm^3
# Si number density = 23.205567 Si / 1000 Ang^3
#
#
#
# Elastic Constant Matrix: (Units=GPa)
#
#
# Indices 1 2 3 4 5 6 
#
# 1 64.7436 11.8063 23.2450 -1.3948 -19.8133 -5.7971
# 2 11.8063 75.6232 12.9582 -10.9836 4.6296 12.3576
# 3 23.2450 12.9582 119.8019 -13.8464 2.2585 -22.5867
# 4 -1.3948 -10.9836 -13.8464 41.9969 -9.7614 -0.1420
# 5 -19.8133 4.6296 2.2585 -9.7614 45.6118 3.9314
# 6 -5.7971 12.3576 -22.5867 -0.1420 3.9314 33.9132
#
#
#
# Elastic Compliance Matrix: (Units=1/GPa)
#
#
# Indices 1 2 3 4 5 6 
#
# 1 0.020266 -0.003234 -0.003414 0.000886 0.009379 0.001285
# 2 -0.003234 0.015855 -0.002143 0.002928 -0.001630 -0.007556
# 3 -0.003414 -0.002143 0.011039 0.002541 -0.001939 0.007785
# 4 0.000886 0.002928 0.002541 0.026763 0.005669 0.000232
# 5 0.009379 -0.001630 -0.001939 0.005669 0.027670 -0.002278
# 6 0.001285 -0.007556 0.007785 0.000232 -0.002278 0.037910
#
#
# Mechanical properties :
#
#
# Convention : Reuss Voigt Hill
#
# Bulk Modulus (GPa) = 33.80966 39.57639 36.69302
# Shear Modulus (GPa) = 29.94981 38.44831 34.19906
#
# Velocity S-wave (km/s) = 3.59643 4.07487 3.84310
# Velocity P-wave (km/s) = 5.64332 6.26347 5.96146
#
# Compressibility (1/GPa) = 0.02957734
#
# Stress axis : x y z
#
# Youngs Moduli (GPa) = 49.34435 63.06961 90.58436
#
# Poissons Ratio (x) = 0.20399 0.30929
# Poissons Ratio (y) = 0.15960 0.19411
# Poissons Ratio (z) = 0.16848 0.13515
#
# Static dielectric constant tensor:
#      x y z
#    x 1.917090 0.021700 0.060310 
#    y 0.021700 1.998330 0.132280 
#    z 0.060310 0.132280 2.069300 
# 
# From -- ./inp_files/159712.got.cif
#   From: 2010.05.17/outbox.cif.g08.bks.cpg/sg2_80_cif.got.tgz:159712.got - 2010.06.03 11:33:40.
