data_PCOD9067462
_publ_section_title
;
Structure prediction by ZEFSAII (Michael W. Deem and Ramdas Pophale) SiO2 
 PCOD9067462
Probable space group: P -1
;
_chemical_formula_sum "Si O2"
_cell_formula_units_Z 16
_cell_length_a 16.614390
_cell_length_b 9.574308
_cell_length_c 6.907815
_cell_angle_alpha 93.343083
_cell_angle_beta 70.651496
_cell_angle_gamma 41.790616
_cell_volume 603.983186
_symmetry_space_group_name_H-M "P -1"
_symmetry_group_IT_number 2
_symmetry_cell_setting 'triclinic'
loop_
_space_group_symop_operation_xyz
x,y,z
-x,-y,-z
loop_
_atom_site_type_symbol
_atom_site_label
_atom_site_fract_x
_atom_site_fract_y
_atom_site_fract_z
Si Si1 0.517904 0.598671 0.150219
Si Si2 0.924912 0.484247 0.797809
Si Si3 0.207558 0.941037 0.449783
Si Si4 0.073177 0.564105 0.754357
Si Si5 0.397536 0.184999 0.466175
Si Si6 0.268637 0.652459 0.724215
Si Si7 0.599718 0.808570 0.025047
Si Si8 0.925545 0.033203 0.752439
O O1 0.347274 0.852180 0.360607
O O2 0.605332 0.439236 0.259593
O O3 0.500000 0.500000 0.000000
O O4 0.581795 0.663764 0.040339
O O5 0.035512 0.405706 0.246935
O O6 0.764645 0.650281 0.873973
O O7 0.945071 0.422891 0.001755
O O8 0.055528 0.223075 0.581873
O O9 0.207721 0.831552 0.618347
O O10 0.212408 0.855428 0.233767
O O11 0.244551 0.304158 0.571811
O O12 0.030493 0.774740 0.733971
O O13 0.346801 0.414233 0.550172
O O14 0.445733 0.116341 0.178454
O O15 0.430651 0.118602 0.688151
O O16 0.143504 0.789422 0.998692
O O17 0.000000 0.000000 0.500000
#
# Coordination Sequence:
#
# PCOD9067462 Si02
#       8
#     2   2   2   2   2   2   2   2
#     4  12  27  51  78 120 169 218 277 342 420 501
#     4  11  26  49  85 114 162 225 277 343 419 497
#     4  12  28  48  81 117 163 218 273 342 420 491
#     4  11  25  49  78 120 162 211 284 337 414 504
#     4  12  25  49  80 109 163 218 272 332 418 494
#     4  12  27  52  81 117 169 219 278 337 421 507
#     4  12  30  50  81 119 167 217 283 347 415 501
#     4  12  29  47  82 121 166 212 275 349 424 498
#
# _framework density 26.490803
#
# number of rings (size 3 to 8) (size 9 to 14) (size 15 to 20)
#    0.000    0.250    5.000    1.875    8.750    1.500 
#    0.000    0.000    0.000    0.000    0.000    0.000 
#    0.000    0.000    0.000    0.000    0.000    0.000 
#
# Total GULP energy -89533.006028 kJ/mol
# GULP energy per Si atom -5595.812877 kJ/mol
# Density = 2.643051 g / cm^3
# Si number density = 26.490803 Si / 1000 Ang^3
#
#
#
# Elastic Constant Matrix: (Units=GPa)
#
#
# Indices 1 2 3 4 5 6 
#
# 1 174.7926 97.6677 76.4350 10.5905 6.2115 -8.8885
# 2 97.6677 194.4710 85.4192 -12.1601 -1.8645 -11.4467
# 3 76.4350 85.4192 178.6853 -11.7597 30.6158 11.6387
# 4 10.5905 -12.1601 -11.7597 63.2607 0.4001 -0.9086
# 5 6.2115 -1.8645 30.6158 0.4001 52.9394 0.3495
# 6 -8.8885 -11.4467 11.6387 -0.9086 0.3495 53.9647
#
#
#
# Elastic Compliance Matrix: (Units=1/GPa)
#
#
# Indices 1 2 3 4 5 6 
#
# 1 0.008970 -0.003519 -0.002449 -0.002617 0.000252 0.001214
# 2 -0.003519 0.008443 -0.002952 0.001675 0.002392 0.001861
# 3 -0.002449 -0.002952 0.009232 0.001549 -0.005148 -0.002961
# 4 -0.002617 0.001675 0.001549 0.016858 -0.000656 -0.000122
# 5 0.000252 0.002392 -0.005148 -0.000656 0.021916 0.001506
# 6 0.001214 0.001861 -0.002961 -0.000122 0.001506 0.019752
#
#
# Mechanical properties :
#
#
# Convention : Reuss Voigt Hill
#
# Bulk Modulus (GPa) = 113.57007 118.55473 116.06240
# Shear Modulus (GPa) = 47.19396 53.26141 50.22769
#
# Velocity S-wave (km/s) = 4.22539 4.48879 4.35908
# Velocity P-wave (km/s) = 8.17128 8.46853 8.32123
#
# Compressibility (1/GPa) = 0.00880514
#
# Stress axis : x y z
#
# Youngs Moduli (GPa) = 111.48801 118.43975 108.31847
#
# Poissons Ratio (x) = 0.41676 0.26529
# Poissons Ratio (y) = 0.39230 0.31974
# Poissons Ratio (z) = 0.27305 0.34962
#
# Static dielectric constant tensor:
#      x y z
#    x 2.138140 -0.048920 0.125280 
#    y -0.048920 2.066570 -0.013780 
#    z 0.125280 -0.013780 2.317770 
# 
# From -- ./inp_files/119259.got.cif
#   From: 2010.05.17/outbox.cif.g08.bks.cpg/sg2_60_cif.got.tgz:119259.got - 2010.06.03 11:33:40.
