data_PCOD9067540
_publ_section_title
;
Structure prediction by ZEFSAII (Michael W. Deem and Ramdas Pophale) SiO2 
 PCOD9067540
Probable space group: P -1
;
_chemical_formula_sum "Si O2"
_cell_formula_units_Z 16
_cell_length_a 16.949475
_cell_length_b 20.255583
_cell_length_c 9.661858
_cell_angle_alpha 133.712814
_cell_angle_beta 122.294453
_cell_angle_gamma 20.136950
_cell_volume 732.802538
_symmetry_space_group_name_H-M "P -1"
_symmetry_group_IT_number 2
_symmetry_cell_setting 'triclinic'
loop_
_space_group_symop_operation_xyz
x,y,z
-x,-y,-z
loop_
_atom_site_type_symbol
_atom_site_label
_atom_site_fract_x
_atom_site_fract_y
_atom_site_fract_z
Si Si1 0.226826 0.299937 0.811641
Si Si2 0.473000 0.620016 0.227367
Si Si3 0.370648 0.588438 0.649531
Si Si4 0.098145 0.624277 0.118183
Si Si5 0.176274 0.268221 0.417285
Si Si6 0.008179 0.229883 0.080599
Si Si7 0.358950 0.799811 0.974400
Si Si8 0.109320 0.087682 0.420196
O O1 0.159514 0.303816 0.616889
O O2 0.511363 0.014964 0.724203
O O3 0.217967 0.414199 0.922720
O O4 0.000000 0.500000 0.000000
O O5 0.451644 0.616864 0.364008
O O6 0.728564 0.445509 0.174660
O O7 0.229519 0.898291 0.351599
O O8 0.500000 0.500000 0.000000
O O9 0.500000 0.500000 0.500000
O O10 0.153985 0.711027 0.597210
O O11 0.272262 0.775687 0.887778
O O12 0.921300 0.799307 0.341888
O O13 0.977716 0.760449 0.055163
O O14 0.334819 0.477423 0.151410
O O15 0.000000 0.500000 0.500000
O O16 0.070205 0.266237 0.272672
O O17 0.218109 0.965464 0.946878
O O18 0.290006 0.928688 0.225095
#
# Coordination Sequence:
#
# PCOD9067540 Si02
#       8
#     2   2   2   2   2   2   2   2
#     4  11  27  47  75 107 148 182 235 304 364 438
#     4  12  25  45  70 104 141 191 238 293 353 412
#     4  12  25  43  66  98 141 189 239 290 350 417
#     4  12  26  45  68 108 136 182 237 290 356 424
#     4  11  25  50  77 106 143 191 235 297 371 427
#     4  12  25  45  74 101 141 187 236 290 352 428
#     4  12  24  47  67  98 142 186 235 292 350 420
#     4  12  26  42  71  99 140 186 235 293 351 415
#
# _framework density 21.833985999999999
#
# number of rings (size 3 to 8) (size 9 to 14) (size 15 to 20)
#    0.000    0.250    7.500    1.125    3.500    2.000 
#    2.250    0.000    0.000    0.000    0.000    0.000 
#    0.000    0.000    0.000    0.000    0.000    0.000 
#
# Total GULP energy -89461.586948 kJ/mol
# GULP energy per Si atom -5591.349184 kJ/mol
# Density = 2.178429 g / cm^3
# Si number density = 21.833986 Si / 1000 Ang^3
#
#
#
# Elastic Constant Matrix: (Units=GPa)
#
#
# Indices 1 2 3 4 5 6 
#
# 1 8.3056 -94.0501 -54.5218 7.0771 -24.3825 24.3713
# 2 -94.0501 -163.9184 -126.1732 29.3472 -40.9077 73.0335
# 3 -54.5218 -126.1732 26.8867 9.3295 -33.1779 18.1921
# 4 7.0771 29.3472 9.3295 21.6280 4.0392 -1.1271
# 5 -24.3825 -40.9077 -33.1779 4.0392 38.5762 2.4968
# 6 24.3713 73.0335 18.1921 -1.1271 2.4968 44.5504
#
#
#
# Elastic Compliance Matrix: (Units=1/GPa)
#
#
# Indices 1 2 3 4 5 6 
#
# 1 0.018039 -0.007650 -0.001097 0.004809 0.001638 0.003150
# 2 -0.007650 0.003730 -0.004985 0.000596 -0.005257 0.000416
# 3 -0.001097 -0.004985 0.009966 0.002692 0.002008 0.004659
# 4 0.004809 0.000596 0.002692 0.042159 0.001815 -0.003742
# 5 0.001638 -0.005257 0.002008 0.001815 0.022553 0.005683
# 6 0.003150 0.000416 0.004659 -0.003742 0.005683 0.017726
#
#
# Mechanical properties :
#
#
# Convention : Reuss Voigt Hill
#
# Bulk Modulus (GPa) = 234.16497 -75.35736 79.40381
# Shear Modulus (GPa) = 34.95021 30.68550 32.81786
#
# Velocity S-wave (km/s) = 4.00525 3.75293 3.88114
# Velocity P-wave (km/s) = 11.35210 3.97610 7.51867
#
# Compressibility (1/GPa) = 0.00427049
#
# Stress axis : x y z
#
# Youngs Moduli (GPa) = 55.43411 268.11222 100.34192
#
# Poissons Ratio (x) = 2.05106 0.11010
# Poissons Ratio (y) = 0.42407 0.50021
# Poissons Ratio (z) = 0.06082 1.33656
#
# Static dielectric constant tensor:
#      x y z
#    x 1.802930 0.000110 -0.003530 
#    y 0.000110 1.767410 -0.000290 
#    z -0.003530 -0.000290 1.881440 
# 
# From -- ./inp_files/337850.got.cif
#   From: 2010.05.17/outbox.cif.g08.bks.cpg/sg2_169_cif.got.tgz:337850.got - 2010.06.03 11:33:40.
