data_PCOD9067184
_publ_section_title
;
Structure prediction by ZEFSAII (Michael W. Deem and Ramdas Pophale) SiO2 
 PCOD9067184
Probable space group: P -1
;
_chemical_formula_sum "Si O2"
_cell_formula_units_Z 12
_cell_length_a 9.667167
_cell_length_b 8.628858
_cell_length_c 11.989560
_cell_angle_alpha 113.439121
_cell_angle_beta 143.741797
_cell_angle_gamma 84.638649
_cell_volume 492.778503
_symmetry_space_group_name_H-M "P -1"
_symmetry_group_IT_number 2
_symmetry_cell_setting 'triclinic'
loop_
_space_group_symop_operation_xyz
x,y,z
-x,-y,-z
loop_
_atom_site_type_symbol
_atom_site_label
_atom_site_fract_x
_atom_site_fract_y
_atom_site_fract_z
Si Si1 0.499062 0.812689 0.313825
Si Si2 0.057873 0.181505 0.235679
Si Si3 0.763272 0.307958 0.256638
Si Si4 0.150756 0.875710 0.526436
Si Si5 0.053756 0.232396 0.002363
Si Si6 0.704244 0.580855 0.013068
O O1 0.697008 0.786637 0.520113
O O2 0.416849 0.640711 0.125510
O O3 0.642506 0.004355 0.396017
O O4 0.245986 0.806669 0.206879
O O5 0.134245 0.288856 0.198628
O O6 0.862094 0.232300 0.194449
O O7 0.927453 0.961914 0.061887
O O8 0.727583 0.172105 0.299490
O O9 0.512953 0.344938 0.085766
O O10 0.000000 0.500000 0.500000
O O11 0.000000 0.000000 0.500000
O O12 0.943352 0.688928 0.280310
O O13 0.201998 0.369837 0.039907
#
# Coordination Sequence:
#
# PCOD9067184 Si02
#       6
#     2   2   2   2   2   2
#     4  12  26  49  74 110 152 191 249 305 368 442
#     4  11  25  48  72 109 149 195 246 301 375 430
#     4  12  27  49  76 112 150 192 248 314 367 441
#     4  12  27  46  75 111 149 196 245 306 370 437
#     4  11  27  46  76 108 151 201 243 306 367 449
#     4  12  28  48  78 113 145 198 251 302 377 436
#
# _framework density 24.351713
#
# number of rings (size 3 to 8) (size 9 to 14) (size 15 to 20)
#    0.000    0.333    5.000    1.000    9.333    3.333 
#    0.000    0.000    0.000    0.000    0.000    0.000 
#    0.000    0.000    0.000    0.000    0.000    0.000 
#
# Total GULP energy -67385.370281 kJ/mol
# GULP energy per Si atom -5615.447523 kJ/mol
# Density = 2.429629 g / cm^3
# Si number density = 24.351713 Si / 1000 Ang^3
#
#
#
# Elastic Constant Matrix: (Units=GPa)
#
#
# Indices 1 2 3 4 5 6 
#
# 1 173.7491 51.5216 57.9451 -23.8628 -2.3165 -8.8979
# 2 51.5216 59.7023 41.3750 -18.0766 -1.8128 -9.5486
# 3 57.9451 41.3750 111.2338 -3.8746 -14.2965 4.0353
# 4 -23.8628 -18.0766 -3.8746 37.8315 -1.0349 -5.1594
# 5 -2.3165 -1.8128 -14.2965 -1.0349 41.2534 -7.6947
# 6 -8.8979 -9.5486 4.0353 -5.1594 -7.6947 47.0229
#
#
#
# Elastic Compliance Matrix: (Units=1/GPa)
#
#
# Indices 1 2 3 4 5 6 
#
# 1 0.008432 -0.004145 -0.002833 0.003213 -0.000369 0.001289
# 2 -0.004145 0.032204 -0.009708 0.012850 -0.000379 0.007936
# 3 -0.002833 -0.009708 0.014489 -0.005354 0.003602 -0.003749
# 4 0.003213 0.012850 -0.005354 0.035139 0.001213 0.007731
# 5 -0.000369 -0.000379 0.003602 0.001213 0.026222 0.003968
# 6 0.001289 0.007936 -0.003749 0.007731 0.003968 0.024941
#
#
# Mechanical properties :
#
#
# Convention : Reuss Voigt Hill
#
# Bulk Modulus (GPa) = 45.97266 71.81875 58.89571
# Shear Modulus (GPa) = 27.46498 38.14446 32.80472
#
# Velocity S-wave (km/s) = 3.36199 3.96207 3.67430
# Velocity P-wave (km/s) = 5.83011 7.10542 6.49912
#
# Compressibility (1/GPa) = 0.02175206
#
# Stress axis : x y z
#
# Youngs Moduli (GPa) = 118.59906 31.05232 69.01651
#
# Poissons Ratio (x) = 0.12873 0.19550
# Poissons Ratio (y) = 0.49164 0.67003
# Poissons Ratio (z) = 0.33596 0.30146
#
# Static dielectric constant tensor:
#      x y z
#    x 1.909380 0.021790 -0.031510 
#    y 0.021790 1.928130 0.008550 
#    z -0.031510 0.008550 1.935600 
# 
# From -- ./inp_files/190064.got.cif
#   From: 2010.05.17/outbox.cif.g08.bks.cpg/sg2_96_cif.got.tgz:190064.got - 2010.06.03 11:33:40.
