data_PCOD9067204
_publ_section_title
;
Structure prediction by ZEFSAII (Michael W. Deem and Ramdas Pophale) SiO2 
 PCOD9067204
Probable space group: P -1
;
_chemical_formula_sum "Si O2"
_cell_formula_units_Z 13
_cell_length_a 9.185312
_cell_length_b 5.229187
_cell_length_c 18.615913
_cell_angle_alpha 114.772984
_cell_angle_beta 35.282754
_cell_angle_gamma 103.656980
_cell_volume 459.277679
_symmetry_space_group_name_H-M "P -1"
_symmetry_group_IT_number 2
_symmetry_cell_setting 'triclinic'
loop_
_space_group_symop_operation_xyz
x,y,z
-x,-y,-z
loop_
_atom_site_type_symbol
_atom_site_label
_atom_site_fract_x
_atom_site_fract_y
_atom_site_fract_z
Si Si1 0.211187 0.207531 0.477237
Si Si2 0.500000 0.500000 0.500000
Si Si3 0.168442 0.688059 0.910807
Si Si4 0.744311 0.037130 0.711256
Si Si5 0.526351 0.383543 0.082834
Si Si6 0.918121 0.926063 0.785059
Si Si7 0.634574 0.788835 0.339366
O O1 0.301804 0.460648 0.511182
O O2 0.916864 0.211074 0.613170
O O3 0.283159 0.200976 0.363785
O O4 0.382328 0.923626 0.411712
O O5 0.639561 0.698506 0.409324
O O6 0.396124 0.717765 0.878826
O O7 0.242692 0.498310 0.787562
O O8 0.000000 0.500000 0.000000
O O9 0.000000 0.000000 0.000000
O O10 0.502643 0.276501 0.861124
O O11 0.897647 0.946551 0.710593
O O12 0.258249 0.306139 0.153665
O O13 0.749507 0.215281 0.922495
O O14 0.208137 0.937219 0.695606
#
# Coordination Sequence:
#
# PCOD9067204 Si02
#       7
#     2   1   2   2   2   2   2
#     4  11  27  47  76 109 152 205 273 328 401 481
#     4  12  28  46  78 106 150 220 266 346 394 482
#     4  12  29  52  86 122 165 216 274 341 416 489
#     4  11  25  48  73 110 155 205 259 333 403 486
#     4  11  26  47  77 113 159 208 263 332 417 485
#     4  11  26  46  75 112 157 206 265 335 410 487
#     4  12  27  50  77 112 162 205 283 332 409 490
#
# _framework density 28.305316000000001
#
# number of rings (size 3 to 8) (size 9 to 14) (size 15 to 20)
#    0.000    0.615    4.615    0.923    8.615    2.462 
#    0.000    3.077    0.000    0.000    0.000    0.000 
#    0.000    0.000    0.000    0.000    0.000    0.000 
#
# Total GULP energy -72727.945052 kJ/mol
# GULP energy per Si atom -5594.457312 kJ/mol
# Density = 2.824089 g / cm^3
# Si number density = 28.305316 Si / 1000 Ang^3
#
#
#
# Elastic Constant Matrix: (Units=GPa)
#
#
# Indices 1 2 3 4 5 6 
#
# 1 179.9219 34.2159 54.1514 5.0856 19.8523 12.8366
# 2 34.2159 128.5700 16.6397 13.0384 1.8209 3.9998
# 3 54.1514 16.6397 110.6205 11.7446 35.2192 -2.5935
# 4 5.0856 13.0384 11.7446 54.3927 8.4707 -6.3956
# 5 19.8523 1.8209 35.2192 8.4707 67.5416 -1.3107
# 6 12.8366 3.9998 -2.5935 -6.3956 -1.3107 61.0993
#
#
#
# Elastic Compliance Matrix: (Units=1/GPa)
#
#
# Indices 1 2 3 4 5 6 
#
# 1 0.006902 -0.001411 -0.003088 0.000255 -0.000441 -0.001472
# 2 -0.001411 0.008433 -0.000621 -0.001926 0.000744 -0.000468
# 3 -0.003088 -0.000621 0.012535 -0.001310 -0.005429 0.000968
# 4 0.000255 -0.001926 -0.001310 0.019619 -0.001761 0.002033
# 5 -0.000441 0.000744 -0.005429 -0.001761 0.017967 0.000015
# 6 -0.001472 -0.000468 0.000968 0.002033 0.000015 0.016961
#
#
# Mechanical properties :
#
#
# Convention : Reuss Voigt Hill
#
# Bulk Modulus (GPa) = 56.71883 69.90294 63.31088
# Shear Modulus (GPa) = 50.74422 57.54708 54.14565
#
# Velocity S-wave (km/s) = 4.23868 4.51386 4.37843
# Velocity P-wave (km/s) = 6.63603 7.20530 6.92651
#
# Compressibility (1/GPa) = 0.01763083
#
# Stress axis : x y z
#
# Youngs Moduli (GPa) = 144.88470 118.58008 79.77653
#
# Poissons Ratio (x) = 0.16733 0.24632
# Poissons Ratio (y) = 0.20444 0.04954
# Poissons Ratio (z) = 0.44734 0.07364
#
# Static dielectric constant tensor:
#      x y z
#    x 2.139290 0.111190 -0.063710 
#    y 0.111190 2.103520 -0.072240 
#    z -0.063710 -0.072240 2.266180 
# 
# From -- ./inp_files/24642.got.cif
#   From: 2010.05.17/outbox.cif.g08.bks.cpg/sg2_13_cif.got.tgz:24642.got - 2010.06.03 11:33:40.
