data_PCOD9067782
_publ_section_title
;
Structure prediction by ZEFSAII (Michael W. Deem and Ramdas Pophale) SiO2 
 PCOD9067782
Probable space group: P -1
;
_chemical_formula_sum "Si O2"
_cell_formula_units_Z 15
_cell_length_a 9.477603
_cell_length_b 5.096598
_cell_length_c 17.422503
_cell_angle_alpha 93.955140
_cell_angle_beta 50.364310
_cell_angle_gamma 99.493183
_cell_volume 638.501957
_symmetry_space_group_name_H-M "P -1"
_symmetry_group_IT_number 2
_symmetry_cell_setting 'triclinic'
loop_
_space_group_symop_operation_xyz
x,y,z
-x,-y,-z
loop_
_atom_site_type_symbol
_atom_site_label
_atom_site_fract_x
_atom_site_fract_y
_atom_site_fract_z
Si Si1 0.924547 0.241354 0.345723
Si Si2 0.500000 0.000000 0.500000
Si Si3 0.448184 0.746770 0.069083
Si Si4 0.991712 0.282283 0.934290
Si Si5 0.185473 0.427623 0.396415
Si Si6 0.982931 0.267391 0.768368
Si Si7 0.427810 0.005527 0.347958
Si Si8 0.319505 0.016546 0.877939
O O1 0.098882 0.291758 0.344930
O O2 0.906947 0.534120 0.326720
O O3 0.721188 0.115535 0.443268
O O4 0.979507 0.032018 0.260498
O O5 0.466213 0.981969 0.606785
O O6 0.233430 0.725428 0.164537
O O7 0.550748 0.757346 0.115885
O O8 0.500000 0.500000 0.000000
O O9 0.500000 0.000000 0.000000
O O10 0.031506 0.382779 0.837671
O O11 0.147050 0.104111 0.895481
O O12 0.000000 0.500000 0.000000
O O13 0.782133 0.141873 0.017431
O O14 0.277698 0.206414 0.405172
O O15 0.000000 0.500000 0.500000
O O16 0.330387 0.704213 0.354040
O O17 0.561621 0.102098 0.230523
#
# Coordination Sequence:
#
# PCOD9067782 Si02
#       8
#     2   1   2   2   2   2   2   2
#     4  12  28  49  78 109 149 195 249 307 383 441
#     4  12  30  50  78 114 150 190 256 320 374 448
#     4  12  24  44  74 106 144 188 244 300 352 430
#     4  11  26  45  72 103 157 196 240 300 367 448
#     4  12  26  53  79 108 148 200 247 316 384 448
#     4  12  27  48  75 108 147 195 245 305 368 441
#     4  12  29  49  81 109 151 197 256 311 379 451
#     4  11  26  46  70 109 144 199 242 298 370 443
#
# _framework density 23.49249
#
# number of rings (size 3 to 8) (size 9 to 14) (size 15 to 20)
#    0.000    0.267    2.667    5.200    9.333    2.133 
#    0.000    0.000    0.000    0.000    0.000    0.000 
#    0.000    0.000    0.000    0.000    0.000    0.000 
#
# Total GULP energy -83562.750629 kJ/mol
# GULP energy per Si atom -5570.850042 kJ/mol
# Density = 2.343902 g / cm^3
# Si number density = 23.492490 Si / 1000 Ang^3
#
#
#
# Elastic Constant Matrix: (Units=GPa)
#
#
# Indices 1 2 3 4 5 6 
#
# 1 115.9113 32.0327 26.9313 -2.6275 12.0967 16.7790
# 2 32.0327 96.0856 8.7962 6.0469 -1.0527 -4.1463
# 3 26.9313 8.7962 74.2734 14.4400 -2.3286 -6.2498
# 4 -2.6275 6.0469 14.4400 30.3137 6.2189 7.5579
# 5 12.0967 -1.0527 -2.3286 6.2189 40.9661 1.8426
# 6 16.7790 -4.1463 -6.2498 7.5579 1.8426 15.7352
#
#
#
# Elastic Compliance Matrix: (Units=1/GPa)
#
#
# Indices 1 2 3 4 5 6 
#
# 1 0.022951 -0.009737 -0.015931 0.024472 -0.009669 -0.043989
# 2 -0.009737 0.014953 0.006466 -0.013562 0.004658 0.022860
# 3 -0.015931 0.006466 0.027806 -0.028271 0.008841 0.042280
# 4 0.024472 -0.013562 -0.028271 0.073234 -0.016967 -0.074087
# 5 -0.009669 0.004658 0.008841 -0.016967 0.029576 0.019736
# 6 -0.043989 0.022860 0.042280 -0.074087 0.019736 0.166550
#
#
# Mechanical properties :
#
#
# Convention : Reuss Voigt Hill
#
# Bulk Modulus (GPa) = 36.62335 46.86562 41.74449
# Shear Modulus (GPa) = 13.06928 31.97035 22.51982
#
# Velocity S-wave (km/s) = 2.36120 3.69301 3.09948
# Velocity P-wave (km/s) = 4.80176 6.17875 5.53325
#
# Compressibility (1/GPa) = 0.02730498
#
# Stress axis : x y z
#
# Youngs Moduli (GPa) = 43.57035 66.87802 35.96361
#
# Poissons Ratio (x) = 0.65121 0.57295
# Poissons Ratio (y) = 0.42426 -0.23255
# Poissons Ratio (z) = 0.69413 -0.43244
#
# Static dielectric constant tensor:
#      x y z
#    x 1.975260 -0.099780 0.137340 
#    y -0.099780 1.644770 0.095230 
#    z 0.137340 0.095230 1.641960 
# 
# From -- ./inp_files/553517.got.cif
#   From: 2010.05.17/outbox.cif.g08.bks.cpg/sg2_277_cif.got.tgz:553517.got - 2010.06.03 11:33:40.
