data_PCOD9067226
_publ_section_title
;
Structure prediction by ZEFSAII (Michael W. Deem and Ramdas Pophale) SiO2 
 PCOD9067226
Probable space group: P -1
;
_chemical_formula_sum "Si O2"
_cell_formula_units_Z 13
_cell_length_a 4.949791
_cell_length_b 17.702822
_cell_length_c 5.766412
_cell_angle_alpha 67.208204
_cell_angle_beta 87.354461
_cell_angle_gamma 99.929702
_cell_volume 455.288504
_symmetry_space_group_name_H-M "P -1"
_symmetry_group_IT_number 2
_symmetry_cell_setting 'triclinic'
loop_
_space_group_symop_operation_xyz
x,y,z
-x,-y,-z
loop_
_atom_site_type_symbol
_atom_site_label
_atom_site_fract_x
_atom_site_fract_y
_atom_site_fract_z
Si Si1 0.913301 0.926815 0.406187
Si Si2 0.972068 0.718658 0.385859
Si Si3 0.326513 0.200648 0.070951
Si Si4 0.821582 0.543787 0.377586
Si Si5 0.000000 0.500000 0.000000
Si Si6 0.558585 0.631016 0.893590
Si Si7 0.375496 0.873921 0.200671
O O1 0.625943 0.918246 0.297534
O O2 0.145637 0.925919 0.206699
O O3 0.864617 0.842594 0.664224
O O4 0.000000 0.000000 0.500000
O O5 0.855800 0.785801 0.157389
O O6 0.966331 0.639987 0.313696
O O7 0.749602 0.677663 0.629761
O O8 0.256555 0.775649 0.397201
O O9 0.523600 0.139839 0.047171
O O10 0.473269 0.294907 0.019154
O O11 0.500000 0.500000 0.500000
O O12 0.050429 0.492017 0.317659
O O13 0.744544 0.565477 0.062459
O O14 0.736599 0.417712 0.117867
#
# Coordination Sequence:
#
# PCOD9067226 Si02
#       7
#     2   2   2   2   1   2   2
#     4  12  29  50  81 123 166 206 260 328 398 480
#     4  11  25  49  77 109 148 215 274 325 392 480
#     4  11  25  48  81 111 158 212 270 326 393 478
#     4  11  26  44  70 103 148 197 262 329 399 464
#     4  12  26  44  68 108 152 204 260 344 398 468
#     4  11  25  48  74 108 153 207 271 334 400 475
#     4  12  25  51  78 118 159 210 266 320 396 479
#
# _framework density 28.553326999999999
#
# number of rings (size 3 to 8) (size 9 to 14) (size 15 to 20)
#    0.000    0.615    3.077    2.769    2.154    9.846 
#    0.000    0.000    0.000    0.000    0.000    0.000 
#    0.000    0.000    0.000    0.000    0.000    0.000 
#
# Total GULP energy -72823.074869 kJ/mol
# GULP energy per Si atom -5601.774990 kJ/mol
# Density = 2.848834 g / cm^3
# Si number density = 28.553327 Si / 1000 Ang^3
#
#
#
# Elastic Constant Matrix: (Units=GPa)
#
#
# Indices 1 2 3 4 5 6 
#
# 1 194.7803 81.1447 41.2943 9.2659 6.7863 42.4421
# 2 81.1447 272.2000 12.1401 36.2979 -8.5773 33.6177
# 3 41.2943 12.1401 150.5830 -4.7710 -23.1056 12.2704
# 4 9.2659 36.2979 -4.7710 59.2390 -6.4333 -4.8280
# 5 6.7863 -8.5773 -23.1056 -6.4333 42.3154 9.4089
# 6 42.4421 33.6177 12.2704 -4.8280 9.4089 56.4371
#
#
#
# Elastic Compliance Matrix: (Units=1/GPa)
#
#
# Indices 1 2 3 4 5 6 
#
# 1 0.007069 -0.001498 -0.001792 -0.000827 -0.001692 -0.003823
# 2 -0.001498 0.004794 0.000356 -0.002698 0.001505 -0.002288
# 3 -0.001792 0.000356 0.008059 0.001167 0.005247 -0.001392
# 4 -0.000827 -0.002698 0.001167 0.019284 0.002440 0.003218
# 5 -0.001692 0.001505 0.005247 0.002440 0.028630 -0.005330
# 6 -0.003823 -0.002288 -0.001392 0.003218 -0.005330 0.023423
#
#
# Mechanical properties :
#
#
# Convention : Reuss Voigt Hill
#
# Bulk Modulus (GPa) = 71.15135 98.52462 84.83799
# Shear Modulus (GPa) = 49.10962 63.79725 56.45343
#
# Velocity S-wave (km/s) = 4.15170 4.73199 4.45131
# Velocity P-wave (km/s) = 6.92495 8.02720 7.49636
#
# Compressibility (1/GPa) = 0.01405455
#
# Stress axis : x y z
#
# Youngs Moduli (GPa) = 141.45352 208.58057 124.08354
#
# Poissons Ratio (x) = 0.31253 0.22237
# Poissons Ratio (y) = 0.21195 -0.04422
# Poissons Ratio (z) = 0.25350 -0.07433
#
# Static dielectric constant tensor:
#      x y z
#    x 2.959970 -0.697060 -0.318200 
#    y -0.697060 2.754090 0.510360 
#    z -0.318200 0.510360 2.722310 
# 
# From -- ./inp_files/5440.got.cif
#   From: 2010.05.17/outbox.cif.g08.bks.cpg/sg2_3_cif.got.tgz:5440.got - 2010.06.03 11:33:40.
