data_PCOD9067621
_publ_section_title
;
Structure prediction by ZEFSAII (Michael W. Deem and Ramdas Pophale) SiO2 
 PCOD9067621
Probable space group: P -1
;
_chemical_formula_sum "Si O2"
_cell_formula_units_Z 16
_cell_length_a 8.869915
_cell_length_b 17.645383
_cell_length_c 5.461921
_cell_angle_alpha 90.375301
_cell_angle_beta 126.841655
_cell_angle_gamma 85.704189
_cell_volume 681.431513
_symmetry_space_group_name_H-M "P -1"
_symmetry_group_IT_number 2
_symmetry_cell_setting 'triclinic'
loop_
_space_group_symop_operation_xyz
x,y,z
-x,-y,-z
loop_
_atom_site_type_symbol
_atom_site_label
_atom_site_fract_x
_atom_site_fract_y
_atom_site_fract_z
Si Si1 0.247745 0.206064 0.438632
Si Si2 0.504483 0.808911 0.820846
Si Si3 0.593389 0.571073 0.703103
Si Si4 0.313348 0.958607 0.773737
Si Si5 0.189905 0.533215 0.774590
Si Si6 0.959424 0.643994 0.887574
Si Si7 0.993212 0.933883 0.792126
Si Si8 0.271466 0.673839 0.526012
O O1 0.372153 0.208006 0.308002
O O2 0.131150 0.288279 0.368981
O O3 0.098875 0.143564 0.238851
O O4 0.368986 0.187645 0.806515
O O5 0.381882 0.889308 0.662018
O O6 0.353980 0.746836 0.723106
O O7 0.500000 0.500000 0.500000
O O8 0.790116 0.594500 0.791114
O O9 0.446221 0.643571 0.522927
O O10 0.661291 0.538694 0.034559
O O11 0.203470 0.920804 0.886510
O O12 0.159645 0.024946 0.541340
O O13 0.500000 0.000000 0.000000
O O14 0.259087 0.598067 0.672151
O O15 0.000000 0.500000 0.500000
O O16 0.121592 0.582742 0.945243
O O17 0.066518 0.686687 0.205690
O O18 0.000000 0.000000 0.000000
#
# Coordination Sequence:
#
# PCOD9067621 Si02
#       8
#     2   2   2   2   2   2   2   2
#     4  12  30  51  78 115 161 203 258 315 381 460
#     4  12  30  50  81 112 158 210 253 316 384 454
#     4  12  24  49  72 102 145 192 256 319 385 456
#     4  11  25  51  79 115 157 200 260 310 375 453
#     4  12  26  45  76 102 142 197 254 323 384 454
#     4  12  28  48  71 108 153 193 258 318 385 458
#     4  11  27  47  83 116 155 206 253 316 378 449
#     4  12  28  47  73 107 147 202 252 317 390 451
#
# _framework density 23.479982
#
# number of rings (size 3 to 8) (size 9 to 14) (size 15 to 20)
#    0.000    0.250    5.000    2.250   14.000    1.000 
#    0.000    0.000    0.000    0.000    0.000    0.000 
#    0.000    0.000    0.000    0.000    0.000    0.000 
#
# Total GULP energy -89292.838244 kJ/mol
# GULP energy per Si atom -5580.802390 kJ/mol
# Density = 2.342654 g / cm^3
# Si number density = 23.479982 Si / 1000 Ang^3
#
#
#
# Elastic Constant Matrix: (Units=GPa)
#
#
# Indices 1 2 3 4 5 6 
#
# 1 105.1487 21.5588 39.2927 15.1546 22.2914 22.4824
# 2 21.5588 126.2465 16.5530 16.3552 13.2185 19.3943
# 3 39.2927 16.5530 91.6434 16.9828 20.3078 19.4281
# 4 15.1546 16.3552 16.9828 46.8654 2.2908 10.1425
# 5 22.2914 13.2185 20.3078 2.2908 32.7695 -0.2846
# 6 22.4824 19.3943 19.4281 10.1425 -0.2846 37.8033
#
#
#
# Elastic Compliance Matrix: (Units=1/GPa)
#
#
# Indices 1 2 3 4 5 6 
#
# 1 0.013708 0.000016 -0.002466 -0.001765 -0.007736 -0.006478
# 2 0.000016 0.009240 0.000573 -0.002277 -0.003973 -0.004463
# 3 -0.002466 0.000573 0.015521 -0.003345 -0.007990 -0.005967
# 4 -0.001765 -0.002277 -0.003345 0.024353 0.002467 -0.002578
# 5 -0.007736 -0.003973 -0.007990 0.002467 0.042251 0.010402
# 6 -0.006478 -0.004463 -0.005967 -0.002578 0.010402 0.036432
#
#
# Mechanical properties :
#
#
# Convention : Reuss Voigt Hill
#
# Bulk Modulus (GPa) = 28.80567 53.09419 40.94993
# Shear Modulus (GPa) = 31.88177 39.86323 35.87250
#
# Velocity S-wave (km/s) = 3.68887 4.12485 3.91294
# Velocity P-wave (km/s) = 5.51711 6.73405 6.15573
#
# Compressibility (1/GPa) = 0.03471539
#
# Stress axis : x y z
#
# Youngs Moduli (GPa) = 72.95013 108.22797 64.42878
#
# Poissons Ratio (x) = -0.00176 0.15885
# Poissons Ratio (y) = -0.00119 -0.03689
# Poissons Ratio (z) = 0.17986 -0.06197
#
# Static dielectric constant tensor:
#      x y z
#    x 1.952910 0.029380 -0.056520 
#    y 0.029380 1.824450 -0.026840 
#    z -0.056520 -0.026840 1.916660 
# 
# From -- ./inp_files/48035.got.cif
#   From: 2010.05.17/outbox.cif.g08.bks.cpg/sg2_25_cif.got.tgz:48035.got - 2010.06.03 11:33:40.
