data_PCOD9067494
_publ_section_title
;
Structure prediction by ZEFSAII (Michael W. Deem and Ramdas Pophale) SiO2 
 PCOD9067494
Probable space group: P -1
;
_chemical_formula_sum "Si O2"
_cell_formula_units_Z 10
_cell_length_a 11.727563
_cell_length_b 5.244295
_cell_length_c 8.565553
_cell_angle_alpha 61.536766
_cell_angle_beta 53.766746
_cell_angle_gamma 74.777817
_cell_volume 373.430102
_symmetry_space_group_name_H-M "P -1"
_symmetry_group_IT_number 2
_symmetry_cell_setting 'triclinic'
loop_
_space_group_symop_operation_xyz
x,y,z
-x,-y,-z
loop_
_atom_site_type_symbol
_atom_site_label
_atom_site_fract_x
_atom_site_fract_y
_atom_site_fract_z
Si Si1 0.284815 0.019695 0.770506
Si Si2 0.545404 0.667481 0.072197
Si Si3 0.158098 0.504427 0.193046
Si Si4 0.839730 0.423112 0.459972
Si Si5 0.596023 0.198051 0.578629
O O1 0.213150 0.314366 0.684414
O O2 0.439093 0.057064 0.717446
O O3 0.325759 0.836331 0.638320
O O4 0.178921 0.835957 0.019679
O O5 0.463832 0.552530 0.326743
O O6 0.500000 0.500000 0.000000
O O7 0.711830 0.641966 0.955167
O O8 0.500000 0.000000 0.000000
O O9 0.175856 0.501429 0.366788
O O10 0.004493 0.378375 0.311656
O O11 0.737783 0.148192 0.582600
#
# Coordination Sequence:
#
# PCOD9067494 Si02
#       5
#     2   2   2   2   2
#     4  11  26  48  76 113 155 205 258 327 384 476
#     4  12  25  48  78 116 155 208 267 330 389 481
#     4  11  26  48  77 110 154 205 258 320 405 459
#     4  11  25  50  71 113 155 201 261 323 388 476
#     4  11  26  45  77 111 153 200 269 313 390 468
#
# _framework density 26.778772
#
# number of rings (size 3 to 8) (size 9 to 14) (size 15 to 20)
#    0.000    0.800    2.000    3.600    8.400    0.800 
#    7.200    3.000    0.000    0.000    0.000    0.000 
#    0.000    0.000    0.000    0.000    0.000    0.000 
#
# Total GULP energy -55813.602661 kJ/mol
# GULP energy per Si atom -5581.360266 kJ/mol
# Density = 2.671782 g / cm^3
# Si number density = 26.778772 Si / 1000 Ang^3
#
#
#
# Elastic Constant Matrix: (Units=GPa)
#
#
# Indices 1 2 3 4 5 6 
#
# 1 185.7025 36.6659 61.3290 11.8954 -33.9450 20.5293
# 2 36.6659 87.8347 31.7489 15.9428 21.0602 -4.4526
# 3 61.3290 31.7489 117.4232 9.4347 -30.1759 -1.8593
# 4 11.8954 15.9428 9.4347 50.5276 -11.1170 12.4051
# 5 -33.9450 21.0602 -30.1759 -11.1170 61.8068 -1.6093
# 6 20.5293 -4.4526 -1.8593 12.4051 -1.6093 45.6944
#
#
#
# Elastic Compliance Matrix: (Units=1/GPa)
#
#
# Indices 1 2 3 4 5 6 
#
# 1 0.008353 -0.004801 -0.001887 0.002290 0.005591 -0.004722
# 2 -0.004801 0.020808 -0.005928 -0.008859 -0.014062 0.005853
# 3 -0.001887 -0.005928 0.012950 0.001395 0.007575 0.000685
# 4 0.002290 -0.008859 0.001395 0.025955 0.009403 -0.008551
# 5 0.005591 -0.014062 0.007575 0.009403 0.029299 -0.005095
# 6 -0.004722 0.005853 0.000685 -0.008551 -0.005095 0.026746
#
#
# Mechanical properties :
#
#
# Convention : Reuss Voigt Hill
#
# Bulk Modulus (GPa) = 59.23998 72.27199 65.75599
# Shear Modulus (GPa) = 32.26436 49.02019 40.64228
#
# Velocity S-wave (km/s) = 3.47486 4.28315 3.90000
# Velocity P-wave (km/s) = 6.18624 7.17688 6.69989
#
# Compressibility (1/GPa) = 0.01688049
#
# Stress axis : x y z
#
# Youngs Moduli (GPa) = 119.71240 48.05767 77.22094
#
# Poissons Ratio (x) = 0.23071 0.14569
# Poissons Ratio (y) = 0.57471 0.45777
# Poissons Ratio (z) = 0.22586 0.28489
#
# Static dielectric constant tensor:
#      x y z
#    x 2.154390 -0.054900 0.134840 
#    y -0.054900 2.230650 -0.225320 
#    z 0.134840 -0.225320 2.290400 
# 
# From -- ./inp_files/228849.got.cif
#   From: 2010.05.17/outbox.cif.g08.bks.cpg/sg2_115_cif.got.tgz:228849.got - 2010.06.03 11:33:40.
