data_PCOD9067143
_publ_section_title
;
Structure prediction by ZEFSAII (Michael W. Deem and Ramdas Pophale) SiO2 
 PCOD9067143
Probable space group: P -1
;
_chemical_formula_sum "Si O2"
_cell_formula_units_Z 14
_cell_length_a 5.289827
_cell_length_b 23.154593
_cell_length_c 15.047265
_cell_angle_alpha 158.140601
_cell_angle_beta 107.600483
_cell_angle_gamma 84.756200
_cell_volume 553.348426
_symmetry_space_group_name_H-M "P -1"
_symmetry_group_IT_number 2
_symmetry_cell_setting 'triclinic'
loop_
_space_group_symop_operation_xyz
x,y,z
-x,-y,-z
loop_
_atom_site_type_symbol
_atom_site_label
_atom_site_fract_x
_atom_site_fract_y
_atom_site_fract_z
Si Si1 0.738017 0.744394 0.275219
Si Si2 0.133558 0.925946 0.835919
Si Si3 0.781805 0.108427 0.752100
Si Si4 0.584307 0.756558 0.793616
Si Si5 0.890010 0.291901 0.190470
Si Si6 0.725089 0.547723 0.824766
Si Si7 0.095569 0.416074 0.784748
O O1 0.954633 0.695814 0.288836
O O2 0.856295 0.956245 0.576434
O O3 0.639447 0.656319 0.039942
O O4 0.411917 0.616246 0.110538
O O5 0.917271 0.715281 0.484508
O O6 0.500000 0.000000 0.000000
O O7 0.155751 0.039353 0.914237
O O8 0.000000 0.000000 0.000000
O O9 0.500000 0.000000 0.500000
O O10 0.667477 0.171003 0.914862
O O11 0.032699 0.291092 0.986005
O O12 0.301600 0.766127 0.820441
O O13 0.487725 0.620590 0.504718
O O14 0.792953 0.701745 0.792522
O O15 0.000000 0.500000 0.500000
O O16 0.844488 0.457758 0.780131
#
# Coordination Sequence:
#
# PCOD9067143 Si02
#       7
#     2   2   2   2   2   2   2
#     4  11  26  47  72 106 154 193 255 314 388 453
#     4  12  25  44  73 109 145 196 256 310 374 457
#     4  12  27  47  77 113 150 198 257 315 383 462
#     4  12  27  48  80 109 157 202 256 320 385 456
#     4  12  28  51  76 114 154 202 255 321 387 455
#     4  12  25  46  79 106 147 201 256 314 383 459
#     4  11  25  48  70 109 146 200 249 318 380 456
#
# _framework density 25.300518
#
# number of rings (size 3 to 8) (size 9 to 14) (size 15 to 20)
#    0.000    0.286    4.286    3.857    4.000    2.286 
#    2.571    0.000    0.000    0.000    0.000    0.000 
#    0.000    0.000    0.000    0.000    0.000    0.000 
#
# Total GULP energy -78090.971176 kJ/mol
# GULP energy per Si atom -5577.926513 kJ/mol
# Density = 2.524293 g / cm^3
# Si number density = 25.300518 Si / 1000 Ang^3
#
#
#
# Elastic Constant Matrix: (Units=GPa)
#
#
# Indices 1 2 3 4 5 6 
#
# 1 74.4223 22.2786 24.2536 -2.1198 -11.8202 2.9825
# 2 22.2786 114.7326 36.6773 -7.0378 -9.9921 -6.8227
# 3 24.2536 36.6773 162.0152 -7.1545 -21.2710 5.5349
# 4 -2.1198 -7.0378 -7.1545 56.3283 5.1659 -2.3224
# 5 -11.8202 -9.9921 -21.2710 5.1659 30.3498 -8.4006
# 6 2.9825 -6.8227 5.5349 -2.3224 -8.4006 37.5528
#
#
#
# Elastic Compliance Matrix: (Units=1/GPa)
#
#
# Indices 1 2 3 4 5 6 
#
# 1 0.015186 -0.002241 -0.001204 -0.000271 0.004239 -0.000504
# 2 -0.002241 0.010091 -0.001764 0.000898 0.001817 0.002733
# 3 -0.001204 -0.001764 0.007290 0.000286 0.003898 -0.000410
# 4 -0.000271 0.000898 0.000286 0.018150 -0.002504 0.000705
# 5 0.004239 0.001817 0.003898 -0.002504 0.040671 0.008362
# 6 -0.000504 0.002733 -0.000410 0.000705 0.008362 0.029140
#
#
# Mechanical properties :
#
#
# Convention : Reuss Voigt Hill
#
# Bulk Modulus (GPa) = 45.15058 57.50989 51.33024
# Shear Modulus (GPa) = 36.14547 42.71022 39.42785
#
# Velocity S-wave (km/s) = 3.78384 4.11313 3.95192
# Velocity P-wave (km/s) = 6.08066 6.73329 6.41528
#
# Compressibility (1/GPa) = 0.02214811
#
# Stress axis : x y z
#
# Youngs Moduli (GPa) = 65.85030 99.09905 137.17014
#
# Poissons Ratio (x) = 0.22211 0.16517
# Poissons Ratio (y) = 0.14759 0.24198
# Poissons Ratio (z) = 0.07929 0.17482
#
# Static dielectric constant tensor:
#      x y z
#    x 1.865080 -0.008980 0.047470 
#    y -0.008980 2.133830 -0.028260 
#    z 0.047470 -0.028260 1.936210 
# 
# From -- ./inp_files/486031.got.cif
#   From: 2010.05.17/outbox.cif.g08.bks.cpg/sg2_244_cif.got.tgz:486031.got - 2010.06.03 11:33:40.
