data_PCOD9067608
_publ_section_title
;
Structure prediction by ZEFSAII (Michael W. Deem and Ramdas Pophale) SiO2 
 PCOD9067608
Probable space group: P -1
;
_chemical_formula_sum "Si O2"
_cell_formula_units_Z 14
_cell_length_a 29.377626
_cell_length_b 7.544399
_cell_length_c 7.161451
_cell_angle_alpha 38.922540
_cell_angle_beta 139.358020
_cell_angle_gamma 145.881965
_cell_volume 528.876806
_symmetry_space_group_name_H-M "P -1"
_symmetry_group_IT_number 2
_symmetry_cell_setting 'triclinic'
loop_
_space_group_symop_operation_xyz
x,y,z
-x,-y,-z
loop_
_atom_site_type_symbol
_atom_site_label
_atom_site_fract_x
_atom_site_fract_y
_atom_site_fract_z
Si Si1 0.460531 0.170217 0.349768
Si Si2 0.370110 0.096679 0.779270
Si Si3 0.236914 0.199173 0.423322
Si Si4 0.153682 0.615414 0.177899
Si Si5 0.130538 0.430964 0.695776
Si Si6 0.673611 0.244212 0.439425
Si Si7 0.952152 0.148423 0.520178
O O1 0.534950 0.576233 0.249988
O O2 0.500000 0.000000 0.500000
O O3 0.419418 0.027604 0.538517
O O4 0.379507 0.048140 0.065774
O O5 0.304304 0.200843 0.495111
O O6 0.341212 0.782584 0.807355
O O7 0.102143 0.228785 0.241811
O O8 0.286669 0.424266 0.576539
O O9 0.186620 0.312852 0.053167
O O10 0.144198 0.514538 0.449533
O O11 0.253151 0.825988 0.259055
O O12 0.110095 0.810856 0.838714
O O13 0.168583 0.805518 0.597012
O O14 0.030531 0.175961 0.638088
O O15 0.000000 0.500000 0.500000
#
# Coordination Sequence:
#
# PCOD9067608 Si02
#       7
#     2   2   2   2   2   2   2
#     4  11  25  51  75 112 151 200 254 315 385 462
#     4  11  26  50  75 110 156 197 257 316 383 463
#     4  12  25  48  74 114 151 201 255 319 373 453
#     4  12  26  44  73 112 145 208 254 306 391 447
#     4  12  25  48  75 106 159 198 260 318 371 453
#     4  12  26  47  77 111 153 201 254 315 389 452
#     4  12  25  47  71 108 153 198 261 311 376 453
#
# _framework density 26.471195000000002
#
# number of rings (size 3 to 8) (size 9 to 14) (size 15 to 20)
#    0.000    0.286    2.857    6.000    0.000    1.714 
#    5.143    0.000    0.000    0.000    0.000    0.000 
#    0.000    0.000    0.000    0.000    0.000    0.000 
#
# Total GULP energy -78456.843272 kJ/mol
# GULP energy per Si atom -5604.060234 kJ/mol
# Density = 2.641095 g / cm^3
# Si number density = 26.471195 Si / 1000 Ang^3
#
#
#
# Elastic Constant Matrix: (Units=GPa)
#
#
# Indices 1 2 3 4 5 6 
#
# 1 135.9620 27.5012 27.2340 19.3621 4.1946 -6.5756
# 2 27.5012 104.5508 11.6668 6.0913 4.3958 -11.6070
# 3 27.2340 11.6668 148.4573 -3.3232 15.6188 3.3342
# 4 19.3621 6.0913 -3.3232 28.5008 3.3228 3.4085
# 5 4.1946 4.3958 15.6188 3.3228 24.5826 9.3526
# 6 -6.5756 -11.6070 3.3342 3.4085 9.3526 67.4094
#
#
#
# Elastic Compliance Matrix: (Units=1/GPa)
#
#
# Indices 1 2 3 4 5 6 
#
# 1 0.008939 -0.001721 -0.001695 -0.006050 0.000327 0.000920
# 2 -0.001721 0.010423 -0.000369 -0.001111 -0.001935 0.001970
# 3 -0.001695 -0.000369 0.007647 0.002695 -0.004840 -0.000072
# 4 -0.006050 -0.001111 0.002695 0.040615 -0.005111 -0.002259
# 5 0.000327 -0.001935 -0.004840 -0.005111 0.047150 -0.006345
# 6 0.000920 0.001970 -0.000072 -0.002259 -0.006345 0.016262
#
#
# Mechanical properties :
#
#
# Convention : Reuss Voigt Hill
#
# Bulk Modulus (GPa) = 51.44350 57.97490 54.70920
# Shear Modulus (GPa) = 34.46241 45.60311 40.03276
#
# Velocity S-wave (km/s) = 3.61208 4.15510 3.89307
# Velocity P-wave (km/s) = 6.07224 6.70585 6.39690
#
# Compressibility (1/GPa) = 0.01943880
#
# Stress axis : x y z
#
# Youngs Moduli (GPa) = 111.87297 95.93757 130.76904
#
# Poissons Ratio (x) = 0.16513 0.22166
# Poissons Ratio (y) = 0.19256 0.04824
# Poissons Ratio (z) = 0.18963 0.03539
#
# Static dielectric constant tensor:
#      x y z
#    x 2.073460 -0.046810 -0.008990 
#    y -0.046810 2.110010 0.019550 
#    z -0.008990 0.019550 2.078130 
# 
# From -- ./inp_files/356189.got.cif
#   From: 2010.05.17/outbox.cif.g08.bks.cpg/sg2_179_cif.got.tgz:356189.got - 2010.06.03 11:33:40.
