data_PCOD9067439
_publ_section_title
;
Structure prediction by ZEFSAII (Michael W. Deem and Ramdas Pophale) SiO2 
 PCOD9067439
Probable space group: P -1
;
_chemical_formula_sum "Si O2"
_cell_formula_units_Z 9
_cell_length_a 5.654735
_cell_length_b 4.979213
_cell_length_c 12.053062
_cell_angle_alpha 66.801708
_cell_angle_beta 104.467107
_cell_angle_gamma 93.069196
_cell_volume 301.653793
_symmetry_space_group_name_H-M "P -1"
_symmetry_group_IT_number 2
_symmetry_cell_setting 'triclinic'
loop_
_space_group_symop_operation_xyz
x,y,z
-x,-y,-z
loop_
_atom_site_type_symbol
_atom_site_label
_atom_site_fract_x
_atom_site_fract_y
_atom_site_fract_z
Si Si1 0.351054 0.608759 0.071240
Si Si2 0.000893 0.915619 0.827486
Si Si3 0.441645 0.647953 0.303405
Si Si4 0.500000 0.000000 0.500000
Si Si5 0.896454 0.851343 0.431802
O O1 0.178520 0.353140 0.134534
O O2 0.524551 0.688959 0.180109
O O3 0.500000 0.500000 0.000000
O O4 0.180552 0.872369 0.959410
O O5 0.827841 0.207311 0.757537
O O6 0.123949 0.946646 0.716816
O O7 0.582899 0.791252 0.399345
O O8 0.455282 0.310527 0.381276
O O9 0.177430 0.977470 0.481868
O O10 0.000000 0.500000 0.500000
#
# Coordination Sequence:
#
# PCOD9067439 Si02
#       5
#     2   2   2   1   2
#     4  11  25  49  77 111 153 198 251 313 384 460
#     4  11  26  46  75 110 151 200 252 312 379 454
#     4  12  26  47  74 110 153 201 254 312 377 450
#     4  12  28  48  72 108 154 202 254 310 374 450
#     4  12  27  48  74 109 152 202 256 311 375 449
#
# _framework density 29.835526999999999
#
# number of rings (size 3 to 8) (size 9 to 14) (size 15 to 20)
#    0.000    0.444    0.000    8.000    0.000   12.444 
#    0.000    0.000    0.000    0.000    0.000    0.000 
#    0.000    0.000    0.000    0.000    0.000    0.000 
#
# Total GULP energy -50398.521785 kJ/mol
# GULP energy per Si atom -5599.835754 kJ/mol
# Density = 2.976762 g / cm^3
# Si number density = 29.835527 Si / 1000 Ang^3
#
#
#
# Elastic Constant Matrix: (Units=GPa)
#
#
# Indices 1 2 3 4 5 6 
#
# 1 212.7905 46.3032 84.1308 -23.8488 -6.3526 -7.2349
# 2 46.3032 207.4110 108.4315 7.3173 15.5463 17.4824
# 3 84.1308 108.4315 321.3934 13.7898 15.7321 6.1169
# 4 -23.8488 7.3173 13.7898 80.7694 -10.4365 0.7891
# 5 -6.3526 15.5463 15.7321 -10.4365 86.8491 -17.0115
# 6 -7.2349 17.4824 6.1169 0.7891 -17.0115 50.5706
#
#
#
# Elastic Compliance Matrix: (Units=1/GPa)
#
#
# Indices 1 2 3 4 5 6 
#
# 1 0.005805 -0.000889 -0.001419 0.002207 0.001451 0.001763
# 2 -0.000889 0.006277 -0.001735 -0.000699 -0.001462 -0.002568
# 3 -0.001419 -0.001735 0.004156 -0.001064 -0.000740 -0.000338
# 4 0.002207 -0.000699 -0.001064 0.013570 0.002358 0.001268
# 5 0.001451 -0.001462 -0.000740 0.002358 0.013328 0.005249
# 6 0.001763 -0.002568 -0.000338 0.001268 0.005249 0.022701
#
#
# Mechanical properties :
#
#
# Convention : Reuss Voigt Hill
#
# Bulk Modulus (GPa) = 122.65650 135.48064 129.06857
# Shear Modulus (GPa) = 65.23987 77.15311 71.19649
#
# Velocity S-wave (km/s) = 4.68124 5.09074 4.89028
# Velocity P-wave (km/s) = 8.39159 8.94773 8.67412
#
# Compressibility (1/GPa) = 0.00815285
#
# Stress axis : x y z
#
# Youngs Moduli (GPa) = 172.27919 159.30066 240.59508
#
# Poissons Ratio (x) = 0.14169 0.34132
# Poissons Ratio (y) = 0.15323 0.41734
# Poissons Ratio (z) = 0.24441 0.27633
#
# Static dielectric constant tensor:
#      x y z
#    x 1.483260 0.897180 0.549520 
#    y 0.897180 1.608690 -0.298780 
#    z 0.549520 -0.298780 1.831720 
# 
# From -- ./inp_files/1776.got.cif
#   From: 2010.05.17/outbox.cif.g08.bks.cpg/sg2_1_cif.got.tgz:1776.got - 2010.06.03 11:33:40.
