data_PCOD9067665
_publ_section_title
;
Structure prediction by ZEFSAII (Michael W. Deem and Ramdas Pophale) SiO2 
 PCOD9067665
Probable space group: P -1
;
_chemical_formula_sum "Si O2"
_cell_formula_units_Z 13
_cell_length_a 10.086251
_cell_length_b 5.082628
_cell_length_c 11.187897
_cell_angle_alpha 89.366422
_cell_angle_beta 105.519323
_cell_angle_gamma 75.440813
_cell_volume 532.997206
_symmetry_space_group_name_H-M "P -1"
_symmetry_group_IT_number 2
_symmetry_cell_setting 'triclinic'
loop_
_space_group_symop_operation_xyz
x,y,z
-x,-y,-z
loop_
_atom_site_type_symbol
_atom_site_label
_atom_site_fract_x
_atom_site_fract_y
_atom_site_fract_z
Si Si1 0.841586 0.120819 0.920477
Si Si2 0.216337 0.348071 0.243645
Si Si3 0.564131 0.219120 0.952393
Si Si4 0.759238 0.063502 0.420623
Si Si5 0.500000 0.000000 0.500000
Si Si6 0.509782 0.459560 0.675411
Si Si7 0.980235 0.308868 0.605074
O O1 0.810933 0.434232 0.872109
O O2 0.733764 0.112124 0.000718
O O3 0.808187 0.933406 0.805898
O O4 0.000000 0.000000 0.000000
O O5 0.382787 0.335622 0.317938
O O6 0.099077 0.496661 0.310010
O O7 0.536760 0.284433 0.804651
O O8 0.500000 0.500000 0.000000
O O9 0.500000 0.000000 0.000000
O O10 0.655397 0.910989 0.461758
O O11 0.647003 0.340547 0.350810
O O12 0.871296 0.136041 0.538988
O O13 0.861040 0.892682 0.342701
O O14 0.548095 0.249948 0.577305
O O15 0.000000 0.500000 0.500000
#
# Coordination Sequence:
#
# PCOD9067665 Si02
#       7
#     2   2   2   2   1   2   2
#     4  11  26  51  75 105 138 194 252 307 380 445
#     4  11  26  46  78 102 147 198 246 306 372 456
#     4  11  26  49  75 108 151 190 250 321 373 443
#     4  11  26  42  71 108 150 197 250 308 374 455
#     4  12  24  44  74 110 152 194 260 302 374 466
#     4  11  26  44  76 109 146 205 250 307 383 449
#     4  11  26  46  65 108 156 195 242 309 378 443
#
# _framework density 24.390370999999998
#
# number of rings (size 3 to 8) (size 9 to 14) (size 15 to 20)
#    0.000    0.923    1.538    3.692   12.923    1.231 
#    5.538    0.000    0.000    0.000    0.000    0.000 
#    0.000    0.000    0.000    0.000    0.000    0.000 
#
# Total GULP energy -72624.294253 kJ/mol
# GULP energy per Si atom -5586.484173 kJ/mol
# Density = 2.433486 g / cm^3
# Si number density = 24.390371 Si / 1000 Ang^3
#
#
#
# Elastic Constant Matrix: (Units=GPa)
#
#
# Indices 1 2 3 4 5 6 
#
# 1 197.7724 46.7545 30.8315 -0.6208 -11.5507 -39.3279
# 2 46.7545 120.4434 28.2569 17.2570 0.0098 -25.0043
# 3 30.8315 28.2569 61.5816 13.0205 -7.1448 -14.3273
# 4 -0.6208 17.2570 13.0205 41.3880 -0.2886 -10.8192
# 5 -11.5507 0.0098 -7.1448 -0.2886 42.1687 -2.6221
# 6 -39.3279 -25.0043 -14.3273 -10.8192 -2.6221 71.2754
#
#
#
# Elastic Compliance Matrix: (Units=1/GPa)
#
#
# Indices 1 2 3 4 5 6 
#
# 1 0.006476 -0.001745 -0.002042 0.002250 0.001627 0.002952
# 2 -0.001745 0.010454 -0.003017 -0.003023 -0.000912 0.001606
# 3 -0.002042 -0.003017 0.020297 -0.004805 0.002927 0.001273
# 4 0.002250 -0.003023 -0.004805 0.027871 0.000208 0.003454
# 5 0.001627 -0.000912 0.002927 0.000208 0.024789 0.002110
# 6 0.002952 0.001606 0.001273 0.003454 0.002110 0.017080
#
#
# Mechanical properties :
#
#
# Convention : Reuss Voigt Hill
#
# Bulk Modulus (GPa) = 42.33509 65.72036 54.02772
# Shear Modulus (GPa) = 38.92632 49.23006 44.07819
#
# Velocity S-wave (km/s) = 3.99929 4.49756 4.25573
# Velocity P-wave (km/s) = 6.22260 7.34673 6.80791
#
# Compressibility (1/GPa) = 0.02362107
#
# Stress axis : x y z
#
# Youngs Moduli (GPa) = 154.40991 95.65573 49.26872
#
# Poissons Ratio (x) = 0.16688 0.10061
# Poissons Ratio (y) = 0.26937 0.14862
# Poissons Ratio (z) = 0.31530 0.28855
#
# Static dielectric constant tensor:
#      x y z
#    x 2.387440 0.296830 -0.477510 
#    y 0.296830 2.115760 -0.374700 
#    z -0.477510 -0.374700 2.605920 
# 
# From -- ./inp_files/58977.got.cif
#   From: 2010.05.17/outbox.cif.g08.bks.cpg/sg2_30_cif.got.tgz:58977.got - 2010.06.03 11:33:40.
