data_PCOD9067453
_publ_section_title
;
Structure prediction by ZEFSAII (Michael W. Deem and Ramdas Pophale) SiO2 
 PCOD9067453
Probable space group: P -1
;
_chemical_formula_sum "Si O2"
_cell_formula_units_Z 14
_cell_length_a 13.945723
_cell_length_b 5.476859
_cell_length_c 11.020780
_cell_angle_alpha 105.179000
_cell_angle_beta 45.027266
_cell_angle_gamma 95.805818
_cell_volume 570.361826
_symmetry_space_group_name_H-M "P -1"
_symmetry_group_IT_number 2
_symmetry_cell_setting 'triclinic'
loop_
_space_group_symop_operation_xyz
x,y,z
-x,-y,-z
loop_
_atom_site_type_symbol
_atom_site_label
_atom_site_fract_x
_atom_site_fract_y
_atom_site_fract_z
Si Si1 0.792904 0.933322 0.772446
Si Si2 0.237122 0.017968 0.463391
Si Si3 0.630277 0.494072 0.970158
Si Si4 0.901729 0.533190 0.208261
Si Si5 0.371560 0.718273 0.626755
Si Si6 0.960467 0.346209 0.395341
Si Si7 0.489032 0.109559 0.708440
O O1 0.817121 0.865385 0.600355
O O2 0.935729 0.914422 0.712517
O O3 0.715457 0.713728 0.871980
O O4 0.711751 0.215849 0.878232
O O5 0.168761 0.184438 0.656330
O O6 0.191152 0.736463 0.471840
O O7 0.400416 0.009034 0.308385
O O8 0.576602 0.611544 0.161199
O O9 0.500000 0.500000 0.000000
O O10 0.771734 0.384251 0.276037
O O11 0.976067 0.440441 0.256477
O O12 0.000000 0.500000 0.000000
O O13 0.500000 0.500000 0.500000
O O14 0.411414 0.864253 0.490004
O O15 0.378657 0.923256 0.753476
O O16 0.000000 0.500000 0.500000
#
# Coordination Sequence:
#
# PCOD9067453 Si02
#       7
#     2   2   2   2   2   2   2
#     4  12  28  47  79 124 163 215 265 342 429 500
#     4  12  25  49  81 112 161 215 275 337 426 501
#     4  12  28  46  79 122 163 203 275 353 415 495
#     4  12  29  50  82 121 167 218 283 350 416 502
#     4  11  25  49  78 109 156 220 284 335 421 504
#     4  12  27  51  81 116 162 219 275 339 419 514
#     4  11  26  47  79 112 156 218 274 345 418 497
#
# _framework density 24.545821
#
# number of rings (size 3 to 8) (size 9 to 14) (size 15 to 20)
#    0.000    0.286    5.714    1.714    6.000    2.857 
#    0.000    0.000    0.000    0.000    0.000    0.000 
#    0.000    0.000    0.000    0.000    0.000    0.000 
#
# Total GULP energy -78341.778939 kJ/mol
# GULP energy per Si atom -5595.841353 kJ/mol
# Density = 2.448995 g / cm^3
# Si number density = 24.545821 Si / 1000 Ang^3
#
#
#
# Elastic Constant Matrix: (Units=GPa)
#
#
# Indices 1 2 3 4 5 6 
#
# 1 145.8829 69.8594 61.4311 13.9530 1.8287 7.5684
# 2 69.8594 124.7404 53.5551 14.9534 -1.2175 14.6811
# 3 61.4311 53.5551 130.1735 13.3591 12.2580 9.3438
# 4 13.9530 14.9534 13.3591 54.0164 -0.6506 -3.1443
# 5 1.8287 -1.2175 12.2580 -0.6506 34.9926 1.0301
# 6 7.5684 14.6811 9.3438 -3.1443 1.0301 63.0426
#
#
#
# Elastic Compliance Matrix: (Units=1/GPa)
#
#
# Indices 1 2 3 4 5 6 
#
# 1 0.010285 -0.004402 -0.003020 -0.000675 0.000349 0.000199
# 2 -0.004402 0.012108 -0.002748 -0.001631 0.001642 -0.001992
# 3 -0.003020 -0.002748 0.010753 -0.001197 -0.003709 -0.000590
# 4 -0.000675 -0.001631 -0.001197 0.019537 0.000714 0.001601
# 5 0.000349 0.001642 -0.003709 0.000714 0.029939 -0.000328
# 6 0.000199 -0.001992 -0.000590 0.001601 -0.000328 0.016475
#
#
# Mechanical properties :
#
#
# Convention : Reuss Voigt Hill
#
# Bulk Modulus (GPa) = 78.10058 85.60978 81.85518
# Shear Modulus (GPa) = 40.41889 44.80707 42.61298
#
# Velocity S-wave (km/s) = 4.06232 4.27716 4.17112
# Velocity P-wave (km/s) = 7.34102 7.70359 7.52449
#
# Compressibility (1/GPa) = 0.01280400
#
# Stress axis : x y z
#
# Youngs Moduli (GPa) = 97.23297 82.59069 93.00146
#
# Poissons Ratio (x) = 0.36357 0.28088
# Poissons Ratio (y) = 0.42803 0.25558
# Poissons Ratio (z) = 0.29366 0.22697
#
# Static dielectric constant tensor:
#      x y z
#    x 2.046520 -0.000630 -0.011770 
#    y -0.000630 2.005160 0.009620 
#    z -0.011770 0.009620 2.024360 
# 
# From -- ./inp_files/442112.got.cif
#   From: 2010.05.17/outbox.cif.g08.bks.cpg/sg2_222_cif.got.tgz:442112.got - 2010.06.03 11:33:40.
