data_PCOD9067249
_publ_section_title
;
Structure prediction by ZEFSAII (Michael W. Deem and Ramdas Pophale) SiO2 
 PCOD9067249
Probable space group: P -1
;
_chemical_formula_sum "Si O2"
_cell_formula_units_Z 12
_cell_length_a 15.130268
_cell_length_b 14.392423
_cell_length_c 9.433814
_cell_angle_alpha 141.759195
_cell_angle_beta 153.196185
_cell_angle_gamma 30.101860
_cell_volume 463.813455
_symmetry_space_group_name_H-M "P -1"
_symmetry_group_IT_number 2
_symmetry_cell_setting 'triclinic'
loop_
_space_group_symop_operation_xyz
x,y,z
-x,-y,-z
loop_
_atom_site_type_symbol
_atom_site_label
_atom_site_fract_x
_atom_site_fract_y
_atom_site_fract_z
Si Si1 0.600066 0.122396 0.278926
Si Si2 0.244241 0.843531 0.740780
Si Si3 0.949715 0.543280 0.650166
Si Si4 0.382448 0.857822 0.260331
Si Si5 0.202098 0.518373 0.244978
Si Si6 0.962154 0.835644 0.655674
O O1 0.573877 0.189461 0.162173
O O2 0.445387 0.314080 0.369702
O O3 0.859913 0.982203 0.555394
O O4 0.500000 0.000000 0.000000
O O5 0.237911 0.666979 0.537948
O O6 0.315446 0.899428 0.049251
O O7 0.000000 0.000000 0.500000
O O8 0.672099 0.710288 0.494002
O O9 0.000000 0.500000 0.500000
O O10 0.007008 0.350567 0.557209
O O11 0.119818 0.573750 0.027393
O O12 0.243181 0.048665 0.378866
O O13 0.227401 0.783197 0.004973
O O14 0.000000 0.500000 0.000000
#
# Coordination Sequence:
#
# PCOD9067249 Si02
#       6
#     2   2   2   2   2   2
#     4  12  24  48  76 108 148 193 256 311 371 446
#     4  12  26  47  74 109 147 193 252 306 375 446
#     4  12  27  47  73 110 153 194 251 309 381 451
#     4  11  26  47  75 105 150 197 247 311 375 451
#     4  12  26  47  76 109 148 197 248 311 373 449
#     4  11  25  48  75 108 149 200 252 308 382 447
#
# _framework density 25.87247
#
# number of rings (size 3 to 8) (size 9 to 14) (size 15 to 20)
#    0.000    0.333    3.333    5.000    2.333    3.333 
#    0.000    0.000    0.000    0.000    0.000    0.000 
#    0.000    0.000    0.000    0.000    0.000    0.000 
#
# Total GULP energy -67148.726021 kJ/mol
# GULP energy per Si atom -5595.727168 kJ/mol
# Density = 2.581358 g / cm^3
# Si number density = 25.872470 Si / 1000 Ang^3
#
#
#
# Elastic Constant Matrix: (Units=GPa)
#
#
# Indices 1 2 3 4 5 6 
#
# 1 145.7971 30.3016 17.5420 4.6935 -21.2593 -6.9105
# 2 30.3016 164.7271 29.3883 -6.3322 3.1917 -11.6065
# 3 17.5420 29.3883 78.9094 -13.4658 -18.1289 -8.5551
# 4 4.6935 -6.3322 -13.4658 52.5764 -0.8543 6.3569
# 5 -21.2593 3.1917 -18.1289 -0.8543 50.3941 2.0508
# 6 -6.9105 -11.6065 -8.5551 6.3569 2.0508 38.1678
#
#
#
# Elastic Compliance Matrix: (Units=1/GPa)
#
#
# Indices 1 2 3 4 5 6 
#
# 1 0.007737 -0.001357 -0.000593 -0.001061 0.003083 0.000866
# 2 -0.001357 0.006917 -0.002565 0.000099 -0.001988 0.001373
# 3 -0.000593 -0.002565 0.015869 0.003687 0.005612 0.001754
# 4 -0.001061 0.000099 0.003687 0.020432 0.001334 -0.002810
# 5 0.003083 -0.001988 0.005612 0.001334 0.023322 -0.000264
# 6 0.000866 0.001373 0.001754 -0.002810 -0.000264 0.027650
#
#
# Mechanical properties :
#
#
# Convention : Reuss Voigt Hill
#
# Bulk Modulus (GPa) = 46.52985 60.43303 53.48144
# Shear Modulus (GPa) = 42.32899 49.04111 45.68505
#
# Velocity S-wave (km/s) = 4.04922 4.35845 4.20668
# Velocity P-wave (km/s) = 6.31545 6.98118 6.65664
#
# Compressibility (1/GPa) = 0.02149158
#
# Stress axis : x y z
#
# Youngs Moduli (GPa) = 129.24876 144.57203 63.01671
#
# Poissons Ratio (x) = 0.19616 0.03739
# Poissons Ratio (y) = 0.17537 0.16166
# Poissons Ratio (z) = 0.07670 0.37088
#
# Static dielectric constant tensor:
#      x y z
#    x 2.191130 -0.076000 -0.027180 
#    y -0.076000 1.974410 -0.072830 
#    z -0.027180 -0.072830 2.025380 
# 
# From -- ./inp_files/199101.got.cif
#   From: 2010.05.17/outbox.cif.g08.bks.cpg/sg2_100_cif.got.tgz:199101.got - 2010.06.03 11:33:40.
