data_PCOD9067973
_publ_section_title
;
Structure prediction by ZEFSAII (Michael W. Deem and Ramdas Pophale) SiO2 
 PCOD9067973
Probable space group: P -1
;
_chemical_formula_sum "Si O2"
_cell_formula_units_Z 12
_cell_length_a 14.345400
_cell_length_b 13.545779
_cell_length_c 8.890737
_cell_angle_alpha 61.937480
_cell_angle_beta 60.697734
_cell_angle_gamma 20.169054
_cell_volume 519.110285
_symmetry_space_group_name_H-M "P -1"
_symmetry_group_IT_number 2
_symmetry_cell_setting 'triclinic'
loop_
_space_group_symop_operation_xyz
x,y,z
-x,-y,-z
loop_
_atom_site_type_symbol
_atom_site_label
_atom_site_fract_x
_atom_site_fract_y
_atom_site_fract_z
Si Si1 0.949640 0.905988 0.776080
Si Si2 0.010366 0.604935 0.509241
Si Si3 0.226037 0.282372 0.105071
Si Si4 0.317631 0.612652 0.438571
Si Si5 0.558703 0.199287 0.335289
Si Si6 0.601215 0.642486 0.993836
O O1 0.099274 0.750810 0.607882
O O2 0.174849 0.657465 0.900251
O O3 0.846429 0.133442 0.702570
O O4 0.675846 0.097063 0.874667
O O5 0.856549 0.728074 0.697872
O O6 0.000000 0.500000 0.500000
O O7 0.325055 0.335908 0.471945
O O8 0.850058 0.859541 0.370141
O O9 0.262224 0.367329 0.096288
O O10 0.000000 0.500000 0.000000
O O11 0.500000 0.000000 0.000000
O O12 0.500000 0.500000 0.500000
O O13 0.506450 0.356369 0.367927
O O14 0.496148 0.287251 0.148437
#
# Coordination Sequence:
#
# PCOD9067973 Si02
#       6
#     2   2   2   2   2   2
#     4  11  26  46  76  99 152 177 244 300 355 427
#     4  12  27  50  72 106 149 190 239 295 354 436
#     4  12  28  43  72 107 143 188 240 297 355 416
#     4  11  27  50  74 110 141 193 240 296 368 431
#     4  12  29  45  79 104 146 194 240 289 365 423
#     4  12  26  47  70 109 141 192 241 296 358 425
#
# _framework density 23.116475999999999
#
# number of rings (size 3 to 8) (size 9 to 14) (size 15 to 20)
#    0.000    0.333    3.333    3.500   14.000    1.333 
#    0.000    0.000    0.000    0.000    0.000    0.000 
#    0.000    0.000    0.000    0.000    0.000    0.000 
#
# Total GULP energy -67263.191467 kJ/mol
# GULP energy per Si atom -5605.265956 kJ/mol
# Density = 2.306386 g / cm^3
# Si number density = 23.116476 Si / 1000 Ang^3
#
#
#
# Elastic Constant Matrix: (Units=GPa)
#
#
# Indices 1 2 3 4 5 6 
#
# 1 93.9345 7.8166 5.2953 -6.6686 16.0958 10.5137
# 2 7.8166 116.5002 20.7375 -13.6649 8.3178 -4.1677
# 3 5.2953 20.7375 99.2526 -15.0183 -4.7138 -2.6880
# 4 -6.6686 -13.6649 -15.0183 49.6701 -10.4208 -9.4033
# 5 16.0958 8.3178 -4.7138 -10.4208 27.1531 9.5916
# 6 10.5137 -4.1677 -2.6880 -9.4033 9.5916 48.2228
#
#
#
# Elastic Compliance Matrix: (Units=1/GPa)
#
#
# Indices 1 2 3 4 5 6 
#
# 1 0.012035 -0.000237 -0.001033 -0.000483 -0.006925 -0.001419
# 2 -0.000237 0.009392 -0.001788 0.001704 -0.002990 0.001691
# 3 -0.001033 -0.001788 0.011305 0.003816 0.004385 0.000573
# 4 -0.000483 0.001704 0.003816 0.024124 0.008453 0.003488
# 5 -0.006925 -0.002990 0.004385 0.008453 0.048125 -0.006428
# 6 -0.001419 0.001691 0.000573 0.003488 -0.006428 0.023183
#
#
# Mechanical properties :
#
#
# Convention : Reuss Voigt Hill
#
# Bulk Modulus (GPa) = 37.57097 41.93177 39.75137
# Shear Modulus (GPa) = 34.92790 43.39840 39.16315
#
# Velocity S-wave (km/s) = 3.89131 4.33757 4.12049
# Velocity P-wave (km/s) = 6.03970 6.57760 6.31438
#
# Compressibility (1/GPa) = 0.02661629
#
# Stress axis : x y z
#
# Youngs Moduli (GPa) = 83.09272 106.47708 88.45499
#
# Poissons Ratio (x) = 0.02519 0.09138
# Poissons Ratio (y) = 0.01966 0.15816
# Poissons Ratio (z) = 0.08584 0.19038
#
# Static dielectric constant tensor:
#      x y z
#    x 1.868030 0.003630 -0.022360 
#    y 0.003630 1.813450 0.016480 
#    z -0.022360 0.016480 1.882310 
# 
# From -- ./inp_files/89645.got.cif
#   From: 2010.05.17/outbox.cif.g08.bks.cpg/sg2_45_cif.got.tgz:89645.got - 2010.06.03 11:33:40.
