data_PCOD9067061
_publ_section_title
;
Structure prediction by ZEFSAII (Michael W. Deem and Ramdas Pophale) SiO2 
 PCOD9067061
Probable space group: P -1
;
_chemical_formula_sum "Si O2"
_cell_formula_units_Z 11
_cell_length_a 13.656576
_cell_length_b 5.351651
_cell_length_c 13.163802
_cell_angle_alpha 82.252732
_cell_angle_beta 25.189317
_cell_angle_gamma 85.716918
_cell_volume 403.173602
_symmetry_space_group_name_H-M "P -1"
_symmetry_group_IT_number 2
_symmetry_cell_setting 'triclinic'
loop_
_space_group_symop_operation_xyz
x,y,z
-x,-y,-z
loop_
_atom_site_type_symbol
_atom_site_label
_atom_site_fract_x
_atom_site_fract_y
_atom_site_fract_z
Si Si1 0.476624 0.942415 0.357762
Si Si2 0.056456 0.551764 0.725446
Si Si3 0.915789 0.721083 0.492903
Si Si4 0.500000 0.500000 0.000000
Si Si5 0.208144 0.214284 0.763938
Si Si6 0.690686 0.874425 0.966109
O O1 0.257272 0.782361 0.522778
O O2 0.625652 0.763583 0.295758
O O3 0.376934 0.130880 0.520511
O O4 0.623732 0.039585 0.116569
O O5 0.096534 0.362127 0.607626
O O6 0.081424 0.434395 0.819347
O O7 0.822671 0.660991 0.909754
O O8 0.000000 0.500000 0.500000
O O9 0.659128 0.721324 0.774798
O O10 0.116077 0.955302 0.291358
O O11 0.494269 0.296369 0.919431
O O12 0.000000 0.000000 0.000000
#
# Coordination Sequence:
#
# PCOD9067061 Si02
#       6
#     2   2   2   1   2   2
#     4  11  25  47  77 109 153 204 252 320 384 457
#     4  12  25  47  75 112 152 203 256 318 385 454
#     4  12  27  48  75 114 155 205 257 320 380 459
#     4  12  26  52  78 108 158 208 254 316 390 452
#     4  11  26  49  74 112 153 203 256 317 386 460
#     4  12  28  50  79 116 157 200 264 318 380 463
#
# _framework density 27.283534
#
# number of rings (size 3 to 8) (size 9 to 14) (size 15 to 20)
#    0.000    0.364    3.636    4.364    0.000   10.909 
#    3.273    0.000    0.000    0.000    0.000    0.000 
#    0.000    0.000    0.000    0.000    0.000    0.000 
#
# Total GULP energy -61366.455883 kJ/mol
# GULP energy per Si atom -5578.768717 kJ/mol
# Density = 2.722144 g / cm^3
# Si number density = 27.283534 Si / 1000 Ang^3
#
#
#
# Elastic Constant Matrix: (Units=GPa)
#
#
# Indices 1 2 3 4 5 6 
#
# 1 156.4469 41.1869 35.4115 14.6931 9.7349 -0.3542
# 2 41.1869 70.1361 31.1093 -19.0618 12.2237 1.8316
# 3 35.4115 31.1093 133.4416 -10.9377 50.5962 18.2156
# 4 14.6931 -19.0618 -10.9377 38.3962 5.2615 -8.6908
# 5 9.7349 12.2237 50.5962 5.2615 52.1502 1.4801
# 6 -0.3542 1.8316 18.2156 -8.6908 1.4801 74.2523
#
#
#
# Elastic Compliance Matrix: (Units=1/GPa)
#
#
# Indices 1 2 3 4 5 6 
#
# 1 0.009553 -0.007298 -0.002887 -0.008628 0.003603 -0.000148
# 2 -0.007298 0.023902 -0.000533 0.015563 -0.005333 0.001434
# 3 -0.002887 -0.000533 0.014579 0.006340 -0.014048 -0.002555
# 4 -0.008628 0.015563 0.006340 0.041284 -0.012441 0.003100
# 5 0.003603 -0.005333 -0.014048 -0.012441 0.034596 0.001449
# 6 -0.000148 0.001434 -0.002555 0.003100 0.001449 0.014392
#
#
# Mechanical properties :
#
#
# Convention : Reuss Voigt Hill
#
# Bulk Modulus (GPa) = 37.59792 63.93775 50.76784
# Shear Modulus (GPa) = 29.65425 49.78087 39.71756
#
# Velocity S-wave (km/s) = 3.30038 4.27614 3.81955
# Velocity P-wave (km/s) = 5.32294 6.91852 6.17250
#
# Compressibility (1/GPa) = 0.02659722
#
# Stress axis : x y z
#
# Youngs Moduli (GPa) = 104.68433 41.83697 68.59071
#
# Poissons Ratio (x) = 0.30534 0.19799
# Poissons Ratio (y) = 0.76402 0.03659
# Poissons Ratio (z) = 0.30218 0.02232
#
# Static dielectric constant tensor:
#      x y z
#    x 1.997680 -0.059640 0.032030 
#    y -0.059640 2.184350 0.085600 
#    z 0.032030 0.085600 2.184360 
# 
# From -- ./inp_files/410161.got.cif
#   From: 2010.05.17/outbox.cif.g08.bks.cpg/sg2_206_cif.got.tgz:410161.got - 2010.06.03 11:33:40.
