data_PCOD9067113
_publ_section_title
;
Structure prediction by ZEFSAII (Michael W. Deem and Ramdas Pophale) SiO2 
 PCOD9067113
Probable space group: P -1
;
_chemical_formula_sum "Si O2"
_cell_formula_units_Z 10
_cell_length_a 8.582431
_cell_length_b 8.547249
_cell_length_c 10.989081
_cell_angle_alpha 68.900549
_cell_angle_beta 113.764369
_cell_angle_gamma 54.520371
_cell_volume 362.969265
_symmetry_space_group_name_H-M "P -1"
_symmetry_group_IT_number 2
_symmetry_cell_setting 'triclinic'
loop_
_space_group_symop_operation_xyz
x,y,z
-x,-y,-z
loop_
_atom_site_type_symbol
_atom_site_label
_atom_site_fract_x
_atom_site_fract_y
_atom_site_fract_z
Si Si1 0.874634 0.422504 0.941668
Si Si2 0.804603 0.647381 0.624188
Si Si3 0.438519 0.713757 0.333946
Si Si4 0.230075 0.850509 0.729524
Si Si5 0.453208 0.321952 0.904395
O O1 0.881769 0.427603 0.798175
O O2 0.512087 0.711620 0.788124
O O3 0.000000 0.500000 0.000000
O O4 0.088979 0.086752 0.142085
O O5 0.662351 0.685300 0.448260
O O6 0.156030 0.439218 0.774249
O O7 0.500000 0.000000 0.500000
O O8 0.500000 0.500000 0.500000
O O9 0.474928 0.669569 0.211190
O O10 0.282391 0.613052 0.844522
O O11 0.233983 0.955720 0.828421
O O12 0.000000 0.000000 0.500000
#
# Coordination Sequence:
#
# PCOD9067113 Si02
#       5
#     2   2   2   2   2
#     4  12  25  51  82 114 160 218 280 335 412 501
#     4  12  24  48  84 118 165 218 274 340 426 498
#     4  12  29  51  80 123 169 218 277 347 413 484
#     4  11  25  47  80 119 166 213 272 344 423 489
#     4  11  26  46  75 123 163 213 279 343 408 499
#
# _framework density 27.550540999999999
#
# number of rings (size 3 to 8) (size 9 to 14) (size 15 to 20)
#    0.000    0.400    4.000    3.000    0.000   10.400 
#    0.000    1.000    0.000    0.000    0.000    0.000 
#    0.000    0.000    0.000    0.000    0.000    0.000 
#
# Total GULP energy -55713.881451 kJ/mol
# GULP energy per Si atom -5571.388145 kJ/mol
# Density = 2.748783 g / cm^3
# Si number density = 27.550541 Si / 1000 Ang^3
#
#
#
# Elastic Constant Matrix: (Units=GPa)
#
#
# Indices 1 2 3 4 5 6 
#
# 1 183.2395 59.0991 74.0322 21.4276 18.6705 -20.1723
# 2 59.0991 157.1261 78.4714 28.9486 2.3097 -20.2176
# 3 74.0322 78.4714 165.9839 43.5269 17.5449 4.2421
# 4 21.4276 28.9486 43.5269 74.7244 16.4918 -6.8045
# 5 18.6705 2.3097 17.5449 16.4918 63.3844 13.2362
# 6 -20.1723 -20.2176 4.2421 -6.8045 13.2362 47.5798
#
#
#
# Elastic Compliance Matrix: (Units=1/GPa)
#
#
# Indices 1 2 3 4 5 6 
#
# 1 0.007536 -0.000981 -0.002957 0.000814 -0.002374 0.003819
# 2 -0.000981 0.009281 -0.003875 -0.000834 0.000485 0.003619
# 3 -0.002957 -0.003875 0.010354 -0.004121 0.000148 -0.004454
# 4 0.000814 -0.000834 -0.004121 0.017209 -0.004390 0.004040
# 5 -0.002374 0.000485 0.000148 -0.004390 0.018962 -0.006717
# 6 0.003819 0.003619 -0.004454 0.004040 -0.006717 0.027017
#
#
# Mechanical properties :
#
#
# Convention : Reuss Voigt Hill
#
# Bulk Modulus (GPa) = 86.62323 103.28389 94.95356
# Shear Modulus (GPa) = 45.52297 56.78751 51.15524
#
# Velocity S-wave (km/s) = 4.06931 4.54498 4.31371
# Velocity P-wave (km/s) = 7.32044 8.06925 7.70395
#
# Compressibility (1/GPa) = 0.01154425
#
# Stress axis : x y z
#
# Youngs Moduli (GPa) = 132.70147 107.74907 96.57849
#
# Poissons Ratio (x) = 0.10572 0.28560
# Poissons Ratio (y) = 0.13020 0.37424
# Poissons Ratio (z) = 0.39242 0.41752
#
# Static dielectric constant tensor:
#      x y z
#    x 2.135440 -0.146220 0.638310 
#    y -0.146220 2.921840 -3.139500 
#    z 0.638310 -3.139500 15.754660 
# 
# From -- ./inp_files/378436.got.cif
#   From: 2010.05.17/outbox.cif.g08.bks.cpg/sg2_190_cif.got.tgz:378436.got - 2010.06.03 11:33:40.
