data_PCOD9067274
_publ_section_title
;
Structure prediction by ZEFSAII (Michael W. Deem and Ramdas Pophale) SiO2 
 PCOD9067274
Probable space group: P -1
;
_chemical_formula_sum "Si O2"
_cell_formula_units_Z 12
_cell_length_a 5.490482
_cell_length_b 15.505739
_cell_length_c 9.089955
_cell_angle_alpha 39.993527
_cell_angle_beta 104.983463
_cell_angle_gamma 97.559722
_cell_volume 477.688067
_symmetry_space_group_name_H-M "P -1"
_symmetry_group_IT_number 2
_symmetry_cell_setting 'triclinic'
loop_
_space_group_symop_operation_xyz
x,y,z
-x,-y,-z
loop_
_atom_site_type_symbol
_atom_site_label
_atom_site_fract_x
_atom_site_fract_y
_atom_site_fract_z
Si Si1 0.792267 0.685723 0.096714
Si Si2 0.653432 0.888011 0.570801
Si Si3 0.753989 0.007517 0.124166
Si Si4 0.482300 0.627343 0.721665
Si Si5 0.327351 0.536158 0.284339
Si Si6 0.966235 0.230351 0.703432
O O1 0.510470 0.637191 0.100662
O O2 0.045369 0.587040 0.226793
O O3 0.812146 0.723003 0.223027
O O4 0.819858 0.804310 0.828882
O O5 0.748706 0.971886 0.340481
O O6 0.527802 0.767072 0.625169
O O7 0.500000 0.000000 0.500000
O O8 0.948651 0.889724 0.238415
O O9 0.500000 0.000000 0.000000
O O10 0.817190 0.156771 0.903097
O O11 0.681148 0.583950 0.678954
O O12 0.217741 0.658217 0.553931
O O13 0.500000 0.500000 0.000000
O O14 0.500000 0.500000 0.500000
#
# Coordination Sequence:
#
# PCOD9067274 Si02
#       6
#     2   2   2   2   2   2
#     4  12  29  50  81 119 162 209 272 334 409 479
#     4  12  29  49  82 118 163 214 275 340 406 484
#     4  11  25  48  76 110 157 211 274 330 407 483
#     4  12  27  50  79 117 162 211 266 334 408 486
#     4  12  28  51  80 118 162 215 269 329 407 491
#     4  11  27  47  79 114 155 215 268 338 407 483
#
# _framework density 25.120995000000001
#
# number of rings (size 3 to 8) (size 9 to 14) (size 15 to 20)
#    0.000    0.333    5.000    1.500   11.667    1.333 
#    0.000    0.000    0.000    0.000    0.000    0.000 
#    0.000    0.000    0.000    0.000    0.000    0.000 
#
# Total GULP energy -67101.590746 kJ/mol
# GULP energy per Si atom -5591.799229 kJ/mol
# Density = 2.506382 g / cm^3
# Si number density = 25.120995 Si / 1000 Ang^3
#
#
#
# Elastic Constant Matrix: (Units=GPa)
#
#
# Indices 1 2 3 4 5 6 
#
# 1 73.9564 21.7242 38.8238 -8.6355 -15.8475 -4.6559
# 2 21.7242 163.7730 44.2254 7.5308 -14.1571 -13.0079
# 3 38.8238 44.2254 190.0390 26.2362 -5.0698 -7.5156
# 4 -8.6355 7.5308 26.2362 49.0861 -4.6950 -10.4266
# 5 -15.8475 -14.1571 -5.0698 -4.6950 38.8828 -2.2999
# 6 -4.6559 -13.0079 -7.5156 -10.4266 -2.2999 51.3846
#
#
#
# Elastic Compliance Matrix: (Units=1/GPa)
#
#
# Indices 1 2 3 4 5 6 
#
# 1 0.018638 -0.000756 -0.004285 0.006988 0.007762 0.002636
# 2 -0.000756 0.006873 -0.001335 0.000065 0.002122 0.001584
# 3 -0.004285 -0.001335 0.007008 -0.004633 -0.001921 -0.000727
# 4 0.006988 0.000065 -0.004633 0.025772 0.005702 0.005457
# 5 0.007762 0.002122 -0.001921 0.005702 0.030298 0.003473
# 6 0.002636 0.001584 -0.000727 0.005457 0.003473 0.021257
#
#
# Mechanical properties :
#
#
# Convention : Reuss Voigt Hill
#
# Bulk Modulus (GPa) = 50.58958 70.81278 60.70118
# Shear Modulus (GPa) = 38.70343 49.40369 44.05356
#
# Velocity S-wave (km/s) = 3.92941 4.43948 4.19221
# Velocity P-wave (km/s) = 6.38507 7.38434 6.90281
#
# Compressibility (1/GPa) = 0.01976691
#
# Stress axis : x y z
#
# Youngs Moduli (GPa) = 53.65334 145.49671 142.70021
#
# Poissons Ratio (x) = 0.11002 0.61148
# Poissons Ratio (y) = 0.04057 0.19047
# Poissons Ratio (z) = 0.22991 0.19420
#
# Static dielectric constant tensor:
#      x y z
#    x 2.103760 0.062850 -0.088500 
#    y 0.062850 2.054410 -0.048540 
#    z -0.088500 -0.048540 1.969270 
# 
# From -- ./inp_files/60200.got.cif
#   From: 2010.05.17/outbox.cif.g08.bks.cpg/sg2_31_cif.got.tgz:60200.got - 2010.06.03 11:33:40.
