data_PCOD9067837
_publ_section_title
;
Structure prediction by ZEFSAII (Michael W. Deem and Ramdas Pophale) SiO2 
 PCOD9067837
Probable space group: P -1
;
_chemical_formula_sum "Si O2"
_cell_formula_units_Z 14
_cell_length_a 5.263514
_cell_length_b 21.783950
_cell_length_c 10.374578
_cell_angle_alpha 34.641912
_cell_angle_beta 115.526201
_cell_angle_gamma 122.534509
_cell_volume 569.912671
_symmetry_space_group_name_H-M "P -1"
_symmetry_group_IT_number 2
_symmetry_cell_setting 'triclinic'
loop_
_space_group_symop_operation_xyz
x,y,z
-x,-y,-z
loop_
_atom_site_type_symbol
_atom_site_label
_atom_site_fract_x
_atom_site_fract_y
_atom_site_fract_z
Si Si1 0.715079 0.925450 0.150714
Si Si2 0.813590 0.779402 0.642216
Si Si3 0.490298 0.583253 0.742022
Si Si4 0.708056 0.301023 0.983525
Si Si5 0.823044 0.249165 0.819192
Si Si6 0.828946 0.552161 0.622449
Si Si7 0.842238 0.880531 0.743332
O O1 0.868312 0.892722 0.369870
O O2 0.492961 0.812114 0.218655
O O3 0.500000 0.000000 0.000000
O O4 0.000000 0.000000 0.000000
O O5 0.544190 0.695791 0.644842
O O6 0.736514 0.796437 0.741570
O O7 0.061674 0.718916 0.825066
O O8 0.728187 0.587498 0.676148
O O9 0.154698 0.541669 0.689095
O O10 0.500000 0.500000 0.000000
O O11 0.460093 0.169180 0.154274
O O12 0.809551 0.318651 0.825884
O O13 0.626423 0.415458 0.798316
O O14 0.099095 0.333683 0.647752
O O15 0.915306 0.145528 0.071980
O O16 0.000000 0.000000 0.500000
#
# Coordination Sequence:
#
# PCOD9067837 Si02
#       7
#     2   2   2   2   2   2   2
#     4  12  30  49  78 109 152 197 257 317 379 443
#     4  11  26  45  76 108 146 196 256 306 383 440
#     4  12  25  46  77 114 153 196 247 313 380 452
#     4  11  27  47  77 109 154 203 255 309 384 458
#     4  11  28  48  74 114 151 204 249 319 383 450
#     4  12  27  47  79 113 155 197 255 314 380 454
#     4  11  27  48  75 106 153 203 261 311 379 456
#
# _framework density 24.565168
#
# number of rings (size 3 to 8) (size 9 to 14) (size 15 to 20)
#    0.000    0.571    2.857    2.571   16.000    1.714 
#    0.000    0.000    0.000    0.000    0.000    0.000 
#    0.000    0.000    0.000    0.000    0.000    0.000 
#
# Total GULP energy -77966.957881 kJ/mol
# GULP energy per Si atom -5569.068420 kJ/mol
# Density = 2.450926 g / cm^3
# Si number density = 24.565168 Si / 1000 Ang^3
#
#
#
# Elastic Constant Matrix: (Units=GPa)
#
#
# Indices 1 2 3 4 5 6 
#
# 1 75.2492 19.4386 34.8705 4.3341 -24.4929 7.1234
# 2 19.4386 90.8325 33.4343 8.7599 -3.0985 11.9855
# 3 34.8705 33.4343 163.8002 12.1224 -23.1281 2.8870
# 4 4.3341 8.7599 12.1224 44.5713 0.8539 2.2795
# 5 -24.4929 -3.0985 -23.1281 0.8539 40.8775 4.4039
# 6 7.1234 11.9855 2.8870 2.2795 4.4039 34.2623
#
#
#
# Elastic Compliance Matrix: (Units=1/GPa)
#
#
# Indices 1 2 3 4 5 6 
#
# 1 0.018569 -0.002295 -0.001888 -0.000826 0.010351 -0.004174
# 2 -0.002295 0.012864 -0.002129 -0.001520 -0.001186 -0.003590
# 3 -0.001888 -0.002129 0.007463 -0.001496 0.002936 0.000231
# 4 -0.000826 -0.001520 -0.001496 0.023282 -0.001891 -0.000477
# 5 0.010351 -0.001186 0.002936 -0.001891 0.032932 -0.006091
# 6 -0.004174 -0.003590 0.000231 -0.000477 -0.006091 0.032105
#
#
# Mechanical properties :
#
#
# Convention : Reuss Voigt Hill
#
# Bulk Modulus (GPa) = 38.06549 56.15207 47.10878
# Shear Modulus (GPa) = 33.64804 40.08479 36.86641
#
# Velocity S-wave (km/s) = 3.70502 4.04390 3.87817
# Velocity P-wave (km/s) = 5.81655 6.68672 6.26676
#
# Compressibility (1/GPa) = 0.02627051
#
# Stress axis : x y z
#
# Youngs Moduli (GPa) = 53.85356 77.73720 133.99970
#
# Poissons Ratio (x) = 0.17843 0.25304
# Poissons Ratio (y) = 0.12361 0.28526
# Poissons Ratio (z) = 0.10170 0.16549
#
# Static dielectric constant tensor:
#      x y z
#    x 2.193270 0.110830 0.227610 
#    y 0.110830 2.143420 -0.158720 
#    z 0.227610 -0.158720 2.805790 
# 
# From -- ./inp_files/141058.got.cif
#   From: 2010.05.17/outbox.cif.g08.bks.cpg/sg2_71_cif.got.tgz:141058.got - 2010.06.03 11:33:40.
