data_PCOD9067734
_publ_section_title
;
Structure prediction by ZEFSAII (Michael W. Deem and Ramdas Pophale) SiO2 
 PCOD9067734
Probable space group: P -1
;
_chemical_formula_sum "Si O2"
_cell_formula_units_Z 16
_cell_length_a 12.546511
_cell_length_b 18.205629
_cell_length_c 13.703491
_cell_angle_alpha 32.092560
_cell_angle_beta 128.558606
_cell_angle_gamma 152.728650
_cell_volume 644.822097
_symmetry_space_group_name_H-M "P -1"
_symmetry_group_IT_number 2
_symmetry_cell_setting 'triclinic'
loop_
_space_group_symop_operation_xyz
x,y,z
-x,-y,-z
loop_
_atom_site_type_symbol
_atom_site_label
_atom_site_fract_x
_atom_site_fract_y
_atom_site_fract_z
Si Si1 0.515040 0.054023 0.784045
Si Si2 0.092870 0.985475 0.815269
Si Si3 0.662861 0.406134 0.158672
Si Si4 0.681412 0.853859 0.549203
Si Si5 0.735263 0.979551 0.933367
Si Si6 0.884127 0.067575 0.718155
Si Si7 0.672893 0.632159 0.633182
Si Si8 0.090216 0.541863 0.267312
O O1 0.385788 0.069604 0.637942
O O2 0.752743 0.309427 0.707129
O O3 0.628366 0.040216 0.788741
O O4 0.290483 0.777988 0.032915
O O5 0.159003 0.930199 0.996761
O O6 0.337471 0.264540 0.576970
O O7 0.972959 0.006453 0.785226
O O8 0.881687 0.723273 0.917703
O O9 0.485513 0.284081 0.290873
O O10 0.445384 0.208450 0.170102
O O11 0.824157 0.405567 0.265383
O O12 0.593651 0.644185 0.671694
O O13 0.006476 0.127247 0.446853
O O14 0.508324 0.659781 0.162725
O O15 0.945342 0.126114 0.802416
O O16 0.013982 0.315616 0.462359
#
# Coordination Sequence:
#
# PCOD9067734 Si02
#       8
#     2   2   2   2   2   2   2   2
#     4  11  26  47  73 103 141 188 231 295 349 418
#     4  12  25  47  73 103 146 183 234 293 350 416
#     4  12  25  48  70 105 144 189 230 289 353 416
#     4  11  26  44  75 103 144 187 229 294 348 420
#     4  12  27  45  73 106 142 186 237 288 350 417
#     4  12  27  44  72 107 144 185 233 291 349 422
#     4  11  26  46  71 109 139 186 239 288 348 415
#     4  11  26  47  72 103 142 186 237 286 357 412
#
# _framework density 24.813044999999999
#
# number of rings (size 3 to 8) (size 9 to 14) (size 15 to 20)
#    0.000    0.500    2.500    4.500   10.500    1.500 
#    0.000    0.000    0.000    0.000    0.000    0.000 
#    0.000    0.000    0.000    0.000    0.000    0.000 
#
# Total GULP energy -89802.200435 kJ/mol
# GULP energy per Si atom -5612.637527 kJ/mol
# Density = 2.475657 g / cm^3
# Si number density = 24.813045 Si / 1000 Ang^3
#
#
#
# Elastic Constant Matrix: (Units=GPa)
#
#
# Indices 1 2 3 4 5 6 
#
# 1 78.7353 5.3976 1.0687 11.0045 10.2170 7.6705
# 2 5.3976 68.6287 16.2085 8.6986 6.0265 0.8470
# 3 1.0687 16.2085 106.4902 2.1756 20.5448 -0.0951
# 4 11.0045 8.6986 2.1756 42.0837 -5.4989 1.4469
# 5 10.2170 6.0265 20.5448 -5.4989 45.2094 8.4129
# 6 7.6705 0.8470 -0.0951 1.4469 8.4129 35.0700
#
#
#
# Elastic Compliance Matrix: (Units=1/GPa)
#
#
# Indices 1 2 3 4 5 6 
#
# 1 0.013929 -0.000419 0.000680 -0.003980 -0.003508 -0.002029
# 2 -0.000419 0.015618 -0.002018 -0.003217 -0.001499 0.000201
# 3 0.000680 -0.002018 0.010695 -0.001020 -0.005091 0.001192
# 4 -0.003980 -0.003217 -0.001020 0.026254 0.005245 -0.001396
# 5 -0.003508 -0.001499 -0.005091 0.005245 0.027169 -0.005944
# 6 -0.002029 0.000201 0.001192 -0.001396 -0.005944 0.030440
#
#
# Mechanical properties :
#
#
# Convention : Reuss Voigt Hill
#
# Bulk Modulus (GPa) = 27.22640 33.24486 30.23563
# Shear Modulus (GPa) = 35.74983 39.88458 37.81721
#
# Velocity S-wave (km/s) = 3.79986 4.01359 3.90819
# Velocity P-wave (km/s) = 5.49985 5.90811 5.70763
#
# Compressibility (1/GPa) = 0.03672906
#
# Stress axis : x y z
#
# Youngs Moduli (GPa) = 71.79111 64.03047 93.50264
#
# Poissons Ratio (x) = 0.02681 -0.06360
# Poissons Ratio (y) = 0.03006 0.18867
# Poissons Ratio (z) = -0.04883 0.12920
#
# Static dielectric constant tensor:
#      x y z
#    x 1.916030 0.013190 -0.030300 
#    y 0.013190 2.025210 0.022750 
#    z -0.030300 0.022750 1.909810 
# 
# From -- ./inp_files/188531.got.cif
#   From: 2010.05.17/outbox.cif.g08.bks.cpg/sg2_95_cif.got.tgz:188531.got - 2010.06.03 11:33:40.
