data_PCOD9067788
_publ_section_title
;
Structure prediction by ZEFSAII (Michael W. Deem and Ramdas Pophale) SiO2 
 PCOD9067788
Probable space group: P -1
;
_chemical_formula_sum "Si O2"
_cell_formula_units_Z 15
_cell_length_a 7.966576
_cell_length_b 8.599203
_cell_length_c 12.118299
_cell_angle_alpha 131.769633
_cell_angle_beta 77.645802
_cell_angle_gamma 86.544193
_cell_volume 580.928691
_symmetry_space_group_name_H-M "P -1"
_symmetry_group_IT_number 2
_symmetry_cell_setting 'triclinic'
loop_
_space_group_symop_operation_xyz
x,y,z
-x,-y,-z
loop_
_atom_site_type_symbol
_atom_site_label
_atom_site_fract_x
_atom_site_fract_y
_atom_site_fract_z
Si Si1 0.000000 0.000000 0.500000
Si Si2 0.239666 0.834141 0.945060
Si Si3 0.366714 0.458418 0.208526
Si Si4 0.281295 0.167257 0.911435
Si Si5 0.521101 0.820502 0.319491
Si Si6 0.978188 0.002654 0.248525
Si Si7 0.167064 0.417618 0.689325
Si Si8 0.798092 0.486385 0.506114
O O1 0.050160 0.247597 0.614598
O O2 0.037305 0.986389 0.357285
O O3 0.429588 0.691220 0.896742
O O4 0.121004 0.679869 0.840319
O O5 0.284950 0.979669 0.910415
O O6 0.133368 0.982433 0.128343
O O7 0.362787 0.708367 0.307324
O O8 0.303968 0.431936 0.328447
O O9 0.266349 0.377905 0.086364
O O10 0.449414 0.124454 0.784078
O O11 0.114561 0.179015 0.861493
O O12 0.702888 0.657978 0.261556
O O13 0.500000 0.000000 0.500000
O O14 0.822090 0.229751 0.371926
O O15 0.269297 0.401352 0.547836
O O16 0.000000 0.500000 0.500000
#
# Coordination Sequence:
#
# PCOD9067788 Si02
#       8
#     1   2   2   2   2   2   2   2
#     4  12  26  48  74 112 150 192 252 316 374 452
#     4  11  27  49  76 109 153 198 253 314 382 452
#     4  11  28  48  74 111 152 201 250 316 379 456
#     4  12  24  46  75 109 147 201 250 314 376 456
#     4  11  26  47  72 109 151 203 250 316 383 444
#     4  12  26  48  77 112 144 199 252 317 378 451
#     4  11  26  45  72 109 148 196 252 312 373 452
#     4  12  25  47  78 109 147 200 257 308 376 458
#
# _framework density 25.820724999999999
#
# number of rings (size 3 to 8) (size 9 to 14) (size 15 to 20)
#    0.000    0.533    4.000    2.800    3.733    2.667 
#    4.800    0.000    0.000    0.000    0.000    0.000 
#    0.000    0.000    0.000    0.000    0.000    0.000 
#
# Total GULP energy -83685.258085 kJ/mol
# GULP energy per Si atom -5579.017206 kJ/mol
# Density = 2.576196 g / cm^3
# Si number density = 25.820725 Si / 1000 Ang^3
#
#
#
# Elastic Constant Matrix: (Units=GPa)
#
#
# Indices 1 2 3 4 5 6 
#
# 1 67.9905 17.7443 33.4550 2.5292 25.2210 15.3019
# 2 17.7443 155.6300 74.2554 -22.1010 16.9429 28.4486
# 3 33.4550 74.2554 196.5393 -18.1520 34.1481 23.9516
# 4 2.5292 -22.1010 -18.1520 59.0384 10.8973 7.5000
# 5 25.2210 16.9429 34.1481 10.8973 46.7742 7.5052
# 6 15.3019 28.4486 23.9516 7.5000 7.5052 41.1517
#
#
#
# Elastic Compliance Matrix: (Units=1/GPa)
#
#
# Indices 1 2 3 4 5 6 
#
# 1 0.019866 0.000546 -0.001102 0.001495 -0.009546 -0.005654
# 2 0.000546 0.009195 -0.002174 0.003839 -0.002030 -0.005623
# 3 -0.001102 -0.002174 0.007309 0.002517 -0.004215 -0.002031
# 4 0.001495 0.003839 0.002517 0.021448 -0.007884 -0.007146
# 5 -0.009546 -0.002030 -0.004215 -0.007884 0.031684 0.003064
# 6 -0.005654 -0.005623 -0.002031 -0.007146 0.003064 0.032216
#
#
# Mechanical properties :
#
#
# Convention : Reuss Voigt Hill
#
# Bulk Modulus (GPa) = 32.35308 74.56322 53.45815
# Shear Modulus (GPa) = 36.36835 49.03988 42.70411
#
# Velocity S-wave (km/s) = 3.75706 4.36276 4.07119
# Velocity P-wave (km/s) = 5.60159 7.37009 6.54584
#
# Compressibility (1/GPa) = 0.03090895
#
# Stress axis : x y z
#
# Youngs Moduli (GPa) = 50.33795 108.75721 136.80948
#
# Poissons Ratio (x) = -0.05937 0.15078
# Poissons Ratio (y) = -0.02748 0.29746
# Poissons Ratio (z) = 0.05548 0.23647
#
# Static dielectric constant tensor:
#      x y z
#    x 2.228200 -0.064740 -0.164870 
#    y -0.064740 2.168830 0.206080 
#    z -0.164870 0.206080 2.161130 
# 
# From -- ./inp_files/380553.got.cif
#   From: 2010.05.17/outbox.cif.g08.bks.cpg/sg2_191_cif.got.tgz:380553.got - 2010.06.03 11:33:40.
