data_PCOD9067844
_publ_section_title
;
Structure prediction by ZEFSAII (Michael W. Deem and Ramdas Pophale) SiO2 
 PCOD9067844
Probable space group: P -1
;
_chemical_formula_sum "Si O2"
_cell_formula_units_Z 12
_cell_length_a 10.096828
_cell_length_b 6.569766
_cell_length_c 11.823889
_cell_angle_alpha 56.305338
_cell_angle_beta 50.159186
_cell_angle_gamma 67.179697
_cell_volume 500.408797
_symmetry_space_group_name_H-M "P -1"
_symmetry_group_IT_number 2
_symmetry_cell_setting 'triclinic'
loop_
_space_group_symop_operation_xyz
x,y,z
-x,-y,-z
loop_
_atom_site_type_symbol
_atom_site_label
_atom_site_fract_x
_atom_site_fract_y
_atom_site_fract_z
Si Si1 0.558541 0.275522 0.175991
Si Si2 0.079686 0.785176 0.440278
Si Si3 0.364442 0.807782 0.090153
Si Si4 0.748184 0.905698 0.481170
Si Si5 0.169037 0.592350 0.822354
Si Si6 0.685377 0.576236 0.417662
O O1 0.654326 0.181107 0.038982
O O2 0.413343 0.086505 0.348090
O O3 0.780812 0.610407 0.237005
O O4 0.690956 0.350399 0.176992
O O5 0.198109 0.851022 0.247864
O O6 0.204284 0.619170 0.504682
O O7 0.000000 0.000000 0.500000
O O8 0.896639 0.715913 0.507317
O O9 0.445557 0.531356 0.144570
O O10 0.500000 0.000000 0.000000
O O11 0.836399 0.155217 0.324078
O O12 0.326004 0.194985 0.563851
O O13 0.000000 0.500000 0.000000
O O14 0.500000 0.500000 0.500000
#
# Coordination Sequence:
#
# PCOD9067844 Si02
#       6
#     2   2   2   2   2   2
#     4  11  26  48  75 113 153 199 259 310 386 459
#     4  12  25  47  78 116 151 201 256 314 382 454
#     4  11  26  45  77 109 155 197 252 317 382 450
#     4  12  26  48  78 108 154 203 253 318 385 456
#     4  12  29  47  73 111 152 198 258 321 383 455
#     4  12  26  49  79 111 153 202 255 307 386 462
#
# _framework density 23.980394
#
# number of rings (size 3 to 8) (size 9 to 14) (size 15 to 20)
#    0.000    0.333    5.000    2.000    4.667    3.333 
#    0.000    0.000    0.000    0.000    0.000    0.000 
#    0.000    0.000    0.000    0.000    0.000    0.000 
#
# Total GULP energy -67067.417164 kJ/mol
# GULP energy per Si atom -5588.951430 kJ/mol
# Density = 2.392581 g / cm^3
# Si number density = 23.980394 Si / 1000 Ang^3
#
#
#
# Elastic Constant Matrix: (Units=GPa)
#
#
# Indices 1 2 3 4 5 6 
#
# 1 161.6082 21.5654 66.1460 7.8471 16.9755 -14.3284
# 2 21.5654 94.7654 30.4452 -4.1150 0.0514 -12.7330
# 3 66.1460 30.4452 219.0930 25.2555 15.7744 -3.1846
# 4 7.8471 -4.1150 25.2555 37.4273 14.0934 -0.7969
# 5 16.9755 0.0514 15.7744 14.0934 53.9207 9.6838
# 6 -14.3284 -12.7330 -3.1846 -0.7969 9.6838 49.4882
#
#
#
# Elastic Compliance Matrix: (Units=1/GPa)
#
#
# Indices 1 2 3 4 5 6 
#
# 1 0.007547 -0.000713 -0.002051 0.000666 -0.002370 0.002344
# 2 -0.000713 0.011758 -0.001664 0.002835 -0.000556 0.002866
# 3 -0.002051 -0.001664 0.005830 -0.003718 0.000042 -0.000715
# 4 0.000666 0.002835 -0.003718 0.032519 -0.008127 0.002797
# 5 -0.002370 -0.000556 0.000042 -0.008127 0.022362 -0.005333
# 6 0.002344 0.002866 -0.000715 0.002797 -0.005333 0.022666
#
#
# Mechanical properties :
#
#
# Convention : Reuss Voigt Hill
#
# Bulk Modulus (GPa) = 61.43254 79.08664 70.25959
# Shear Modulus (GPa) = 42.74815 51.98789 47.36802
#
# Velocity S-wave (km/s) = 4.22670 4.66116 4.44924
# Velocity P-wave (km/s) = 7.03516 7.87527 7.46704
#
# Compressibility (1/GPa) = 0.01627802
#
# Stress axis : x y z
#
# Youngs Moduli (GPa) = 132.50100 85.05088 171.52768
#
# Poissons Ratio (x) = 0.06066 0.35188
# Poissons Ratio (y) = 0.09450 0.28537
# Poissons Ratio (z) = 0.27182 0.14150
#
# Static dielectric constant tensor:
#      x y z
#    x 1.968670 0.055210 0.020320 
#    y 0.055210 2.157420 0.043050 
#    z 0.020320 0.043050 1.977750 
# 
# From -- ./inp_files/573158.got.cif
#   From: 2010.05.17/outbox.cif.g08.bks.cpg/sg2_287_cif.got.tgz:573158.got - 2010.06.03 11:33:40.
