data_PCOD9067956
_publ_section_title
;
Structure prediction by ZEFSAII (Michael W. Deem and Ramdas Pophale) SiO2 
 PCOD9067956
Probable space group: P -1
;
_chemical_formula_sum "Si O2"
_cell_formula_units_Z 15
_cell_length_a 11.868501
_cell_length_b 8.499751
_cell_length_c 15.528168
_cell_angle_alpha 56.883708
_cell_angle_beta 25.659800
_cell_angle_gamma 56.146292
_cell_volume 559.050574
_symmetry_space_group_name_H-M "P -1"
_symmetry_group_IT_number 2
_symmetry_cell_setting 'triclinic'
loop_
_space_group_symop_operation_xyz
x,y,z
-x,-y,-z
loop_
_atom_site_type_symbol
_atom_site_label
_atom_site_fract_x
_atom_site_fract_y
_atom_site_fract_z
Si Si1 0.793610 0.279339 0.465760
Si Si2 0.119624 0.737478 0.899890
Si Si3 0.500000 0.000000 0.500000
Si Si4 0.161876 0.319250 0.731913
Si Si5 0.060464 0.314715 0.451188
Si Si6 0.813317 0.018754 0.808746
Si Si7 0.681523 0.692024 0.088079
Si Si8 0.619969 0.292658 0.019450
O O1 0.998146 0.313172 0.392044
O O2 0.542318 0.249870 0.703298
O O3 0.771912 0.470537 0.368980
O O4 0.900922 0.107663 0.378765
O O5 0.265028 0.915081 0.739373
O O6 0.298679 0.536162 0.867839
O O7 0.877041 0.772722 0.122976
O O8 0.968435 0.708354 0.924514
O O9 0.613895 0.787972 0.451325
O O10 0.878935 0.320953 0.882655
O O11 0.000000 0.500000 0.500000
O O12 0.376523 0.241739 0.258135
O O13 0.854632 0.189594 0.666233
O O14 0.653649 0.839906 0.981529
O O15 0.727820 0.130867 0.922837
O O16 0.500000 0.500000 0.000000
#
# Coordination Sequence:
#
# PCOD9067956 Si02
#       8
#     2   2   1   2   2   2   2   2
#     4  12  26  47  76 113 151 205 256 314 393 463
#     4  11  26  46  75 109 149 200 260 323 379 464
#     4  12  26  48  76 108 148 200 262 308 392 450
#     4  12  26  48  77 110 152 202 256 324 380 462
#     4  12  27  47  76 114 154 204 259 317 383 467
#     4  12  26  47  74 106 154 200 253 315 385 462
#     4  11  26  47  72 111 152 198 259 320 391 454
#     4  12  26  48  74 113 155 201 258 317 391 458
#
# _framework density 26.831202000000001
#
# number of rings (size 3 to 8) (size 9 to 14) (size 15 to 20)
#    0.000    0.267    5.333    2.400    1.867    6.933 
#    0.000    0.000    0.000    0.000    0.000    0.000 
#    0.000    0.000    0.000    0.000    0.000    0.000 
#
# Total GULP energy -83589.941746 kJ/mol
# GULP energy per Si atom -5572.662783 kJ/mol
# Density = 2.677013 g / cm^3
# Si number density = 26.831202 Si / 1000 Ang^3
#
#
#
# Elastic Constant Matrix: (Units=GPa)
#
#
# Indices 1 2 3 4 5 6 
#
# 1 80.1256 27.5587 18.3621 1.8108 6.1648 11.2903
# 2 27.5587 133.1167 38.5364 12.8428 -1.6664 3.9594
# 3 18.3621 38.5364 176.9180 -3.5108 27.8207 -16.2532
# 4 1.8108 12.8428 -3.5108 78.8034 15.8052 29.4872
# 5 6.1648 -1.6664 27.8207 15.8052 18.8193 -5.0130
# 6 11.2903 3.9594 -16.2532 29.4872 -5.0130 -31.6194
#
#
#
# Elastic Compliance Matrix: (Units=1/GPa)
#
#
# Indices 1 2 3 4 5 6 
#
# 1 0.013106 -0.002817 0.000070 -0.000765 -0.002927 0.004042
# 2 -0.002817 0.009461 -0.003300 -0.002595 0.008321 -0.001865
# 3 0.000070 -0.003300 0.009202 0.003887 -0.016869 0.001181
# 4 -0.000765 -0.002595 0.003887 0.011936 -0.012931 0.010585
# 5 -0.002927 0.008321 -0.016869 -0.012931 0.086091 -0.017040
# 6 0.004042 -0.001865 0.001181 0.010585 -0.017040 -0.018450
#
#
# Mechanical properties :
#
#
# Convention : Reuss Voigt Hill
#
# Bulk Modulus (GPa) = 50.82457 62.11943 56.47200
# Shear Modulus (GPa) = 38.46225 33.58084 36.02154
#
# Velocity S-wave (km/s) = 3.79025 3.54158 3.66802
# Velocity P-wave (km/s) = 6.17561 6.31869 6.24756
#
# Compressibility (1/GPa) = 0.01967552
#
# Stress axis : x y z
#
# Youngs Moduli (GPa) = 76.30058 105.70154 108.66985
#
# Poissons Ratio (x) = 0.29772 -0.00757
# Poissons Ratio (y) = 0.21491 0.35858
# Poissons Ratio (z) = -0.00532 0.34879
#
# Static dielectric constant tensor:
#      x y z
#    x 2.301650 -0.138600 -0.019280 
#    y -0.138600 2.109670 0.014470 
#    z -0.019280 0.014470 2.014170 
# 
# From -- ./inp_files/572846.got.cif
#   From: 2010.05.17/outbox.cif.g08.bks.cpg/sg2_287_cif.got.tgz:572846.got - 2010.06.03 11:33:40.
