data_PCOD9067935
_publ_section_title
;
Structure prediction by ZEFSAII (Michael W. Deem and Ramdas Pophale) SiO2 
 PCOD9067935
Probable space group: P -1
;
_chemical_formula_sum "Si O2"
_cell_formula_units_Z 14
_cell_length_a 10.751247
_cell_length_b 11.555967
_cell_length_c 7.566893
_cell_angle_alpha 138.907116
_cell_angle_beta 66.312528
_cell_angle_gamma 115.145713
_cell_volume 554.088949
_symmetry_space_group_name_H-M "P -1"
_symmetry_group_IT_number 2
_symmetry_cell_setting 'triclinic'
loop_
_space_group_symop_operation_xyz
x,y,z
-x,-y,-z
loop_
_atom_site_type_symbol
_atom_site_label
_atom_site_fract_x
_atom_site_fract_y
_atom_site_fract_z
Si Si1 0.660420 0.576323 0.555910
Si Si2 0.354082 0.374541 0.980287
Si Si3 0.920795 0.538692 0.833848
Si Si4 0.324577 0.815759 0.869009
Si Si5 0.061519 0.251644 0.577318
Si Si6 0.561629 0.952854 0.602138
Si Si7 0.958611 0.099677 0.969280
O O1 0.500000 0.500000 0.500000
O O2 0.721820 0.397515 0.339985
O O3 0.773523 0.699259 0.508562
O O4 0.655607 0.666758 0.853133
O O5 0.343461 0.189409 0.667116
O O6 0.500000 0.500000 0.000000
O O7 0.243771 0.492919 0.123922
O O8 0.020364 0.639479 0.384012
O O9 0.962866 0.660219 0.122873
O O10 0.969862 0.691817 0.836864
O O11 0.446539 0.857643 0.701607
O O12 0.202658 0.902343 0.963590
O O13 0.363581 0.884362 0.126380
O O14 0.006275 0.039883 0.356052
O O15 0.500000 0.000000 0.500000
O O16 0.000000 0.000000 0.000000
#
# Coordination Sequence:
#
# PCOD9067935 Si02
#       7
#     2   2   2   2   2   2   2
#     4  12  25  45  74 105 148 197 249 315 384 449
#     4  12  25  45  72 104 144 187 250 306 374 454
#     4  11  26  49  71 108 145 196 253 317 377 460
#     4  11  26  49  72 110 156 193 260 318 378 462
#     4  11  26  47  76 103 149 198 252 311 388 449
#     4  11  26  46  74 108 148 200 248 317 385 455
#     4  12  27  46  74 106 150 203 251 311 378 459
#
# _framework density 25.266701000000001
#
# number of rings (size 3 to 8) (size 9 to 14) (size 15 to 20)
#    0.000    0.571    2.857    3.857   10.000    1.143 
#    0.000    0.000    0.000    0.000    0.000    0.000 
#    0.000    0.000    0.000    0.000    0.000    0.000 
#
# Total GULP energy -78345.617304 kJ/mol
# GULP energy per Si atom -5596.115522 kJ/mol
# Density = 2.520919 g / cm^3
# Si number density = 25.266701 Si / 1000 Ang^3
#
#
#
# Elastic Constant Matrix: (Units=GPa)
#
#
# Indices 1 2 3 4 5 6 
#
# 1 125.3584 15.2684 14.9101 -1.5392 -3.2134 -27.0928
# 2 15.2684 70.7479 12.9871 -1.1524 3.2634 -21.4353
# 3 14.9101 12.9871 156.8078 -15.6225 9.5349 -20.9019
# 4 -1.5392 -1.1524 -15.6225 41.1200 -14.1529 8.5388
# 5 -3.2134 3.2634 9.5349 -14.1529 27.3832 -2.9475
# 6 -27.0928 -21.4353 -20.9019 8.5388 -2.9475 34.7111
#
#
#
# Elastic Compliance Matrix: (Units=1/GPa)
#
#
# Indices 1 2 3 4 5 6 
#
# 1 0.009721 0.000262 -0.000047 -0.000769 0.001595 0.008046
# 2 0.000262 0.017641 -0.000084 -0.002671 -0.002183 0.011520
# 3 -0.000047 -0.000084 0.007111 0.001475 -0.001309 0.003720
# 4 -0.000769 -0.002671 0.001475 0.031647 0.015226 -0.007854
# 5 0.001595 -0.002183 -0.001309 0.015226 0.045205 -0.000799
# 6 0.008046 0.011520 0.003720 -0.007854 -0.000799 0.046307
#
#
# Mechanical properties :
#
#
# Convention : Reuss Voigt Hill
#
# Bulk Modulus (GPa) = 28.78883 48.80503 38.79693
# Shear Modulus (GPa) = 29.59484 41.29277 35.44381
#
# Velocity S-wave (km/s) = 3.42614 4.04700 3.74944
# Velocity P-wave (km/s) = 5.20288 6.41838 5.84232
#
# Compressibility (1/GPa) = 0.03473570
#
# Stress axis : x y z
#
# Youngs Moduli (GPa) = 102.86937 56.68613 140.62785
#
# Poissons Ratio (x) = -0.01487 0.00663
# Poissons Ratio (y) = -0.02698 0.01179
# Poissons Ratio (z) = 0.00485 0.00475
#
# Static dielectric constant tensor:
#      x y z
#    x 2.001460 0.024250 0.021220 
#    y 0.024250 2.029370 -0.060220 
#    z 0.021220 -0.060220 2.030550 
# 
# From -- ./inp_files/72519.got.cif
#   From: 2010.05.17/outbox.cif.g08.bks.cpg/sg2_37_cif.got.tgz:72519.got - 2010.06.03 11:33:40.
