data_PCOD9067384
_publ_section_title
;
Structure prediction by ZEFSAII (Michael W. Deem and Ramdas Pophale) SiO2 
 PCOD9067384
Probable space group: P -1
;
_chemical_formula_sum "Si O2"
_cell_formula_units_Z 12
_cell_length_a 11.883559
_cell_length_b 4.807236
_cell_length_c 11.862379
_cell_angle_alpha 55.615468
_cell_angle_beta 49.996879
_cell_angle_gamma 69.785479
_cell_volume 428.228328
_symmetry_space_group_name_H-M "P -1"
_symmetry_group_IT_number 2
_symmetry_cell_setting 'triclinic'
loop_
_space_group_symop_operation_xyz
x,y,z
-x,-y,-z
loop_
_atom_site_type_symbol
_atom_site_label
_atom_site_fract_x
_atom_site_fract_y
_atom_site_fract_z
Si Si1 0.839099 0.895109 0.681599
Si Si2 0.761944 0.837662 0.122529
Si Si3 0.390912 0.291650 0.977395
Si Si4 0.005706 0.412544 0.821579
Si Si5 0.165083 0.313913 0.507905
Si Si6 0.521447 0.964597 0.626656
O O1 0.902886 0.746744 0.559169
O O2 0.948667 0.769804 0.736869
O O3 0.792779 0.282059 0.615358
O O4 0.694451 0.670648 0.858988
O O5 0.602518 0.794961 0.295557
O O6 0.720980 0.829056 0.020877
O O7 0.873685 0.569855 0.161851
O O8 0.864308 0.175482 0.000032
O O9 0.465986 0.621109 0.801807
O O10 0.500000 0.000000 0.000000
O O11 0.085685 0.270299 0.690034
O O12 0.303328 0.063863 0.467231
O O13 0.500000 0.000000 0.500000
#
# Coordination Sequence:
#
# PCOD9067384 Si02
#       6
#     2   2   2   2   2   2
#     4  12  26  47  77 114 155 206 258 319 394 469
#     4  11  26  49  76 108 157 204 259 321 399 467
#     4  12  26  47  79 112 152 208 264 326 390 467
#     4  11  25  49  73 113 158 202 256 321 396 471
#     4  12  27  48  79 116 155 206 263 327 388 467
#     4  12  26  48  75 112 153 200 265 322 391 461
#
# _framework density 28.022434000000001
#
# number of rings (size 3 to 8) (size 9 to 14) (size 15 to 20)
#    0.000    0.333    5.000    3.000    0.000    5.333 
#    3.000    0.000    0.000    0.000    0.000    0.000 
#    0.000    0.000    0.000    0.000    0.000    0.000 
#
# Total GULP energy -67168.576628 kJ/mol
# GULP energy per Si atom -5597.381386 kJ/mol
# Density = 2.795865 g / cm^3
# Si number density = 28.022434 Si / 1000 Ang^3
#
#
#
# Elastic Constant Matrix: (Units=GPa)
#
#
# Indices 1 2 3 4 5 6 
#
# 1 146.6595 30.6865 7.1356 7.6978 38.7733 -30.5169
# 2 30.6865 81.8663 33.2418 18.6067 12.0643 -5.8715
# 3 7.1356 33.2418 166.4891 17.8379 1.9321 -10.7410
# 4 7.6978 18.6067 17.8379 62.7794 -9.3539 -10.9420
# 5 38.7733 12.0643 1.9321 -9.3539 45.7999 0.5581
# 6 -30.5169 -5.8715 -10.7410 -10.9420 0.5581 43.2096
#
#
#
# Elastic Compliance Matrix: (Units=1/GPa)
#
#
# Indices 1 2 3 4 5 6 
#
# 1 0.011440 -0.002427 0.000705 -0.000916 -0.009358 0.007814
# 2 -0.002427 0.015433 -0.002581 -0.004174 -0.002739 -0.001280
# 3 0.000705 -0.002581 0.006706 -0.001018 -0.000427 0.001562
# 4 -0.000916 -0.004174 -0.001018 0.018995 0.005758 0.003268
# 5 -0.009358 -0.002739 -0.000427 0.005758 0.031745 -0.006039
# 6 0.007814 -0.001280 0.001562 0.003268 -0.006039 0.029782
#
#
# Mechanical properties :
#
#
# Convention : Reuss Voigt Hill
#
# Bulk Modulus (GPa) = 40.04132 59.68254 49.86193
# Shear Modulus (GPa) = 38.15869 51.95449 45.05659
#
# Velocity S-wave (km/s) = 3.69415 4.31052 4.01418
# Velocity P-wave (km/s) = 5.70226 6.79106 6.27033
#
# Compressibility (1/GPa) = 0.02497420
#
# Stress axis : x y z
#
# Youngs Moduli (GPa) = 87.41316 64.79498 149.11246
#
# Poissons Ratio (x) = 0.15724 -0.10514
# Poissons Ratio (y) = 0.21213 0.38486
# Poissons Ratio (z) = -0.06164 0.16724
#
# Static dielectric constant tensor:
#      x y z
#    x 2.277220 -0.058740 -0.107890 
#    y -0.058740 2.216360 0.013260 
#    z -0.107890 0.013260 2.219520 
# 
# From -- ./inp_files/26240.got.cif
#   From: 2010.05.17/outbox.cif.g08.bks.cpg/sg2_14_cif.got.tgz:26240.got - 2010.06.03 11:33:40.
