data_PCOD9067703
_publ_section_title
;
Structure prediction by ZEFSAII (Michael W. Deem and Ramdas Pophale) SiO2 
 PCOD9067703
Probable space group: P -1
;
_chemical_formula_sum "Si O2"
_cell_formula_units_Z 15
_cell_length_a 6.373512
_cell_length_b 12.975884
_cell_length_c 8.864645
_cell_angle_alpha 93.258505
_cell_angle_beta 109.351802
_cell_angle_gamma 97.218988
_cell_volume 682.411510
_symmetry_space_group_name_H-M "P -1"
_symmetry_group_IT_number 2
_symmetry_cell_setting 'triclinic'
loop_
_space_group_symop_operation_xyz
x,y,z
-x,-y,-z
loop_
_atom_site_type_symbol
_atom_site_label
_atom_site_fract_x
_atom_site_fract_y
_atom_site_fract_z
Si Si1 0.898611 0.694284 0.313088
Si Si2 0.321365 0.423338 0.355858
Si Si3 0.972075 0.891737 0.576002
Si Si4 0.000000 0.500000 0.500000
Si Si5 0.622287 0.110877 0.091300
Si Si6 0.413355 0.569133 0.113814
Si Si7 0.094405 0.732285 0.029614
Si Si8 0.317605 0.212465 0.252091
O O1 0.630230 0.649759 0.231266
O O2 0.945897 0.792490 0.447545
O O3 0.004127 0.592157 0.379652
O O4 0.000093 0.730584 0.176337
O O5 0.500000 0.500000 0.500000
O O6 0.093651 0.419115 0.394418
O O7 0.316880 0.482729 0.204267
O O8 0.435830 0.318955 0.363581
O O9 0.184799 0.895798 0.738975
O O10 0.763469 0.870410 0.643302
O O11 0.000000 0.000000 0.500000
O O12 0.449380 0.171268 0.144018
O O13 0.724056 0.169888 0.970681
O O14 0.500000 0.000000 0.000000
O O15 0.219293 0.633418 0.025410
O O16 0.500000 0.500000 0.000000
O O17 0.893453 0.741844 0.867229
#
# Coordination Sequence:
#
# PCOD9067703 Si02
#       8
#     2   2   2   1   2   2   2   2
#     4  12  26  45  71 107 147 186 246 297 358 437
#     4  12  24  42  68  99 144 184 235 286 360 432
#     4  11  28  47  77 106 143 188 242 301 367 424
#     4  12  24  42  70 100 148 184 230 298 366 410
#     4  11  28  50  74 102 140 190 245 302 362 431
#     4  12  26  41  69 106 144 190 238 289 353 430
#     4  11  26  44  71 100 145 186 237 294 358 427
#     4  11  26  48  71 103 143 190 239 297 366 432
#
# _framework density 21.980872999999999
#
# number of rings (size 3 to 8) (size 9 to 14) (size 15 to 20)
#    0.000    0.533    4.000    2.400    9.333    3.733 
#    0.000    0.000    0.000    0.000    0.000    0.000 
#    0.000    0.000    0.000    0.000    0.000    0.000 
#
# Total GULP energy -83598.945089 kJ/mol
# GULP energy per Si atom -5573.263006 kJ/mol
# Density = 2.193084 g / cm^3
# Si number density = 21.980873 Si / 1000 Ang^3
#
#
#
# Elastic Constant Matrix: (Units=GPa)
#
#
# Indices 1 2 3 4 5 6 
#
# 1 75.1672 29.2688 24.8083 -2.5794 -20.6377 2.7838
# 2 29.2688 132.8529 36.7522 -9.5195 -4.9943 13.0401
# 3 24.8083 36.7522 88.4889 -8.7360 -23.5563 11.6382
# 4 -2.5794 -9.5195 -8.7360 61.1646 6.7220 -9.2076
# 5 -20.6377 -4.9943 -23.5563 6.7220 45.0941 -5.1010
# 6 2.7838 13.0401 11.6382 -9.2076 -5.1010 30.4787
#
#
#
# Elastic Compliance Matrix: (Units=1/GPa)
#
#
# Indices 1 2 3 4 5 6 
#
# 1 0.016904 -0.003127 -0.001922 -0.000556 0.006635 0.001470
# 2 -0.003127 0.009333 -0.003243 0.000731 -0.002502 -0.002667
# 3 -0.001922 -0.003243 0.015328 0.000440 0.006353 -0.003094
# 4 -0.000556 0.000731 0.000440 0.017401 -0.002030 0.004487
# 5 0.006635 -0.002502 0.006353 -0.002030 0.028811 0.002247
# 6 0.001470 -0.002667 -0.003094 0.004487 0.002247 0.036730
#
#
# Mechanical properties :
#
#
# Convention : Reuss Voigt Hill
#
# Bulk Modulus (GPa) = 40.03083 53.12972 46.58027
# Shear Modulus (GPa) = 33.46314 41.05945 37.26129
#
# Velocity S-wave (km/s) = 3.90600 4.32668 4.12171
# Velocity P-wave (km/s) = 6.21237 7.01310 6.62485
#
# Compressibility (1/GPa) = 0.02498075
#
# Stress axis : x y z
#
# Youngs Moduli (GPa) = 59.15799 107.14375 65.23966
#
# Poissons Ratio (x) = 0.33504 0.12542
# Poissons Ratio (y) = 0.18499 0.21156
# Poissons Ratio (z) = 0.11372 0.34745
#
# Static dielectric constant tensor:
#      x y z
#    x 1.870560 0.028810 0.021010 
#    y 0.028810 1.829810 0.071720 
#    z 0.021010 0.071720 1.875640 
# 
# From -- ./inp_files/131675.got.cif
#   From: 2010.05.17/outbox.cif.g08.bks.cpg/sg2_66_cif.got.tgz:131675.got - 2010.06.03 11:33:40.
