data_PCOD9067519
_publ_section_title
;
Structure prediction by ZEFSAII (Michael W. Deem and Ramdas Pophale) SiO2 
 PCOD9067519
Probable space group: P -1
;
_chemical_formula_sum "Si O2"
_cell_formula_units_Z 15
_cell_length_a 8.124687
_cell_length_b 9.215259
_cell_length_c 11.816486
_cell_angle_alpha 131.195136
_cell_angle_beta 73.003825
_cell_angle_gamma 114.449240
_cell_volume 605.773620
_symmetry_space_group_name_H-M "P -1"
_symmetry_group_IT_number 2
_symmetry_cell_setting 'triclinic'
loop_
_space_group_symop_operation_xyz
x,y,z
-x,-y,-z
loop_
_atom_site_type_symbol
_atom_site_label
_atom_site_fract_x
_atom_site_fract_y
_atom_site_fract_z
Si Si1 0.861332 0.668343 0.217772
Si Si2 0.685409 0.502699 0.745150
Si Si3 0.726236 0.342573 0.271044
Si Si4 0.376587 0.133519 0.548199
Si Si5 0.810896 0.957472 0.952699
Si Si6 0.656060 0.918561 0.732183
Si Si7 0.732978 0.338670 0.894689
Si Si8 0.000000 0.500000 0.500000
O O1 0.813380 0.538767 0.276676
O O2 0.797990 0.867505 0.343270
O O3 0.069295 0.695118 0.164234
O O4 0.748085 0.525975 0.068800
O O5 0.508314 0.361918 0.647943
O O6 0.692093 0.730378 0.890994
O O7 0.693065 0.390755 0.803818
O O8 0.857087 0.510620 0.637043
O O9 0.512378 0.274423 0.302825
O O10 0.829387 0.381834 0.389652
O O11 0.749871 0.149785 0.098725
O O12 0.306796 0.089414 0.411973
O O13 0.500000 0.000000 0.500000
O O14 0.809089 0.939231 0.806538
O O15 0.000000 0.000000 0.000000
O O16 0.603194 0.126438 0.856814
#
# Coordination Sequence:
#
# PCOD9067519 Si02
#       8
#     2   2   2   2   2   2   2   1
#     4  11  26  47  77 104 155 203 259 315 386 460
#     4  12  26  48  74 111 155 200 260 313 388 458
#     4  12  25  48  76 113 150 205 253 317 385 469
#     4  12  28  49  71 113 154 203 258 321 387 454
#     4  12  26  45  73 113 150 199 257 314 381 462
#     4  12  27  46  76 110 157 196 262 316 387 455
#     4  11  25  50  75 111 147 206 258 319 382 455
#     4  12  24  46  74 108 156 198 250 314 382 466
#
# _framework density 24.761727
#
# number of rings (size 3 to 8) (size 9 to 14) (size 15 to 20)
#    0.000    0.267    6.667    1.200    5.600    3.200 
#    2.400    0.000    0.000    0.000    0.000    0.000 
#    0.000    0.000    0.000    0.000    0.000    0.000 
#
# Total GULP energy -83699.745011 kJ/mol
# GULP energy per Si atom -5579.983001 kJ/mol
# Density = 2.470537 g / cm^3
# Si number density = 24.761727 Si / 1000 Ang^3
#
#
#
# Elastic Constant Matrix: (Units=GPa)
#
#
# Indices 1 2 3 4 5 6 
#
# 1 84.7475 18.9590 69.5726 -8.8735 9.5253 -10.6000
# 2 18.9590 91.3735 16.2028 7.1365 8.0718 -16.2397
# 3 69.5726 16.2028 136.5724 -11.8164 35.7095 -17.3044
# 4 -8.8735 7.1365 -11.8164 37.8577 -2.8120 4.1650
# 5 9.5253 8.0718 35.7095 -2.8120 60.5302 -3.2263
# 6 -10.6000 -16.2397 -17.3044 4.1650 -3.2263 29.1307
#
#
#
# Elastic Compliance Matrix: (Units=1/GPa)
#
#
# Indices 1 2 3 4 5 6 
#
# 1 0.021761 -0.003102 -0.011611 0.002420 0.003919 -0.000620
# 2 -0.003102 0.013119 0.001039 -0.003787 -0.001669 0.007159
# 3 -0.011611 0.001039 0.015697 0.000920 -0.007276 0.004741
# 4 0.002420 -0.003787 0.000920 0.028548 0.000658 -0.004693
# 5 0.003919 -0.001669 -0.007276 0.000658 0.020361 -0.001666
# 6 -0.000620 0.007159 0.004741 -0.004693 -0.001666 0.041396
#
#
# Mechanical properties :
#
#
# Convention : Reuss Voigt Hill
#
# Bulk Modulus (GPa) = 43.04865 58.01803 50.53334
# Shear Modulus (GPa) = 28.41345 39.36765 33.89055
#
# Velocity S-wave (km/s) = 3.39111 3.99163 3.70356
# Velocity P-wave (km/s) = 5.72327 6.68771 6.22420
#
# Compressibility (1/GPa) = 0.02322953
#
# Stress axis : x y z
#
# Youngs Moduli (GPa) = 45.95299 76.22575 63.70761
#
# Poissons Ratio (x) = 0.23643 0.73974
# Poissons Ratio (y) = 0.14253 -0.06622
# Poissons Ratio (z) = 0.53358 -0.07923
#
# Static dielectric constant tensor:
#      x y z
#    x 2.010610 -0.009320 -0.058910 
#    y -0.009320 1.973930 0.026880 
#    z -0.058910 0.026880 1.977170 
# 
# From -- ./inp_files/380609.got.cif
#   From: 2010.05.17/outbox.cif.g08.bks.cpg/sg2_191_cif.got.tgz:380609.got - 2010.06.03 11:33:40.
