data_PCOD9067311
_publ_section_title
;
Structure prediction by ZEFSAII (Michael W. Deem and Ramdas Pophale) SiO2 
 PCOD9067311
Probable space group: P -1
;
_chemical_formula_sum "Si O2"
_cell_formula_units_Z 14
_cell_length_a 16.083643
_cell_length_b 6.529978
_cell_length_c 15.380523
_cell_angle_alpha 113.679965
_cell_angle_beta 26.736131
_cell_angle_gamma 126.865869
_cell_volume 539.496104
_symmetry_space_group_name_H-M "P -1"
_symmetry_group_IT_number 2
_symmetry_cell_setting 'triclinic'
loop_
_space_group_symop_operation_xyz
x,y,z
-x,-y,-z
loop_
_atom_site_type_symbol
_atom_site_label
_atom_site_fract_x
_atom_site_fract_y
_atom_site_fract_z
Si Si1 0.048217 0.045936 0.711648
Si Si2 0.409781 0.027887 0.161705
Si Si3 0.711042 0.601901 0.616208
Si Si4 0.940226 0.495184 0.640417
Si Si5 0.844314 0.110807 0.244287
Si Si6 0.748283 0.275313 0.048085
Si Si7 0.426198 0.080541 0.699862
O O1 0.231312 0.244597 0.502852
O O2 0.932969 0.738096 0.729558
O O3 0.150660 0.062138 0.712466
O O4 0.892336 0.151704 0.880615
O O5 0.315443 0.210736 0.261433
O O6 0.553471 0.127744 0.132886
O O7 0.155659 0.716657 0.393793
O O8 0.660685 0.211918 0.888880
O O9 0.903435 0.565594 0.460722
O O10 0.485057 0.302708 0.756547
O O11 0.662873 0.177059 0.450757
O O12 0.752742 0.966311 0.212205
O O13 0.087876 0.400050 0.061704
O O14 0.659013 0.197229 0.216444
#
# Coordination Sequence:
#
# PCOD9067311 Si02
#       7
#     2   2   2   2   2   2   2
#     4  12  24  46  75 102 152 187 241 309 351 434
#     4  12  27  43  71 104 146 193 239 296 362 430
#     4  12  25  49  71 109 148 189 249 299 361 438
#     4  12  25  45  71 103 141 197 243 292 363 430
#     4  11  25  51  73 108 146 192 248 295 369 434
#     4  12  27  49  70 112 150 186 246 305 355 440
#     4  11  25  48  78 104 146 195 240 303 369 430
#
# _framework density 25.950142
#
# number of rings (size 3 to 8) (size 9 to 14) (size 15 to 20)
#    0.000    0.286    4.286    4.286    6.000    1.714 
#    2.571    0.000    0.000    0.000    0.000    0.000 
#    0.000    0.000    0.000    0.000    0.000    0.000 
#
# Total GULP energy -78372.480483 kJ/mol
# GULP energy per Si atom -5598.034320 kJ/mol
# Density = 2.589108 g / cm^3
# Si number density = 25.950142 Si / 1000 Ang^3
#
#
#
# Elastic Constant Matrix: (Units=GPa)
#
#
# Indices 1 2 3 4 5 6 
#
# 1 148.0165 24.6302 35.3801 -10.6779 -13.8128 -19.4489
# 2 24.6302 99.2544 38.4315 19.3247 -5.4986 -16.8939
# 3 35.3801 38.4315 106.8656 -10.0547 1.4385 4.0738
# 4 -10.6779 19.3247 -10.0547 44.2095 -10.4360 10.3838
# 5 -13.8128 -5.4986 1.4385 -10.4360 47.5130 -2.9042
# 6 -19.4489 -16.8939 4.0738 10.3838 -2.9042 32.0109
#
#
#
# Elastic Compliance Matrix: (Units=1/GPa)
#
#
# Indices 1 2 3 4 5 6 
#
# 1 0.008560 0.000026 -0.003026 0.000777 0.003098 0.005629
# 2 0.000026 0.018728 -0.008626 -0.013687 0.000375 0.015471
# 3 -0.003026 -0.008626 0.014728 0.008766 -0.001084 -0.011207
# 4 0.000777 -0.013687 0.008766 0.036537 0.005225 -0.019245
# 5 0.003098 0.000375 -0.001084 0.005225 0.023333 0.002640
# 6 0.005629 0.015471 -0.011207 -0.019245 0.002640 0.050733
#
#
# Mechanical properties :
#
#
# Convention : Reuss Voigt Hill
#
# Bulk Modulus (GPa) = 53.29721 61.22447 57.26084
# Shear Modulus (GPa) = 27.45359 41.79299 34.62329
#
# Velocity S-wave (km/s) = 3.25612 4.01747 3.65667
# Velocity P-wave (km/s) = 5.89231 6.72045 6.31996
#
# Compressibility (1/GPa) = 0.01876271
#
# Stress axis : x y z
#
# Youngs Moduli (GPa) = 116.82545 53.39707 67.89671
#
# Poissons Ratio (x) = -0.00139 0.20549
# Poissons Ratio (y) = -0.00305 0.58569
# Poissons Ratio (z) = 0.35357 0.46061
#
# Static dielectric constant tensor:
#      x y z
#    x 1.952460 -0.027440 0.170160 
#    y -0.027440 2.072630 -0.268890 
#    z 0.170160 -0.268890 2.743190 
# 
# From -- ./inp_files/120364.got.cif
#   From: 2010.05.17/outbox.cif.g08.bks.cpg/sg2_61_cif.got.tgz:120364.got - 2010.06.03 11:33:40.
