data_PCOD9067051
_publ_section_title
;
Structure prediction by ZEFSAII (Michael W. Deem and Ramdas Pophale) SiO2 
 PCOD9067051
Probable space group: P -1
;
_chemical_formula_sum "Si O2"
_cell_formula_units_Z 14
_cell_length_a 10.912112
_cell_length_b 7.718299
_cell_length_c 8.830012
_cell_angle_alpha 88.183713
_cell_angle_beta 87.750268
_cell_angle_gamma 130.499065
_cell_volume 563.475200
_symmetry_space_group_name_H-M "P -1"
_symmetry_group_IT_number 2
_symmetry_cell_setting 'triclinic'
loop_
_space_group_symop_operation_xyz
x,y,z
-x,-y,-z
loop_
_atom_site_type_symbol
_atom_site_label
_atom_site_fract_x
_atom_site_fract_y
_atom_site_fract_z
Si Si1 0.635047 0.244547 0.069908
Si Si2 0.651881 0.889081 0.767396
Si Si3 0.161036 0.746098 0.693708
Si Si4 0.884172 0.915071 0.251276
Si Si5 0.214327 0.641296 0.369405
Si Si6 0.785501 0.711234 0.936835
Si Si7 0.316200 0.369961 0.463618
O O1 0.782094 0.289541 0.150790
O O2 0.537487 0.250064 0.210548
O O3 0.694906 0.445840 0.946077
O O4 0.500000 0.000000 0.000000
O O5 0.731531 0.149693 0.745357
O O6 0.686946 0.797069 0.910784
O O7 0.715319 0.828159 0.631264
O O8 0.205814 0.987633 0.713007
O O9 0.236912 0.736613 0.537438
O O10 0.971370 0.559360 0.665318
O O11 0.065176 0.138360 0.190587
O O12 0.828014 0.751504 0.401967
O O13 0.839120 0.772627 0.106251
O O14 0.691403 0.453937 0.626909
O O15 0.500000 0.500000 0.500000
#
# Coordination Sequence:
#
# PCOD9067051 Si02
#       7
#     2   2   2   2   2   2   2
#     4  12  29  50  79 112 161 212 263 323 396 466
#     4  12  27  48  78 113 155 205 260 329 391 460
#     4  11  25  47  76 113 159 200 265 322 392 463
#     4  11  25  47  79 112 157 208 260 325 391 464
#     4  11  27  46  79 119 156 200 260 327 395 465
#     4  11  27  48  74 112 157 208 269 315 392 475
#     4  12  27  48  81 113 160 201 261 329 396 466
#
# _framework density 24.845815999999999
#
# number of rings (size 3 to 8) (size 9 to 14) (size 15 to 20)
#    0.000    0.571    1.429    4.714   14.000    2.857 
#    0.000    0.000    0.000    0.000    0.000    0.000 
#    0.000    0.000    0.000    0.000    0.000    0.000 
#
# Total GULP energy -78215.731855 kJ/mol
# GULP energy per Si atom -5586.837990 kJ/mol
# Density = 2.478927 g / cm^3
# Si number density = 24.845816 Si / 1000 Ang^3
#
#
#
# Elastic Constant Matrix: (Units=GPa)
#
#
# Indices 1 2 3 4 5 6 
#
# 1 131.2165 45.6527 32.5311 7.4843 15.9546 -27.9272
# 2 45.6527 122.9313 47.3976 -2.1512 10.6653 -29.9282
# 3 32.5311 47.3976 117.9442 3.2149 2.2892 -0.0554
# 4 7.4843 -2.1512 3.2149 20.2948 -8.2605 1.9700
# 5 15.9546 10.6653 2.2892 -8.2605 37.6681 -5.8234
# 6 -27.9272 -29.9282 -0.0554 1.9700 -5.8234 45.6067
#
#
#
# Elastic Compliance Matrix: (Units=1/GPa)
#
#
# Indices 1 2 3 4 5 6 
#
# 1 0.010689 -0.001652 -0.002028 -0.006120 -0.004482 0.005151
# 2 -0.001652 0.012263 -0.004489 0.001504 -0.001115 0.006823
# 3 -0.002028 -0.004489 0.010848 -0.000779 0.000673 -0.004055
# 4 -0.006120 0.001504 -0.000779 0.058009 0.014405 -0.003428
# 5 -0.004482 -0.001115 0.000673 0.014405 0.031876 -0.000028
# 6 0.005151 0.006823 -0.004055 -0.003428 -0.000028 0.029698
#
#
# Mechanical properties :
#
#
# Convention : Reuss Voigt Hill
#
# Bulk Modulus (GPa) = 57.26467 69.25053 63.25760
# Shear Modulus (GPa) = 28.48353 37.14797 32.81575
#
# Velocity S-wave (km/s) = 3.38954 3.87090 3.63819
# Velocity P-wave (km/s) = 6.19812 6.92178 6.56992
#
# Compressibility (1/GPa) = 0.01746277
#
# Stress axis : x y z
#
# Youngs Moduli (GPa) = 93.55569 81.54779 92.18259
#
# Poissons Ratio (x) = 0.13469 0.18696
# Poissons Ratio (y) = 0.15453 0.41377
# Poissons Ratio (z) = 0.18975 0.36603
#
# Static dielectric constant tensor:
#      x y z
#    x 2.059610 -0.003780 0.022930 
#    y -0.003780 1.976870 -0.000930 
#    z 0.022930 -0.000930 2.058050 
# 
# From -- ./inp_files/258996.got.cif
#   From: 2010.05.17/outbox.cif.g08.bks.cpg/sg2_130_cif.got.tgz:258996.got - 2010.06.03 11:33:40.
