data_PCOD9067134
_publ_section_title
;
Structure prediction by ZEFSAII (Michael W. Deem and Ramdas Pophale) SiO2 
 PCOD9067134
Probable space group: P -1
;
_chemical_formula_sum "Si O2"
_cell_formula_units_Z 15
_cell_length_a 8.904171
_cell_length_b 7.870699
_cell_length_c 20.685339
_cell_angle_alpha 49.357967
_cell_angle_beta 48.191999
_cell_angle_gamma 33.681916
_cell_volume 582.665594
_symmetry_space_group_name_H-M "P -1"
_symmetry_group_IT_number 2
_symmetry_cell_setting 'triclinic'
loop_
_space_group_symop_operation_xyz
x,y,z
-x,-y,-z
loop_
_atom_site_type_symbol
_atom_site_label
_atom_site_fract_x
_atom_site_fract_y
_atom_site_fract_z
Si Si1 0.259835 0.525859 0.798915
Si Si2 0.256287 0.552989 0.017988
Si Si3 0.478169 0.153899 0.694535
Si Si4 0.000000 0.500000 0.000000
Si Si5 0.830533 0.244075 0.751734
Si Si6 0.183375 0.162736 0.561833
Si Si7 0.094420 0.800534 0.587524
Si Si8 0.050735 0.134272 0.851260
O O1 0.376486 0.340118 0.744835
O O2 0.512986 0.497109 0.754478
O O3 0.205540 0.399441 0.904566
O O4 0.971864 0.892246 0.784601
O O5 0.265678 0.348316 0.014627
O O6 0.071820 0.623442 0.115257
O O7 0.500000 0.500000 0.000000
O O8 0.105750 0.854021 0.939442
O O9 0.354856 0.421840 0.609277
O O10 0.326543 0.034053 0.767568
O O11 0.814251 0.877652 0.665985
O O12 0.045656 0.238665 0.653307
O O13 0.838742 0.267837 0.820184
O O14 0.000000 0.500000 0.500000
O O15 0.500000 0.000000 0.500000
O O16 0.146946 0.956200 0.585772
O O17 0.000000 0.000000 0.500000
#
# Coordination Sequence:
#
# PCOD9067134 Si02
#       8
#     2   2   2   1   2   2   2   2
#     4  12  24  47  71 106 141 198 247 298 362 447
#     4  11  25  48  69 109 155 189 257 310 372 445
#     4  12  25  48  73 102 147 192 242 303 365 446
#     4  12  24  46  76 106 154 206 244 308 384 430
#     4  12  26  47  73 103 148 186 250 302 367 441
#     4  12  26  46  74 105 142 184 236 303 372 441
#     4  12  28  48  72 107 144 187 244 303 374 449
#     4  11  27  43  69 108 144 193 247 309 360 439
#
# _framework density 25.743755
#
# number of rings (size 3 to 8) (size 9 to 14) (size 15 to 20)
#    0.000    0.267    5.333    2.800    5.600    1.600 
#    0.000    0.000    0.000    0.000    0.000    0.000 
#    0.000    0.000    0.000    0.000    0.000    0.000 
#
# Total GULP energy -83713.114087 kJ/mol
# GULP energy per Si atom -5580.874272 kJ/mol
# Density = 2.568516 g / cm^3
# Si number density = 25.743755 Si / 1000 Ang^3
#
#
#
# Elastic Constant Matrix: (Units=GPa)
#
#
# Indices 1 2 3 4 5 6 
#
# 1 91.1488 11.0291 24.4629 12.1140 9.5513 -18.9722
# 2 11.0291 85.2437 4.5214 -7.6278 -5.2786 -15.4788
# 3 24.4629 4.5214 137.5830 2.6364 17.9239 -15.2121
# 4 12.1140 -7.6278 2.6364 32.8316 -7.3516 -4.1038
# 5 9.5513 -5.2786 17.9239 -7.3516 52.7519 14.2249
# 6 -18.9722 -15.4788 -15.2121 -4.1038 14.2249 39.2431
#
#
#
# Elastic Compliance Matrix: (Units=1/GPa)
#
#
# Indices 1 2 3 4 5 6 
#
# 1 0.014178 -0.001297 -0.000895 -0.005705 -0.005147 0.007265
# 2 -0.001297 0.013198 0.000136 0.004316 0.000820 0.004785
# 3 -0.000895 0.000136 0.008414 -0.000662 -0.003917 0.004233
# 4 -0.005705 0.004316 -0.000662 0.035091 0.006588 -0.000031
# 5 -0.005147 0.000820 -0.003917 0.006588 0.025522 -0.012245
# 6 0.007265 0.004785 0.004233 -0.000031 -0.012245 0.036958
#
#
# Mechanical properties :
#
#
# Convention : Reuss Voigt Hill
#
# Bulk Modulus (GPa) = 31.56751 43.77805 37.67278
# Shear Modulus (GPa) = 33.77673 43.22946 38.50310
#
# Velocity S-wave (km/s) = 3.62613 4.10228 3.87153
# Velocity P-wave (km/s) = 5.46083 6.28335 5.88647
#
# Compressibility (1/GPa) = 0.03167814
#
# Stress axis : x y z
#
# Youngs Moduli (GPa) = 70.53210 75.77163 118.84897
#
# Poissons Ratio (x) = 0.09827 0.10640
# Poissons Ratio (y) = 0.09148 -0.01622
# Poissons Ratio (z) = 0.06314 -0.01034
#
# Static dielectric constant tensor:
#      x y z
#    x 1.536800 -0.211840 0.055860 
#    y -0.211840 1.822200 -0.033690 
#    z 0.055860 -0.033690 1.971280 
# 
# From -- ./inp_files/322375.got.cif
#   From: 2010.05.17/outbox.cif.g08.bks.cpg/sg2_162_cif.got.tgz:322375.got - 2010.06.03 11:33:40.
