data_PCOD9067178
_publ_section_title
;
Structure prediction by ZEFSAII (Michael W. Deem and Ramdas Pophale) SiO2 
 PCOD9067178
Probable space group: P -1
;
_chemical_formula_sum "Si O2"
_cell_formula_units_Z 14
_cell_length_a 11.962421
_cell_length_b 5.784375
_cell_length_c 14.823009
_cell_angle_alpha 50.747348
_cell_angle_beta 50.891354
_cell_angle_gamma 72.874984
_cell_volume 606.875519
_symmetry_space_group_name_H-M "P -1"
_symmetry_group_IT_number 2
_symmetry_cell_setting 'triclinic'
loop_
_space_group_symop_operation_xyz
x,y,z
-x,-y,-z
loop_
_atom_site_type_symbol
_atom_site_label
_atom_site_fract_x
_atom_site_fract_y
_atom_site_fract_z
Si Si1 0.856489 0.999600 0.632059
Si Si2 0.386649 0.540526 0.126113
Si Si3 0.595468 0.306769 0.616863
Si Si4 0.034929 0.870499 0.916509
Si Si5 0.585240 0.530892 0.187071
Si Si6 0.804534 0.979257 0.867592
Si Si7 0.636932 0.930477 0.358094
O O1 0.767707 0.661135 0.766775
O O2 0.872119 0.075004 0.711691
O O3 0.741991 0.183095 0.597750
O O4 0.000000 0.000000 0.500000
O O5 0.453001 0.426594 0.211386
O O6 0.337401 0.859292 0.089861
O O7 0.500000 0.500000 0.000000
O O8 0.476622 0.231608 0.776043
O O9 0.640362 0.670520 0.493553
O O10 0.503382 0.186095 0.605142
O O11 0.936245 0.028545 0.858782
O O12 0.205229 0.009887 0.783488
O O13 0.000000 0.500000 0.000000
O O14 0.000000 0.000000 0.000000
O O15 0.621518 0.276351 0.300195
O O16 0.721516 0.643435 0.023643
#
# Coordination Sequence:
#
# PCOD9067178 Si02
#       7
#     2   2   2   2   2   2   2
#     4  12  28  47  72 110 153 197 254 324 399 461
#     4  12  25  43  77 108 145 195 255 321 389 471
#     4  11  25  48  72 106 147 199 253 319 385 468
#     4  12  29  50  77 115 162 205 260 329 398 480
#     4  12  22  45  75 107 140 187 262 313 383 461
#     4  12  27  46  77 110 152 200 257 329 393 467
#     4  11  26  46  72 106 147 202 255 311 387 466
#
# _framework density 23.068978999999999
#
# number of rings (size 3 to 8) (size 9 to 14) (size 15 to 20)
#    0.000    0.286    5.714    2.571    6.000    1.714 
#    2.571    0.000    0.000    0.000    0.000    0.000 
#    0.000    0.000    0.000    0.000    0.000    0.000 
#
# Total GULP energy -78032.088498 kJ/mol
# GULP energy per Si atom -5573.720607 kJ/mol
# Density = 2.301647 g / cm^3
# Si number density = 23.068979 Si / 1000 Ang^3
#
#
#
# Elastic Constant Matrix: (Units=GPa)
#
#
# Indices 1 2 3 4 5 6 
#
# 1 142.3204 43.3069 36.6446 16.2863 12.3368 -25.0146
# 2 43.3069 73.8967 56.2925 22.2568 5.5872 -19.6820
# 3 36.6446 56.2925 138.0833 28.2153 -5.2243 -20.8789
# 4 16.2863 22.2568 28.2153 46.1058 -10.0013 2.2273
# 5 12.3368 5.5872 -5.2243 -10.0013 37.1371 6.1594
# 6 -25.0146 -19.6820 -20.8789 2.2273 6.1594 33.2387
#
#
#
# Elastic Compliance Matrix: (Units=1/GPa)
#
#
# Indices 1 2 3 4 5 6 
#
# 1 0.009905 -0.002304 0.000013 -0.003876 -0.005200 0.007322
# 2 -0.002304 0.027427 -0.006766 -0.010932 -0.009367 0.012725
# 3 0.000013 -0.006766 0.011222 -0.003508 0.001137 0.003076
# 4 -0.003876 -0.010932 -0.003508 0.034420 0.014458 -0.016580
# 5 -0.005200 -0.009367 0.001137 0.014458 0.036862 -0.016546
# 6 0.007322 0.012725 0.003076 -0.016580 -0.016546 0.049240
#
#
# Mechanical properties :
#
#
# Convention : Reuss Voigt Hill
#
# Bulk Modulus (GPa) = 32.85179 69.64315 51.24747
# Shear Modulus (GPa) = 25.33730 37.83342 31.58536
#
# Velocity S-wave (km/s) = 3.31770 4.05410 3.70424
# Velocity P-wave (km/s) = 5.38031 7.22281 6.36854
#
# Compressibility (1/GPa) = 0.03043974
#
# Stress axis : x y z
#
# Youngs Moduli (GPa) = 100.95437 36.46017 89.11132
#
# Poissons Ratio (x) = 0.08401 -0.00116
# Poissons Ratio (y) = 0.23261 0.60296
# Poissons Ratio (z) = -0.00132 0.24670
#
# Static dielectric constant tensor:
#      x y z
#    x 1.834380 -0.015110 0.015220 
#    y -0.015110 1.895900 -0.023740 
#    z 0.015220 -0.023740 1.884280 
# 
# From -- ./inp_files/68695.got.cif
#   From: 2010.05.17/outbox.cif.g08.bks.cpg/sg2_35_cif.got.tgz:68695.got - 2010.06.03 11:33:40.
