data_PCOD9067807
_publ_section_title
;
Structure prediction by ZEFSAII (Michael W. Deem and Ramdas Pophale) SiO2 
 PCOD9067807
Probable space group: P -1
;
_chemical_formula_sum "Si O2"
_cell_formula_units_Z 16
_cell_length_a 20.650336
_cell_length_b 10.271740
_cell_length_c 22.927294
_cell_angle_alpha 152.960505
_cell_angle_beta 162.710873
_cell_angle_gamma 34.009428
_cell_volume 648.672494
_symmetry_space_group_name_H-M "P -1"
_symmetry_group_IT_number 2
_symmetry_cell_setting 'triclinic'
loop_
_space_group_symop_operation_xyz
x,y,z
-x,-y,-z
loop_
_atom_site_type_symbol
_atom_site_label
_atom_site_fract_x
_atom_site_fract_y
_atom_site_fract_z
Si Si1 0.274549 0.133419 0.112658
Si Si2 0.864971 0.379117 0.391117
Si Si3 0.179236 0.530066 0.827404
Si Si4 0.397502 0.639026 0.336368
Si Si5 0.216628 0.018289 0.424486
Si Si6 0.912143 0.477021 0.799407
Si Si7 0.559385 0.963897 0.103908
Si Si8 0.183007 0.451234 0.387279
O O1 0.031028 0.057335 0.844589
O O2 0.416035 0.347349 0.273913
O O3 0.231098 0.316724 0.205819
O O4 0.335000 0.817229 0.051624
O O5 0.029437 0.364235 0.580367
O O6 0.000000 0.500000 0.500000
O O7 0.729642 0.637990 0.393760
O O8 0.687610 0.108392 0.111554
O O9 0.014673 0.654527 0.780808
O O10 0.697011 0.705113 0.130000
O O11 0.370346 0.877696 0.456631
O O12 0.612942 0.722503 0.515408
O O13 0.165519 0.565759 0.073879
O O14 0.188282 0.844917 0.391921
O O15 0.906320 0.511104 0.739125
O O16 0.700746 0.246682 0.364840
O O17 0.500000 0.000000 0.000000
#
# Coordination Sequence:
#
# PCOD9067807 Si02
#       8
#     2   2   2   2   2   2   2   2
#     4   8  18  42  66  96 134 173 214 275 332 386
#     4  11  26  45  74 100 132 175 226 283 330 391
#     4  11  26  46  66  98 138 173 226 278 331 401
#     4   9  20  41  70  99 134 173 217 270 333 402
#     4   8  18  40  67 100 136 169 214 278 336 384
#     4   9  20  38  67  98 135 172 215 271 328 397
#     4  12  29  48  66  91 136 185 225 277 338 391
#     4  12  26  38  69  98 129 182 227 264 334 400
#
# _framework density 24.665761
#
# number of rings (size 3 to 8) (size 9 to 14) (size 15 to 20)
#    0.000    2.000    1.250    1.875    8.750    5.000 
#    0.000    5.625    0.000    0.000    0.000    0.000 
#    0.000    0.000    0.000    0.000    0.000    0.000 
#
# Total GULP energy -89581.029497 kJ/mol
# GULP energy per Si atom -5598.814344 kJ/mol
# Density = 2.460962 g / cm^3
# Si number density = 24.665761 Si / 1000 Ang^3
#
#
#
# Elastic Constant Matrix: (Units=GPa)
#
#
# Indices 1 2 3 4 5 6 
#
# 1 96.8864 8.9255 25.9348 -20.4148 -10.4595 -0.7928
# 2 8.9255 106.0878 12.3682 -14.5393 -15.3372 14.2340
# 3 25.9348 12.3682 87.9429 -11.0157 -7.3325 13.2311
# 4 -20.4148 -14.5393 -11.0157 37.7786 0.1468 -2.5587
# 5 -10.4595 -15.3372 -7.3325 0.1468 36.9589 -11.0679
# 6 -0.7928 14.2340 13.2311 -2.5587 -11.0679 25.9245
#
#
#
# Elastic Compliance Matrix: (Units=1/GPa)
#
#
# Indices 1 2 3 4 5 6 
#
# 1 0.013090 0.000212 -0.003395 0.006456 0.004458 0.004557
# 2 0.000212 0.011016 -0.000214 0.004001 0.003342 -0.004111
# 3 -0.003395 -0.000214 0.013612 0.001582 -0.000441 -0.006966
# 4 0.006456 0.004001 0.001582 0.032093 0.004336 0.002212
# 5 0.004458 0.003342 -0.000441 0.004336 0.033581 0.013291
# 6 0.004557 -0.004111 -0.006966 0.002212 0.013291 0.050418
#
#
# Mechanical properties :
#
#
# Convention : Reuss Voigt Hill
#
# Bulk Modulus (GPa) = 32.33644 42.81933 37.57789
# Shear Modulus (GPa) = 29.25504 36.37832 32.81668
#
# Velocity S-wave (km/s) = 3.44766 3.84455 3.65150
# Velocity P-wave (km/s) = 5.38394 6.09138 5.74855
#
# Compressibility (1/GPa) = 0.03092486
#
# Stress axis : x y z
#
# Youngs Moduli (GPa) = 76.39634 90.77465 73.46615
#
# Poissons Ratio (x) = -0.01929 0.24944
# Poissons Ratio (y) = -0.01623 0.01570
# Poissons Ratio (z) = 0.25938 0.01939
#
# Static dielectric constant tensor:
#      x y z
#    x 1.959250 0.020500 0.031520 
#    y 0.020500 2.029610 0.009760 
#    z 0.031520 0.009760 1.978870 
# 
# From -- ./inp_files/613713.got.cif
#   From: 2010.05.17/outbox.cif.g08.bks.cpg/sg2_307_cif.got.tgz:613713.got - 2010.06.03 11:33:40.
