data_PCOD9067557
_publ_section_title
;
Structure prediction by ZEFSAII (Michael W. Deem and Ramdas Pophale) SiO2 
 PCOD9067557
Probable space group: P -1
;
_chemical_formula_sum "Si O2"
_cell_formula_units_Z 12
_cell_length_a 7.439804
_cell_length_b 12.465701
_cell_length_c 7.677836
_cell_angle_alpha 134.704443
_cell_angle_beta 102.781260
_cell_angle_gamma 68.660640
_cell_volume 470.746659
_symmetry_space_group_name_H-M "P -1"
_symmetry_group_IT_number 2
_symmetry_cell_setting 'triclinic'
loop_
_space_group_symop_operation_xyz
x,y,z
-x,-y,-z
loop_
_atom_site_type_symbol
_atom_site_label
_atom_site_fract_x
_atom_site_fract_y
_atom_site_fract_z
Si Si1 0.956048 0.346504 0.734510
Si Si2 0.832398 0.649788 0.563524
Si Si3 0.184590 0.018856 0.954593
Si Si4 0.580899 0.156203 0.888367
Si Si5 0.510138 0.481186 0.770546
Si Si6 0.789277 0.949248 0.386790
O O1 0.734582 0.397234 0.684527
O O2 0.095611 0.300003 0.546292
O O3 0.022507 0.199542 0.711412
O O4 0.000000 0.500000 0.000000
O O5 0.635943 0.607780 0.436089
O O6 0.818280 0.799110 0.850858
O O7 0.000000 0.500000 0.500000
O O8 0.735944 0.068586 0.674705
O O9 0.359633 0.926831 0.009351
O O10 0.202718 0.966358 0.698756
O O11 0.000000 0.000000 0.000000
O O12 0.383660 0.129613 0.751460
O O13 0.557700 0.340188 0.109976
O O14 0.500000 0.500000 0.000000
#
# Coordination Sequence:
#
# PCOD9067557 Si02
#       6
#     2   2   2   2   2   2
#     4  12  23  49  78 115 156 209 262 321 401 471
#     4  12  27  51  78 119 165 206 271 331 395 484
#     4  12  28  50  76 115 156 211 268 330 400 474
#     4  11  25  50  78 114 154 207 268 323 403 471
#     4  12  27  47  84 116 157 213 262 327 407 473
#     4  11  25  50  80 110 160 206 265 334 387 481
#
# _framework density 25.491417999999999
#
# number of rings (size 3 to 8) (size 9 to 14) (size 15 to 20)
#    0.000    0.333    5.000    2.500    4.667    2.667 
#    3.000    0.000    0.000    0.000    0.000    0.000 
#    0.000    0.000    0.000    0.000    0.000    0.000 
#
# Total GULP energy -67390.657338 kJ/mol
# GULP energy per Si atom -5615.888111 kJ/mol
# Density = 2.543340 g / cm^3
# Si number density = 25.491418 Si / 1000 Ang^3
#
#
#
# Elastic Constant Matrix: (Units=GPa)
#
#
# Indices 1 2 3 4 5 6 
#
# 1 148.7200 43.4660 55.7079 19.0658 30.4442 0.3374
# 2 43.4660 162.8046 59.6865 -0.5811 -1.4335 -21.2756
# 3 55.7079 59.6865 130.0392 3.9168 11.9800 -1.4071
# 4 19.0658 -0.5811 3.9168 49.6919 10.7263 -4.6704
# 5 30.4442 -1.4335 11.9800 10.7263 53.1050 -5.2916
# 6 0.3374 -21.2756 -1.4071 -4.6704 -5.2916 46.0730
#
#
#
# Elastic Compliance Matrix: (Units=1/GPa)
#
#
# Indices 1 2 3 4 5 6 
#
# 1 0.009576 -0.001818 -0.002788 -0.002661 -0.004551 -0.001787
# 2 -0.001818 0.008387 -0.003260 0.000962 0.002222 0.004139
# 3 -0.002788 -0.003260 0.010453 0.000314 -0.001036 -0.001253
# 4 -0.002661 0.000962 0.000314 0.021942 -0.002713 0.002386
# 5 -0.004551 0.002222 -0.001036 -0.002713 0.022615 0.003350
# 6 -0.001787 0.004139 -0.001253 0.002386 0.003350 0.024218
#
#
# Mechanical properties :
#
#
# Convention : Reuss Voigt Hill
#
# Bulk Modulus (GPa) = 78.83183 84.36497 81.59840
# Shear Modulus (GPa) = 42.68067 48.62087 45.65077
#
# Velocity S-wave (km/s) = 4.09628 4.37205 4.23641
# Velocity P-wave (km/s) = 7.30511 7.65857 7.48393
#
# Compressibility (1/GPa) = 0.01268523
#
# Stress axis : x y z
#
# Youngs Moduli (GPa) = 104.42237 119.23884 95.66706
#
# Poissons Ratio (x) = 0.21674 0.26673
# Poissons Ratio (y) = 0.18981 0.31183
# Poissons Ratio (z) = 0.29114 0.38866
#
# Static dielectric constant tensor:
#      x y z
#    x 2.023500 -0.008660 -0.020480 
#    y -0.008660 1.958270 0.017050 
#    z -0.020480 0.017050 2.051690 
# 
# From -- ./inp_files/133666.got.cif
#   From: 2010.05.17/outbox.cif.g08.bks.cpg/sg2_67_cif.got.tgz:133666.got - 2010.06.03 11:33:40.
