data_PCOD9067197
_publ_section_title
;
Structure prediction by ZEFSAII (Michael W. Deem and Ramdas Pophale) SiO2 
 PCOD9067197
Probable space group: P -1
;
_chemical_formula_sum "Si O2"
_cell_formula_units_Z 14
_cell_length_a 8.712231
_cell_length_b 11.931490
_cell_length_c 8.444937
_cell_angle_alpha 99.165654
_cell_angle_beta 58.050993
_cell_angle_gamma 125.564066
_cell_volume 591.743456
_symmetry_space_group_name_H-M "P -1"
_symmetry_group_IT_number 2
_symmetry_cell_setting 'triclinic'
loop_
_space_group_symop_operation_xyz
x,y,z
-x,-y,-z
loop_
_atom_site_type_symbol
_atom_site_label
_atom_site_fract_x
_atom_site_fract_y
_atom_site_fract_z
Si Si1 0.620260 0.652740 0.397894
Si Si2 0.583764 0.650870 0.056261
Si Si3 0.709517 0.318569 0.258642
Si Si4 0.180098 0.591372 0.112694
Si Si5 0.940883 0.960621 0.838697
Si Si6 0.367716 0.013004 0.437610
Si Si7 0.895536 0.174092 0.744215
O O1 0.500000 0.500000 0.500000
O O2 0.677280 0.667492 0.185404
O O3 0.440612 0.684229 0.523139
O O4 0.840249 0.750507 0.405013
O O5 0.354413 0.638490 0.168565
O O6 0.500000 0.500000 0.000000
O O7 0.767800 0.790841 0.889833
O O8 0.569539 0.152942 0.267366
O O9 0.966905 0.427587 0.197285
O O10 0.701246 0.386981 0.116135
O O11 0.112531 0.699208 0.160967
O O12 0.833917 0.039593 0.852637
O O13 0.163889 0.010236 0.627660
O O14 0.000000 0.000000 0.000000
O O15 0.500000 0.000000 0.500000
O O16 0.246327 0.886696 0.350771
#
# Coordination Sequence:
#
# PCOD9067197 Si02
#       7
#     2   2   2   2   2   2   2
#     4  12  25  47  75 108 148 195 241 305 370 444
#     4  12  29  47  77 111 149 194 253 304 369 444
#     4  11  25  48  73 107 150 188 251 296 375 428
#     4  11  28  46  79 109 149 197 245 310 367 439
#     4  12  27  50  76 109 152 197 248 305 374 440
#     4  12  30  46  76 110 151 193 249 310 370 443
#     4  12  27  48  77 109 150 198 244 308 374 438
#
# _framework density 23.658902000000001
#
# number of rings (size 3 to 8) (size 9 to 14) (size 15 to 20)
#    0.000    0.286    4.286    2.143   14.000    1.714 
#    0.000    0.000    0.000    0.000    0.000    0.000 
#    0.000    0.000    0.000    0.000    0.000    0.000 
#
# Total GULP energy -78214.830412 kJ/mol
# GULP energy per Si atom -5586.773601 kJ/mol
# Density = 2.360505 g / cm^3
# Si number density = 23.658902 Si / 1000 Ang^3
#
#
#
# Elastic Constant Matrix: (Units=GPa)
#
#
# Indices 1 2 3 4 5 6 
#
# 1 109.6199 38.2067 9.6311 -6.6519 4.2838 20.5990
# 2 38.2067 152.8665 43.8718 -36.2931 -8.2968 23.6937
# 3 9.6311 43.8718 62.2282 -15.1968 -8.8410 12.5058
# 4 -6.6519 -36.2931 -15.1968 48.7350 5.5558 -7.7092
# 5 4.2838 -8.2968 -8.8410 5.5558 24.9366 7.8054
# 6 20.5990 23.6937 12.5058 -7.7092 7.8054 44.2600
#
#
#
# Elastic Compliance Matrix: (Units=1/GPa)
#
#
# Indices 1 2 3 4 5 6 
#
# 1 0.010630 -0.002449 0.000494 -0.000670 -0.001163 -0.003688
# 2 -0.002449 0.010242 -0.004855 0.005214 0.001684 -0.002360
# 3 0.000494 -0.004855 0.021798 0.001682 0.007142 -0.004756
# 4 -0.000670 0.005214 0.001682 0.025635 -0.003956 0.002208
# 5 -0.001163 0.001684 0.007142 -0.003956 0.047879 -0.011511
# 6 -0.003688 -0.002360 -0.004756 0.002208 -0.011511 0.029332
#
#
# Mechanical properties :
#
#
# Convention : Reuss Voigt Hill
#
# Bulk Modulus (GPa) = 34.42396 56.45932 45.44164
# Shear Modulus (GPa) = 29.61729 39.11997 34.36863
#
# Velocity S-wave (km/s) = 3.54198 4.07074 3.81553
# Velocity P-wave (km/s) = 5.59546 6.78308 6.21769
#
# Compressibility (1/GPa) = 0.02904953
#
# Stress axis : x y z
#
# Youngs Moduli (GPa) = 94.06980 97.63480 45.87647
#
# Poissons Ratio (x) = 0.23913 -0.02265
# Poissons Ratio (y) = 0.23039 0.22273
# Poissons Ratio (z) = -0.04645 0.47401
#
# Static dielectric constant tensor:
#      x y z
#    x 3.473600 -3.403960 -0.999900 
#    y -3.403960 9.125040 2.129670 
#    z -0.999900 2.129670 2.539380 
# 
# From -- ./inp_files/156933.got.cif
#   From: 2010.05.17/outbox.cif.g08.bks.cpg/sg2_79_cif.got.tgz:156933.got - 2010.06.03 11:33:40.
