data_PCOD9067451
_publ_section_title
;
Structure prediction by ZEFSAII (Michael W. Deem and Ramdas Pophale) SiO2 
 PCOD9067451
Probable space group: P -1
;
_chemical_formula_sum "Si O2"
_cell_formula_units_Z 12
_cell_length_a 15.076416
_cell_length_b 11.716896
_cell_length_c 8.983115
_cell_angle_alpha 52.981347
_cell_angle_beta 147.905672
_cell_angle_gamma 140.693627
_cell_volume 527.312704
_symmetry_space_group_name_H-M "P -1"
_symmetry_group_IT_number 2
_symmetry_cell_setting 'triclinic'
loop_
_space_group_symop_operation_xyz
x,y,z
-x,-y,-z
loop_
_atom_site_type_symbol
_atom_site_label
_atom_site_fract_x
_atom_site_fract_y
_atom_site_fract_z
Si Si1 0.150444 0.794256 0.259251
Si Si2 0.290344 0.346497 0.735939
Si Si3 0.389485 0.847755 0.094273
Si Si4 0.680447 0.504526 0.667258
Si Si5 0.591369 0.899196 0.834752
Si Si6 0.035402 0.669673 0.504970
O O1 0.336836 0.768385 0.536493
O O2 0.129468 0.811090 0.391792
O O3 0.264184 0.987997 0.189705
O O4 0.916391 0.642342 0.974152
O O5 0.280166 0.415547 0.506602
O O6 0.122473 0.311284 0.646135
O O7 0.500000 0.500000 0.000000
O O8 0.318212 0.190898 0.883101
O O9 0.176890 0.698932 0.820170
O O10 0.431253 0.711771 0.322637
O O11 0.500000 0.000000 0.000000
O O12 0.372119 0.946708 0.126993
O O13 0.500000 0.500000 0.500000
O O14 0.000000 0.500000 0.500000
#
# Coordination Sequence:
#
# PCOD9067451 Si02
#       6
#     2   2   2   2   2   2
#     4  11  25  49  78 107 157 195 261 305 385 451
#     4  12  29  47  78 111 154 197 257 313 381 456
#     4  12  26  45  78 110 152 198 254 317 378 450
#     4  12  28  49  78 114 154 203 258 315 384 459
#     4  11  27  50  76 114 149 205 256 318 379 451
#     4  12  25  46  77 110 151 203 250 311 381 452
#
# _framework density 22.756896000000001
#
# number of rings (size 3 to 8) (size 9 to 14) (size 15 to 20)
#    0.000    0.333    3.333    4.000    7.000    6.000 
#    0.000    0.000    0.000    0.000    0.000    0.000 
#    0.000    0.000    0.000    0.000    0.000    0.000 
#
# Total GULP energy -66838.886417 kJ/mol
# GULP energy per Si atom -5569.907201 kJ/mol
# Density = 2.270510 g / cm^3
# Si number density = 22.756896 Si / 1000 Ang^3
#
#
#
# Elastic Constant Matrix: (Units=GPa)
#
#
# Indices 1 2 3 4 5 6 
#
# 1 166.4464 65.3283 62.8153 -20.0722 0.4980 15.3272
# 2 65.3283 111.2141 54.5803 -34.2697 19.7999 -6.1463
# 3 62.8153 54.5803 108.8662 -11.6047 -7.9618 1.2274
# 4 -20.0722 -34.2697 -11.6047 51.3045 -0.3604 -5.8892
# 5 0.4980 19.7999 -7.9618 -0.3604 36.6460 -5.1680
# 6 15.3272 -6.1463 1.2274 -5.8892 -5.1680 56.5925
#
#
#
# Elastic Compliance Matrix: (Units=1/GPa)
#
#
# Indices 1 2 3 4 5 6 
#
# 1 0.009033 -0.004312 -0.002969 -0.000328 0.001167 -0.002778
# 2 -0.004312 0.021268 -0.007955 0.011051 -0.012536 0.003655
# 3 -0.002969 -0.007955 0.015122 -0.003002 0.007593 -0.000007
# 4 -0.000328 0.011051 -0.003002 0.026435 -0.005855 0.003570
# 5 0.001167 -0.012536 0.007593 -0.005855 0.035753 0.000813
# 6 -0.002778 0.003655 -0.000007 0.003570 0.000813 0.019266
#
#
# Mechanical properties :
#
#
# Convention : Reuss Voigt Hill
#
# Bulk Modulus (GPa) = 66.87807 83.55274 75.21540
# Shear Modulus (GPa) = 30.80126 42.49545 36.64836
#
# Velocity S-wave (km/s) = 3.68297 4.32599 4.01737
# Velocity P-wave (km/s) = 6.89475 7.85795 7.39205
#
# Compressibility (1/GPa) = 0.01495259
#
# Stress axis : x y z
#
# Youngs Moduli (GPa) = 110.70026 47.01979 66.12797
#
# Poissons Ratio (x) = 0.20273 0.19633
# Poissons Ratio (y) = 0.47730 0.52603
# Poissons Ratio (z) = 0.32866 0.37403
#
# Static dielectric constant tensor:
#      x y z
#    x 1.792480 0.121710 -0.054380 
#    y 0.121710 1.943000 0.020970 
#    z -0.054380 0.020970 1.900680 
# 
# From -- ./inp_files/245267.got.cif
#   From: 2010.05.17/outbox.cif.g08.bks.cpg/sg2_123_cif.got.tgz:245267.got - 2010.06.03 11:33:40.
