data_PCOD9067182
_publ_section_title
;
Structure prediction by ZEFSAII (Michael W. Deem and Ramdas Pophale) SiO2 
 PCOD9067182
Probable space group: P -1
;
_chemical_formula_sum "Si O2"
_cell_formula_units_Z 8
_cell_length_a 9.378598
_cell_length_b 5.533489
_cell_length_c 10.997091
_cell_angle_alpha 118.502638
_cell_angle_beta 137.526824
_cell_angle_gamma 77.805417
_cell_volume 328.995996
_symmetry_space_group_name_H-M "P -1"
_symmetry_group_IT_number 2
_symmetry_cell_setting 'triclinic'
loop_
_space_group_symop_operation_xyz
x,y,z
-x,-y,-z
loop_
_atom_site_type_symbol
_atom_site_label
_atom_site_fract_x
_atom_site_fract_y
_atom_site_fract_z
Si Si1 0.160998 0.968914 0.487605
Si Si2 0.550621 0.182525 0.951425
Si Si3 0.265502 0.038135 0.324507
Si Si4 0.019664 0.639361 0.883432
O O1 0.056405 0.679652 0.284205
O O2 0.390928 0.008143 0.707146
O O3 0.192906 0.165976 0.436270
O O4 0.000000 0.000000 0.500000
O O5 0.500000 0.500000 0.000000
O O6 0.795534 0.222752 0.067683
O O7 0.500000 0.000000 0.000000
O O8 0.199280 0.246503 0.234730
O O9 0.500000 0.000000 0.500000
O O10 0.141760 0.743315 0.111309
#
# Coordination Sequence:
#
# PCOD9067182 Si02
#       4
#     2   2   2   2
#     4  12  25  45  77 106 152 197 253 316 381 452
#     4  12  27  47  77 116 155 200 257 321 386 456
#     4  11  25  48  72 108 153 200 254 313 386 455
#     4  11  26  47  74 109 150 202 254 317 380 462
#
# _framework density 24.316407000000002
#
# number of rings (size 3 to 8) (size 9 to 14) (size 15 to 20)
#    0.000    0.500    5.000    2.250    3.500    3.000 
#    0.000    0.000    0.000    0.000    0.000    0.000 
#    0.000    0.000    0.000    0.000    0.000    0.000 
#
# Total GULP energy -44595.827708 kJ/mol
# GULP energy per Si atom -5574.478463 kJ/mol
# Density = 2.426106 g / cm^3
# Si number density = 24.316407 Si / 1000 Ang^3
#
#
#
# Elastic Constant Matrix: (Units=GPa)
#
#
# Indices 1 2 3 4 5 6 
#
# 1 99.2178 24.8464 46.1672 -21.6343 -19.4796 -12.9890
# 2 24.8464 60.9062 45.4595 -12.0466 -16.2661 -2.1806
# 3 46.1672 45.4595 223.9267 -37.5138 -19.7830 0.2406
# 4 -21.6343 -12.0466 -37.5138 38.2900 -13.7290 0.4743
# 5 -19.4796 -16.2661 -19.7830 -13.7290 55.8945 -6.9588
# 6 -12.9890 -2.1806 0.2406 0.4743 -6.9588 36.7843
#
#
#
# Elastic Compliance Matrix: (Units=1/GPa)
#
#
# Indices 1 2 3 4 5 6 
#
# 1 0.015523 -0.001425 -0.000348 0.010910 0.008404 0.006848
# 2 -0.001425 0.021961 -0.002578 0.005954 0.006694 0.002005
# 3 -0.000348 -0.002578 0.006376 0.006295 0.002951 0.000160
# 4 0.010910 0.005954 0.006295 0.047529 0.020359 0.007403
# 5 0.008404 0.006694 0.002951 0.020359 0.029901 0.008739
# 6 0.006848 0.002005 0.000160 0.007403 0.008739 0.031279
#
#
# Mechanical properties :
#
#
# Convention : Reuss Voigt Hill
#
# Bulk Modulus (GPa) = 28.44306 68.55522 48.49914
# Shear Modulus (GPa) = 28.90301 44.03228 36.46765
#
# Velocity S-wave (km/s) = 3.45138 4.25997 3.87681
# Velocity P-wave (km/s) = 5.25406 7.24228 6.32676
#
# Compressibility (1/GPa) = 0.03515796
#
# Stress axis : x y z
#
# Youngs Moduli (GPa) = 64.41962 45.53461 156.83649
#
# Poissons Ratio (x) = 0.06489 0.05463
# Poissons Ratio (y) = 0.09180 0.40431
# Poissons Ratio (z) = 0.02244 0.11738
#
# Static dielectric constant tensor:
#      x y z
#    x 2.058860 -0.025650 0.196590 
#    y -0.025650 1.981750 0.153550 
#    z 0.196590 0.153550 1.773940 
# 
# From -- ./inp_files/1802.got.cif
#   From: 2010.05.17/outbox.cif.g08.bks.cpg/sg2_1_cif.got.tgz:1802.got - 2010.06.03 11:33:40.
