data_PCOD9067232
_publ_section_title
;
Structure prediction by ZEFSAII (Michael W. Deem and Ramdas Pophale) SiO2 
 PCOD9067232
Probable space group: P -1
;
_chemical_formula_sum "Si O2"
_cell_formula_units_Z 14
_cell_length_a 8.623979
_cell_length_b 13.501421
_cell_length_c 8.533034
_cell_angle_alpha 47.647278
_cell_angle_beta 50.950429
_cell_angle_gamma 57.066885
_cell_volume 557.774184
_symmetry_space_group_name_H-M "P -1"
_symmetry_group_IT_number 2
_symmetry_cell_setting 'triclinic'
loop_
_space_group_symop_operation_xyz
x,y,z
-x,-y,-z
loop_
_atom_site_type_symbol
_atom_site_label
_atom_site_fract_x
_atom_site_fract_y
_atom_site_fract_z
Si Si1 0.512383 0.566782 0.249673
Si Si2 0.741065 0.970988 0.877818
Si Si3 0.240605 0.087001 0.720260
Si Si4 0.500000 0.500000 0.000000
Si Si5 0.635818 0.184619 0.259510
Si Si6 0.975840 0.265193 0.167685
Si Si7 0.125457 0.759633 0.416068
Si Si8 0.000000 0.500000 0.000000
O O1 0.500000 0.500000 0.500000
O O2 0.477031 0.465389 0.239729
O O3 0.320742 0.693557 0.262395
O O4 0.745989 0.581977 0.065285
O O5 0.830248 0.856394 0.817444
O O6 0.823702 0.109456 0.665586
O O7 0.812886 0.908677 0.068231
O O8 0.500000 0.000000 0.000000
O O9 0.457284 0.126889 0.517647
O O10 0.070986 0.187474 0.620357
O O11 0.268717 0.931801 0.803320
O O12 0.541954 0.336986 0.097468
O O13 0.809388 0.202295 0.252453
O O14 0.923914 0.332823 0.305296
O O15 0.979809 0.412013 0.935861
#
# Coordination Sequence:
#
# PCOD9067232 Si02
#       8
#     2   2   2   1   2   2   2   1
#     4  12  27  50  77 114 162 204 267 328 393 479
#     4  12  26  44  73 110 147 201 262 320 396 469
#     4  11  27  45  77 110 152 196 260 334 389 463
#     4  12  26  46  82 108 154 210 260 322 398 472
#     4  11  25  48  74 110 153 198 263 321 396 475
#     4  12  26  46  74 108 154 201 257 319 395 475
#     4  12  25  46  74 109 152 200 255 329 391 460
#     4  12  26  50  78 108 158 212 256 324 396 474
#
# _framework density 25.099764
#
# number of rings (size 3 to 8) (size 9 to 14) (size 15 to 20)
#    0.000    0.286    4.286    3.429    8.000    1.143 
#    0.000    1.429    0.000    0.000    0.000    0.000 
#    0.000    0.000    0.000    0.000    0.000    0.000 
#
# Total GULP energy -77944.836258 kJ/mol
# GULP energy per Si atom -5567.488304 kJ/mol
# Density = 2.504264 g / cm^3
# Si number density = 25.099764 Si / 1000 Ang^3
#
#
#
# Elastic Constant Matrix: (Units=GPa)
#
#
# Indices 1 2 3 4 5 6 
#
# 1 107.9542 51.9520 37.6429 7.3743 -22.2812 -2.9861
# 2 51.9520 190.7175 33.3770 20.8369 -13.9352 -2.0367
# 3 37.6429 33.3770 78.3887 21.4260 -0.5395 -3.4203
# 4 7.3743 20.8369 21.4260 45.2411 -1.3283 -0.4920
# 5 -22.2812 -13.9352 -0.5395 -1.3283 53.5028 8.8949
# 6 -2.9861 -2.0367 -3.4203 -0.4920 8.8949 44.4915
#
#
#
# Elastic Compliance Matrix: (Units=1/GPa)
#
#
# Indices 1 2 3 4 5 6 
#
# 1 0.013395 -0.002463 -0.005892 0.001882 0.005033 -0.000652
# 2 -0.002463 0.006348 -0.000959 -0.002052 0.000582 -0.000087
# 3 -0.005892 -0.000959 0.018005 -0.007195 -0.002942 0.001453
# 4 0.001882 -0.002052 -0.007195 0.026172 0.000895 -0.000410
# 5 0.005033 0.000582 -0.002942 0.000895 0.021625 -0.004175
# 6 -0.000652 -0.000087 0.001453 -0.000410 -0.004175 0.023370
#
#
# Mechanical properties :
#
#
# Convention : Reuss Voigt Hill
#
# Bulk Modulus (GPa) = 52.30212 69.22267 60.76240
# Shear Modulus (GPa) = 37.33721 45.58632 41.46177
#
# Velocity S-wave (km/s) = 3.86106 4.26632 4.06874
# Velocity P-wave (km/s) = 6.38436 7.20469 6.80689
#
# Compressibility (1/GPa) = 0.01911968
#
# Stress axis : x y z
#
# Youngs Moduli (GPa) = 74.65539 157.53554 55.54115
#
# Poissons Ratio (x) = 0.38793 0.32725
# Poissons Ratio (y) = 0.18384 0.05328
# Poissons Ratio (z) = 0.43987 0.15112
#
# Static dielectric constant tensor:
#      x y z
#    x 1.983730 0.040590 0.056280 
#    y 0.040590 2.042180 -0.199700 
#    z 0.056280 -0.199700 2.407050 
# 
# From -- ./inp_files/184645.got.cif
#   From: 2010.05.17/outbox.cif.g08.bks.cpg/sg2_93_cif.got.tgz:184645.got - 2010.06.03 11:33:40.
