data_PCOD9067318
_publ_section_title
;
Structure prediction by ZEFSAII (Michael W. Deem and Ramdas Pophale) SiO2 
 PCOD9067318
Probable space group: P -1
;
_chemical_formula_sum "Si O2"
_cell_formula_units_Z 16
_cell_length_a 22.161924
_cell_length_b 9.052747
_cell_length_c 7.636558
_cell_angle_alpha 131.398124
_cell_angle_beta 47.420490
_cell_angle_gamma 142.710221
_cell_volume 656.993449
_symmetry_space_group_name_H-M "P -1"
_symmetry_group_IT_number 2
_symmetry_cell_setting 'triclinic'
loop_
_space_group_symop_operation_xyz
x,y,z
-x,-y,-z
loop_
_atom_site_type_symbol
_atom_site_label
_atom_site_fract_x
_atom_site_fract_y
_atom_site_fract_z
Si Si1 0.751284 0.979616 0.332290
Si Si2 0.097433 0.199826 0.842292
Si Si3 0.737604 0.247461 0.887201
Si Si4 0.950598 0.215297 0.916420
Si Si5 0.415850 0.103798 0.628215
Si Si6 0.409717 0.615921 0.784985
Si Si7 0.220794 0.098442 0.289503
Si Si8 0.578221 0.348224 0.794759
O O1 0.747500 0.159327 0.609974
O O2 0.694511 0.963951 0.251976
O O3 0.679145 0.685916 0.300258
O O4 0.870389 0.107021 0.152706
O O5 0.168282 0.124608 0.582119
O O6 0.045459 0.216617 0.783937
O O7 0.167705 0.468244 0.014850
O O8 0.000000 0.000000 0.000000
O O9 0.741203 0.063199 0.861215
O O10 0.638084 0.244584 0.069705
O O11 0.874332 0.042145 0.772451
O O12 0.000000 0.500000 0.000000
O O13 0.492260 0.274570 0.448436
O O14 0.401474 0.848229 0.449210
O O15 0.478309 0.255588 0.799233
O O16 0.437372 0.659464 0.971523
O O17 0.319005 0.377229 0.251689
#
# Coordination Sequence:
#
# PCOD9067318 Si02
#       8
#     2   2   2   2   2   2   2   2
#     4  12  27  48  77 111 153 204 257 318 387 461
#     4  12  28  47  77 109 150 201 261 318 388 460
#     4  12  26  47  76 108 156 196 255 320 380 456
#     4  12  27  49  74 112 151 200 254 322 385 453
#     4  11  26  48  79 114 160 201 259 322 387 464
#     4  12  25  51  76 116 155 206 260 315 392 460
#     4  12  27  51  77 114 152 207 254 322 391 464
#     4  11  25  48  78 113 153 203 255 315 387 465
#
# _framework density 24.353363999999999
#
# number of rings (size 3 to 8) (size 9 to 14) (size 15 to 20)
#    0.000    0.250    3.750    4.875    3.500    3.500 
#    0.000    0.000    0.000    0.000    0.000    0.000 
#    0.000    0.000    0.000    0.000    0.000    0.000 
#
# Total GULP energy -89752.739401 kJ/mol
# GULP energy per Si atom -5609.546213 kJ/mol
# Density = 2.429793 g / cm^3
# Si number density = 24.353364 Si / 1000 Ang^3
#
#
#
# Elastic Constant Matrix: (Units=GPa)
#
#
# Indices 1 2 3 4 5 6 
#
# 1 175.3578 33.2945 41.0884 -0.5433 14.6322 9.6865
# 2 33.2945 165.4804 50.8651 14.4774 10.5652 7.2165
# 3 41.0884 50.8651 121.1649 14.2763 0.0215 7.2687
# 4 -0.5433 14.4774 14.2763 33.9685 4.4869 4.4780
# 5 14.6322 10.5652 0.0215 4.4869 44.0495 7.8559
# 6 9.6865 7.2165 7.2687 4.4780 7.8559 43.0668
#
#
#
# Elastic Compliance Matrix: (Units=1/GPa)
#
#
# Indices 1 2 3 4 5 6 
#
# 1 0.006535 -0.000651 -0.002086 0.001634 -0.002036 -0.000807
# 2 -0.000651 0.007218 -0.002584 -0.001803 -0.001294 -0.000203
# 3 -0.002086 -0.002584 0.010505 -0.003476 0.001812 -0.000840
# 4 0.001634 -0.001803 -0.003476 0.032394 -0.002998 -0.002300
# 5 -0.002036 -0.001294 0.001812 -0.002998 0.024674 -0.003820
# 6 -0.000807 -0.000203 -0.000840 -0.002300 -0.003820 0.024513
#
#
# Mechanical properties :
#
#
# Convention : Reuss Voigt Hill
#
# Bulk Modulus (GPa) = 73.45562 79.16656 76.31109
# Shear Modulus (GPa) = 41.31556 46.66730 43.99143
#
# Velocity S-wave (km/s) = 4.12333 4.38226 4.25476
# Velocity P-wave (km/s) = 7.27304 7.62782 7.45254
#
# Compressibility (1/GPa) = 0.01361366
#
# Stress axis : x y z
#
# Youngs Moduli (GPa) = 153.03008 138.55079 95.19114
#
# Poissons Ratio (x) = 0.09023 0.19860
# Poissons Ratio (y) = 0.09966 0.24600
# Poissons Ratio (z) = 0.31928 0.35805
#
# Static dielectric constant tensor:
#      x y z
#    x 1.979220 -0.056990 0.012360 
#    y -0.056990 1.871810 -0.006870 
#    z 0.012360 -0.006870 1.926510 
# 
# From -- ./inp_files/352478.got.cif
#   From: 2010.05.17/outbox.cif.g08.bks.cpg/sg2_177_cif.got.tgz:352478.got - 2010.06.03 11:33:40.
