data_PCOD9067381
_publ_section_title
;
Structure prediction by ZEFSAII (Michael W. Deem and Ramdas Pophale) SiO2 
 PCOD9067381
Probable space group: P -1
;
_chemical_formula_sum "Si O2"
_cell_formula_units_Z 14
_cell_length_a 8.099280
_cell_length_b 7.573573
_cell_length_c 19.063715
_cell_angle_alpha 144.366654
_cell_angle_beta 116.307699
_cell_angle_gamma 58.334762
_cell_volume 579.531075
_symmetry_space_group_name_H-M "P -1"
_symmetry_group_IT_number 2
_symmetry_cell_setting 'triclinic'
loop_
_space_group_symop_operation_xyz
x,y,z
-x,-y,-z
loop_
_atom_site_type_symbol
_atom_site_label
_atom_site_fract_x
_atom_site_fract_y
_atom_site_fract_z
Si Si1 0.103098 0.287492 0.277721
Si Si2 0.640579 0.826031 0.908633
Si Si3 0.038365 0.692561 0.001725
Si Si4 0.706867 0.703947 0.400105
Si Si5 0.411260 0.226486 0.869072
Si Si6 0.525756 0.848413 0.623255
Si Si7 0.302015 0.683893 0.341424
O O1 0.244461 0.219763 0.349092
O O2 0.182479 0.517497 0.316093
O O3 0.884010 0.436386 0.311885
O O4 0.122360 0.964061 0.134448
O O5 0.702049 0.449496 0.781215
O O6 0.513409 0.966275 0.862249
O O7 0.844629 0.872815 0.980309
O O8 0.500000 0.000000 0.000000
O O9 0.184658 0.417219 0.894532
O O10 0.000000 0.500000 0.000000
O O11 0.535269 0.606941 0.374571
O O12 0.592631 0.931233 0.389237
O O13 0.780774 0.938112 0.538934
O O14 0.453023 0.054808 0.747121
O O15 0.500000 0.500000 0.000000
O O16 0.500000 0.500000 0.500000
#
# Coordination Sequence:
#
# PCOD9067381 Si02
#       7
#     2   2   2   2   2   2   2
#     4  12  26  49  75 107 149 193 253 304 375 449
#     4  12  25  45  73 103 152 190 241 316 364 437
#     4  12  28  45  74 111 143 198 254 302 380 450
#     4  11  27  48  78 107 150 197 241 312 371 451
#     4  12  26  45  72 107 146 190 246 306 371 442
#     4  12  26  47  77 109 149 193 250 306 374 451
#     4  11  25  49  73 112 146 192 253 297 379 449
#
# _framework density 24.157461999999999
#
# number of rings (size 3 to 8) (size 9 to 14) (size 15 to 20)
#    0.000    0.286    5.714    1.286    8.000    1.143 
#    0.000    4.286    0.000    0.000    0.000    0.000 
#    0.000    0.000    0.000    0.000    0.000    0.000 
#
# Total GULP energy -78238.798688 kJ/mol
# GULP energy per Si atom -5588.485621 kJ/mol
# Density = 2.410248 g / cm^3
# Si number density = 24.157462 Si / 1000 Ang^3
#
#
#
# Elastic Constant Matrix: (Units=GPa)
#
#
# Indices 1 2 3 4 5 6 
#
# 1 115.8992 25.5697 32.1844 9.3628 -21.6170 -15.5787
# 2 25.5697 98.2692 24.3426 -8.7781 -9.2676 -15.0100
# 3 32.1844 24.3426 172.6820 0.7199 -7.7945 12.9314
# 4 9.3628 -8.7781 0.7199 38.6245 3.7445 1.5634
# 5 -21.6170 -9.2676 -7.7945 3.7445 52.9862 5.0029
# 6 -15.5787 -15.0100 12.9314 1.5634 5.0029 48.4706
#
#
#
# Elastic Compliance Matrix: (Units=1/GPa)
#
#
# Indices 1 2 3 4 5 6 
#
# 1 0.010976 -0.001877 -0.001829 -0.003553 0.003834 0.003154
# 2 -0.001877 0.011882 -0.001563 0.002995 0.000556 0.003339
# 3 -0.001829 -0.001563 0.006575 0.000061 0.000212 -0.002850
# 4 -0.003553 0.002995 0.000061 0.027736 -0.002798 -0.000836
# 5 0.003834 0.000556 0.000212 -0.002798 0.020830 -0.000712
# 6 0.003154 0.003339 -0.002850 -0.000836 -0.000712 0.023539
#
#
# Mechanical properties :
#
#
# Convention : Reuss Voigt Hill
#
# Bulk Modulus (GPa) = 52.92428 61.22711 57.07569
# Shear Modulus (GPa) = 42.23867 48.33316 45.28591
#
# Velocity S-wave (km/s) = 4.18601 4.47783 4.33438
# Velocity P-wave (km/s) = 6.73195 7.22043 6.98047
#
# Compressibility (1/GPa) = 0.01889492
#
# Stress axis : x y z
#
# Youngs Moduli (GPa) = 91.10576 84.16404 152.09169
#
# Poissons Ratio (x) = 0.15797 0.27824
# Poissons Ratio (y) = 0.17100 0.23765
# Poissons Ratio (z) = 0.16667 0.13151
#
# Static dielectric constant tensor:
#      x y z
#    x 1.940400 0.100110 0.056670 
#    y 0.100110 1.953940 0.161710 
#    z 0.056670 0.161710 2.265380 
# 
# From -- ./inp_files/588292.got.cif
#   From: 2010.05.17/outbox.cif.g08.bks.cpg/sg2_295_cif.got.tgz:588292.got - 2010.06.03 11:33:40.
