data_PCOD9067882
_publ_section_title
;
Structure prediction by ZEFSAII (Michael W. Deem and Ramdas Pophale) SiO2 
 PCOD9067882
Probable space group: P -1
;
_chemical_formula_sum "Si O2"
_cell_formula_units_Z 9
_cell_length_a 10.807675
_cell_length_b 10.807691
_cell_length_c 5.140985
_cell_angle_alpha 76.980311
_cell_angle_beta 103.019689
_cell_angle_gamma 137.597788
_cell_volume 392.934397
_symmetry_space_group_name_H-M "P -1"
_symmetry_group_IT_number 2
_symmetry_cell_setting 'triclinic'
loop_
_space_group_symop_operation_xyz
x,y,z
-x,-y,-z
loop_
_atom_site_type_symbol
_atom_site_label
_atom_site_fract_x
_atom_site_fract_y
_atom_site_fract_z
Si Si1 0.000000 0.000000 0.000000
Si Si2 0.995341 0.407034 0.292452
Si Si3 0.407034 0.995341 0.707549
Si Si4 0.752644 0.626993 0.761124
Si Si5 0.626992 0.752645 0.238878
O O1 0.794706 0.899994 0.052860
O O2 0.100006 0.205294 0.052859
O O3 0.807004 0.192996 0.310842
O O4 0.000000 0.500000 0.500000
O O5 0.157482 0.422824 0.332980
O O6 0.000000 0.500000 0.000000
O O7 0.500000 0.000000 0.500000
O O8 0.422824 0.157481 0.667020
O O9 0.500000 0.000000 0.000000
O O10 0.704166 0.704167 0.500002
O O11 0.562829 0.437170 0.882222
#
# Coordination Sequence:
#
# PCOD9067882 Si02
#       5
#     1   2   2   2   2
#     4  12  24  44  76 104 144 184 250 292 368 424
#     4  12  27  48  74 107 149 193 245 302 367 436
#     4  12  27  48  74 107 149 193 245 302 367 436
#     4  11  26  46  71 106 144 189 241 299 361 433
#     4  11  26  46  71 106 144 189 241 299 361 433
#
# _framework density 22.904586999999999
#
# number of rings (size 3 to 8) (size 9 to 14) (size 15 to 20)
#    0.000    0.444    2.222    5.333    6.222    0.000 
#    0.000    0.000    0.000    0.000    0.000    0.000 
#    0.000    0.000    0.000    0.000    0.000    0.000 
#
# Total GULP energy -50162.387026 kJ/mol
# GULP energy per Si atom -5573.598558 kJ/mol
# Density = 2.285246 g / cm^3
# Si number density = 22.904587 Si / 1000 Ang^3
#
#
#
# Elastic Constant Matrix: (Units=GPa)
#
#
# Indices 1 2 3 4 5 6 
#
# 1 214.1365 79.9812 55.8839 -0.7783 -20.8687 -23.3590
# 2 79.9812 216.8618 27.7339 16.6600 -13.1903 24.9822
# 3 55.8839 27.7339 86.2356 5.6237 -12.0592 -16.7740
# 4 -0.7783 16.6600 5.6237 21.8824 -12.9866 -7.1400
# 5 -20.8687 -13.1903 -12.0592 -12.9866 43.6764 -3.5995
# 6 -23.3590 24.9822 -16.7740 -7.1400 -3.5995 76.2838
#
#
#
# Elastic Compliance Matrix: (Units=1/GPa)
#
#
# Indices 1 2 3 4 5 6 
#
# 1 0.007382 -0.003008 -0.003025 0.006887 0.004113 0.003419
# 2 -0.003008 0.006764 -0.000847 -0.007744 -0.002274 -0.004155
# 3 -0.003025 -0.000847 0.014719 -0.001056 0.002263 0.002596
# 4 0.006887 -0.007744 -0.001056 0.069192 0.022217 0.011937
# 5 0.004113 -0.002274 0.002263 0.022217 0.031907 0.006087
# 6 0.003419 -0.004155 0.002596 0.011937 0.006087 0.017492
#
#
# Mechanical properties :
#
#
# Convention : Reuss Voigt Hill
#
# Bulk Modulus (GPa) = 66.20639 93.82579 80.01609
# Shear Modulus (GPa) = 30.07491 51.94417 41.00954
#
# Velocity S-wave (km/s) = 3.62754 4.76736 4.23596
# Velocity P-wave (km/s) = 6.82007 8.44727 7.67690
#
# Compressibility (1/GPa) = 0.01510428
#
# Stress axis : x y z
#
# Youngs Moduli (GPa) = 135.46663 147.83275 67.93912
#
# Poissons Ratio (x) = 0.44475 0.20552
# Poissons Ratio (y) = 0.40755 0.05754
# Poissons Ratio (z) = 0.40980 0.12521
#
# Static dielectric constant tensor:
#      x y z
#    x 1.837090 0.003850 -0.010040 
#    y 0.003850 1.843540 0.004680 
#    z -0.010040 0.004680 1.860300 
# 
# From -- ./inp_files/16624.got.cif
#   From: 2010.05.17/outbox.cif.g08.bks.cpg/sg2_9_cif.got.tgz:16624.got - 2010.06.03 11:33:40.
