data_PCOD9067988
_publ_section_title
;
Structure prediction by ZEFSAII (Michael W. Deem and Ramdas Pophale) SiO2 
 PCOD9067988
Probable space group: P -1
;
_chemical_formula_sum "Si O2"
_cell_formula_units_Z 13
_cell_length_a 7.494960
_cell_length_b 9.979965
_cell_length_c 9.408527
_cell_angle_alpha 62.802085
_cell_angle_beta 130.509702
_cell_angle_gamma 115.458916
_cell_volume 466.610007
_symmetry_space_group_name_H-M "P -1"
_symmetry_group_IT_number 2
_symmetry_cell_setting 'triclinic'
loop_
_space_group_symop_operation_xyz
x,y,z
-x,-y,-z
loop_
_atom_site_type_symbol
_atom_site_label
_atom_site_fract_x
_atom_site_fract_y
_atom_site_fract_z
Si Si1 0.500000 0.000000 0.000000
Si Si2 0.807212 0.139198 0.283264
Si Si3 0.687939 0.495805 0.404590
Si Si4 0.914473 0.151485 0.933205
Si Si5 0.140601 0.436201 0.233873
Si Si6 0.372101 0.331149 0.971604
Si Si7 0.693453 0.159181 0.517277
O O1 0.729339 0.111962 0.982946
O O2 0.309371 0.023318 0.764403
O O3 0.844668 0.127231 0.475231
O O4 0.029226 0.255508 0.275923
O O5 0.556812 0.214284 0.097418
O O6 0.417128 0.491258 0.315154
O O7 0.862836 0.514167 0.623906
O O8 0.748037 0.637536 0.256553
O O9 0.659477 0.333257 0.385889
O O10 0.775379 0.186485 0.706668
O O11 0.167523 0.268940 0.010792
O O12 0.000000 0.000000 0.000000
O O13 0.000000 0.500000 0.000000
O O14 0.500000 0.500000 0.000000
O O15 0.500000 0.000000 0.500000
#
# Coordination Sequence:
#
# PCOD9067988 Si02
#       7
#     1   2   2   2   2   2   2
#     4  12  28  48  80 116 156 210 276 322 410 484
#     4  12  26  47  77 116 155 214 266 333 408 480
#     4  11  27  48  77 120 159 213 274 331 409 487
#     4  12  28  52  80 112 163 212 269 337 402 490
#     4  11  26  46  77 118 162 205 267 342 404 481
#     4  12  25  47  81 113 159 212 269 330 409 479
#     4  12  26  50  75 109 158 212 273 327 406 491
#
# _framework density 27.860527999999999
#
# number of rings (size 3 to 8) (size 9 to 14) (size 15 to 20)
#    0.000    0.308    6.154    0.923    6.462    1.231 
#    2.769    1.538    0.000    0.000    0.000    0.000 
#    0.000    0.000    0.000    0.000    0.000    0.000 
#
# Total GULP energy -72447.589590 kJ/mol
# GULP energy per Si atom -5572.891507 kJ/mol
# Density = 2.779712 g / cm^3
# Si number density = 27.860528 Si / 1000 Ang^3
#
#
#
# Elastic Constant Matrix: (Units=GPa)
#
#
# Indices 1 2 3 4 5 6 
#
# 1 147.2735 43.3736 37.8524 -12.2997 -10.0920 53.3156
# 2 43.3736 136.2719 23.8049 12.5616 7.7150 42.3070
# 3 37.8524 23.8049 109.1347 12.9614 0.6752 2.8452
# 4 -12.2997 12.5616 12.9614 48.9709 -0.1089 -3.4820
# 5 -10.0920 7.7150 0.6752 -0.1089 36.4948 -15.7586
# 6 53.3156 42.3070 2.8452 -3.4820 -15.7586 60.1799
#
#
#
# Elastic Compliance Matrix: (Units=1/GPa)
#
#
# Indices 1 2 3 4 5 6 
#
# 1 0.011842 -0.000077 -0.004215 0.003373 -0.001079 -0.010325
# 2 -0.000077 0.011370 -0.001781 -0.003173 -0.006614 -0.009756
# 3 -0.004215 -0.001781 0.011278 -0.003264 0.000940 0.004511
# 4 0.003373 -0.003173 -0.003264 0.023045 0.002309 0.001335
# 5 -0.001079 -0.006614 0.000940 0.002309 0.034895 0.014833
# 6 -0.010325 -0.009756 0.004511 0.001335 0.014833 0.036371
#
#
# Mechanical properties :
#
#
# Convention : Reuss Voigt Hill
#
# Bulk Modulus (GPa) = 44.75780 66.97134 55.86457
# Shear Modulus (GPa) = 33.69382 48.30570 40.99976
#
# Velocity S-wave (km/s) = 3.48138 4.16846 3.84032
# Velocity P-wave (km/s) = 5.67977 6.87447 6.30548
#
# Compressibility (1/GPa) = 0.02234247
#
# Stress axis : x y z
#
# Youngs Moduli (GPa) = 84.44683 87.95251 88.67039
#
# Poissons Ratio (x) = 0.00677 0.37376
# Poissons Ratio (y) = 0.00650 0.15794
# Poissons Ratio (z) = 0.35596 0.15666
#
# Static dielectric constant tensor:
#      x y z
#    x 2.507080 -0.377910 -0.084790 
#    y -0.377910 2.366500 0.019880 
#    z -0.084790 0.019880 2.146220 
# 
# From -- ./inp_files/175632.got.cif
#   From: 2010.05.17/outbox.cif.g08.bks.cpg/sg2_88_cif.got.tgz:175632.got - 2010.06.03 11:33:40.
