data_PCOD9067740
_publ_section_title
;
Structure prediction by ZEFSAII (Michael W. Deem and Ramdas Pophale) SiO2 
 PCOD9067740
Probable space group: P -1
;
_chemical_formula_sum "Si O2"
_cell_formula_units_Z 14
_cell_length_a 8.520316
_cell_length_b 18.171957
_cell_length_c 12.739103
_cell_angle_alpha 150.121822
_cell_angle_beta 134.619653
_cell_angle_gamma 64.405091
_cell_volume 605.971362
_symmetry_space_group_name_H-M "P -1"
_symmetry_group_IT_number 2
_symmetry_cell_setting 'triclinic'
loop_
_space_group_symop_operation_xyz
x,y,z
-x,-y,-z
loop_
_atom_site_type_symbol
_atom_site_label
_atom_site_fract_x
_atom_site_fract_y
_atom_site_fract_z
Si Si1 0.111116 0.266197 0.703173
Si Si2 0.899147 0.126020 0.080851
Si Si3 0.098468 0.384985 0.190688
Si Si4 0.469382 0.564642 0.393718
Si Si5 0.455655 0.904137 0.749032
Si Si6 0.215825 0.964227 0.323964
Si Si7 0.213062 0.441239 0.757329
O O1 0.193421 0.130010 0.539867
O O2 0.060932 0.338674 0.662143
O O3 0.839094 0.177509 0.522711
O O4 0.330365 0.422026 0.063140
O O5 0.634851 0.042421 0.918068
O O6 0.871207 0.113065 0.928211
O O7 0.102096 0.309733 0.447140
O O8 0.000000 0.000000 0.000000
O O9 0.272391 0.497532 0.316041
O O10 0.283988 0.432889 0.437701
O O11 0.860477 0.416299 0.126531
O O12 0.972864 0.182747 0.866986
O O13 0.511679 0.747310 0.599452
O O14 0.500000 0.000000 0.000000
O O15 0.500000 0.000000 0.500000
O O16 0.500000 0.500000 0.000000
#
# Coordination Sequence:
#
# PCOD9067740 Si02
#       7
#     2   2   2   2   2   2   2
#     4  12  26  47  75 111 141 199 257 300 366 442
#     4  12  26  47  75 106 149 197 245 305 371 437
#     4  11  26  49  69 106 152 188 244 306 381 437
#     4  11  26  44  78 108 146 192 244 317 369 430
#     4  12  23  48  79 109 146 190 254 304 362 449
#     4  12  29  49  69 108 152 197 243 304 376 445
#     4  12  27  46  76 108 144 196 252 304 366 448
#
# _framework density 23.103403
#
# number of rings (size 3 to 8) (size 9 to 14) (size 15 to 20)
#    0.000    0.286    4.286    3.000    8.000    2.286 
#    0.000    0.000    0.000    0.000    0.000    0.000 
#    0.000    0.000    0.000    0.000    0.000    0.000 
#
# Total GULP energy -78355.164027 kJ/mol
# GULP energy per Si atom -5596.797430 kJ/mol
# Density = 2.305082 g / cm^3
# Si number density = 23.103403 Si / 1000 Ang^3
#
#
#
# Elastic Constant Matrix: (Units=GPa)
#
#
# Indices 1 2 3 4 5 6 
#
# 1 87.1525 45.8307 47.1667 -4.6678 -18.6556 -3.7463
# 2 45.8307 127.0561 54.4396 -15.0274 -19.2162 -20.9903
# 3 47.1667 54.4396 134.2667 -6.1512 -11.9787 -8.1683
# 4 -4.6678 -15.0274 -6.1512 40.5312 -1.9651 4.6593
# 5 -18.6556 -19.2162 -11.9787 -1.9651 57.0286 -5.4630
# 6 -3.7463 -20.9903 -8.1683 4.6593 -5.4630 25.2944
#
#
#
# Elastic Compliance Matrix: (Units=1/GPa)
#
#
# Indices 1 2 3 4 5 6 
#
# 1 0.016273 -0.003967 -0.003925 0.000129 0.003021 -0.001521
# 2 -0.003967 0.012960 -0.002838 0.003000 0.003482 0.009450
# 3 -0.003925 -0.002838 0.009982 -0.000026 -0.000119 0.000266
# 4 0.000129 0.003000 -0.000026 0.026103 0.001762 -0.001927
# 5 0.003021 0.003482 -0.000119 0.001762 0.020440 0.007388
# 6 -0.001521 0.009450 0.000266 -0.001927 0.007388 0.049188
#
#
# Mechanical properties :
#
#
# Convention : Reuss Voigt Hill
#
# Bulk Modulus (GPa) = 56.32553 71.48325 63.90439
# Shear Modulus (GPa) = 30.80256 37.97339 34.38797
#
# Velocity S-wave (km/s) = 3.65533 4.05857 3.86221
# Velocity P-wave (km/s) = 6.49984 7.27807 6.89994
#
# Compressibility (1/GPa) = 0.01775394
#
# Stress axis : x y z
#
# Youngs Moduli (GPa) = 61.45253 77.15882 100.18177
#
# Poissons Ratio (x) = 0.30610 0.39322
# Poissons Ratio (y) = 0.24379 0.28434
# Poissons Ratio (z) = 0.24120 0.21900
#
# Static dielectric constant tensor:
#      x y z
#    x 1.914020 -0.001170 0.090290 
#    y -0.001170 1.805680 0.013750 
#    z 0.090290 0.013750 1.912140 
# 
# From -- ./inp_files/562408.got.cif
#   From: 2010.05.17/outbox.cif.g08.bks.cpg/sg2_282_cif.got.tgz:562408.got - 2010.06.03 11:33:40.
