data_PCOD9067203
_publ_section_title
;
Structure prediction by ZEFSAII (Michael W. Deem and Ramdas Pophale) SiO2 
 PCOD9067203
Probable space group: P -1
;
_chemical_formula_sum "Si O2"
_cell_formula_units_Z 11
_cell_length_a 4.966897
_cell_length_b 13.264669
_cell_length_c 17.347730
_cell_angle_alpha 27.693827
_cell_angle_beta 128.054433
_cell_angle_gamma 116.609071
_cell_volume 403.020120
_symmetry_space_group_name_H-M "P -1"
_symmetry_group_IT_number 2
_symmetry_cell_setting 'triclinic'
loop_
_space_group_symop_operation_xyz
x,y,z
-x,-y,-z
loop_
_atom_site_type_symbol
_atom_site_label
_atom_site_fract_x
_atom_site_fract_y
_atom_site_fract_z
Si Si1 0.500000 0.500000 0.000000
Si Si2 0.650185 0.678193 0.570473
Si Si3 0.861810 0.936103 0.214522
Si Si4 0.633999 0.728251 0.708462
Si Si5 0.743657 0.211191 0.854410
Si Si6 0.721558 0.115287 0.238643
O O1 0.488186 0.609543 0.831584
O O2 0.644873 0.723283 0.907278
O O3 0.585518 0.643141 0.672533
O O4 0.828408 0.450278 0.711856
O O5 0.272649 0.800761 0.381561
O O6 0.838276 0.879783 0.461975
O O7 0.631830 0.762117 0.271619
O O8 0.759975 0.053544 0.199281
O O9 0.748251 0.120816 0.003064
O O10 0.063007 0.705097 0.813142
O O11 0.500000 0.000000 0.500000
O O12 0.000000 0.000000 0.000000
#
# Coordination Sequence:
#
# PCOD9067203 Si02
#       6
#     1   2   2   2   2   2
#     4  12  26  44  74 106 160 198 258 312 380 464
#     4  12  26  48  78 110 156 204 262 319 388 468
#     4  11  25  48  73 110 150 201 265 319 390 461
#     4  12  25  48  72 115 151 203 253 311 387 462
#     4  11  27  49  74 108 151 203 264 329 389 453
#     4  12  25  45  74 109 152 200 256 316 385 463
#
# _framework density 27.293922999999999
#
# number of rings (size 3 to 8) (size 9 to 14) (size 15 to 20)
#    0.000    0.364    3.636    3.818    0.000    8.727 
#    0.000    0.000    0.000    0.000    0.000    0.000 
#    0.000    0.000    0.000    0.000    0.000    0.000 
#
# Total GULP energy -61543.186955 kJ/mol
# GULP energy per Si atom -5594.835178 kJ/mol
# Density = 2.723180 g / cm^3
# Si number density = 27.293923 Si / 1000 Ang^3
#
#
#
# Elastic Constant Matrix: (Units=GPa)
#
#
# Indices 1 2 3 4 5 6 
#
# 1 80.7091 57.9337 55.0667 5.9970 -14.6162 -20.7400
# 2 57.9337 141.2440 83.6395 -35.1989 -3.5201 -19.4885
# 3 55.0667 83.6395 176.0780 -27.1044 -1.2290 -19.9837
# 4 5.9970 -35.1989 -27.1044 71.8965 -5.2211 13.9474
# 5 -14.6162 -3.5201 -1.2290 -5.2211 58.0974 8.4843
# 6 -20.7400 -19.4885 -19.9837 13.9474 8.4843 59.5838
#
#
#
# Elastic Compliance Matrix: (Units=1/GPa)
#
#
# Indices 1 2 3 4 5 6 
#
# 1 0.024354 -0.008870 -0.004073 -0.008733 0.003886 0.005701
# 2 -0.008870 0.013963 -0.002957 0.006594 -0.000716 -0.000954
# 3 -0.004073 -0.002957 0.008690 0.002074 -0.000858 0.000166
# 4 -0.008733 0.006594 0.002074 0.019649 0.000726 -0.004890
# 5 0.003886 -0.000716 -0.000858 0.000726 0.018482 -0.001971
# 6 0.005701 -0.000954 0.000166 -0.004890 -0.001971 0.019937
#
#
# Mechanical properties :
#
#
# Convention : Reuss Voigt Hill
#
# Bulk Modulus (GPa) = 65.76182 87.92342 76.84262
# Shear Modulus (GPa) = 35.22549 51.34163 43.28356
#
# Velocity S-wave (km/s) = 3.59639 4.34183 3.98657
# Velocity P-wave (km/s) = 6.43363 7.57752 7.02888
#
# Compressibility (1/GPa) = 0.01520639
#
# Stress axis : x y z
#
# Youngs Moduli (GPa) = 41.06113 71.61847 115.07828
#
# Poissons Ratio (x) = 0.63526 0.46874
# Poissons Ratio (y) = 0.36422 0.34025
# Poissons Ratio (z) = 0.16725 0.21175
#
# Static dielectric constant tensor:
#      x y z
#    x 2.430440 0.149990 0.168920 
#    y 0.149990 2.167560 0.009420 
#    z 0.168920 0.009420 2.146990 
# 
# From -- ./inp_files/66025.got.cif
#   From: 2010.05.17/outbox.cif.g08.bks.cpg/sg2_34_cif.got.tgz:66025.got - 2010.06.03 11:33:40.
