data_PCOD9067276
_publ_section_title
;
Structure prediction by ZEFSAII (Michael W. Deem and Ramdas Pophale) SiO2 
 PCOD9067276
Probable space group: P -1
;
_chemical_formula_sum "Si O2"
_cell_formula_units_Z 16
_cell_length_a 22.317198
_cell_length_b 5.405705
_cell_length_c 8.351359
_cell_angle_alpha 59.035016
_cell_angle_beta 126.712566
_cell_angle_gamma 122.608392
_cell_volume 652.167099
_symmetry_space_group_name_H-M "P -1"
_symmetry_group_IT_number 2
_symmetry_cell_setting 'triclinic'
loop_
_space_group_symop_operation_xyz
x,y,z
-x,-y,-z
loop_
_atom_site_type_symbol
_atom_site_label
_atom_site_fract_x
_atom_site_fract_y
_atom_site_fract_z
Si Si1 0.385629 0.374870 0.958245
Si Si2 0.832097 0.452332 0.110852
Si Si3 0.694536 0.488044 0.663733
Si Si4 0.401603 0.199136 0.385982
Si Si5 0.016015 0.360951 0.904013
Si Si6 0.076331 0.302232 0.526881
Si Si7 0.492411 0.043266 0.161350
Si Si8 0.781047 0.779475 0.387013
O O1 0.407102 0.073025 0.047235
O O2 0.411889 0.409435 0.174196
O O3 0.438042 0.620279 0.832215
O O4 0.295885 0.360832 0.803569
O O5 0.893622 0.466029 0.062794
O O6 0.881736 0.697319 0.236971
O O7 0.809109 0.137145 0.275454
O O8 0.754339 0.492120 0.901644
O O9 0.654492 0.140684 0.648882
O O10 0.746959 0.688246 0.538243
O O11 0.636312 0.658442 0.581646
O O12 0.479896 0.150384 0.599095
O O13 0.958814 0.428940 0.655835
O O14 0.000000 0.500000 0.000000
O O15 0.000000 0.000000 0.000000
O O16 0.144456 0.323331 0.499719
O O17 0.000000 0.000000 0.500000
O O18 0.500000 0.000000 0.000000
#
# Coordination Sequence:
#
# PCOD9067276 Si02
#       8
#     2   2   2   2   2   2   2   2
#     4  11  25  48  76 112 153 203 253 319 383 455
#     4  12  28  47  80 109 152 204 257 322 392 461
#     4  12  29  47  77 115 154 201 260 318 385 460
#     4  12  27  49  75 112 158 201 257 315 387 455
#     4  12  28  49  77 112 153 197 257 319 390 464
#     4  12  27  50  77 112 154 204 262 323 393 468
#     4  11  26  46  78 111 156 202 260 309 384 464
#     4  12  26  49  80 109 157 203 260 322 389 463
#
# _framework density 24.533591999999999
#
# number of rings (size 3 to 8) (size 9 to 14) (size 15 to 20)
#    0.000    0.250    3.750    3.750    8.750    2.500 
#    0.000    0.000    0.000    0.000    0.000    0.000 
#    0.000    0.000    0.000    0.000    0.000    0.000 
#
# Total GULP energy -89636.213948 kJ/mol
# GULP energy per Si atom -5602.263372 kJ/mol
# Density = 2.447775 g / cm^3
# Si number density = 24.533592 Si / 1000 Ang^3
#
#
#
# Elastic Constant Matrix: (Units=GPa)
#
#
# Indices 1 2 3 4 5 6 
#
# 1 137.4152 31.2038 12.3478 -11.2440 -8.1269 3.0016
# 2 31.2038 104.0494 42.1015 -5.0485 -3.4194 5.9400
# 3 12.3478 42.1015 137.7830 -5.4473 11.0843 5.0086
# 4 -11.2440 -5.0485 -5.4473 49.5574 2.0578 -5.2079
# 5 -8.1269 -3.4194 11.0843 2.0578 52.3799 -0.6681
# 6 3.0016 5.9400 5.0086 -5.2079 -0.6681 40.4281
#
#
#
# Elastic Compliance Matrix: (Units=1/GPa)
#
#
# Indices 1 2 3 4 5 6 
#
# 1 0.007983 -0.002265 -0.000045 0.001528 0.001040 -0.000040
# 2 -0.002265 0.011791 -0.003445 0.000146 0.001127 -0.001100
# 3 -0.000045 -0.003445 0.008523 0.000609 -0.002066 -0.000502
# 4 0.001528 0.000146 0.000609 0.020895 -0.000672 0.002470
# 5 0.001040 0.001127 -0.002066 -0.000672 0.019793 0.000254
# 6 -0.000040 -0.001100 -0.000502 0.002470 0.000254 0.025284
#
#
# Mechanical properties :
#
#
# Convention : Reuss Voigt Hill
#
# Bulk Modulus (GPa) = 59.57057 61.17263 60.37160
# Shear Modulus (GPa) = 44.89348 48.04605 46.46977
#
# Velocity S-wave (km/s) = 4.28235 4.43016 4.35688
# Velocity P-wave (km/s) = 6.98465 7.15240 7.06902
#
# Compressibility (1/GPa) = 0.01678681
#
# Stress axis : x y z
#
# Youngs Moduli (GPa) = 125.26536 84.81064 117.33038
#
# Poissons Ratio (x) = 0.19212 0.00528
# Poissons Ratio (y) = 0.28376 0.40418
# Poissons Ratio (z) = 0.00564 0.29216
#
# Static dielectric constant tensor:
#      x y z
#    x 1.958270 -0.017010 -0.002000 
#    y -0.017010 2.087640 0.008950 
#    z -0.002000 0.008950 1.953110 
# 
# From -- ./inp_files/340199.got.cif
#   From: 2010.05.17/outbox.cif.g08.bks.cpg/sg2_171_cif.got.tgz:340199.got - 2010.06.03 11:33:40.
