data_PCOD9067698
_publ_section_title
;
Structure prediction by ZEFSAII (Michael W. Deem and Ramdas Pophale) SiO2 
 PCOD9067698
Probable space group: P -1
;
_chemical_formula_sum "Si O2"
_cell_formula_units_Z 14
_cell_length_a 23.258263
_cell_length_b 13.265800
_cell_length_c 13.642017
_cell_angle_alpha 22.549588
_cell_angle_beta 23.284792
_cell_angle_gamma 24.722102
_cell_volume 585.919537
_symmetry_space_group_name_H-M "P -1"
_symmetry_group_IT_number 2
_symmetry_cell_setting 'triclinic'
loop_
_space_group_symop_operation_xyz
x,y,z
-x,-y,-z
loop_
_atom_site_type_symbol
_atom_site_label
_atom_site_fract_x
_atom_site_fract_y
_atom_site_fract_z
Si Si1 0.531153 0.853500 0.913983
Si Si2 0.816613 0.679079 0.134240
Si Si3 0.719882 0.112526 0.063541
Si Si4 0.358458 0.658663 0.657947
Si Si5 0.948461 0.196290 0.117091
Si Si6 0.180911 0.128515 0.247509
Si Si7 0.591730 0.463294 0.755941
O O1 0.601257 0.091746 0.580023
O O2 0.636922 0.581530 0.056401
O O3 0.497060 0.728785 0.976943
O O4 0.365507 0.005036 0.098340
O O5 0.702174 0.511712 0.455674
O O6 0.800292 0.892292 0.879963
O O7 0.000000 0.500000 0.000000
O O8 0.768453 0.824881 0.183145
O O9 0.687066 0.338363 0.820237
O O10 0.552248 0.234308 0.269027
O O11 0.868421 0.020220 0.988495
O O12 0.500000 0.500000 0.500000
O O13 0.185728 0.797826 0.754187
O O14 0.906320 0.057939 0.404461
O O15 0.910520 0.534466 0.886383
#
# Coordination Sequence:
#
# PCOD9067698 Si02
#       7
#     2   2   2   2   2   2   2
#     4  12  23  42  69  99 139 187 227 285 352 412
#     4  12  23  40  70 106 139 177 230 292 351 415
#     4  11  26  44  69  98 144 189 229 288 349 424
#     4  12  23  41  68 104 142 177 230 295 347 404
#     4  12  25  42  66 107 142 179 231 285 353 410
#     4  12  22  38  68 105 142 169 226 294 347 402
#     4  11  26  47  66 101 142 190 232 280 355 425
#
# _framework density 23.894065999999999
#
# number of rings (size 3 to 8) (size 9 to 14) (size 15 to 20)
#    0.000    0.286    5.714    4.286    0.000    1.143 
#    0.000    1.429    0.000    0.000    0.000    0.000 
#    0.000    0.000    0.000    0.000    0.000    0.000 
#
# Total GULP energy -78224.427640 kJ/mol
# GULP energy per Si atom -5587.459117 kJ/mol
# Density = 2.383968 g / cm^3
# Si number density = 23.894066 Si / 1000 Ang^3
#
#
#
# Elastic Constant Matrix: (Units=GPa)
#
#
# Indices 1 2 3 4 5 6 
#
# 1 76.8349 50.7291 12.6026 -3.4810 -6.4257 -30.3045
# 2 50.7291 152.9342 50.2503 9.6342 -19.2540 -26.5428
# 3 12.6026 50.2503 87.9830 -14.6786 5.5192 -6.2988
# 4 -3.4810 9.6342 -14.6786 35.7372 -4.6983 -7.3904
# 5 -6.4257 -19.2540 5.5192 -4.6983 31.1685 -5.6698
# 6 -30.3045 -26.5428 -6.2988 -7.3904 -5.6698 49.3543
#
#
#
# Elastic Compliance Matrix: (Units=1/GPa)
#
#
# Indices 1 2 3 4 5 6 
#
# 1 0.022047 -0.005861 0.002094 0.007638 0.003933 0.012248
# 2 -0.005861 0.012712 -0.007681 -0.005689 0.007560 0.002274
# 3 0.002094 -0.007681 0.017257 0.008549 -0.006092 -0.000062
# 4 0.007638 -0.005689 0.008549 0.035995 0.003522 0.008516
# 5 0.003933 0.007560 -0.006092 0.003522 0.041168 0.010960
# 6 0.012248 0.002274 -0.000062 0.008516 0.010960 0.031531
#
#
# Mechanical properties :
#
#
# Convention : Reuss Voigt Hill
#
# Bulk Modulus (GPa) = 34.34263 60.54624 47.44444
# Shear Modulus (GPa) = 25.86491 36.86335 31.36413
#
# Velocity S-wave (km/s) = 3.29368 3.93209 3.62696
# Velocity P-wave (km/s) = 5.37294 6.78303 6.11874
#
# Compressibility (1/GPa) = 0.02911833
#
# Stress axis : x y z
#
# Youngs Moduli (GPa) = 45.35784 78.66816 57.94851
#
# Poissons Ratio (x) = 0.46111 -0.12135
# Poissons Ratio (y) = 0.26586 0.44510
# Poissons Ratio (z) = -0.09498 0.60425
#
# Static dielectric constant tensor:
#      x y z
#    x 2.035760 -0.047800 -0.035540 
#    y -0.047800 2.092480 -0.078530 
#    z -0.035540 -0.078530 1.926130 
# 
# From -- ./inp_files/372990.got.cif
#   From: 2010.05.17/outbox.cif.g08.bks.cpg/sg2_187_cif.got.tgz:372990.got - 2010.06.03 11:33:40.
