data_PCOD9067839
_publ_section_title
;
Structure prediction by ZEFSAII (Michael W. Deem and Ramdas Pophale) SiO2 
 PCOD9067839
Probable space group: P -1
;
_chemical_formula_sum "Si O2"
_cell_formula_units_Z 12
_cell_length_a 20.418526
_cell_length_b 10.104745
_cell_length_c 4.973404
_cell_angle_alpha 76.413276
_cell_angle_beta 95.043812
_cell_angle_gamma 151.031709
_cell_volume 467.757131
_symmetry_space_group_name_H-M "P -1"
_symmetry_group_IT_number 2
_symmetry_cell_setting 'triclinic'
loop_
_space_group_symop_operation_xyz
x,y,z
-x,-y,-z
loop_
_atom_site_type_symbol
_atom_site_label
_atom_site_fract_x
_atom_site_fract_y
_atom_site_fract_z
Si Si1 0.603217 0.667481 0.711164
Si Si2 0.203010 0.723862 0.384091
Si Si3 0.042092 0.427815 0.960304
Si Si4 0.345378 0.544484 0.261111
Si Si5 0.616038 0.150178 0.275394
Si Si6 0.082270 0.083216 0.736586
O O1 0.500000 0.500000 0.500000
O O2 0.673124 0.645566 0.744444
O O3 0.718775 0.995269 0.638568
O O4 0.500000 0.500000 0.000000
O O5 0.178834 0.656222 0.092485
O O6 0.283099 0.747721 0.544467
O O7 0.061499 0.463350 0.630835
O O8 0.942887 0.123575 0.145596
O O9 0.000000 0.500000 0.000000
O O10 0.244802 0.388263 0.554841
O O11 0.513304 0.863373 0.206589
O O12 0.316628 0.612379 0.004293
O O13 0.500000 0.000000 0.500000
O O14 0.000000 0.000000 0.500000
O O15 0.000000 0.000000 0.000000
#
# Coordination Sequence:
#
# PCOD9067839 Si02
#       6
#     2   2   2   2   2   2
#     4  12  25  46  73 116 152 197 252 316 394 462
#     4  12  26  48  78 107 152 195 254 316 383 463
#     4  12  28  51  77 108 151 208 257 314 382 456
#     4  11  27  47  74 111 158 199 256 324 385 471
#     4  11  26  45  76 113 151 199 249 318 409 453
#     4  12  29  50  77 112 152 207 265 318 381 455
#
# _framework density 25.654337000000002
#
# number of rings (size 3 to 8) (size 9 to 14) (size 15 to 20)
#    0.000    0.333    1.667    5.500   11.667    1.333 
#    0.000    0.000    0.000    0.000    0.000    0.000 
#    0.000    0.000    0.000    0.000    0.000    0.000 
#
# Total GULP energy -67200.125703 kJ/mol
# GULP energy per Si atom -5600.010475 kJ/mol
# Density = 2.559595 g / cm^3
# Si number density = 25.654337 Si / 1000 Ang^3
#
#
#
# Elastic Constant Matrix: (Units=GPa)
#
#
# Indices 1 2 3 4 5 6 
#
# 1 156.4631 28.0102 50.7510 -19.7816 9.2419 -23.6962
# 2 28.0102 94.0971 59.9893 -18.8799 11.5063 -13.3635
# 3 50.7510 59.9893 179.3267 -9.8849 -8.8983 -12.6142
# 4 -19.7816 -18.8799 -9.8849 58.8371 -4.8366 12.5518
# 5 9.2419 11.5063 -8.8983 -4.8366 50.5599 -6.4876
# 6 -23.6962 -13.3635 -12.6142 12.5518 -6.4876 53.7907
#
#
#
# Elastic Compliance Matrix: (Units=1/GPa)
#
#
# Indices 1 2 3 4 5 6 
#
# 1 0.007682 -0.000285 -0.001887 0.001571 -0.001219 0.002357
# 2 -0.000285 0.015152 -0.004902 0.003366 -0.003777 0.001248
# 3 -0.001887 -0.004902 0.007872 -0.000718 0.002816 0.000304
# 4 0.001571 0.003366 -0.000718 0.019162 0.000258 -0.003080
# 5 -0.001219 -0.003777 0.002816 0.000258 0.021603 0.001731
# 6 0.002357 0.001248 0.000304 -0.003080 0.001731 0.020938
#
#
# Mechanical properties :
#
#
# Convention : Reuss Voigt Hill
#
# Bulk Modulus (GPa) = 60.39330 78.59864 69.49597
# Shear Modulus (GPa) = 44.61278 52.04664 48.32971
#
# Velocity S-wave (km/s) = 4.17465 4.50907 4.34508
# Velocity P-wave (km/s) = 6.84319 7.60349 7.23333
#
# Compressibility (1/GPa) = 0.01655813
#
# Stress axis : x y z
#
# Youngs Moduli (GPa) = 130.17560 65.99898 127.03510
#
# Poissons Ratio (x) = 0.01879 0.23970
# Poissons Ratio (y) = 0.03706 0.62274
# Poissons Ratio (z) = 0.24562 0.32354
#
# Static dielectric constant tensor:
#      x y z
#    x 4.142750 5.146970 -2.765200 
#    y 5.146970 14.502700 -6.659040 
#    z -2.765200 -6.659040 5.563890 
# 
# From -- ./inp_files/106520.got.cif
#   From: 2010.05.17/outbox.cif.g08.bks.cpg/sg2_54_cif.got.tgz:106520.got - 2010.06.03 11:33:40.
