data_PCOD9067445
_publ_section_title
;
Structure prediction by ZEFSAII (Michael W. Deem and Ramdas Pophale) SiO2 
 PCOD9067445
Probable space group: P -1
;
_chemical_formula_sum "Si O2"
_cell_formula_units_Z 12
_cell_length_a 11.694965
_cell_length_b 12.750650
_cell_length_c 11.425278
_cell_angle_alpha 137.927498
_cell_angle_beta 26.101948
_cell_angle_gamma 141.677478
_cell_volume 460.330516
_symmetry_space_group_name_H-M "P -1"
_symmetry_group_IT_number 2
_symmetry_cell_setting 'triclinic'
loop_
_space_group_symop_operation_xyz
x,y,z
-x,-y,-z
loop_
_atom_site_type_symbol
_atom_site_label
_atom_site_fract_x
_atom_site_fract_y
_atom_site_fract_z
Si Si1 0.457586 0.687301 0.054868
Si Si2 0.957585 0.696079 0.945244
Si Si3 0.279118 0.329671 0.413320
Si Si4 0.498012 0.181707 0.619540
Si Si5 0.341847 0.686770 0.757371
Si Si6 0.315075 0.952629 0.250844
O O1 0.467900 0.713369 0.204210
O O2 0.409389 0.843811 0.167368
O O3 0.235484 0.499841 0.069096
O O4 0.729698 0.689209 0.734327
O O5 0.236089 0.740102 0.646508
O O6 0.063749 0.714833 0.997827
O O7 0.788017 0.812239 0.165864
O O8 0.290882 0.509954 0.594123
O O9 0.569739 0.333346 0.208057
O O10 0.011294 0.167638 0.570457
O O11 0.500000 0.000000 0.500000
O O12 0.600549 0.858097 0.619427
O O13 0.500000 0.000000 0.000000
#
# Coordination Sequence:
#
# PCOD9067445 Si02
#       6
#     2   2   2   2   2   2
#     4  12  27  49  81 115 165 213 275 343 407 488
#     4  12  27  52  81 120 161 222 269 338 415 484
#     4  11  26  50  76 118 165 219 271 339 415 475
#     4  12  29  54  83 121 158 218 279 341 410 495
#     4  11  25  49  77 115 163 215 269 332 407 492
#     4  12  26  46  76 121 162 217 276 333 408 485
#
# _framework density 26.068225999999999
#
# number of rings (size 3 to 8) (size 9 to 14) (size 15 to 20)
#    0.000    0.333    3.333    4.000    2.333    5.333 
#    6.000    0.000    0.000    0.000    0.000    0.000 
#    0.000    0.000    0.000    0.000    0.000    0.000 
#
# Total GULP energy -67172.956261 kJ/mol
# GULP energy per Si atom -5597.746355 kJ/mol
# Density = 2.600889 g / cm^3
# Si number density = 26.068226 Si / 1000 Ang^3
#
#
#
# Elastic Constant Matrix: (Units=GPa)
#
#
# Indices 1 2 3 4 5 6 
#
# 1 146.2699 28.6608 54.8412 1.6729 -17.7717 -1.9050
# 2 28.6608 184.5993 36.8003 -6.3241 -4.9586 5.0966
# 3 54.8412 36.8003 144.4818 -16.8047 10.7083 14.9368
# 4 1.6729 -6.3241 -16.8047 43.1443 -6.2661 0.7414
# 5 -17.7717 -4.9586 10.7083 -6.2661 44.5377 9.8508
# 6 -1.9050 5.0966 14.9368 0.7414 9.8508 39.6011
#
#
#
# Elastic Compliance Matrix: (Units=1/GPa)
#
#
# Indices 1 2 3 4 5 6 
#
# 1 0.008877 -0.000592 -0.003768 -0.001337 0.003982 0.000959
# 2 -0.000592 0.005806 -0.001199 0.000547 0.000899 -0.000557
# 3 -0.003768 -0.001199 0.009564 0.003340 -0.002803 -0.002999
# 4 -0.001337 0.000547 0.003340 0.025064 0.002818 -0.002565
# 5 0.003982 0.000899 -0.002803 0.002818 0.026427 -0.005493
# 6 0.000959 -0.000557 -0.002999 -0.002565 -0.005493 0.027915
#
#
# Mechanical properties :
#
#
# Convention : Reuss Voigt Hill
#
# Bulk Modulus (GPa) = 76.18117 79.55062 77.86590
# Shear Modulus (GPa) = 41.96376 49.12654 45.54515
#
# Velocity S-wave (km/s) = 4.01654 4.34583 4.18443
# Velocity P-wave (km/s) = 7.12723 7.46755 7.29937
#
# Compressibility (1/GPa) = 0.01312660
#
# Stress axis : x y z
#
# Youngs Moduli (GPa) = 112.64711 172.22108 104.56420
#
# Poissons Ratio (x) = 0.10201 0.39405
# Poissons Ratio (y) = 0.06673 0.12542
# Poissons Ratio (z) = 0.42451 0.20658
#
# Static dielectric constant tensor:
#      x y z
#    x 2.073170 -0.018120 -0.024090 
#    y -0.018120 2.035630 0.027790 
#    z -0.024090 0.027790 2.124200 
# 
# From -- ./inp_files/454058.got.cif
#   From: 2010.05.17/outbox.cif.g08.bks.cpg/sg2_228_cif.got.tgz:454058.got - 2010.06.03 11:33:40.
