data_PCOD9067716
_publ_section_title
;
Structure prediction by ZEFSAII (Michael W. Deem and Ramdas Pophale) SiO2 
 PCOD9067716
Probable space group: P -1
;
_chemical_formula_sum "Si O2"
_cell_formula_units_Z 14
_cell_length_a 12.668029
_cell_length_b 10.513019
_cell_length_c 12.315239
_cell_angle_alpha 123.402357
_cell_angle_beta 143.282696
_cell_angle_gamma 38.298720
_cell_volume 593.907901
_symmetry_space_group_name_H-M "P -1"
_symmetry_group_IT_number 2
_symmetry_cell_setting 'triclinic'
loop_
_space_group_symop_operation_xyz
x,y,z
-x,-y,-z
loop_
_atom_site_type_symbol
_atom_site_label
_atom_site_fract_x
_atom_site_fract_y
_atom_site_fract_z
Si Si1 0.185052 0.585538 0.362939
Si Si2 0.518642 0.750861 0.847684
Si Si3 0.812365 0.945096 0.659152
Si Si4 0.256062 0.681157 0.246689
Si Si5 0.857330 0.876251 0.425214
Si Si6 0.753728 0.795900 0.744180
Si Si7 0.619269 0.004379 0.950716
O O1 0.116778 0.714646 0.257517
O O2 0.472711 0.433187 0.544721
O O3 0.144902 0.428755 0.246390
O O4 0.058593 0.725439 0.431253
O O5 0.687297 0.504394 0.862168
O O6 0.312113 0.882557 0.644045
O O7 0.659970 0.824869 0.970824
O O8 0.384958 0.855606 0.901543
O O9 0.835056 0.109594 0.784015
O O10 0.529656 0.070163 0.457357
O O11 0.942229 0.845528 0.603492
O O12 0.878699 0.797910 0.744421
O O13 0.667039 0.848735 0.249157
O O14 0.751229 0.908652 0.899168
#
# Coordination Sequence:
#
# PCOD9067716 Si02
#       7
#     2   2   2   2   2   2   2
#     4  10  18  28  49  70  97 117 155 191 236 267
#     4   9  16  31  48  68  97 118 155 190 227 269
#     4   9  18  29  47  67  96 120 155 186 235 271
#     4  10  18  30  45  71  94 125 149 190 232 281
#     4   9  17  29  46  75  93 118 152 197 227 268
#     4   9  16  32  47  66  91 129 152 187 224 281
#     4   8  16  32  49  66  94 123 156 187 225 268
#
# _framework density 23.572678
#
# number of rings (size 3 to 8) (size 9 to 14) (size 15 to 20)
#    0.857    2.000    1.429    1.714    0.000    2.857 
#    0.000    3.571    0.000    0.000    0.000    5.000 
#    0.000    0.000    0.000    0.000    0.000    0.000 
#
# Total GULP energy -78163.745294 kJ/mol
# GULP energy per Si atom -5583.124664 kJ/mol
# Density = 2.351903 g / cm^3
# Si number density = 23.572678 Si / 1000 Ang^3
#
#
#
# Elastic Constant Matrix: (Units=GPa)
#
#
# Indices 1 2 3 4 5 6 
#
# 1 129.6651 55.7996 45.0414 17.8770 -32.4435 -2.2679
# 2 55.7996 57.8373 25.1894 26.3625 -20.0004 -0.5670
# 3 45.0414 25.1894 82.6465 18.1791 -20.2939 4.2028
# 4 17.8770 26.3625 18.1791 36.3825 -9.6776 -4.2651
# 5 -32.4435 -20.0004 -20.2939 -9.6776 39.0139 12.4861
# 6 -2.2679 -0.5670 4.2028 -4.2651 12.4861 32.4801
#
#
#
# Elastic Compliance Matrix: (Units=1/GPa)
#
#
# Indices 1 2 3 4 5 6 
#
# 1 0.015879 -0.014584 -0.004421 0.006315 0.004873 0.000382
# 2 -0.014584 0.044314 0.002119 -0.024741 0.007709 -0.006731
# 3 -0.004421 0.002119 0.017318 -0.006960 0.006601 -0.005964
# 4 0.006315 -0.024741 -0.006960 0.046142 -0.002095 0.007774
# 5 0.004873 0.007709 0.006601 -0.002095 0.041917 -0.016768
# 6 0.000382 -0.006731 -0.005964 0.007774 -0.016768 0.038936
#
#
# Mechanical properties :
#
#
# Convention : Reuss Voigt Hill
#
# Bulk Modulus (GPa) = 22.86220 58.02330 40.44275
# Shear Modulus (GPa) = 19.77401 31.18319 25.47860
#
# Velocity S-wave (km/s) = 2.89944 3.64105 3.29120
# Velocity P-wave (km/s) = 4.57478 6.50726 5.62464
#
# Compressibility (1/GPa) = 0.04374033
#
# Stress axis : x y z
#
# Youngs Moduli (GPa) = 62.97558 22.56624 57.74258
#
# Poissons Ratio (x) = 0.32910 0.25528
# Poissons Ratio (y) = 0.91843 -0.12237
# Poissons Ratio (z) = 0.27841 -0.04782
#
# Static dielectric constant tensor:
#      x y z
#    x 1.923930 -0.033070 0.079610 
#    y -0.033070 1.863330 -0.005890 
#    z 0.079610 -0.005890 1.980010 
# 
# From -- ./inp_files/417897.got.cif
#   From: 2010.05.17/outbox.cif.g08.bks.cpg/sg2_209_cif.got.tgz:417897.got - 2010.06.03 11:33:40.
