data_PCOD9067259
_publ_section_title
;
Structure prediction by ZEFSAII (Michael W. Deem and Ramdas Pophale) SiO2 
 PCOD9067259
Probable space group: P -1
;
_chemical_formula_sum "Si O2"
_cell_formula_units_Z 15
_cell_length_a 11.312734
_cell_length_b 8.321035
_cell_length_c 11.860035
_cell_angle_alpha 55.983659
_cell_angle_beta 48.320492
_cell_angle_gamma 38.735427
_cell_volume 519.765464
_symmetry_space_group_name_H-M "P -1"
_symmetry_group_IT_number 2
_symmetry_cell_setting 'triclinic'
loop_
_space_group_symop_operation_xyz
x,y,z
-x,-y,-z
loop_
_atom_site_type_symbol
_atom_site_label
_atom_site_fract_x
_atom_site_fract_y
_atom_site_fract_z
Si Si1 0.504343 0.174594 0.197130
Si Si2 0.910749 0.519390 0.792965
Si Si3 0.999801 0.069436 0.704387
Si Si4 0.207382 0.546453 0.679409
Si Si5 0.701082 0.739098 0.060277
Si Si6 0.000000 0.000000 0.000000
Si Si7 0.582290 0.114125 0.502707
Si Si8 0.480884 0.517213 0.222283
O O1 0.260943 0.382224 0.232131
O O2 0.597562 0.309046 0.123872
O O3 0.614902 0.985740 0.094498
O O4 0.507156 0.030353 0.361072
O O5 0.105240 0.507708 0.656819
O O6 0.783937 0.735088 0.887831
O O7 0.988077 0.251947 0.897217
O O8 0.114645 0.831251 0.637660
O O9 0.166542 0.110865 0.575717
O O10 0.762919 0.284839 0.730552
O O11 0.007839 0.983733 0.860534
O O12 0.149866 0.485966 0.855698
O O13 0.458704 0.312935 0.608691
O O14 0.558895 0.667476 0.140253
O O15 0.527266 0.328912 0.365474
#
# Coordination Sequence:
#
# PCOD9067259 Si02
#       8
#     2   2   2   2   2   1   2   2
#     4  11  27  47  76 115 156 206 259 322 382 466
#     4  12  25  49  75 114 155 207 257 319 395 459
#     4  12  26  49  81 111 157 206 249 327 388 457
#     4  11  25  48  79 112 156 207 257 321 383 462
#     4  11  25  48  75 113 159 202 260 321 386 461
#     4  12  26  48  78 112 156 194 260 320 390 462
#     4  11  27  50  77 114 157 203 265 315 381 463
#     4  12  26  50  79 114 152 208 256 323 389 456
#
# _framework density 28.859169000000001
#
# number of rings (size 3 to 8) (size 9 to 14) (size 15 to 20)
#    0.000    0.533    4.000    2.400    3.733    6.933 
#    4.800    0.000    0.000    0.000    0.000    0.000 
#    0.000    0.000    0.000    0.000    0.000    0.000 
#
# Total GULP energy -83720.237359 kJ/mol
# GULP energy per Si atom -5581.349157 kJ/mol
# Density = 2.879348 g / cm^3
# Si number density = 28.859169 Si / 1000 Ang^3
#
#
#
# Elastic Constant Matrix: (Units=GPa)
#
#
# Indices 1 2 3 4 5 6 
#
# 1 161.4289 43.3132 16.0441 0.9412 -10.3380 17.7454
# 2 43.3132 98.3092 6.2789 12.4277 2.8330 21.4967
# 3 16.0441 6.2789 101.2116 -0.2706 -9.7459 -1.4589
# 4 0.9412 12.4277 -0.2706 40.0426 -3.8217 14.3206
# 5 -10.3380 2.8330 -9.7459 -3.8217 32.7664 -8.6870
# 6 17.7454 21.4967 -1.4589 14.3206 -8.6870 52.8294
#
#
#
# Elastic Compliance Matrix: (Units=1/GPa)
#
#
# Indices 1 2 3 4 5 6 
#
# 1 0.007397 -0.003187 -0.000775 0.001466 0.002221 -0.001241
# 2 -0.003187 0.012984 -0.000729 -0.002861 -0.003759 -0.004075
# 3 -0.000775 -0.000729 0.010384 0.000147 0.003280 0.001343
# 4 0.001466 -0.002861 0.000147 0.028426 0.002306 -0.006651
# 5 0.002221 -0.003759 0.003280 0.002306 0.034353 0.005898
# 6 -0.001241 -0.004075 0.001343 -0.006651 0.005898 0.023814
#
#
# Mechanical properties :
#
#
# Convention : Reuss Voigt Hill
#
# Bulk Modulus (GPa) = 46.76605 54.69137 50.72871
# Shear Modulus (GPa) = 37.35028 44.81527 41.08277
#
# Velocity S-wave (km/s) = 3.60144 3.94495 3.77710
# Velocity P-wave (km/s) = 5.79085 6.30416 6.05295
#
# Compressibility (1/GPa) = 0.02138303
#
# Stress axis : x y z
#
# Youngs Moduli (GPa) = 135.18918 77.01808 96.30245
#
# Poissons Ratio (x) = 0.24549 0.07463
# Poissons Ratio (y) = 0.43090 0.07016
# Poissons Ratio (z) = 0.10477 0.05611
#
# Static dielectric constant tensor:
#      x y z
#    x 2.243890 0.112240 0.018840 
#    y 0.112240 2.078440 0.032360 
#    z 0.018840 0.032360 2.243000 
# 
# From -- ./inp_files/419081.got.cif
#   From: 2010.05.17/outbox.cif.g08.bks.cpg/sg2_210_cif.got.tgz:419081.got - 2010.06.03 11:33:40.
