data_PCOD9067058
_publ_section_title
;
Structure prediction by ZEFSAII (Michael W. Deem and Ramdas Pophale) SiO2 
 PCOD9067058
Probable space group: P -1
;
_chemical_formula_sum "Si O2"
_cell_formula_units_Z 14
_cell_length_a 17.852453
_cell_length_b 8.590408
_cell_length_c 5.020490
_cell_angle_alpha 99.572411
_cell_angle_beta 132.432342
_cell_angle_gamma 94.758354
_cell_volume 539.840598
_symmetry_space_group_name_H-M "P -1"
_symmetry_group_IT_number 2
_symmetry_cell_setting 'triclinic'
loop_
_space_group_symop_operation_xyz
x,y,z
-x,-y,-z
loop_
_atom_site_type_symbol
_atom_site_label
_atom_site_fract_x
_atom_site_fract_y
_atom_site_fract_z
Si Si1 0.995624 0.112744 0.267085
Si Si2 0.526238 0.351156 0.355185
Si Si3 0.882509 0.374143 0.165853
Si Si4 0.671425 0.958211 0.325790
Si Si5 0.692342 0.179780 0.950146
Si Si6 0.711077 0.530841 0.530914
Si Si7 0.775179 0.731820 0.227186
O O1 0.105102 0.251365 0.550338
O O2 0.906426 0.207610 0.070499
O O3 0.000000 0.000000 0.500000
O O4 0.000000 0.000000 0.000000
O O5 0.500000 0.500000 0.500000
O O6 0.605623 0.271601 0.685672
O O7 0.594785 0.421575 0.279255
O O8 0.426695 0.202250 0.994704
O O9 0.000000 0.500000 0.500000
O O10 0.809955 0.302110 0.230462
O O11 0.801641 0.447001 0.821539
O O12 0.763909 0.893047 0.394499
O O13 0.682915 0.032911 0.669433
O O14 0.664447 0.103055 0.150508
O O15 0.733292 0.593023 0.305329
O O16 0.718818 0.683528 0.796556
#
# Coordination Sequence:
#
# PCOD9067058 Si02
#       7
#     2   2   2   2   2   2   2
#     4  12  26  45  71 106 141 188 240 287 360 426
#     4  11  25  47  77 108 143 192 243 302 358 430
#     4  11  25  49  76 104 147 191 241 299 357 428
#     4  12  25  49  75 101 151 191 237 296 366 426
#     4  11  27  49  70 111 143 191 240 297 362 434
#     4  11  26  45  68 110 139 182 243 294 350 420
#     4  12  24  44  71 102 147 184 234 297 349 420
#
# _framework density 25.933584
#
# number of rings (size 3 to 8) (size 9 to 14) (size 15 to 20)
#    0.000    0.571    2.857    4.286    0.000    8.000 
#    0.000    0.000    0.000    0.000    0.000    0.000 
#    0.000    0.000    0.000    0.000    0.000    0.000 
#
# Total GULP energy -78448.202857 kJ/mol
# GULP energy per Si atom -5603.443061 kJ/mol
# Density = 2.587456 g / cm^3
# Si number density = 25.933584 Si / 1000 Ang^3
#
#
#
# Elastic Constant Matrix: (Units=GPa)
#
#
# Indices 1 2 3 4 5 6 
#
# 1 131.8862 63.0023 57.7028 12.4767 7.6700 -9.9829
# 2 63.0023 129.6930 45.3354 10.4768 6.4078 -17.6615
# 3 57.7028 45.3354 85.1122 21.1917 7.0949 7.8607
# 4 12.4767 10.4768 21.1917 56.7491 -2.3471 8.3982
# 5 7.6700 6.4078 7.0949 -2.3471 69.0895 8.6671
# 6 -9.9829 -17.6615 7.8607 8.3982 8.6671 80.1392
#
#
#
# Elastic Compliance Matrix: (Units=1/GPa)
#
#
# Indices 1 2 3 4 5 6 
#
# 1 0.012231 -0.003423 -0.006601 0.000170 -0.000540 0.001457
# 2 -0.003423 0.011043 -0.003664 -0.000307 -0.000587 0.002462
# 3 -0.006601 -0.003664 0.019714 -0.004824 -0.000742 -0.002978
# 4 0.000170 -0.000307 -0.004824 0.019766 0.001402 -0.001796
# 5 -0.000540 -0.000587 -0.000742 0.001402 0.014949 -0.001887
# 6 0.001457 0.002462 -0.002978 -0.001796 -0.001887 0.013887
#
#
# Mechanical properties :
#
#
# Convention : Reuss Voigt Hill
#
# Bulk Modulus (GPa) = 64.04850 75.41913 69.73382
# Shear Modulus (GPa) = 40.26776 53.23897 46.75337
#
# Velocity S-wave (km/s) = 3.94474 4.53581 4.25056
# Velocity P-wave (km/s) = 6.74527 7.52171 7.14405
#
# Compressibility (1/GPa) = 0.01561317
#
# Stress axis : x y z
#
# Youngs Moduli (GPa) = 81.75947 90.55476 50.72587
#
# Poissons Ratio (x) = 0.30995 0.33483
# Poissons Ratio (y) = 0.27985 0.18584
# Poissons Ratio (z) = 0.53968 0.33176
#
# Static dielectric constant tensor:
#      x y z
#    x 1.995060 -0.052860 0.028830 
#    y -0.052860 2.133820 0.060420 
#    z 0.028830 0.060420 2.054570 
# 
# From -- ./inp_files/107046.got.cif
#   From: 2010.05.17/outbox.cif.g08.bks.cpg/sg2_54_cif.got.tgz:107046.got - 2010.06.03 11:33:40.
