data_PCOD9067921
_publ_section_title
;
Structure prediction by ZEFSAII (Michael W. Deem and Ramdas Pophale) SiO2 
 PCOD9067921
Probable space group: P -1
;
_chemical_formula_sum "Si O2"
_cell_formula_units_Z 14
_cell_length_a 6.308636
_cell_length_b 16.063603
_cell_length_c 19.734882
_cell_angle_alpha 154.447853
_cell_angle_beta 44.852314
_cell_angle_gamma 123.980575
_cell_volume 586.612948
_symmetry_space_group_name_H-M "P -1"
_symmetry_group_IT_number 2
_symmetry_cell_setting 'triclinic'
loop_
_space_group_symop_operation_xyz
x,y,z
-x,-y,-z
loop_
_atom_site_type_symbol
_atom_site_label
_atom_site_fract_x
_atom_site_fract_y
_atom_site_fract_z
Si Si1 0.774462 0.143317 0.102768
Si Si2 0.949033 0.661995 0.569996
Si Si3 0.127621 0.683666 0.018705
Si Si4 0.160576 0.000998 0.795053
Si Si5 0.836248 0.541492 0.765940
Si Si6 0.748061 0.109936 0.727774
Si Si7 0.097428 0.670636 0.263259
O O1 0.419150 0.223844 0.261895
O O2 0.927108 0.322443 0.181744
O O3 0.856506 0.023916 0.927036
O O4 0.000000 0.000000 0.000000
O O5 0.000000 0.500000 0.500000
O O6 0.004323 0.603238 0.436149
O O7 0.229094 0.768564 0.595340
O O8 0.493484 0.648603 0.895464
O O9 0.052600 0.478333 0.857750
O O10 0.079630 0.775077 0.173683
O O11 0.938779 0.866401 0.150715
O O12 0.454513 0.070013 0.804884
O O13 0.786353 0.448324 0.781392
O O14 0.673053 0.259331 0.789871
O O15 0.902806 0.889438 0.498237
#
# Coordination Sequence:
#
# PCOD9067921 Si02
#       7
#     2   2   2   2   2   2   2
#     4  12  25  45  70 104 144 192 245 303 371 439
#     4  12  27  45  74 108 145 198 252 307 376 443
#     4  12  23  47  73 104 149 192 238 301 376 430
#     4  12  25  46  72 102 147 184 247 307 364 446
#     4  12  25  45  72 103 147 185 243 305 362 443
#     4  11  26  46  74 107 146 192 244 305 370 444
#     4  11  26  46  73 109 146 190 247 301 373 443
#
# _framework density 23.865822999999999
#
# number of rings (size 3 to 8) (size 9 to 14) (size 15 to 20)
#    0.000    0.286    2.857    5.571    4.000    3.429 
#    0.000    3.571    0.000    0.000    0.000    0.000 
#    0.000    0.000    0.000    0.000    0.000    0.000 
#
# Total GULP energy -78010.316690 kJ/mol
# GULP energy per Si atom -5572.165478 kJ/mol
# Density = 2.381150 g / cm^3
# Si number density = 23.865823 Si / 1000 Ang^3
#
#
#
# Elastic Constant Matrix: (Units=GPa)
#
#
# Indices 1 2 3 4 5 6 
#
# 1 86.5641 45.8773 36.2758 4.8680 12.5524 -0.8972
# 2 45.8773 125.0494 35.3596 -0.4136 26.1454 -4.2524
# 3 36.2758 35.3596 84.4205 -6.0970 19.3453 5.6113
# 4 4.8680 -0.4136 -6.0970 36.0974 0.7192 1.5566
# 5 12.5524 26.1454 19.3453 0.7192 50.6566 11.0261
# 6 -0.8972 -4.2524 5.6113 1.5566 11.0261 46.5963
#
#
#
# Elastic Compliance Matrix: (Units=1/GPa)
#
#
# Indices 1 2 3 4 5 6 
#
# 1 0.016390 -0.004508 -0.005491 -0.003221 0.000276 0.000608
# 2 -0.004508 0.011174 -0.001844 0.000418 -0.004428 0.002189
# 3 -0.005491 -0.001844 0.016156 0.003584 -0.003584 -0.001491
# 4 -0.003221 0.000418 0.003584 0.028818 -0.000935 -0.001197
# 5 0.000276 -0.004428 -0.003584 -0.000935 0.024593 -0.005755
# 6 0.000608 0.002189 -0.001491 -0.001197 -0.005755 0.023254
#
#
# Mechanical properties :
#
#
# Convention : Reuss Voigt Hill
#
# Bulk Modulus (GPa) = 49.91214 59.00658 54.45936
# Shear Modulus (GPa) = 33.16822 38.57150 35.86986
#
# Velocity S-wave (km/s) = 3.73202 4.02454 3.88103
# Velocity P-wave (km/s) = 6.28726 6.80983 6.55376
#
# Compressibility (1/GPa) = 0.02003520
#
# Stress axis : x y z
#
# Youngs Moduli (GPa) = 61.01399 89.49606 61.89536
#
# Poissons Ratio (x) = 0.40345 0.33985
# Poissons Ratio (y) = 0.27505 0.11410
# Poissons Ratio (z) = 0.33501 0.16499
#
# Static dielectric constant tensor:
#      x y z
#    x 1.935350 -0.034040 0.165510 
#    y -0.034040 1.852540 -0.077150 
#    z 0.165510 -0.077150 2.329970 
# 
# From -- ./inp_files/340063.got.cif
#   From: 2010.05.17/outbox.cif.g08.bks.cpg/sg2_171_cif.got.tgz:340063.got - 2010.06.03 11:33:40.
