data_PCOD9067636
_publ_section_title
;
Structure prediction by ZEFSAII (Michael W. Deem and Ramdas Pophale) SiO2 
 PCOD9067636
Probable space group: P -1
;
_chemical_formula_sum "Si O2"
_cell_formula_units_Z 11
_cell_length_a 12.110643
_cell_length_b 14.098562
_cell_length_c 11.344588
_cell_angle_alpha 21.871673
_cell_angle_beta 34.294570
_cell_angle_gamma 37.896673
_cell_volume 404.249716
_symmetry_space_group_name_H-M "P -1"
_symmetry_group_IT_number 2
_symmetry_cell_setting 'triclinic'
loop_
_space_group_symop_operation_xyz
x,y,z
-x,-y,-z
loop_
_atom_site_type_symbol
_atom_site_label
_atom_site_fract_x
_atom_site_fract_y
_atom_site_fract_z
Si Si1 0.579977 0.200856 0.287342
Si Si2 0.715377 0.168788 0.726904
Si Si3 0.000000 0.500000 0.500000
Si Si4 0.066727 0.150502 0.612938
Si Si5 0.667485 0.592592 0.106078
Si Si6 0.355975 0.302092 0.583720
O O1 0.496875 0.129371 0.568732
O O2 0.500000 0.000000 0.500000
O O3 0.821410 0.145864 0.134432
O O4 0.500000 0.500000 0.000000
O O5 0.778094 0.353401 0.356980
O O6 0.481212 0.249570 0.854299
O O7 0.849151 0.177936 0.716830
O O8 0.731967 0.864574 0.044847
O O9 0.908613 0.717241 0.436218
O O10 0.820341 0.580935 0.474903
O O11 0.188872 0.276467 0.257537
O O12 0.504403 0.486373 0.289017
#
# Coordination Sequence:
#
# PCOD9067636 Si02
#       6
#     2   2   1   2   2   2
#     4  12  27  47  78 114 166 218 265 327 416 498
#     4  11  26  48  79 117 153 213 278 337 397 489
#     4  12  28  44  80 120 166 202 274 328 414 490
#     4  12  26  52  79 123 160 214 271 337 414 491
#     4  11  25  52  78 111 163 213 272 333 412 476
#     4  12  26  47  76 118 159 212 264 343 406 487
#
# _framework density 27.210902000000001
#
# number of rings (size 3 to 8) (size 9 to 14) (size 15 to 20)
#    0.000    0.364    5.455    2.182    2.545    0.727 
#    0.000    1.818    0.000    0.000    0.000    0.000 
#    0.000    0.000    0.000    0.000    0.000    0.000 
#
# Total GULP energy -61364.283401 kJ/mol
# GULP energy per Si atom -5578.571218 kJ/mol
# Density = 2.714897 g / cm^3
# Si number density = 27.210902 Si / 1000 Ang^3
#
#
#
# Elastic Constant Matrix: (Units=GPa)
#
#
# Indices 1 2 3 4 5 6 
#
# 1 202.2291 42.6831 29.6551 -23.6738 -7.4144 -13.3471
# 2 42.6831 121.3607 36.6291 -20.8228 9.9571 -17.8799
# 3 29.6551 36.6291 133.2913 -3.4702 38.6922 -10.0707
# 4 -23.6738 -20.8228 -3.4702 32.1069 -4.1147 -0.7319
# 5 -7.4144 9.9571 38.6922 -4.1147 56.7656 -3.1798
# 6 -13.3471 -17.8799 -10.0707 -0.7319 -3.1798 41.3666
#
#
#
# Elastic Compliance Matrix: (Units=1/GPa)
#
#
# Indices 1 2 3 4 5 6 
#
# 1 0.006022 -0.000950 -0.001561 0.003993 0.002385 0.001406
# 2 -0.000950 0.010937 -0.002412 0.006258 0.000277 0.003966
# 3 -0.001561 -0.002412 0.010549 -0.002479 -0.007127 0.000430
# 4 0.003993 0.006258 -0.002479 0.038513 0.004151 0.004390
# 5 0.002385 0.000277 -0.007127 0.004151 0.023094 0.001003
# 6 0.001406 0.003966 0.000430 0.004390 0.001003 0.026601
#
#
# Mechanical properties :
#
#
# Convention : Reuss Voigt Hill
#
# Bulk Modulus (GPa) = 56.61858 74.97954 65.79906
# Shear Modulus (GPa) = 38.03688 49.24208 43.63948
#
# Velocity S-wave (km/s) = 3.74285 4.25861 4.00903
# Velocity P-wave (km/s) = 6.28737 7.19693 6.75747
#
# Compressibility (1/GPa) = 0.01766205
#
# Stress axis : x y z
#
# Youngs Moduli (GPa) = 166.05590 91.42953 94.79284
#
# Poissons Ratio (x) = 0.08688 0.14796
# Poissons Ratio (y) = 0.15780 0.22866
# Poissons Ratio (z) = 0.25920 0.22055
#
# Static dielectric constant tensor:
#      x y z
#    x 2.002420 0.046520 0.176720 
#    y 0.046520 2.284330 -0.128720 
#    z 0.176720 -0.128720 1.786940 
# 
# From -- ./inp_files/432176.got.cif
#   From: 2010.05.17/outbox.cif.g08.bks.cpg/sg2_217_cif.got.tgz:432176.got - 2010.06.03 11:33:40.
