data_PCOD9067334
_publ_section_title
;
Structure prediction by ZEFSAII (Michael W. Deem and Ramdas Pophale) SiO2 
 PCOD9067334
Probable space group: P -1
;
_chemical_formula_sum "Si O2"
_cell_formula_units_Z 16
_cell_length_a 14.679880
_cell_length_b 10.393687
_cell_length_c 6.777315
_cell_angle_alpha 78.849576
_cell_angle_beta 132.144486
_cell_angle_gamma 123.718172
_cell_volume 610.255850
_symmetry_space_group_name_H-M "P -1"
_symmetry_group_IT_number 2
_symmetry_cell_setting 'triclinic'
loop_
_space_group_symop_operation_xyz
x,y,z
-x,-y,-z
loop_
_atom_site_type_symbol
_atom_site_label
_atom_site_fract_x
_atom_site_fract_y
_atom_site_fract_z
Si Si1 0.126529 0.199092 0.380091
Si Si2 0.194029 0.063712 0.853946
Si Si3 0.413894 0.515549 0.058533
Si Si4 0.825497 0.435384 0.224950
Si Si5 0.352011 0.250028 0.369311
Si Si6 0.845288 0.485953 0.794186
Si Si7 0.692207 0.070620 0.209373
Si Si8 0.410107 0.883205 0.587643
O O1 0.209442 0.203098 0.701137
O O2 0.205384 0.188602 0.306040
O O3 0.269355 0.517558 0.801717
O O4 0.960706 0.039421 0.221908
O O5 0.187508 0.947481 0.713827
O O6 0.321105 0.126142 0.187627
O O7 0.385097 0.391428 0.226351
O O8 0.524223 0.682637 0.297888
O O9 0.500000 0.500000 0.000000
O O10 0.871775 0.644462 0.692867
O O11 0.733891 0.242846 0.153487
O O12 0.000000 0.500000 0.500000
O O13 0.821684 0.494857 0.987251
O O14 0.703998 0.305853 0.575834
O O15 0.000000 0.500000 0.000000
O O16 0.686327 0.071217 0.436447
O O17 0.536433 0.927042 0.923397
O O18 0.500000 0.000000 0.500000
#
# Coordination Sequence:
#
# PCOD9067334 Si02
#       8
#     2   2   2   2   2   2   2   2
#     4  11  26  52  77 118 166 218 288 348 427 511
#     4  11  27  49  78 117 167 219 281 351 426 510
#     4  11  27  50  83 122 166 219 285 359 432 514
#     4  12  27  53  84 125 169 219 288 356 431 512
#     4  11  25  48  79 115 162 223 277 347 426 513
#     4  12  26  52  84 120 162 224 282 353 429 516
#     4  11  27  48  78 120 159 220 267 346 427 506
#     4  11  26  49  79 116 164 208 270 345 421 513
#
# _framework density 26.218510999999999
#
# number of rings (size 3 to 8) (size 9 to 14) (size 15 to 20)
#    0.000    0.750    2.500    2.625    1.750   12.000 
#    6.750    1.875    0.000    0.000    0.000    0.000 
#    0.000    0.000    0.000    0.000    0.000    0.000 
#
# Total GULP energy -89501.002725 kJ/mol
# GULP energy per Si atom -5593.812670 kJ/mol
# Density = 2.615884 g / cm^3
# Si number density = 26.218511 Si / 1000 Ang^3
#
#
#
# Elastic Constant Matrix: (Units=GPa)
#
#
# Indices 1 2 3 4 5 6 
#
# 1 181.8113 67.0174 45.8507 -14.0583 -10.5486 2.5761
# 2 67.0174 181.5071 59.5173 -33.1877 0.1906 14.5391
# 3 45.8507 59.5173 141.1479 -15.0410 -20.7479 -0.5330
# 4 -14.0583 -33.1877 -15.0410 40.1020 12.1847 3.9136
# 5 -10.5486 0.1906 -20.7479 12.1847 39.5577 -4.3284
# 6 2.5761 14.5391 -0.5330 3.9136 -4.3284 48.0698
#
#
#
# Elastic Compliance Matrix: (Units=1/GPa)
#
#
# Indices 1 2 3 4 5 6 
#
# 1 0.006625 -0.002204 -0.001056 -0.000363 0.001385 0.000454
# 2 -0.002204 0.008949 -0.003005 0.007343 -0.004869 -0.003658
# 3 -0.001056 -0.003005 0.009342 -0.001073 0.005140 0.001619
# 4 -0.000363 0.007343 -0.001073 0.034749 -0.012069 -0.006129
# 5 0.001385 -0.004869 0.005140 -0.012069 0.032675 0.005380
# 6 0.000454 -0.003658 0.001619 -0.006129 0.005380 0.022887
#
#
# Mechanical properties :
#
#
# Convention : Reuss Voigt Hill
#
# Bulk Modulus (GPa) = 80.73060 94.35971 87.54516
# Shear Modulus (GPa) = 37.91186 47.68460 42.79823
#
# Velocity S-wave (km/s) = 3.80675 4.26929 4.04464
# Velocity P-wave (km/s) = 7.08379 7.76984 7.43473
#
# Compressibility (1/GPa) = 0.01238688
#
# Stress axis : x y z
#
# Youngs Moduli (GPa) = 150.94847 111.74186 107.04092
#
# Poissons Ratio (x) = 0.24627 0.11305
# Poissons Ratio (y) = 0.33267 0.32162
# Poissons Ratio (z) = 0.15942 0.33575
#
# Static dielectric constant tensor:
#      x y z
#    x 2.149210 -0.014350 0.000350 
#    y -0.014350 2.068380 0.061840 
#    z 0.000350 0.061840 2.160280 
# 
# From -- ./inp_files/80202.got.cif
#   From: 2010.05.17/outbox.cif.g08.bks.cpg/sg2_41_cif.got.tgz:80202.got - 2010.06.03 11:33:40.
