data_PCOD9067180
_publ_section_title
;
Structure prediction by ZEFSAII (Michael W. Deem and Ramdas Pophale) SiO2 
 PCOD9067180
Probable space group: P -1
;
_chemical_formula_sum "Si O2"
_cell_formula_units_Z 13
_cell_length_a 9.787963
_cell_length_b 15.565042
_cell_length_c 13.254292
_cell_angle_alpha 150.874472
_cell_angle_beta 130.697485
_cell_angle_gamma 37.383528
_cell_volume 590.655453
_symmetry_space_group_name_H-M "P -1"
_symmetry_group_IT_number 2
_symmetry_cell_setting 'triclinic'
loop_
_space_group_symop_operation_xyz
x,y,z
-x,-y,-z
loop_
_atom_site_type_symbol
_atom_site_label
_atom_site_fract_x
_atom_site_fract_y
_atom_site_fract_z
Si Si1 0.778466 0.707941 0.551119
Si Si2 0.731233 0.432160 0.089892
Si Si3 0.036915 0.271430 0.888025
Si Si4 0.192026 0.920146 0.093836
Si Si5 0.476260 0.876926 0.770241
Si Si6 0.500000 0.500000 0.500000
Si Si7 0.678928 0.552263 0.849582
O O1 0.689135 0.605828 0.331890
O O2 0.614588 0.851921 0.712845
O O3 0.000000 0.500000 0.500000
O O4 0.817779 0.865126 0.669638
O O5 0.500000 0.500000 0.000000
O O6 0.851342 0.189960 0.949598
O O7 0.889117 0.416451 0.062446
O O8 0.854707 0.334458 0.778701
O O9 0.214180 0.021664 0.757598
O O10 0.193931 0.337310 0.992369
O O11 0.441793 0.722107 0.968895
O O12 0.000000 0.000000 0.000000
O O13 0.565288 0.639397 0.610082
O O14 0.500000 0.000000 0.000000
O O15 0.618877 0.510616 0.670181
#
# Coordination Sequence:
#
# PCOD9067180 Si02
#       7
#     2   2   2   2   2   1   2
#     4  12  26  45  75 104 147 196 240 299 370 431
#     4  12  27  48  71 108 151 188 243 304 370 433
#     4  11  25  49  74 102 157 188 233 316 366 424
#     4  12  25  46  76 105 145 194 245 301 360 441
#     4  12  25  46  73 110 146 191 245 303 360 431
#     4  12  26  40  76 104 136 184 256 282 360 434
#     4  11  25  48  72 108 145 192 245 303 363 440
#
# _framework density 22.009446000000001
#
# number of rings (size 3 to 8) (size 9 to 14) (size 15 to 20)
#    0.000    0.308    6.154    1.846    2.154    1.231 
#    0.000    0.000    0.000    0.000    0.000    0.000 
#    0.000    0.000    0.000    0.000    0.000    0.000 
#
# Total GULP energy -72449.232267 kJ/mol
# GULP energy per Si atom -5573.017867 kJ/mol
# Density = 2.195935 g / cm^3
# Si number density = 22.009446 Si / 1000 Ang^3
#
#
#
# Elastic Constant Matrix: (Units=GPa)
#
#
# Indices 1 2 3 4 5 6 
#
# 1 66.1532 6.0669 1.7706 3.8698 -3.5625 -1.6016
# 2 6.0669 129.8295 34.9488 -19.7071 -13.3363 -3.2118
# 3 1.7706 34.9488 82.4511 -22.8918 11.4804 -0.1381
# 4 3.8698 -19.7071 -22.8918 31.7384 4.9704 1.7553
# 5 -3.5625 -13.3363 11.4804 4.9704 41.1500 7.8006
# 6 -1.6016 -3.2118 -0.1381 1.7553 7.8006 45.9416
#
#
#
# Elastic Compliance Matrix: (Units=1/GPa)
#
#
# Indices 1 2 3 4 5 6 
#
# 1 0.015532 -0.000729 -0.001270 -0.003567 0.001834 0.000311
# 2 -0.000729 0.009559 -0.003822 0.002680 0.003799 -0.000116
# 3 -0.001270 -0.003822 0.018281 0.012192 -0.008043 0.000643
# 4 -0.003567 0.002680 0.012192 0.043676 -0.008080 -0.000197
# 5 0.001834 0.003799 -0.008043 -0.008080 0.029753 -0.004438
# 6 0.000311 -0.000116 0.000643 -0.000197 -0.004438 0.022532
#
#
# Mechanical properties :
#
#
# Convention : Reuss Voigt Hill
#
# Bulk Modulus (GPa) = 31.51382 40.44516 35.97949
# Shear Modulus (GPa) = 30.94966 39.47583 35.21275
#
# Velocity S-wave (km/s) = 3.75400 4.23967 4.00420
# Velocity P-wave (km/s) = 5.75668 6.51019 6.14500
#
# Compressibility (1/GPa) = 0.03173211
#
# Stress axis : x y z
#
# Youngs Moduli (GPa) = 64.38212 104.60928 54.70022
#
# Poissons Ratio (x) = 0.07630 0.06945
# Poissons Ratio (y) = 0.04696 0.20904
# Poissons Ratio (z) = 0.08174 0.39977
#
# Static dielectric constant tensor:
#      x y z
#    x 1.837810 0.015170 0.025580 
#    y 0.015170 1.863040 0.062130 
#    z 0.025580 0.062130 1.799540 
# 
# From -- ./inp_files/190857.got.cif
#   From: 2010.05.17/outbox.cif.g08.bks.cpg/sg2_96_cif.got.tgz:190857.got - 2010.06.03 11:33:40.
