data_PCOD9067681
_publ_section_title
;
Structure prediction by ZEFSAII (Michael W. Deem and Ramdas Pophale) SiO2 
 PCOD9067681
Probable space group: P -1
;
_chemical_formula_sum "Si O2"
_cell_formula_units_Z 14
_cell_length_a 20.640417
_cell_length_b 10.680089
_cell_length_c 5.047611
_cell_angle_alpha 72.042698
_cell_angle_beta 66.863984
_cell_angle_gamma 34.427521
_cell_volume 578.220587
_symmetry_space_group_name_H-M "P -1"
_symmetry_group_IT_number 2
_symmetry_cell_setting 'triclinic'
loop_
_space_group_symop_operation_xyz
x,y,z
-x,-y,-z
loop_
_atom_site_type_symbol
_atom_site_label
_atom_site_fract_x
_atom_site_fract_y
_atom_site_fract_z
Si Si1 0.609619 0.345706 0.126683
Si Si2 0.131679 0.267181 0.352611
Si Si3 0.141295 0.088686 0.950596
Si Si4 0.046581 0.849637 0.771669
Si Si5 0.684032 0.622151 0.478330
Si Si6 0.334532 0.177257 0.118383
Si Si7 0.499267 0.272389 0.573631
O O1 0.605513 0.202194 0.337711
O O2 0.575417 0.509953 0.280439
O O3 0.746063 0.162634 0.954008
O O4 0.500000 0.500000 0.000000
O O5 0.164219 0.096981 0.605882
O O6 0.221454 0.251633 0.260217
O O7 0.000000 0.500000 0.500000
O O8 0.132896 0.223832 0.073544
O O9 0.020261 0.189532 0.092178
O O10 0.187236 0.619424 0.668624
O O11 0.000000 0.000000 0.500000
O O12 0.000000 0.000000 0.000000
O O13 0.686454 0.672336 0.739400
O O14 0.585142 0.660674 0.558570
O O15 0.649995 0.792413 0.222384
O O16 0.445287 0.925675 0.208237
#
# Coordination Sequence:
#
# PCOD9067681 Si02
#       7
#     2   2   2   2   2   2   2
#     4  11  26  43  73  99 140 182 239 288 339 411
#     4  12  24  44  71 100 138 179 231 279 348 409
#     4  12  25  45  70 102 136 179 230 289 341 401
#     4  12  26  46  71 102 140 181 233 282 345 412
#     4  12  27  45  72 102 142 182 229 282 351 415
#     4  12  25  46  69 104 141 181 230 285 346 414
#     4  11  26  45  68 104 136 188 232 286 346 409
#
# _framework density 24.212212000000001
#
# number of rings (size 3 to 8) (size 9 to 14) (size 15 to 20)
#    0.000    0.286    1.429    7.286    8.000    0.000 
#    0.000    0.000    0.000    0.000    0.000    0.000 
#    0.000    0.000    0.000    0.000    0.000    0.000 
#
# Total GULP energy -78484.415128 kJ/mol
# GULP energy per Si atom -5606.029652 kJ/mol
# Density = 2.415710 g / cm^3
# Si number density = 24.212212 Si / 1000 Ang^3
#
#
#
# Elastic Constant Matrix: (Units=GPa)
#
#
# Indices 1 2 3 4 5 6 
#
# 1 152.0535 26.6519 5.3114 22.9639 7.8075 -2.7298
# 2 26.6519 88.7136 -6.7698 8.1273 4.0777 -17.4311
# 3 5.3114 -6.7698 77.8460 -1.4595 11.7407 6.2735
# 4 22.9639 8.1273 -1.4595 45.5411 4.1680 2.4128
# 5 7.8075 4.0777 11.7407 4.1680 37.2059 7.0587
# 6 -2.7298 -17.4311 6.2735 2.4128 7.0587 39.6460
#
#
#
# Elastic Compliance Matrix: (Units=1/GPa)
#
#
# Indices 1 2 3 4 5 6 
#
# 1 0.007491 -0.001929 -0.000630 -0.003386 -0.000805 0.000117
# 2 -0.001929 0.013382 0.001140 -0.001481 -0.002411 0.006090
# 3 -0.000630 0.001140 0.013729 0.000997 -0.004243 -0.001020
# 4 -0.003386 -0.001481 0.000997 0.024238 -0.001738 -0.002208
# 5 -0.000805 -0.002411 -0.004243 -0.001738 0.029919 -0.005665
# 6 0.000117 0.006090 -0.001020 -0.002208 -0.005665 0.029213
#
#
# Mechanical properties :
#
#
# Convention : Reuss Voigt Hill
#
# Bulk Modulus (GPa) = 31.48116 41.00001 36.24058
# Shear Modulus (GPa) = 38.05244 44.03990 41.04617
#
# Velocity S-wave (km/s) = 3.96867 4.26950 4.12183
# Velocity P-wave (km/s) = 5.83360 6.42458 6.13621
#
# Compressibility (1/GPa) = 0.03176503
#
# Stress axis : x y z
#
# Youngs Moduli (GPa) = 133.48462 74.72882 72.83911
#
# Poissons Ratio (x) = 0.14412 0.04592
# Poissons Ratio (y) = 0.25743 -0.08307
# Poissons Ratio (z) = 0.08415 -0.08522
#
# Static dielectric constant tensor:
#      x y z
#    x 1.881780 -0.007280 -0.031410 
#    y -0.007280 1.946800 -0.061500 
#    z -0.031410 -0.061500 1.957700 
# 
# From -- ./inp_files/106672.got.cif
#   From: 2010.05.17/outbox.cif.g08.bks.cpg/sg2_54_cif.got.tgz:106672.got - 2010.06.03 11:33:40.
