data_PCOD9067536
_publ_section_title
;
Structure prediction by ZEFSAII (Michael W. Deem and Ramdas Pophale) SiO2 
 PCOD9067536
Probable space group: P -1
;
_chemical_formula_sum "Si O2"
_cell_formula_units_Z 16
_cell_length_a 4.921628
_cell_length_b 14.572976
_cell_length_c 15.695473
_cell_angle_alpha 33.707876
_cell_angle_beta 98.749012
_cell_angle_gamma 99.988517
_cell_volume 615.197485
_symmetry_space_group_name_H-M "P -1"
_symmetry_group_IT_number 2
_symmetry_cell_setting 'triclinic'
loop_
_space_group_symop_operation_xyz
x,y,z
-x,-y,-z
loop_
_atom_site_type_symbol
_atom_site_label
_atom_site_fract_x
_atom_site_fract_y
_atom_site_fract_z
Si Si1 0.956011 0.442765 0.212311
Si Si2 0.051845 0.074661 0.851798
Si Si3 0.426371 0.379795 0.708807
Si Si4 0.603276 0.299724 0.610599
Si Si5 0.599479 0.639770 0.827924
Si Si6 0.418209 0.055314 0.286793
Si Si7 0.144163 0.178425 0.552858
Si Si8 0.305928 0.775437 0.997718
O O1 0.484891 0.686578 0.145647
O O2 0.102549 0.380366 0.182082
O O3 0.631007 0.397030 0.227247
O O4 0.057245 0.636935 0.071204
O O5 0.246624 0.235466 0.763347
O O6 0.776754 0.141595 0.749184
O O7 0.183159 0.931310 0.916436
O O8 0.000000 0.000000 0.000000
O O9 0.655700 0.392123 0.634118
O O10 0.300749 0.555633 0.564417
O O11 0.073103 0.340765 0.373895
O O12 0.311701 0.234108 0.603219
O O13 0.591767 0.816315 0.735720
O O14 0.500000 0.500000 0.000000
O O15 0.522330 0.161871 0.125625
O O16 0.645591 0.924692 0.410829
O O17 0.874482 0.052171 0.650990
#
# Coordination Sequence:
#
# PCOD9067536 Si02
#       8
#     2   2   2   2   2   2   2   2
#     4  12  28  53  85 119 166 216 272 338 414 499
#     4  12  27  47  78 118 163 214 278 340 404 485
#     4  11  25  50  76 113 157 218 268 335 406 481
#     4  11  26  50  76 114 161 217 267 336 405 481
#     4  12  27  53  84 123 163 207 272 342 421 486
#     4  12  30  50  85 119 161 211 272 347 414 488
#     4  12  29  52  79 124 163 212 277 339 408 492
#     4  12  27  51  81 122 160 221 277 338 409 492
#
# _framework density 26.007909000000001
#
# number of rings (size 3 to 8) (size 9 to 14) (size 15 to 20)
#    0.000    0.250    3.750    3.375    7.000    4.000 
#    2.250    0.000    0.000    0.000    0.000    0.000 
#    0.000    0.000    0.000    0.000    0.000    0.000 
#
# Total GULP energy -89698.169669 kJ/mol
# GULP energy per Si atom -5606.135604 kJ/mol
# Density = 2.594871 g / cm^3
# Si number density = 26.007909 Si / 1000 Ang^3
#
#
#
# Elastic Constant Matrix: (Units=GPa)
#
#
# Indices 1 2 3 4 5 6 
#
# 1 105.4904 34.1165 39.3666 -12.8591 3.0499 10.3606
# 2 34.1165 103.7203 50.6307 -22.3239 -8.0243 -1.2006
# 3 39.3666 50.6307 168.3236 -15.8631 7.5099 10.9966
# 4 -12.8591 -22.3239 -15.8631 49.9439 19.5277 1.6395
# 5 3.0499 -8.0243 7.5099 19.5277 40.3377 -1.2090
# 6 10.3606 -1.2006 10.9966 1.6395 -1.2090 41.0790
#
#
#
# Elastic Compliance Matrix: (Units=1/GPa)
#
#
# Indices 1 2 3 4 5 6 
#
# 1 0.011525 -0.002867 -0.001328 0.002289 -0.002386 -0.002797
# 2 -0.002867 0.012984 -0.003129 0.003289 0.001846 0.001863
# 3 -0.001328 -0.003129 0.007629 0.001886 -0.002914 -0.001960
# 4 0.002289 0.003289 0.001886 0.028051 -0.013525 -0.002504
# 5 -0.002386 0.001846 -0.002914 -0.013525 0.032516 0.002933
# 6 -0.002797 0.001863 -0.001960 -0.002504 0.002933 0.025814
#
#
# Mechanical properties :
#
#
# Convention : Reuss Voigt Hill
#
# Bulk Modulus (GPa) = 57.17850 69.52910 63.35380
# Shear Modulus (GPa) = 35.97199 43.16681 39.56940
#
# Velocity S-wave (km/s) = 3.72306 4.07843 3.90479
# Velocity P-wave (km/s) = 6.36509 6.99786 6.68896
#
# Compressibility (1/GPa) = 0.01748909
#
# Stress axis : x y z
#
# Youngs Moduli (GPa) = 86.76760 77.01782 131.08584
#
# Poissons Ratio (x) = 0.22080 0.17411
# Poissons Ratio (y) = 0.24875 0.41019
# Poissons Ratio (z) = 0.11524 0.24100
#
# Static dielectric constant tensor:
#      x y z
#    x 1.505220 0.220100 0.447450 
#    y 0.220100 1.920940 -0.188400 
#    z 0.447450 -0.188400 1.713870 
# 
# From -- ./inp_files/548814.got.cif
#   From: 2010.05.17/outbox.cif.g08.bks.cpg/sg2_275_cif.got.tgz:548814.got - 2010.06.03 11:33:40.
