data_PCOD9067803
_publ_section_title
;
Structure prediction by ZEFSAII (Michael W. Deem and Ramdas Pophale) SiO2 
 PCOD9067803
Probable space group: P -1
;
_chemical_formula_sum "Si O2"
_cell_formula_units_Z 16
_cell_length_a 17.490468
_cell_length_b 9.246383
_cell_length_c 9.737485
_cell_angle_alpha 91.428141
_cell_angle_beta 87.943944
_cell_angle_gamma 149.969661
_cell_volume 787.545744
_symmetry_space_group_name_H-M "P -1"
_symmetry_group_IT_number 2
_symmetry_cell_setting 'triclinic'
loop_
_space_group_symop_operation_xyz
x,y,z
-x,-y,-z
loop_
_atom_site_type_symbol
_atom_site_label
_atom_site_fract_x
_atom_site_fract_y
_atom_site_fract_z
Si Si1 0.482005 0.037622 0.348526
Si Si2 0.014718 0.950791 0.348502
Si Si3 0.771649 0.503942 0.137730
Si Si4 0.550724 0.673223 0.131878
Si Si5 0.571849 0.710135 0.622972
Si Si6 0.305017 0.525751 0.170758
Si Si7 0.117930 0.645569 0.882259
Si Si8 0.061843 0.696486 0.378332
O O1 0.624769 0.252331 0.240614
O O2 0.457673 0.167451 0.378048
O O3 0.500000 0.000000 0.500000
O O4 0.350533 0.742444 0.261272
O O5 0.000395 0.758914 0.381979
O O6 0.889513 0.783476 0.235268
O O7 0.172350 0.236213 0.263988
O O8 0.000000 0.000000 0.500000
O O9 0.837673 0.450729 0.109709
O O10 0.739229 0.513681 0.987022
O O11 0.514417 0.501762 0.249514
O O12 0.446858 0.646207 0.158657
O O13 0.725693 0.008750 0.120171
O O14 0.500000 0.500000 0.000000
O O15 0.500000 0.500000 0.500000
O O16 0.754929 0.994031 0.628765
O O17 0.018410 0.506525 0.750649
O O18 0.000000 0.500000 0.000000
O O19 0.000000 0.500000 0.500000
#
# Coordination Sequence:
#
# PCOD9067803 Si02
#       8
#     2   2   2   2   2   2   2   2
#     4  12  27  46  76 104 145 192 237 303 367 433
#     4  11  26  47  72 104 146 189 239 301 364 436
#     4  11  26  45  73 106 141 193 242 293 370 435
#     4  12  25  46  74 105 144 189 243 303 360 427
#     4  12  27  46  74 107 142 187 246 297 364 432
#     4  12  25  48  73 104 148 187 249 301 358 444
#     4  11  26  46  72 103 146 189 240 299 364 439
#     4  11  26  46  70 103 143 189 240 294 366 433
#
# _framework density 20.316281
#
# number of rings (size 3 to 8) (size 9 to 14) (size 15 to 20)
#    0.000    0.500    2.500    4.500   12.250    0.000 
#    4.500    0.000    0.000    0.000    0.000    0.000 
#    0.000    0.000    0.000    0.000    0.000    0.000 
#
# Total GULP energy -89371.619024 kJ/mol
# GULP energy per Si atom -5585.726189 kJ/mol
# Density = 2.027004 g / cm^3
# Si number density = 20.316281 Si / 1000 Ang^3
#
#
#
# Elastic Constant Matrix: (Units=GPa)
#
#
# Indices 1 2 3 4 5 6 
#
# 1 70.2074 20.0739 51.4589 7.6116 13.0439 -21.0264
# 2 20.0739 150.0472 79.6734 13.2944 5.6576 2.7540
# 3 51.4589 79.6734 221.7712 8.3911 9.2902 -15.3077
# 4 7.6116 13.2944 8.3911 43.6798 -5.1001 -2.6076
# 5 13.0439 5.6576 9.2902 -5.1001 29.6482 1.0474
# 6 -21.0264 2.7540 -15.3077 -2.6076 1.0474 33.7326
#
#
#
# Elastic Compliance Matrix: (Units=1/GPa)
#
#
# Indices 1 2 3 4 5 6 
#
# 1 0.023268 -0.000692 -0.003706 -0.003529 -0.010007 0.012916
# 2 -0.000692 0.008621 -0.003009 -0.002162 -0.000676 -0.002647
# 3 -0.003706 -0.003009 0.006489 0.000393 0.000207 0.000904
# 4 -0.003529 -0.002162 0.000393 0.024798 0.006112 -0.000118
# 5 -0.010007 -0.000676 0.000207 0.006112 0.039489 -0.006842
# 6 0.012916 -0.002647 0.000904 -0.000118 -0.006842 0.038526
#
#
# Mechanical properties :
#
#
# Convention : Reuss Voigt Hill
#
# Bulk Modulus (GPa) = 42.43917 82.71535 62.57726
# Shear Modulus (GPa) = 30.51417 40.80009 35.65713
#
# Velocity S-wave (km/s) = 3.87971 4.48621 4.19394
# Velocity P-wave (km/s) = 6.40345 8.22417 7.37025
#
# Compressibility (1/GPa) = 0.02356314
#
# Stress axis : x y z
#
# Youngs Moduli (GPa) = 42.97775 116.00218 154.10773
#
# Poissons Ratio (x) = 0.08027 0.57114
# Poissons Ratio (y) = 0.02974 0.46371
# Poissons Ratio (z) = 0.15928 0.34905
#
# Static dielectric constant tensor:
#      x y z
#    x 1.719030 0.022970 0.008700 
#    y 0.022970 1.741210 0.021220 
#    z 0.008700 0.021220 1.651160 
# 
# From -- ./inp_files/190834.got.cif
#   From: 2010.05.17/outbox.cif.g08.bks.cpg/sg2_96_cif.got.tgz:190834.got - 2010.06.03 11:33:40.
