data_PCOD9067310
_publ_section_title
;
Structure prediction by ZEFSAII (Michael W. Deem and Ramdas Pophale) SiO2 
 PCOD9067310
Probable space group: P -1
;
_chemical_formula_sum "Si O2"
_cell_formula_units_Z 16
_cell_length_a 6.425485
_cell_length_b 7.832389
_cell_length_c 18.149435
_cell_angle_alpha 53.084113
_cell_angle_beta 66.674706
_cell_angle_gamma 63.721115
_cell_volume 643.948507
_symmetry_space_group_name_H-M "P -1"
_symmetry_group_IT_number 2
_symmetry_cell_setting 'triclinic'
loop_
_space_group_symop_operation_xyz
x,y,z
-x,-y,-z
loop_
_atom_site_type_symbol
_atom_site_label
_atom_site_fract_x
_atom_site_fract_y
_atom_site_fract_z
Si Si1 0.373377 0.841089 0.386403
Si Si2 0.882201 0.937404 0.151879
Si Si3 0.097550 0.314397 0.278713
Si Si4 0.738460 0.825713 0.982787
Si Si5 0.723564 0.547672 0.186496
Si Si6 0.132843 0.509308 0.582601
Si Si7 0.580893 0.680778 0.894084
Si Si8 0.232771 0.699080 0.292277
O O1 0.213138 0.711136 0.485137
O O2 0.642440 0.707408 0.399930
O O3 0.327384 0.826309 0.309480
O O4 0.272653 0.100730 0.347009
O O5 0.813353 0.746132 0.162933
O O6 0.033314 0.837372 0.229126
O O7 0.642333 0.126047 0.152114
O O8 0.051108 0.068138 0.056194
O O9 0.259876 0.411642 0.175391
O O10 0.889870 0.310536 0.250720
O O11 0.935448 0.435029 0.337132
O O12 0.753791 0.600068 0.083631
O O13 0.715152 0.787537 0.909290
O O14 0.500000 0.000000 0.000000
O O15 0.457742 0.579937 0.242106
O O16 0.890736 0.461877 0.603484
O O17 0.500000 0.500000 0.000000
#
# Coordination Sequence:
#
# PCOD9067310 Si02
#       8
#     2   2   2   2   2   2   2   2
#     4  11  25  49  74 111 138 185 247 295 372 435
#     4  12  23  45  71  99 143 196 240 297 359 422
#     4  12  25  48  71 103 149 187 238 294 367 426
#     4  12  25  43  72 101 143 198 248 292 357 430
#     4  12  25  42  72 102 139 192 241 295 357 427
#     4  11  25  48  78 101 147 188 231 310 364 441
#     4  12  29  45  67 111 147 190 245 303 354 429
#     4  12  22  44  73 105 140 184 239 292 372 432
#
# _framework density 24.846706999999999
#
# number of rings (size 3 to 8) (size 9 to 14) (size 15 to 20)
#    0.000    0.250    5.000    4.125    3.500    3.000 
#    2.250    0.625    0.000    0.000    0.000    0.000 
#    0.000    0.000    0.000    0.000    0.000    0.000 
#
# Total GULP energy -89470.534149 kJ/mol
# GULP energy per Si atom -5591.908384 kJ/mol
# Density = 2.479016 g / cm^3
# Si number density = 24.846707 Si / 1000 Ang^3
#
#
#
# Elastic Constant Matrix: (Units=GPa)
#
#
# Indices 1 2 3 4 5 6 
#
# 1 89.0642 24.7490 27.2496 8.8316 -20.4439 -7.3533
# 2 24.7490 70.2169 36.5274 6.5493 -5.6275 -26.8233
# 3 27.2496 36.5274 148.7563 9.7115 -29.9702 -17.8796
# 4 8.8316 6.5493 9.7115 39.7831 -8.0381 3.7699
# 5 -20.4439 -5.6275 -29.9702 -8.0381 52.1914 4.9609
# 6 -7.3533 -26.8233 -17.8796 3.7699 4.9609 43.3827
#
#
#
# Elastic Compliance Matrix: (Units=1/GPa)
#
#
# Indices 1 2 3 4 5 6 
#
# 1 0.013701 -0.004490 -0.000560 -0.001155 0.004488 -0.001097
# 2 -0.004490 0.022505 -0.003617 -0.003629 -0.003140 0.012338
# 3 -0.000560 -0.003617 0.008702 -0.000632 0.004212 0.000829
# 4 -0.001155 -0.003629 -0.000632 0.027378 0.003531 -0.005483
# 5 0.004488 -0.003140 0.004212 0.003531 0.023777 -0.002471
# 6 -0.001097 0.012338 0.000829 -0.005483 -0.002471 0.031594
#
#
# Mechanical properties :
#
#
# Convention : Reuss Voigt Hill
#
# Bulk Modulus (GPa) = 36.26235 53.89883 45.08059
# Shear Modulus (GPa) = 32.42944 41.70551 37.06747
#
# Velocity S-wave (km/s) = 3.61665 4.10141 3.86663
# Velocity P-wave (km/s) = 5.66271 6.64593 6.17392
#
# Compressibility (1/GPa) = 0.02757681
#
# Stress axis : x y z
#
# Youngs Moduli (GPa) = 72.98900 44.43372 114.90956
#
# Poissons Ratio (x) = 0.19949 0.06431
# Poissons Ratio (y) = 0.32769 0.41559
# Poissons Ratio (z) = 0.04085 0.16070
#
# Static dielectric constant tensor:
#      x y z
#    x 2.078250 0.060460 0.004580 
#    y 0.060460 2.065040 -0.068570 
#    z 0.004580 -0.068570 2.016180 
# 
# From -- ./inp_files/123028.got.cif
#   From: 2010.05.17/outbox.cif.g08.bks.cpg/sg2_62_cif.got.tgz:123028.got - 2010.06.03 11:33:40.
