data_PCOD9067175
_publ_section_title
;
Structure prediction by ZEFSAII (Michael W. Deem and Ramdas Pophale) SiO2 
 PCOD9067175
Probable space group: P -1
;
_chemical_formula_sum "Si O2"
_cell_formula_units_Z 16
_cell_length_a 8.337058
_cell_length_b 9.294607
_cell_length_c 13.418080
_cell_angle_alpha 82.397201
_cell_angle_beta 134.471398
_cell_angle_gamma 114.873532
_cell_volume 651.636240
_symmetry_space_group_name_H-M "P -1"
_symmetry_group_IT_number 2
_symmetry_cell_setting 'triclinic'
loop_
_space_group_symop_operation_xyz
x,y,z
-x,-y,-z
loop_
_atom_site_type_symbol
_atom_site_label
_atom_site_fract_x
_atom_site_fract_y
_atom_site_fract_z
Si Si1 0.461048 0.534830 0.296282
Si Si2 0.010913 0.385053 0.428668
Si Si3 0.065833 0.893226 0.265442
Si Si4 0.987084 0.539341 0.201130
Si Si5 0.493880 0.720393 0.094146
Si Si6 0.239828 0.179722 0.149272
Si Si7 0.222729 0.968526 0.553787
Si Si8 0.680233 0.076635 0.878806
O O1 0.706709 0.595834 0.466746
O O2 0.542073 0.652083 0.225336
O O3 0.404990 0.356184 0.249425
O O4 0.210685 0.527944 0.237040
O O5 0.000000 0.500000 0.500000
O O6 0.936503 0.436567 0.289536
O O7 0.840384 0.206781 0.413055
O O8 0.075891 0.727455 0.252401
O O9 0.764629 0.823451 0.153356
O O10 0.200987 0.958598 0.425770
O O11 0.170412 0.044303 0.219661
O O12 0.721413 0.442122 0.036328
O O13 0.387220 0.848001 0.062010
O O14 0.353196 0.107681 0.121065
O O15 0.985401 0.178498 0.995509
O O16 0.496996 0.082756 0.711061
O O17 0.000000 0.000000 0.500000
#
# Coordination Sequence:
#
# PCOD9067175 Si02
#       8
#     2   2   2   2   2   2   2   2
#     4  12  25  49  73 107 149 188 241 299 360 435
#     4  12  25  49  72 108 143 193 241 299 363 425
#     4  12  27  48  69 111 141 194 242 298 364 427
#     4  12  27  44  74 107 144 191 244 297 358 435
#     4  12  25  49  74 104 146 193 243 296 357 435
#     4  11  28  45  73 110 146 189 241 300 367 427
#     4  12  25  46  76 102 147 190 240 298 363 429
#     4  11  25  48  72 105 147 194 234 301 364 433
#
# _framework density 24.553574000000001
#
# number of rings (size 3 to 8) (size 9 to 14) (size 15 to 20)
#    0.000    0.250    5.000    2.625    7.000    1.000 
#    2.250    0.000    0.000    0.000    0.000    0.000 
#    0.000    0.000    0.000    0.000    0.000    0.000 
#
# Total GULP energy -89613.750513 kJ/mol
# GULP energy per Si atom -5600.859407 kJ/mol
# Density = 2.449769 g / cm^3
# Si number density = 24.553574 Si / 1000 Ang^3
#
#
#
# Elastic Constant Matrix: (Units=GPa)
#
#
# Indices 1 2 3 4 5 6 
#
# 1 57.8049 31.4775 13.1093 -14.8804 -3.9723 -6.4248
# 2 31.4775 132.8099 10.8352 -5.3479 -22.0539 2.7989
# 3 13.1093 10.8352 134.4266 6.1681 -1.3101 3.4545
# 4 -14.8804 -5.3479 6.1681 36.3170 2.3213 -3.7965
# 5 -3.9723 -22.0539 -1.3101 2.3213 42.6666 -4.8665
# 6 -6.4248 2.7989 3.4545 -3.7965 -4.8665 44.6992
#
#
#
# Elastic Compliance Matrix: (Units=1/GPa)
#
#
# Indices 1 2 3 4 5 6 
#
# 1 0.023737 -0.005218 -0.002475 0.009907 -0.000565 0.004710
# 2 -0.005218 0.009477 -0.000138 -0.001097 0.004360 -0.000951
# 3 -0.002475 -0.000138 0.007835 -0.002484 -0.000059 -0.001170
# 4 0.009907 -0.001097 -0.002484 0.032370 -0.000989 0.004326
# 5 -0.000565 0.004360 -0.000059 -0.000989 0.025963 0.002393
# 6 0.004710 -0.000951 -0.001170 0.004326 0.002393 0.023827
#
#
# Mechanical properties :
#
#
# Convention : Reuss Voigt Hill
#
# Bulk Modulus (GPa) = 39.39014 48.43171 43.91093
# Shear Modulus (GPa) = 33.93621 42.71116 38.32369
#
# Velocity S-wave (km/s) = 3.72173 4.17527 3.95501
# Velocity P-wave (km/s) = 5.87756 6.55832 6.22725
#
# Compressibility (1/GPa) = 0.02538706
#
# Stress axis : x y z
#
# Youngs Moduli (GPa) = 42.12763 105.51366 127.63312
#
# Poissons Ratio (x) = 0.55060 0.31594
# Poissons Ratio (y) = 0.21983 0.01758
# Poissons Ratio (z) = 0.10428 0.01453
#
# Static dielectric constant tensor:
#      x y z
#    x 1.989660 -0.033430 0.022430 
#    y -0.033430 1.837670 0.007010 
#    z 0.022430 0.007010 1.964370 
# 
# From -- ./inp_files/494994.got.cif
#   From: 2010.05.17/outbox.cif.g08.bks.cpg/sg2_248_cif.got.tgz:494994.got - 2010.06.03 11:33:40.
