data_PCOD9067661
_publ_section_title
;
Structure prediction by ZEFSAII (Michael W. Deem and Ramdas Pophale) SiO2 
 PCOD9067661
Probable space group: P -1
;
_chemical_formula_sum "Si O2"
_cell_formula_units_Z 14
_cell_length_a 5.669263
_cell_length_b 15.147038
_cell_length_c 7.998204
_cell_angle_alpha 123.018780
_cell_angle_beta 64.884165
_cell_angle_gamma 111.070258
_cell_volume 513.957222
_symmetry_space_group_name_H-M "P -1"
_symmetry_group_IT_number 2
_symmetry_cell_setting 'triclinic'
loop_
_space_group_symop_operation_xyz
x,y,z
-x,-y,-z
loop_
_atom_site_type_symbol
_atom_site_label
_atom_site_fract_x
_atom_site_fract_y
_atom_site_fract_z
Si Si1 0.633933 0.547542 0.334255
Si Si2 0.462947 0.240561 0.568157
Si Si3 0.211405 0.751284 0.914288
Si Si4 0.730412 0.050912 0.304606
Si Si5 0.205585 0.172433 0.107116
Si Si6 0.902459 0.109461 0.646961
Si Si7 0.780499 0.377884 0.892936
O O1 0.500000 0.500000 0.500000
O O2 0.499007 0.649278 0.432948
O O3 0.957860 0.583179 0.259754
O O4 0.606786 0.464080 0.100870
O O5 0.566857 0.135548 0.353513
O O6 0.152640 0.200328 0.636849
O O7 0.598987 0.284502 0.748194
O O8 0.529511 0.758979 0.828987
O O9 0.132524 0.664675 0.996455
O O10 0.980732 0.750718 0.845581
O O11 0.202176 0.867297 0.118325
O O12 0.688200 0.083759 0.541327
O O13 0.732458 0.928667 0.126861
O O14 0.029045 0.109668 0.239914
O O15 0.000000 0.000000 0.500000
#
# Coordination Sequence:
#
# PCOD9067661 Si02
#       7
#     2   2   2   2   2   2   2
#     4  11  27  50  77 109 151 200 263 336 402 475
#     4  12  24  47  75 108 154 205 258 329 389 476
#     4  12  24  46  73 106 150 200 253 313 393 464
#     4  11  26  42  69 107 153 202 258 321 377 475
#     4  11  28  44  71 112 155 206 258 321 391 460
#     4  12  24  42  73 106 152 201 255 303 384 465
#     4  11  26  47  76 114 150 198 264 329 397 476
#
# _framework density 27.239621
#
# number of rings (size 3 to 8) (size 9 to 14) (size 15 to 20)
#    0.000    0.571    4.286    2.143    4.000    4.000 
#    0.000    0.000    0.000    0.000    0.000    0.000 
#    0.000    0.000    0.000    0.000    0.000    0.000 
#
# Total GULP energy -78067.771331 kJ/mol
# GULP energy per Si atom -5576.269381 kJ/mol
# Density = 2.717762 g / cm^3
# Si number density = 27.239621 Si / 1000 Ang^3
#
#
#
# Elastic Constant Matrix: (Units=GPa)
#
#
# Indices 1 2 3 4 5 6 
#
# 1 144.2445 69.3762 52.7060 -0.4285 1.2525 -0.4755
# 2 69.3762 119.0929 7.6246 12.5664 4.0298 -10.6378
# 3 52.7060 7.6246 97.6930 11.4389 7.7150 5.9320
# 4 -0.4285 12.5664 11.4389 44.8880 7.3309 -9.8072
# 5 1.2525 4.0298 7.7150 7.3309 38.9354 -6.1522
# 6 -0.4755 -10.6378 5.9320 -9.8072 -6.1522 55.6532
#
#
#
# Elastic Compliance Matrix: (Units=1/GPa)
#
#
# Indices 1 2 3 4 5 6 
#
# 1 0.013224 -0.007684 -0.007096 0.003959 0.001065 0.000216
# 2 -0.007684 0.013233 0.003606 -0.004292 -0.000834 0.001231
# 3 -0.007096 0.003606 0.014672 -0.004865 -0.002463 -0.002065
# 4 0.003959 -0.004292 -0.004865 0.026122 -0.003005 0.004003
# 5 0.001065 -0.000834 -0.002463 -0.003005 0.027199 0.002589
# 6 0.000216 0.001231 -0.002065 0.004003 0.002589 0.019417
#
#
# Mechanical properties :
#
#
# Convention : Reuss Voigt Hill
#
# Bulk Modulus (GPa) = 53.23808 68.93823 61.08815
# Shear Modulus (GPa) = 35.09396 43.31688 39.20542
#
# Velocity S-wave (km/s) = 3.59324 3.99208 3.79790
# Velocity P-wave (km/s) = 6.06646 6.82729 6.45809
#
# Compressibility (1/GPa) = 0.01878355
#
# Stress axis : x y z
#
# Youngs Moduli (GPa) = 75.61899 75.56836 68.15556
#
# Poissons Ratio (x) = 0.58065 0.48360
# Poissons Ratio (y) = 0.58104 -0.24579
# Poissons Ratio (z) = 0.53656 -0.27253
#
# Static dielectric constant tensor:
#      x y z
#    x 2.421980 -0.281810 0.116370 
#    y -0.281810 2.471360 -0.244980 
#    z 0.116370 -0.244980 2.365310 
# 
# From -- ./inp_files/135828.got.cif
#   From: 2010.05.17/outbox.cif.g08.bks.cpg/sg2_68_cif.got.tgz:135828.got - 2010.06.03 11:33:40.
