data_PCOD9067064
_publ_section_title
;
Structure prediction by ZEFSAII (Michael W. Deem and Ramdas Pophale) SiO2 
 PCOD9067064
Probable space group: P -1
;
_chemical_formula_sum "Si O2"
_cell_formula_units_Z 12
_cell_length_a 12.081759
_cell_length_b 8.783096
_cell_length_c 7.711126
_cell_angle_alpha 126.030444
_cell_angle_beta 128.387736
_cell_angle_gamma 76.230610
_cell_volume 508.127345
_symmetry_space_group_name_H-M "P -1"
_symmetry_group_IT_number 2
_symmetry_cell_setting 'triclinic'
loop_
_space_group_symop_operation_xyz
x,y,z
-x,-y,-z
loop_
_atom_site_type_symbol
_atom_site_label
_atom_site_fract_x
_atom_site_fract_y
_atom_site_fract_z
Si Si1 0.392217 0.218398 0.045757
Si Si2 0.886633 0.091205 0.344068
Si Si3 0.633196 0.394045 0.673896
Si Si4 0.904003 0.812365 0.697647
Si Si5 0.127567 0.513229 0.270612
Si Si6 0.625192 0.990194 0.471777
O O1 0.503267 0.282015 0.354618
O O2 0.390380 0.434131 0.108910
O O3 0.427104 0.096958 0.828802
O O4 0.252741 0.081692 0.908186
O O5 0.828577 0.266375 0.485817
O O6 0.996415 0.201270 0.379842
O O7 0.000000 0.000000 0.500000
O O8 0.739059 0.525639 0.732939
O O9 0.699432 0.218150 0.692178
O O10 0.899426 0.631602 0.694954
O O11 0.746934 0.866446 0.553821
O O12 0.000000 0.000000 0.000000
O O13 0.000000 0.500000 0.000000
O O14 0.500000 0.000000 0.500000
#
# Coordination Sequence:
#
# PCOD9067064 Si02
#       6
#     2   2   2   2   2   2
#     4  11  25  47  77 111 151 207 252 312 391 453
#     4  12  23  47  78 108 153 195 255 320 380 459
#     4  11  25  48  77 105 154 206 253 313 389 458
#     4  12  27  46  74 113 150 199 261 313 381 459
#     4  12  26  47  76 112 151 204 255 319 391 452
#     4  12  28  48  73 112 157 200 256 317 384 459
#
# _framework density 23.616128
#
# number of rings (size 3 to 8) (size 9 to 14) (size 15 to 20)
#    0.000    0.333    3.333    5.000    7.000    0.667 
#    3.000    0.000    0.000    0.000    0.000    0.000 
#    0.000    0.000    0.000    0.000    0.000    0.000 
#
# Total GULP energy -66853.106261 kJ/mol
# GULP energy per Si atom -5571.092188 kJ/mol
# Density = 2.356238 g / cm^3
# Si number density = 23.616128 Si / 1000 Ang^3
#
#
#
# Elastic Constant Matrix: (Units=GPa)
#
#
# Indices 1 2 3 4 5 6 
#
# 1 128.4254 32.9767 37.7445 5.6348 13.9402 8.1510
# 2 32.9767 142.3157 61.7373 35.5676 -3.8808 1.3815
# 3 37.7445 61.7373 130.8801 30.0181 17.7158 -12.4911
# 4 5.6348 35.5676 30.0181 50.1554 -18.7905 -2.1837
# 5 13.9402 -3.8808 17.7158 -18.7905 42.3547 14.2567
# 6 8.1510 1.3815 -12.4911 -2.1837 14.2567 47.0482
#
#
#
# Elastic Compliance Matrix: (Units=1/GPa)
#
#
# Indices 1 2 3 4 5 6 
#
# 1 0.008965 -0.001362 -0.002028 0.000563 -0.001443 -0.001589
# 2 -0.001362 0.010105 -0.003830 -0.004146 0.001742 -0.001798
# 3 -0.002028 -0.003830 0.015113 -0.010815 -0.013519 0.008071
# 4 0.000563 -0.004146 -0.010815 0.037717 0.023452 -0.008203
# 5 -0.001443 0.001742 -0.013519 0.023452 0.045745 -0.016164
# 6 -0.001589 -0.001798 0.008071 -0.008203 -0.016164 0.028243
#
#
# Mechanical properties :
#
#
# Convention : Reuss Voigt Hill
#
# Bulk Modulus (GPa) = 50.65465 74.05977 62.35721
# Shear Modulus (GPa) = 29.95638 45.85583 37.90611
#
# Velocity S-wave (km/s) = 3.56542 4.41127 4.01071
# Velocity P-wave (km/s) = 6.20044 7.57454 6.92167
#
# Compressibility (1/GPa) = 0.01974153
#
# Stress axis : x y z
#
# Youngs Moduli (GPa) = 111.54188 98.96096 66.16836
#
# Poissons Ratio (x) = 0.13479 0.13422
# Poissons Ratio (y) = 0.15193 0.25344
# Poissons Ratio (z) = 0.22626 0.37905
#
# Static dielectric constant tensor:
#      x y z
#    x 1.973150 -0.266650 -0.027190 
#    y -0.266650 2.191700 -0.053720 
#    z -0.027190 -0.053720 1.841480 
# 
# From -- ./inp_files/246226.got.cif
#   From: 2010.05.17/outbox.cif.g08.bks.cpg/sg2_124_cif.got.tgz:246226.got - 2010.06.03 11:33:40.
