data_PCOD9067650
_publ_section_title
;
Structure prediction by ZEFSAII (Michael W. Deem and Ramdas Pophale) SiO2 
 PCOD9067650
Probable space group: P -1
;
_chemical_formula_sum "Si O2"
_cell_formula_units_Z 12
_cell_length_a 15.136962
_cell_length_b 8.228149
_cell_length_c 4.945298
_cell_angle_alpha 121.785147
_cell_angle_beta 105.501342
_cell_angle_gamma 54.403858
_cell_volume 425.038351
_symmetry_space_group_name_H-M "P -1"
_symmetry_group_IT_number 2
_symmetry_cell_setting 'triclinic'
loop_
_space_group_symop_operation_xyz
x,y,z
-x,-y,-z
loop_
_atom_site_type_symbol
_atom_site_label
_atom_site_fract_x
_atom_site_fract_y
_atom_site_fract_z
Si Si1 0.694794 0.118768 0.537226
Si Si2 0.502277 0.777422 0.860001
Si Si3 0.167520 0.307628 0.354509
Si Si4 0.986006 0.219630 0.028833
Si Si5 0.809742 0.355748 0.582825
Si Si6 0.372472 0.521042 0.811504
O O1 0.621530 0.144673 0.245054
O O2 0.767123 0.221042 0.602429
O O3 0.615351 0.293750 0.858022
O O4 0.757911 0.877361 0.523392
O O5 0.571523 0.586894 0.521573
O O6 0.573776 0.679240 0.103502
O O7 0.500000 0.000000 0.000000
O O8 0.088143 0.549502 0.653986
O O9 0.224399 0.379779 0.240270
O O10 0.097744 0.213553 0.084261
O O11 0.928291 0.250690 0.721141
O O12 0.000000 0.000000 0.000000
O O13 0.755619 0.355360 0.251553
#
# Coordination Sequence:
#
# PCOD9067650 Si02
#       6
#     2   2   2   2   2   2
#     4  12  27  50  83 118 166 215 279 343 409 496
#     4  12  28  50  81 120 168 222 276 342 413 491
#     4  11  27  50  81 117 165 215 276 337 426 487
#     4  11  25  53  77 119 163 214 274 347 410 501
#     4  12  26  47  84 114 163 210 283 327 420 480
#     4  12  27  52  78 122 165 219 278 339 409 492
#
# _framework density 28.232748000000001
#
# number of rings (size 3 to 8) (size 9 to 14) (size 15 to 20)
#    0.000    0.333    3.333    4.000    4.667    2.000 
#    0.000    0.000    0.000    0.000    0.000    0.000 
#    0.000    0.000    0.000    0.000    0.000    0.000 
#
# Total GULP energy -67070.201050 kJ/mol
# GULP energy per Si atom -5589.183421 kJ/mol
# Density = 2.816849 g / cm^3
# Si number density = 28.232748 Si / 1000 Ang^3
#
#
#
# Elastic Constant Matrix: (Units=GPa)
#
#
# Indices 1 2 3 4 5 6 
#
# 1 122.1178 47.6647 36.8113 -1.6802 38.3844 25.8066
# 2 47.6647 276.5298 57.2878 -14.9263 12.4747 41.2389
# 3 36.8113 57.2878 97.8143 -29.6100 23.3252 2.7853
# 4 -1.6802 -14.9263 -29.6100 79.3388 -9.0245 8.5835
# 5 38.3844 12.4747 23.3252 -9.0245 44.2890 -0.5936
# 6 25.8066 41.2389 2.7853 8.5835 -0.5936 51.0130
#
#
#
# Elastic Compliance Matrix: (Units=1/GPa)
#
#
# Indices 1 2 3 4 5 6 
#
# 1 0.013927 -0.000491 -0.002557 -0.001301 -0.010936 -0.006417
# 2 -0.000491 0.004738 -0.002476 0.000385 0.000426 -0.003507
# 3 -0.002557 -0.002476 0.014871 0.004391 -0.004001 0.001698
# 4 -0.001301 0.000385 0.004391 0.014733 0.001677 -0.002352
# 5 -0.010936 0.000426 -0.004001 0.001677 0.034460 0.005525
# 6 -0.006417 -0.003507 0.001698 -0.002352 0.005525 0.026052
#
#
# Mechanical properties :
#
#
# Convention : Reuss Voigt Hill
#
# Bulk Modulus (GPa) = 44.46600 86.66551 65.56576
# Shear Modulus (GPa) = 39.26985 58.57473 48.92229
#
# Velocity S-wave (km/s) = 3.73357 4.55984 4.16723
# Velocity P-wave (km/s) = 5.86259 7.64763 6.81382
#
# Compressibility (1/GPa) = 0.02248909
#
# Stress axis : x y z
#
# Youngs Moduli (GPa) = 71.80296 211.04985 67.24630
#
# Poissons Ratio (x) = 0.10355 0.17196
# Poissons Ratio (y) = 0.03523 0.16647
# Poissons Ratio (z) = 0.18361 0.52247
#
# Static dielectric constant tensor:
#      x y z
#    x 2.564630 0.017040 -0.164540 
#    y 0.017040 2.118150 0.034940 
#    z -0.164540 0.034940 2.199880 
# 
# From -- ./inp_files/107642.got.cif
#   From: 2010.05.17/outbox.cif.g08.bks.cpg/sg2_54_cif.got.tgz:107642.got - 2010.06.03 11:33:40.
