data_PCOD9067429
_publ_section_title
;
Structure prediction by ZEFSAII (Michael W. Deem and Ramdas Pophale) SiO2 
 PCOD9067429
Probable space group: P -1
;
_chemical_formula_sum "Si O2"
_cell_formula_units_Z 12
_cell_length_a 10.963511
_cell_length_b 8.943546
_cell_length_c 12.757506
_cell_angle_alpha 53.400673
_cell_angle_beta 35.809356
_cell_angle_gamma 77.217295
_cell_volume 487.472336
_symmetry_space_group_name_H-M "P -1"
_symmetry_group_IT_number 2
_symmetry_cell_setting 'triclinic'
loop_
_space_group_symop_operation_xyz
x,y,z
-x,-y,-z
loop_
_atom_site_type_symbol
_atom_site_label
_atom_site_fract_x
_atom_site_fract_y
_atom_site_fract_z
Si Si1 0.150121 0.079783 0.146005
Si Si2 0.409171 0.074284 0.430023
Si Si3 0.851804 0.313956 0.595255
Si Si4 0.708683 0.553606 0.921659
Si Si5 0.436624 0.551756 0.398211
Si Si6 0.747907 0.388572 0.294205
O O1 0.233210 0.918480 0.193583
O O2 0.228450 0.264514 0.107015
O O3 0.291241 0.211666 0.886526
O O4 0.854008 0.943688 0.382612
O O5 0.617688 0.313731 0.136650
O O6 0.500000 0.000000 0.500000
O O7 0.331727 0.853513 0.508339
O O8 0.674833 0.384867 0.643794
O O9 0.000000 0.500000 0.500000
O O10 0.035504 0.342963 0.362778
O O11 0.500000 0.500000 0.000000
O O12 0.519593 0.380027 0.395555
O O13 0.255441 0.489019 0.649277
O O14 0.000000 0.500000 0.000000
#
# Coordination Sequence:
#
# PCOD9067429 Si02
#       6
#     2   2   2   2   2   2
#     4  12  26  51  78 111 162 201 261 334 392 465
#     4  12  28  45  82 111 152 207 269 319 396 475
#     4  12  28  46  76 115 161 203 261 327 397 474
#     4  12  27  49  81 116 155 214 269 317 403 475
#     4  11  26  46  80 110 153 203 258 321 399 462
#     4  11  25  49  76 110 153 204 256 323 392 463
#
# _framework density 24.616781
#
# number of rings (size 3 to 8) (size 9 to 14) (size 15 to 20)
#    0.000    0.333    3.333    4.000    9.333    0.000 
#    0.000    1.667    0.000    0.000    0.000    0.000 
#    0.000    0.000    0.000    0.000    0.000    0.000 
#
# Total GULP energy -66990.362620 kJ/mol
# GULP energy per Si atom -5582.530218 kJ/mol
# Density = 2.456075 g / cm^3
# Si number density = 24.616781 Si / 1000 Ang^3
#
#
#
# Elastic Constant Matrix: (Units=GPa)
#
#
# Indices 1 2 3 4 5 6 
#
# 1 156.0765 50.1820 33.2542 -8.6659 3.7742 -31.5244
# 2 50.1820 130.2490 33.4301 -6.0090 12.7970 -24.0107
# 3 33.2542 33.4301 73.0434 -0.6312 18.4097 -0.5982
# 4 -8.6659 -6.0090 -0.6312 59.0681 -13.9275 10.2304
# 5 3.7742 12.7970 18.4097 -13.9275 49.6327 1.0000
# 6 -31.5244 -24.0107 -0.5982 10.2304 1.0000 56.6819
#
#
#
# Elastic Compliance Matrix: (Units=1/GPa)
#
#
# Indices 1 2 3 4 5 6 
#
# 1 0.008454 -0.001805 -0.003274 0.000638 0.001140 0.003767
# 2 -0.001805 0.009956 -0.003387 -0.000149 -0.001280 0.003227
# 3 -0.003274 -0.003387 0.018214 -0.001588 -0.006026 -0.002670
# 4 0.000638 -0.000149 -0.001588 0.018961 0.005965 -0.003253
# 5 0.001140 -0.001280 -0.006026 0.005965 0.024330 -0.001478
# 6 0.003767 0.003227 -0.002670 -0.003253 -0.001478 0.021690
#
#
# Mechanical properties :
#
#
# Convention : Reuss Voigt Hill
#
# Bulk Modulus (GPa) = 50.77994 65.90016 58.34005
# Shear Modulus (GPa) = 39.96795 49.24339 44.60567
#
# Velocity S-wave (km/s) = 4.03377 4.47743 4.26138
# Velocity P-wave (km/s) = 6.50907 7.31836 6.92555
#
# Compressibility (1/GPa) = 0.01969281
#
# Stress axis : x y z
#
# Youngs Moduli (GPa) = 118.29189 100.43971 54.90234
#
# Poissons Ratio (x) = 0.18128 0.17972
# Poissons Ratio (y) = 0.21350 0.18596
# Poissons Ratio (z) = 0.38723 0.34021
#
# Static dielectric constant tensor:
#      x y z
#    x 2.279350 0.478330 0.402610 
#    y 0.478330 3.127810 1.134000 
#    z 0.402610 1.134000 3.119060 
# 
# From -- ./inp_files/514995.got.cif
#   From: 2010.05.17/outbox.cif.g08.bks.cpg/sg2_258_cif.got.tgz:514995.got - 2010.06.03 11:33:40.
