data_PCOD9067026
_publ_section_title
;
Structure prediction by ZEFSAII (Michael W. Deem and Ramdas Pophale) SiO2 
 PCOD9067026
Probable space group: P -1
;
_chemical_formula_sum "Si O2"
_cell_formula_units_Z 14
_cell_length_a 18.922686
_cell_length_b 14.417047
_cell_length_c 9.509310
_cell_angle_alpha 38.230792
_cell_angle_beta 140.047900
_cell_angle_gamma 160.124594
_cell_volume 540.990836
_symmetry_space_group_name_H-M "P -1"
_symmetry_group_IT_number 2
_symmetry_cell_setting 'triclinic'
loop_
_space_group_symop_operation_xyz
x,y,z
-x,-y,-z
loop_
_atom_site_type_symbol
_atom_site_label
_atom_site_fract_x
_atom_site_fract_y
_atom_site_fract_z
Si Si1 0.182452 0.906329 0.901408
Si Si2 0.402565 0.937332 0.781770
Si Si3 0.827133 0.683394 0.541575
Si Si4 0.908968 0.001489 0.076561
Si Si5 0.633520 0.442455 0.830235
Si Si6 0.677025 0.248779 0.587143
Si Si7 0.951172 0.292661 0.575137
O O1 0.402333 0.219180 0.796304
O O2 0.976740 0.709665 0.731449
O O3 0.130906 0.920237 0.956345
O O4 0.223796 0.782675 0.150040
O O5 0.214720 0.831876 0.638035
O O6 0.560715 0.192227 0.607043
O O7 0.335099 0.695203 0.909891
O O8 0.500000 0.000000 0.000000
O O9 0.659310 0.480329 0.654667
O O10 0.000000 0.000000 0.500000
O O11 0.782626 0.715286 0.288710
O O12 0.864230 0.047868 0.816025
O O13 0.155475 0.238681 0.166177
O O14 0.849412 0.524890 0.426116
O O15 0.500000 0.000000 0.500000
O O16 0.000000 0.500000 0.500000
#
# Coordination Sequence:
#
# PCOD9067026 Si02
#       7
#     2   2   2   2   2   2   2
#     4   9  15  26  44  69 101 130 163 211 259 300
#     4  11  23  35  52  82 110 136 177 218 262 322
#     4   8  17  27  42  71 100 130 172 212 255 304
#     4  10  18  28  47  76  98 131 176 211 254 309
#     4   9  16  30  48  68 100 136 166 213 261 303
#     4  11  19  32  56  82 101 140 181 212 265 322
#     4  12  18  34  55  73 108 143 165 219 267 301
#
# _framework density 25.878443000000001
#
# number of rings (size 3 to 8) (size 9 to 14) (size 15 to 20)
#    0.000    2.286    4.286    1.714    0.000    5.714 
#    0.000    0.000    0.000    0.857    0.000    5.000 
#    0.000    0.000    0.000    0.000    0.000    0.000 
#
# Total GULP energy -78188.690042 kJ/mol
# GULP energy per Si atom -5584.906432 kJ/mol
# Density = 2.581954 g / cm^3
# Si number density = 25.878443 Si / 1000 Ang^3
#
#
#
# Elastic Constant Matrix: (Units=GPa)
#
#
# Indices 1 2 3 4 5 6 
#
# 1 71.1350 17.1059 7.5103 -2.2985 -15.9076 15.3401
# 2 17.1059 99.1562 36.8438 -18.9551 -12.2165 36.0079
# 3 7.5103 36.8438 172.8475 -20.4579 -9.0857 1.5221
# 4 -2.2985 -18.9551 -20.4579 52.3095 6.9850 -3.9605
# 5 -15.9076 -12.2165 -9.0857 6.9850 38.7345 -14.5037
# 6 15.3401 36.0079 1.5221 -3.9605 -14.5037 37.4935
#
#
#
# Elastic Compliance Matrix: (Units=1/GPa)
#
#
# Indices 1 2 3 4 5 6 
#
# 1 0.016233 -0.000693 -0.000337 -0.000642 0.004943 -0.004118
# 2 -0.000693 0.018454 -0.003375 0.004347 -0.002744 -0.017904
# 3 -0.000337 -0.003375 0.006743 0.001484 0.001558 0.003866
# 4 -0.000642 0.004347 0.001484 0.021488 -0.003575 -0.003086
# 5 0.004943 -0.002744 0.001558 -0.003575 0.032808 0.012864
# 6 -0.004118 -0.017904 0.003866 -0.003086 0.012864 0.050044
#
#
# Mechanical properties :
#
#
# Convention : Reuss Voigt Hill
#
# Bulk Modulus (GPa) = 30.65911 51.78430 41.22171
# Shear Modulus (GPa) = 30.21991 44.48609 37.35300
#
# Velocity S-wave (km/s) = 3.42096 4.15063 3.80333
# Velocity P-wave (km/s) = 5.24186 6.55929 5.93723
#
# Compressibility (1/GPa) = 0.03261673
#
# Stress axis : x y z
#
# Youngs Moduli (GPa) = 61.60427 54.18997 148.29957
#
# Poissons Ratio (x) = 0.03758 0.05003
# Poissons Ratio (y) = 0.04272 0.50058
# Poissons Ratio (z) = 0.02078 0.18292
#
# Static dielectric constant tensor:
#      x y z
#    x 2.035320 0.068240 -0.019690 
#    y 0.068240 1.725920 0.054940 
#    z -0.019690 0.054940 2.055250 
# 
# From -- ./inp_files/291680.got.cif
#   From: 2010.05.17/outbox.cif.g08.bks.cpg/sg2_146_cif.got.tgz:291680.got - 2010.06.03 11:33:40.
