data_PCOD9067144
_publ_section_title
;
Structure prediction by ZEFSAII (Michael W. Deem and Ramdas Pophale) SiO2 
 PCOD9067144
Probable space group: P -1
;
_chemical_formula_sum "Si O2"
_cell_formula_units_Z 13
_cell_length_a 16.114617
_cell_length_b 23.416824
_cell_length_c 5.353841
_cell_angle_alpha 71.684765
_cell_angle_beta 121.185865
_cell_angle_gamma 160.291979
_cell_volume 466.059190
_symmetry_space_group_name_H-M "P -1"
_symmetry_group_IT_number 2
_symmetry_cell_setting 'triclinic'
loop_
_space_group_symop_operation_xyz
x,y,z
-x,-y,-z
loop_
_atom_site_type_symbol
_atom_site_label
_atom_site_fract_x
_atom_site_fract_y
_atom_site_fract_z
Si Si1 0.805770 0.147952 0.549357
Si Si2 0.591355 0.443766 0.350400
Si Si3 0.573718 0.307588 0.364989
Si Si4 0.868792 0.292898 0.819877
Si Si5 0.198672 0.057812 0.635734
Si Si6 0.150705 0.256168 0.245437
Si Si7 0.000000 0.500000 0.500000
O O1 0.804411 0.211503 0.593422
O O2 0.136911 0.346934 0.615830
O O3 0.443855 0.912037 0.203952
O O4 0.880955 0.143673 0.887480
O O5 0.516068 0.344054 0.186177
O O6 0.251626 0.271460 0.157247
O O7 0.781015 0.522091 0.764699
O O8 0.356587 0.160514 0.467846
O O9 0.965827 0.523823 0.673291
O O10 0.495483 0.227619 0.083083
O O11 0.889200 0.373346 0.668461
O O12 0.000000 0.000000 0.500000
O O13 0.981984 0.867991 0.581037
O O14 0.500000 0.500000 0.500000
#
# Coordination Sequence:
#
# PCOD9067144 Si02
#       7
#     2   2   2   2   2   2   1
#     4  11  25  48  70 110 156 200 261 321 408 464
#     4  12  25  47  81 110 157 207 267 328 402 483
#     4  12  28  50  81 115 159 209 266 334 398 478
#     4  11  25  48  73 109 153 205 260 331 391 477
#     4  12  28  51  79 115 161 207 266 328 406 473
#     4  12  27  47  80 117 155 209 266 328 405 482
#     4  12  26  50  80 112 152 206 274 320 396 472
#
# _framework density 27.893449
#
# number of rings (size 3 to 8) (size 9 to 14) (size 15 to 20)
#    0.000    0.308    4.615    3.231    2.154    4.923 
#    5.538    0.000    0.000    0.000    0.000    0.000 
#    0.000    0.000    0.000    0.000    0.000    0.000 
#
# Total GULP energy -72740.836113 kJ/mol
# GULP energy per Si atom -5595.448932 kJ/mol
# Density = 2.782996 g / cm^3
# Si number density = 27.893449 Si / 1000 Ang^3
#
#
#
# Elastic Constant Matrix: (Units=GPa)
#
#
# Indices 1 2 3 4 5 6 
#
# 1 140.9015 53.4911 28.6354 -12.1557 20.3686 -1.6905
# 2 53.4911 231.9082 27.6468 -27.4127 -6.3657 -1.1153
# 3 28.6354 27.6468 98.6409 -5.9233 -4.6252 -13.4786
# 4 -12.1557 -27.4127 -5.9233 43.7782 -11.8093 -0.4145
# 5 20.3686 -6.3657 -4.6252 -11.8093 46.6002 -6.5179
# 6 -1.6905 -1.1153 -13.4786 -0.4145 -6.5179 67.6163
#
#
#
# Elastic Compliance Matrix: (Units=1/GPa)
#
#
# Indices 1 2 3 4 5 6 
#
# 1 0.008950 -0.001945 -0.002386 -0.000302 -0.004593 -0.000728
# 2 -0.001945 0.005291 -0.000582 0.003340 0.002386 0.000173
# 3 -0.002386 -0.000582 0.011546 0.001312 0.002793 0.002510
# 4 -0.000302 0.003340 0.001312 0.027134 0.007766 0.001224
# 5 -0.004593 0.002386 0.002793 0.007766 0.026468 0.003080
# 6 -0.000728 0.000173 0.002510 0.001224 0.003080 0.015579
#
#
# Mechanical properties :
#
#
# Convention : Reuss Voigt Hill
#
# Bulk Modulus (GPa) = 62.65457 76.77745 69.71601
# Shear Modulus (GPa) = 45.40725 55.71077 50.55901
#
# Velocity S-wave (km/s) = 4.03908 4.47393 4.26206
# Velocity P-wave (km/s) = 6.65305 7.36703 7.01912
#
# Compressibility (1/GPa) = 0.01596053
#
# Stress axis : x y z
#
# Youngs Moduli (GPa) = 111.73681 188.99399 86.60788
#
# Poissons Ratio (x) = 0.36760 0.20664
# Poissons Ratio (y) = 0.21733 0.05043
# Poissons Ratio (z) = 0.26659 0.11005
#
# Static dielectric constant tensor:
#      x y z
#    x 0.497650 -1.425290 -2.965090 
#    y -1.425290 0.935810 -2.412780 
#    z -2.965090 -2.412780 -2.715470 
# 
# From -- ./inp_files/100548.got.cif
#   From: 2010.05.17/outbox.cif.g08.bks.cpg/sg2_51_cif.got.tgz:100548.got - 2010.06.03 11:33:40.
