data_PCOD9067963
_publ_section_title
;
Structure prediction by ZEFSAII (Michael W. Deem and Ramdas Pophale) SiO2 
 PCOD9067963
Probable space group: P -1
;
_chemical_formula_sum "Si O2"
_cell_formula_units_Z 16
_cell_length_a 12.622168
_cell_length_b 9.206824
_cell_length_c 14.899848
_cell_angle_alpha 71.804681
_cell_angle_beta 149.640907
_cell_angle_gamma 119.018937
_cell_volume 742.798258
_symmetry_space_group_name_H-M "P -1"
_symmetry_group_IT_number 2
_symmetry_cell_setting 'triclinic'
loop_
_space_group_symop_operation_xyz
x,y,z
-x,-y,-z
loop_
_atom_site_type_symbol
_atom_site_label
_atom_site_fract_x
_atom_site_fract_y
_atom_site_fract_z
Si Si1 0.774611 0.828760 0.007644
Si Si2 0.834481 0.481729 0.799470
Si Si3 0.431423 0.757689 0.937412
Si Si4 0.823545 0.836606 0.724364
Si Si5 0.421188 0.115559 0.613659
Si Si6 0.994754 0.583196 0.251263
Si Si7 0.487600 0.802322 0.640345
Si Si8 0.734642 0.960044 0.285615
O O1 0.586765 0.779407 0.958966
O O2 0.645566 0.758755 0.833143
O O3 0.949854 0.747309 0.170150
O O4 0.927980 0.033671 0.077475
O O5 0.778357 0.642444 0.728869
O O6 0.612540 0.299697 0.685359
O O7 0.958095 0.482716 0.796131
O O8 0.000000 0.500000 0.000000
O O9 0.234946 0.565015 0.844478
O O10 0.295303 0.874267 0.800971
O O11 0.605709 0.824501 0.137898
O O12 0.813781 0.900166 0.604275
O O13 0.623609 0.849585 0.636514
O O14 0.405542 0.104973 0.710960
O O15 0.467718 0.962781 0.638574
O O16 0.231061 0.648095 0.469296
O O17 0.000000 0.000000 0.500000
#
# Coordination Sequence:
#
# PCOD9067963 Si02
#       8
#     2   2   2   2   2   2   2   2
#     4  12  25  47  72 102 144 192 235 289 360 420
#     4  12  26  43  71 107 140 183 234 297 355 419
#     4  11  27  47  72 105 144 189 243 293 346 426
#     4  12  25  44  74 104 145 184 238 294 360 422
#     4  12  23  46  71 102 142 183 236 288 359 419
#     4  12  27  46  71 105 148 183 240 294 348 426
#     4  12  25  46  71 105 143 191 232 290 358 427
#     4  11  26  46  76 105 140 191 240 295 355 416
#
# _framework density 21.540168999999999
#
# number of rings (size 3 to 8) (size 9 to 14) (size 15 to 20)
#    0.000    0.250    3.750    5.250    5.250    1.500 
#    0.000    0.000    0.000    0.000    0.000    0.000 
#    0.000    0.000    0.000    0.000    0.000    0.000 
#
# Total GULP energy -89575.282087 kJ/mol
# GULP energy per Si atom -5598.455130 kJ/mol
# Density = 2.149114 g / cm^3
# Si number density = 21.540169 Si / 1000 Ang^3
#
#
#
# Elastic Constant Matrix: (Units=GPa)
#
#
# Indices 1 2 3 4 5 6 
#
# 1 80.4504 13.2598 11.9645 12.8549 -4.9247 7.2081
# 2 13.2598 47.0867 0.0795 15.6443 4.1367 4.7740
# 3 11.9645 0.0795 120.2674 17.4609 -16.4167 5.4784
# 4 12.8549 15.6443 17.4609 36.7517 3.9288 4.0219
# 5 -4.9247 4.1367 -16.4167 3.9288 39.7045 -0.2211
# 6 7.2081 4.7740 5.4784 4.0219 -0.2211 20.0070
#
#
#
# Elastic Compliance Matrix: (Units=1/GPa)
#
#
# Indices 1 2 3 4 5 6 
#
# 1 0.013918 -0.002621 -0.000438 -0.003382 0.002133 -0.003565
# 2 -0.002621 0.025912 0.001743 -0.010405 -0.001295 -0.003639
# 3 -0.000438 0.001743 0.009839 -0.005534 0.004370 -0.001791
# 4 -0.003382 -0.010405 -0.005534 0.036242 -0.005222 -0.002126
# 5 0.002133 -0.001295 0.004370 -0.005222 0.027907 -0.000298
# 6 -0.003565 -0.003639 -0.001791 -0.002126 -0.000298 0.053050
#
#
# Mechanical properties :
#
#
# Convention : Reuss Voigt Hill
#
# Bulk Modulus (GPa) = 21.25974 33.15689 27.20832
# Shear Modulus (GPa) = 27.00099 34.12603 30.56351
#
# Velocity S-wave (km/s) = 3.54435 3.98464 3.77093
# Velocity P-wave (km/s) = 5.16150 6.04949 5.62305
#
# Compressibility (1/GPa) = 0.04703726
#
# Stress axis : x y z
#
# Youngs Moduli (GPa) = 71.85158 38.59187 101.63812
#
# Poissons Ratio (x) = 0.10114 0.04454
# Poissons Ratio (y) = 0.18830 -0.17718
# Poissons Ratio (z) = 0.03149 -0.06728
#
# Static dielectric constant tensor:
#      x y z
#    x 1.731550 -0.010780 -0.005790 
#    y -0.010780 1.760100 0.004870 
#    z -0.005790 0.004870 1.854820 
# 
# From -- ./inp_files/274113.got.cif
#   From: 2010.05.17/outbox.cif.g08.bks.cpg/sg2_138_cif.got.tgz:274113.got - 2010.06.03 11:33:40.
