data_PCOD9067349
_publ_section_title
;
Structure prediction by ZEFSAII (Michael W. Deem and Ramdas Pophale) SiO2 
 PCOD9067349
Probable space group: P -1
;
_chemical_formula_sum "Si O2"
_cell_formula_units_Z 15
_cell_length_a 13.459062
_cell_length_b 6.609874
_cell_length_c 11.679571
_cell_angle_alpha 71.729813
_cell_angle_beta 52.246122
_cell_angle_gamma 57.909923
_cell_volume 695.895676
_symmetry_space_group_name_H-M "P -1"
_symmetry_group_IT_number 2
_symmetry_cell_setting 'triclinic'
loop_
_space_group_symop_operation_xyz
x,y,z
-x,-y,-z
loop_
_atom_site_type_symbol
_atom_site_label
_atom_site_fract_x
_atom_site_fract_y
_atom_site_fract_z
Si Si1 0.000000 0.000000 0.500000
Si Si2 0.782500 0.471783 0.899290
Si Si3 0.503213 0.190842 0.873634
Si Si4 0.302483 0.557411 0.285299
Si Si5 0.720242 0.821433 0.325992
Si Si6 0.107477 0.039453 0.998546
Si Si7 0.421044 0.036031 0.385697
Si Si8 0.987330 0.351448 0.244570
O O1 0.981363 0.859690 0.650446
O O2 0.153940 0.756770 0.404272
O O3 0.728221 0.535315 0.797096
O O4 0.917913 0.516574 0.812359
O O5 0.815633 0.199970 0.940665
O O6 0.661432 0.622859 0.048770
O O7 0.593709 0.322459 0.828727
O O8 0.568923 0.075170 0.726149
O O9 0.500000 0.000000 0.000000
O O10 0.383609 0.315542 0.345935
O O11 0.696540 0.952239 0.443035
O O12 0.825707 0.546433 0.321101
O O13 0.568921 0.879310 0.371230
O O14 0.789180 0.916080 0.165399
O O15 0.031159 0.249379 0.104792
O O16 0.000000 0.000000 0.000000
#
# Coordination Sequence:
#
# PCOD9067349 Si02
#       8
#     1   2   2   2   2   2   2   2
#     4  12  26  46  76 106 142 182 236 300 356 422
#     4  12  26  45  75 107 141 189 235 300 351 419
#     4  12  26  43  72 106 143 183 235 292 353 422
#     4  12  26  47  70 109 143 183 239 293 358 417
#     4  11  25  49  70 100 149 187 238 285 345 434
#     4  12  26  44  70 105 142 190 231 286 354 419
#     4  11  26  47  71 101 143 194 229 291 355 415
#     4  12  26  48  73 108 143 184 241 293 356 417
#
# _framework density 21.554955
#
# number of rings (size 3 to 8) (size 9 to 14) (size 15 to 20)
#    0.000    0.267    5.333    3.200    3.733    2.667 
#    0.000    2.000    0.000    0.000    0.000    0.000 
#    0.000    0.000    0.000    0.000    0.000    0.000 
#
# Total GULP energy -83601.648944 kJ/mol
# GULP energy per Si atom -5573.443263 kJ/mol
# Density = 2.150590 g / cm^3
# Si number density = 21.554955 Si / 1000 Ang^3
#
#
#
# Elastic Constant Matrix: (Units=GPa)
#
#
# Indices 1 2 3 4 5 6 
#
# 1 60.8518 45.2769 24.3933 1.1097 11.1531 -7.3026
# 2 45.2769 109.4974 39.3146 13.2668 0.3153 -27.6086
# 3 24.3933 39.3146 142.1262 18.5516 15.3176 2.4704
# 4 1.1097 13.2668 18.5516 37.2762 -3.3780 0.2411
# 5 11.1531 0.3153 15.3176 -3.3780 23.8650 5.5955
# 6 -7.3026 -27.6086 2.4704 0.2411 5.5955 36.6842
#
#
#
# Elastic Compliance Matrix: (Units=1/GPa)
#
#
# Indices 1 2 3 4 5 6 
#
# 1 0.027278 -0.011814 -0.000482 0.002600 -0.011519 -0.001689
# 2 -0.011814 0.018484 -0.003147 -0.004365 0.004057 0.011181
# 3 -0.000482 -0.003147 0.009147 -0.003915 -0.005643 -0.002194
# 4 0.002600 -0.004365 -0.003915 0.030873 0.006596 -0.003713
# 5 -0.011519 0.004057 -0.005643 0.006596 0.053442 -0.007054
# 6 -0.001689 0.011181 -0.002194 -0.003713 -0.007054 0.036587
#
#
# Mechanical properties :
#
#
# Convention : Reuss Voigt Hill
#
# Bulk Modulus (GPa) = 41.62877 58.93834 50.28355
# Shear Modulus (GPa) = 23.28787 33.13112 28.20950
#
# Velocity S-wave (km/s) = 3.29050 3.92478 3.62155
# Velocity P-wave (km/s) = 5.81303 6.92396 6.39267
#
# Compressibility (1/GPa) = 0.02402185
#
# Stress axis : x y z
#
# Youngs Moduli (GPa) = 36.65973 54.10090 109.32847
#
# Poissons Ratio (x) = 0.63913 0.05274
# Poissons Ratio (y) = 0.43309 0.34408
# Poissons Ratio (z) = 0.01769 0.17027
#
# Static dielectric constant tensor:
#      x y z
#    x 1.755840 -0.035390 0.027090 
#    y -0.035390 1.825770 0.016400 
#    z 0.027090 0.016400 1.772390 
# 
# From -- ./inp_files/71330.got.cif
#   From: 2010.05.17/outbox.cif.g08.bks.cpg/sg2_36_cif.got.tgz:71330.got - 2010.06.03 11:33:40.
