data_PCOD9067297
_publ_section_title
;
Structure prediction by ZEFSAII (Michael W. Deem and Ramdas Pophale) SiO2 
 PCOD9067297
Probable space group: P -1
;
_chemical_formula_sum "Si O2"
_cell_formula_units_Z 13
_cell_length_a 9.764459
_cell_length_b 8.366018
_cell_length_c 13.724190
_cell_angle_alpha 130.299402
_cell_angle_beta 45.124690
_cell_angle_gamma 103.484035
_cell_volume 551.857689
_symmetry_space_group_name_H-M "P -1"
_symmetry_group_IT_number 2
_symmetry_cell_setting 'triclinic'
loop_
_space_group_symop_operation_xyz
x,y,z
-x,-y,-z
loop_
_atom_site_type_symbol
_atom_site_label
_atom_site_fract_x
_atom_site_fract_y
_atom_site_fract_z
Si Si1 0.000000 0.500000 0.500000
Si Si2 0.161656 0.786482 0.895806
Si Si3 0.247452 0.156333 0.776220
Si Si4 0.374055 0.263879 0.542592
Si Si5 0.502387 0.226466 0.135472
Si Si6 0.960578 0.771143 0.426280
Si Si7 0.658943 0.489161 0.003774
O O1 0.261560 0.399978 0.344431
O O2 0.984291 0.362473 0.552805
O O3 0.285592 0.538093 0.686724
O O4 0.341792 0.843807 0.878409
O O5 0.000289 0.757845 0.044651
O O6 0.000000 0.000000 0.000000
O O7 0.287561 0.204945 0.664428
O O8 0.375097 0.885303 0.629957
O O9 0.349208 0.286722 0.847158
O O10 0.275401 0.177958 0.469713
O O11 0.612225 0.336077 0.047916
O O12 0.500000 0.000000 0.000000
O O13 0.112691 0.616944 0.204007
O O14 0.000000 0.000000 0.500000
O O15 0.500000 0.500000 0.000000
#
# Coordination Sequence:
#
# PCOD9067297 Si02
#       7
#     1   2   2   2   2   2   2
#     4  12  30  50  76 116 164 200 280 320 408 476
#     4  12  28  47  75 113 160 204 258 328 405 475
#     4  11  25  49  80 115 149 209 270 325 401 480
#     4  11  25  48  77 110 152 199 269 326 392 479
#     4  12  29  50  77 113 157 207 267 332 397 485
#     4  12  26  48  80 114 157 212 264 334 403 477
#     4  12  23  47  82 111 156 203 266 332 404 474
#
# _framework density 23.556795999999999
#
# number of rings (size 3 to 8) (size 9 to 14) (size 15 to 20)
#    0.000    0.308    4.615    3.231    6.462    1.846 
#    0.000    0.000    0.000    0.000    0.000    0.000 
#    0.000    0.000    0.000    0.000    0.000    0.000 
#
# Total GULP energy -72540.705109 kJ/mol
# GULP energy per Si atom -5580.054239 kJ/mol
# Density = 2.350318 g / cm^3
# Si number density = 23.556796 Si / 1000 Ang^3
#
#
#
# Elastic Constant Matrix: (Units=GPa)
#
#
# Indices 1 2 3 4 5 6 
#
# 1 200.0052 50.0069 41.8480 21.2179 -15.3990 -11.8222
# 2 50.0069 128.9508 66.9757 2.9877 -4.1872 -15.4616
# 3 41.8480 66.9757 66.9979 -4.5495 -17.0057 -11.7308
# 4 21.2179 2.9877 -4.5495 48.4305 5.4975 -1.1636
# 5 -15.3990 -4.1872 -17.0057 5.4975 38.5999 5.8205
# 6 -11.8222 -15.4616 -11.7308 -1.1636 5.8205 43.0762
#
#
#
# Elastic Compliance Matrix: (Units=1/GPa)
#
#
# Indices 1 2 3 4 5 6 
#
# 1 0.006272 -0.000736 -0.002946 -0.003143 0.001517 0.000365
# 2 -0.000736 0.017952 -0.018979 -0.001755 -0.006750 0.001938
# 3 -0.002946 -0.018979 0.039717 0.004712 0.013364 0.001517
# 4 -0.003143 -0.001755 0.004712 0.022907 -0.002748 0.000781
# 5 0.001517 -0.006750 0.013364 -0.002748 0.032486 -0.002831
# 6 0.000365 0.001938 0.001517 0.000781 -0.002831 0.024827
#
#
# Mechanical properties :
#
#
# Convention : Reuss Voigt Hill
#
# Bulk Modulus (GPa) = 53.71365 79.29058 66.50211
# Shear Modulus (GPa) = 25.55072 41.82954 33.69013
#
# Velocity S-wave (km/s) = 3.29697 4.21846 3.78586
# Velocity P-wave (km/s) = 6.11102 7.58021 6.88492
#
# Compressibility (1/GPa) = 0.01861724
#
# Stress axis : x y z
#
# Youngs Moduli (GPa) = 159.43489 55.70432 25.17836
#
# Poissons Ratio (x) = 0.04102 0.07418
# Poissons Ratio (y) = 0.11740 0.47787
# Poissons Ratio (z) = 0.46970 1.05723
#
# Static dielectric constant tensor:
#      x y z
#    x 1.863010 -0.005200 -0.011230 
#    y -0.005200 1.890000 0.043030 
#    z -0.011230 0.043030 1.716430 
# 
# From -- ./inp_files/182483.got.cif
#   From: 2010.05.17/outbox.cif.g08.bks.cpg/sg2_92_cif.got.tgz:182483.got - 2010.06.03 11:33:40.
