data_PCOD9067118
_publ_section_title
;
Structure prediction by ZEFSAII (Michael W. Deem and Ramdas Pophale) SiO2 
 PCOD9067118
Probable space group: P -1
;
_chemical_formula_sum "Si O2"
_cell_formula_units_Z 12
_cell_length_a 9.663540
_cell_length_b 12.826732
_cell_length_c 4.937916
_cell_angle_alpha 56.020266
_cell_angle_beta 67.621851
_cell_angle_gamma 68.418370
_cell_volume 459.627498
_symmetry_space_group_name_H-M "P -1"
_symmetry_group_IT_number 2
_symmetry_cell_setting 'triclinic'
loop_
_space_group_symop_operation_xyz
x,y,z
-x,-y,-z
loop_
_atom_site_type_symbol
_atom_site_label
_atom_site_fract_x
_atom_site_fract_y
_atom_site_fract_z
Si Si1 0.306262 0.890609 0.819260
Si Si2 0.769479 0.721094 0.420967
Si Si3 0.612923 0.499856 0.660378
Si Si4 0.056921 0.620543 0.633822
Si Si5 0.112093 0.869805 0.502596
Si Si6 0.367310 0.153238 0.145416
O O1 0.243921 0.827984 0.692771
O O2 0.176695 0.909162 0.113295
O O3 0.459968 0.829869 0.957311
O O4 0.343707 0.019851 0.480371
O O5 0.679285 0.625083 0.488591
O O6 0.946841 0.663371 0.396907
O O7 0.702232 0.843194 0.108403
O O8 0.500000 0.500000 0.000000
O O9 0.500000 0.500000 0.500000
O O10 0.274372 0.257973 0.264414
O O11 0.770556 0.407048 0.574507
O O12 0.044025 0.745155 0.657083
O O13 0.000000 0.500000 0.000000
O O14 0.000000 0.000000 0.500000
#
# Coordination Sequence:
#
# PCOD9067118 Si02
#       6
#     2   2   2   2   2   2
#     4  11  26  48  77 121 163 215 282 347 412 504
#     4  12  26  49  80 115 164 215 280 335 430 498
#     4  12  29  50  80 119 162 214 283 352 416 497
#     4  12  30  56  85 126 173 230 281 352 432 514
#     4  12  28  50  84 119 168 216 290 342 422 498
#     4  11  25  47  81 117 162 217 272 345 427 494
#
# _framework density 26.108101999999999
#
# number of rings (size 3 to 8) (size 9 to 14) (size 15 to 20)
#    0.000    0.333    0.000    7.000    7.000   10.667 
#    0.000    0.000    0.000    0.000    0.000    0.000 
#    0.000    0.000    0.000    0.000    0.000    0.000 
#
# Total GULP energy -67160.998214 kJ/mol
# GULP energy per Si atom -5596.749851 kJ/mol
# Density = 2.604868 g / cm^3
# Si number density = 26.108102 Si / 1000 Ang^3
#
#
#
# Elastic Constant Matrix: (Units=GPa)
#
#
# Indices 1 2 3 4 5 6 
#
# 1 234.5219 62.0881 90.0281 -8.2465 17.0704 -13.7719
# 2 62.0881 110.5764 52.0601 7.6361 -16.8368 -11.4409
# 3 90.0281 52.0601 165.3692 17.8068 22.8280 -15.5195
# 4 -8.2465 7.6361 17.8068 37.6020 0.3673 -2.9146
# 5 17.0704 -16.8368 22.8280 0.3673 36.5413 -5.1244
# 6 -13.7719 -11.4409 -15.5195 -2.9146 -5.1244 64.5337
#
#
#
# Elastic Compliance Matrix: (Units=1/GPa)
#
#
# Indices 1 2 3 4 5 6 
#
# 1 0.006332 -0.003059 -0.002419 0.003194 -0.002869 0.000144
# 2 -0.003059 0.014689 -0.004139 -0.001665 0.011046 0.001758
# 3 -0.002419 -0.004139 0.010149 -0.004394 -0.007012 0.000435
# 4 0.003194 -0.001665 -0.004394 0.029765 0.000284 0.000697
# 5 -0.002869 0.011046 -0.007012 0.000284 0.038557 0.002734
# 6 0.000144 0.001758 0.000435 0.000697 0.002734 0.016191
#
#
# Mechanical properties :
#
#
# Convention : Reuss Voigt Hill
#
# Bulk Modulus (GPa) = 83.78419 102.09112 92.93765
# Shear Modulus (GPa) = 35.99811 48.15480 42.07645
#
# Velocity S-wave (km/s) = 3.71726 4.29935 4.01886
# Velocity P-wave (km/s) = 7.11231 7.98962 7.56370
#
# Compressibility (1/GPa) = 0.01193543
#
# Stress axis : x y z
#
# Youngs Moduli (GPa) = 157.93104 68.07860 98.53309
#
# Poissons Ratio (x) = 0.20826 0.23831
# Poissons Ratio (y) = 0.48313 0.40787
# Poissons Ratio (z) = 0.38197 0.28181
#
# Static dielectric constant tensor:
#      x y z
#    x 1.997370 -0.035330 0.007140 
#    y -0.035330 2.194710 -0.084500 
#    z 0.007140 -0.084500 2.350140 
# 
# From -- ./inp_files/52117.got.cif
#   From: 2010.05.17/outbox.cif.g08.bks.cpg/sg2_27_cif.got.tgz:52117.got - 2010.06.03 11:33:40.
