data_PCOD9067592
_publ_section_title
;
Structure prediction by ZEFSAII (Michael W. Deem and Ramdas Pophale) SiO2 
 PCOD9067592
Probable space group: P -1
;
_chemical_formula_sum "Si O2"
_cell_formula_units_Z 11
_cell_length_a 14.559256
_cell_length_b 14.722502
_cell_length_c 11.816936
_cell_angle_alpha 26.843198
_cell_angle_beta 148.908248
_cell_angle_gamma 159.658368
_cell_volume 394.431416
_symmetry_space_group_name_H-M "P -1"
_symmetry_group_IT_number 2
_symmetry_cell_setting 'triclinic'
loop_
_space_group_symop_operation_xyz
x,y,z
-x,-y,-z
loop_
_atom_site_type_symbol
_atom_site_label
_atom_site_fract_x
_atom_site_fract_y
_atom_site_fract_z
Si Si1 0.328807 0.642501 0.045718
Si Si2 0.085337 0.513121 0.387587
Si Si3 0.000560 0.170503 0.405805
Si Si4 0.369898 0.402874 0.737977
Si Si5 0.737933 0.047663 0.723586
Si Si6 0.500000 0.000000 0.000000
O O1 0.225588 0.518111 0.206517
O O2 0.411259 0.512568 0.208929
O O3 0.588855 0.979119 0.987495
O O4 0.112399 0.579843 0.816050
O O5 0.354526 0.617786 0.525967
O O6 0.121571 0.732573 0.264169
O O7 0.927558 0.216150 0.628830
O O8 0.108343 0.184866 0.622552
O O9 0.000000 0.000000 0.500000
O O10 0.721757 0.044293 0.247178
O O11 0.361133 0.248483 0.007192
O O12 0.500000 0.000000 0.500000
#
# Coordination Sequence:
#
# PCOD9067592 Si02
#       6
#     2   2   2   2   2   1
#     4  12  26  46  69 112 144 187 242 288 356 429
#     4  11  26  47  74 101 144 186 239 301 348 423
#     4  12  26  44  69 107 145 188 238 286 355 430
#     4  12  25  46  73 105 143 190 235 294 356 420
#     4  11  25  51  71 103 141 185 244 296 357 419
#     4  12  26  44  74  98 152 192 224 298 346 426
#
# _framework density 27.888242999999999
#
# number of rings (size 3 to 8) (size 9 to 14) (size 15 to 20)
#    0.000    0.364    5.455    2.727    0.000    0.727 
#    6.545    0.000    0.000    0.000    0.000    0.000 
#    0.000    0.000    0.000    0.000    0.000    0.000 
#
# Total GULP energy -61456.646420 kJ/mol
# GULP energy per Si atom -5586.967856 kJ/mol
# Density = 2.782477 g / cm^3
# Si number density = 27.888243 Si / 1000 Ang^3
#
#
#
# Elastic Constant Matrix: (Units=GPa)
#
#
# Indices 1 2 3 4 5 6 
#
# 1 125.4128 24.0977 45.6997 9.5411 12.8387 12.9204
# 2 24.0977 48.5153 35.9942 29.3285 -18.3527 4.0043
# 3 45.6997 35.9942 189.7045 28.7489 1.4053 16.4115
# 4 9.5411 29.3285 28.7489 51.7168 3.4317 -3.2006
# 5 12.8387 -18.3527 1.4053 3.4317 52.7419 15.6260
# 6 12.9204 4.0043 16.4115 -3.2006 15.6260 49.4988
#
#
#
# Elastic Compliance Matrix: (Units=1/GPa)
#
#
# Indices 1 2 3 4 5 6 
#
# 1 0.010542 -0.009472 -0.001482 0.004724 -0.006374 0.000824
# 2 -0.009472 0.059647 -0.003154 -0.033031 0.029029 -0.012607
# 3 -0.001482 -0.003154 0.006620 -0.001691 -0.000343 -0.001554
# 4 0.004724 -0.033031 -0.001691 0.039990 -0.018268 0.010352
# 5 -0.006374 0.029029 -0.000343 -0.018268 0.035666 -0.013011
# 6 0.000824 -0.012607 -0.001554 0.010352 -0.013011 0.026300
#
#
# Mechanical properties :
#
#
# Convention : Reuss Voigt Hill
#
# Bulk Modulus (GPa) = 20.57926 63.91286 42.24606
# Shear Modulus (GPa) = 22.40360 47.98089 35.19224
#
# Velocity S-wave (km/s) = 2.83739 4.15235 3.55618
# Velocity P-wave (km/s) = 4.25789 6.77913 5.66066
#
# Compressibility (1/GPa) = 0.04859261
#
# Stress axis : x y z
#
# Youngs Moduli (GPa) = 94.85824 16.76532 151.05175
#
# Poissons Ratio (x) = 0.15879 0.22393
# Poissons Ratio (y) = 0.89846 0.47645
# Poissons Ratio (z) = 0.14062 0.05288
#
# Static dielectric constant tensor:
#      x y z
#    x 2.249830 0.011890 -0.024630 
#    y 0.011890 1.704650 0.068050 
#    z -0.024630 0.068050 2.002720 
# 
# From -- ./inp_files/25958.got.cif
#   From: 2010.05.17/outbox.cif.g08.bks.cpg/sg2_13_cif.got.tgz:25958.got - 2010.06.03 11:33:40.
