data_PCOD9067514
_publ_section_title
;
Structure prediction by ZEFSAII (Michael W. Deem and Ramdas Pophale) SiO2 
 PCOD9067514
Probable space group: P -1
;
_chemical_formula_sum "Si O2"
_cell_formula_units_Z 14
_cell_length_a 8.067144
_cell_length_b 5.165201
_cell_length_c 26.346189
_cell_angle_alpha 113.204390
_cell_angle_beta 31.051073
_cell_angle_gamma 116.588734
_cell_volume 506.231383
_symmetry_space_group_name_H-M "P -1"
_symmetry_group_IT_number 2
_symmetry_cell_setting 'triclinic'
loop_
_space_group_symop_operation_xyz
x,y,z
-x,-y,-z
loop_
_atom_site_type_symbol
_atom_site_label
_atom_site_fract_x
_atom_site_fract_y
_atom_site_fract_z
Si Si1 0.169927 0.866440 0.771897
Si Si2 0.729069 0.807292 0.978852
Si Si3 0.465755 0.904833 0.560595
Si Si4 0.650370 0.399490 0.716429
Si Si5 0.259357 0.730969 0.916439
Si Si6 0.880588 0.719901 0.585587
Si Si7 0.086044 0.371725 0.683918
O O1 0.504622 0.744054 0.681356
O O2 0.973299 0.599932 0.768565
O O3 0.924089 0.911643 0.884442
O O4 0.372180 0.200454 0.738767
O O5 0.025164 0.810467 0.940558
O O6 0.500000 0.500000 0.000000
O O7 0.558897 0.021978 0.072553
O O8 0.240945 0.132234 0.652759
O O9 0.854182 0.992251 0.478703
O O10 0.500000 0.000000 0.500000
O O11 0.332266 0.599654 0.599695
O O12 0.501450 0.599930 0.808486
O O13 0.903282 0.598673 0.627258
O O14 0.805043 0.225138 0.705698
O O15 0.000000 0.500000 0.000000
O O16 0.000000 0.500000 0.500000
#
# Coordination Sequence:
#
# PCOD9067514 Si02
#       7
#     2   2   2   2   2   2   2
#     4  12  27  47  73 113 148 200 258 317 392 467
#     4  11  27  48  79 111 152 194 256 328 390 469
#     4  12  25  47  71 107 151 203 258 317 376 457
#     4  12  27  47  77 107 150 206 253 319 386 472
#     4  11  25  50  75 109 151 195 251 319 400 460
#     4  12  25  46  73 103 158 199 251 316 380 454
#     4  12  29  46  77 111 153 203 264 316 386 463
#
# _framework density 27.655339999999999
#
# number of rings (size 3 to 8) (size 9 to 14) (size 15 to 20)
#    0.000    0.286    5.714    2.143    4.000    4.000 
#    0.000    0.000    0.000    0.000    0.000    0.000 
#    0.000    0.000    0.000    0.000    0.000    0.000 
#
# Total GULP energy -78175.465255 kJ/mol
# GULP energy per Si atom -5583.961804 kJ/mol
# Density = 2.759240 g / cm^3
# Si number density = 27.655340 Si / 1000 Ang^3
#
#
#
# Elastic Constant Matrix: (Units=GPa)
#
#
# Indices 1 2 3 4 5 6 
#
# 1 96.0767 8.3007 13.5613 16.1097 10.5400 12.3319
# 2 8.3007 139.4219 40.2497 4.0714 12.5803 17.6131
# 3 13.5613 40.2497 111.6917 34.7365 23.5953 1.2296
# 4 16.1097 4.0714 34.7365 63.0963 6.5382 8.0447
# 5 10.5400 12.5803 23.5953 6.5382 39.5095 14.4497
# 6 12.3319 17.6131 1.2296 8.0447 14.4497 40.8349
#
#
#
# Elastic Compliance Matrix: (Units=1/GPa)
#
#
# Indices 1 2 3 4 5 6 
#
# 1 0.011312 -0.000086 -0.000277 -0.002264 -0.001586 -0.002364
# 2 -0.000086 0.008714 -0.003897 0.002071 0.000809 -0.004309
# 3 -0.000277 -0.003897 0.014363 -0.007468 -0.008100 0.005670
# 4 -0.002264 0.002071 -0.007468 0.020759 0.002825 -0.005074
# 5 -0.001586 0.000809 -0.008100 0.002825 0.034359 -0.012341
# 6 -0.002364 -0.004309 0.005670 -0.005074 -0.012341 0.032257
#
#
# Mechanical properties :
#
#
# Convention : Reuss Voigt Hill
#
# Bulk Modulus (GPa) = 38.65799 52.37931 45.51865
# Shear Modulus (GPa) = 35.99531 47.69338 41.84435
#
# Velocity S-wave (km/s) = 3.61164 4.15729 3.89403
# Velocity P-wave (km/s) = 5.60364 6.48269 6.05913
#
# Compressibility (1/GPa) = 0.02586787
#
# Stress axis : x y z
#
# Youngs Moduli (GPa) = 88.40248 114.76353 69.62417
#
# Poissons Ratio (x) = 0.00982 0.01932
# Poissons Ratio (y) = 0.00756 0.27134
# Poissons Ratio (z) = 0.02453 0.44725
#
# Static dielectric constant tensor:
#      x y z
#    x 3.305840 -0.332310 -1.618760 
#    y -0.332310 2.385510 0.704700 
#    z -1.618760 0.704700 4.523820 
# 
# From -- ./inp_files/488161.got.cif
#   From: 2010.05.17/outbox.cif.g08.bks.cpg/sg2_245_cif.got.tgz:488161.got - 2010.06.03 11:33:40.
