data_PCOD9067309
_publ_section_title
;
Structure prediction by ZEFSAII (Michael W. Deem and Ramdas Pophale) SiO2 
 PCOD9067309
Probable space group: P -1
;
_chemical_formula_sum "Si O2"
_cell_formula_units_Z 16
_cell_length_a 8.558615
_cell_length_b 17.869636
_cell_length_c 12.223689
_cell_angle_alpha 30.296174
_cell_angle_beta 121.523499
_cell_angle_gamma 131.134955
_cell_volume 705.273741
_symmetry_space_group_name_H-M "P -1"
_symmetry_group_IT_number 2
_symmetry_cell_setting 'triclinic'
loop_
_space_group_symop_operation_xyz
x,y,z
-x,-y,-z
loop_
_atom_site_type_symbol
_atom_site_label
_atom_site_fract_x
_atom_site_fract_y
_atom_site_fract_z
Si Si1 0.178907 0.735594 0.465100
Si Si2 0.302010 0.613357 0.027760
Si Si3 0.339734 0.029960 0.328821
Si Si4 0.094177 0.370909 0.692329
Si Si5 0.442831 0.419943 0.460914
Si Si6 0.983631 0.868718 0.829509
Si Si7 0.115988 0.430144 0.980355
Si Si8 0.565858 0.895218 0.239672
O O1 0.131302 0.560276 0.726944
O O2 0.372871 0.795796 0.376486
O O3 0.984940 0.714385 0.347122
O O4 0.238847 0.879523 0.395478
O O5 0.281746 0.468611 0.285508
O O6 0.102704 0.638184 0.948133
O O7 0.513273 0.787250 0.903080
O O8 0.290420 0.541354 0.992707
O O9 0.158548 0.043590 0.311650
O O10 0.500000 0.000000 0.500000
O O11 0.341112 0.476637 0.656434
O O12 0.000000 0.500000 0.500000
O O13 0.018599 0.235034 0.931566
O O14 0.500000 0.500000 0.500000
O O15 0.385952 0.227865 0.664140
O O16 0.886033 0.731386 0.870912
O O17 0.229226 0.997301 0.747093
O O18 0.500000 0.000000 0.000000
#
# Coordination Sequence:
#
# PCOD9067309 Si02
#       8
#     2   2   2   2   2   2   2   2
#     4  12  25  45  76 102 152 187 237 299 364 425
#     4  11  26  48  74 106 144 186 250 290 363 431
#     4  12  28  49  73 109 146 190 243 306 359 430
#     4  12  22  44  70 105 139 187 241 292 357 435
#     4  12  27  43  74 105 143 192 241 295 363 432
#     4  12  26  45  74 107 146 188 242 295 369 422
#     4  11  25  48  78 101 142 197 238 298 354 442
#     4  12  27  46  69 112 150 188 239 301 368 431
#
# _framework density 22.686228
#
# number of rings (size 3 to 8) (size 9 to 14) (size 15 to 20)
#    0.000    0.250    6.250    1.500    7.000    2.000 
#    0.000    1.875    0.000    0.000    0.000    0.000 
#    0.000    0.000    0.000    0.000    0.000    0.000 
#
# Total GULP energy -89566.585054 kJ/mol
# GULP energy per Si atom -5597.911566 kJ/mol
# Density = 2.263459 g / cm^3
# Si number density = 22.686228 Si / 1000 Ang^3
#
#
#
# Elastic Constant Matrix: (Units=GPa)
#
#
# Indices 1 2 3 4 5 6 
#
# 1 79.5773 19.9054 13.1224 -12.4127 14.9164 -6.6288
# 2 19.9054 113.9487 12.7436 -14.5825 18.3127 -26.8101
# 3 13.1224 12.7436 63.7052 0.6380 17.7585 -10.8214
# 4 -12.4127 -14.5825 0.6380 41.7520 0.2993 -0.4652
# 5 14.9164 18.3127 17.7585 0.2993 42.8002 -10.6179
# 6 -6.6288 -26.8101 -10.8214 -0.4652 -10.6179 47.6369
#
#
#
# Elastic Compliance Matrix: (Units=1/GPa)
#
#
# Indices 1 2 3 4 5 6 
#
# 1 0.014488 -0.001186 -0.001694 0.003948 -0.003830 0.000149
# 2 -0.001186 0.011246 -0.000291 0.003662 -0.002945 0.005478
# 3 -0.001694 -0.000291 0.018259 -0.000813 -0.006275 0.002342
# 4 0.003948 0.003662 -0.000813 0.026457 -0.002249 0.002183
# 5 -0.003830 -0.002945 -0.006275 -0.002249 0.029296 0.002892
# 6 0.000149 0.005478 0.002342 0.002183 0.002892 0.025294
#
#
# Mechanical properties :
#
#
# Convention : Reuss Voigt Hill
#
# Bulk Modulus (GPa) = 26.55792 38.75268 32.65530
# Shear Modulus (GPa) = 34.73857 40.53513 37.63685
#
# Velocity S-wave (km/s) = 3.91738 4.23161 4.07752
# Velocity P-wave (km/s) = 5.67391 6.40269 6.04928
#
# Compressibility (1/GPa) = 0.03765355
#
# Stress axis : x y z
#
# Youngs Moduli (GPa) = 69.02033 88.91871 54.76603
#
# Poissons Ratio (x) = 0.10543 0.09277
# Poissons Ratio (y) = 0.08184 0.01592
# Poissons Ratio (z) = 0.11691 0.02586
#
# Static dielectric constant tensor:
#      x y z
#    x 1.840950 0.001960 -0.005110 
#    y 0.001960 1.851330 -0.014140 
#    z -0.005110 -0.014140 1.857140 
# 
# From -- ./inp_files/186954.got.cif
#   From: 2010.05.17/outbox.cif.g08.bks.cpg/sg2_94_cif.got.tgz:186954.got - 2010.06.03 11:33:40.
