data_PCOD9067706
_publ_section_title
;
Structure prediction by ZEFSAII (Michael W. Deem and Ramdas Pophale) SiO2 
 PCOD9067706
Probable space group: P -1
;
_chemical_formula_sum "Si O2"
_cell_formula_units_Z 14
_cell_length_a 6.861999
_cell_length_b 10.022064
_cell_length_c 15.840037
_cell_angle_alpha 57.880428
_cell_angle_beta 112.602286
_cell_angle_gamma 135.598684
_cell_volume 645.511254
_symmetry_space_group_name_H-M "P -1"
_symmetry_group_IT_number 2
_symmetry_cell_setting 'triclinic'
loop_
_space_group_symop_operation_xyz
x,y,z
-x,-y,-z
loop_
_atom_site_type_symbol
_atom_site_label
_atom_site_fract_x
_atom_site_fract_y
_atom_site_fract_z
Si Si1 0.802186 0.322231 0.272500
Si Si2 0.243897 0.764904 0.515955
Si Si3 0.566612 0.022640 0.791159
Si Si4 0.566231 0.683081 0.896116
Si Si5 0.669794 0.535702 0.433403
Si Si6 0.931783 0.918452 0.112001
Si Si7 0.421714 0.649304 0.219805
O O1 0.871252 0.345077 0.374443
O O2 0.610836 0.379574 0.197001
O O3 0.090201 0.468633 0.219720
O O4 0.603958 0.079775 0.290055
O O5 0.336345 0.654122 0.519360
O O6 0.995841 0.730510 0.437073
O O7 0.500000 0.000000 0.500000
O O8 0.515979 0.157559 0.785047
O O9 0.900619 0.156115 0.804269
O O10 0.482529 0.808503 0.887146
O O11 0.500000 0.500000 0.000000
O O12 0.897270 0.866187 0.878069
O O13 0.500000 0.500000 0.500000
O O14 0.540941 0.566187 0.323945
O O15 0.608566 0.750817 0.133418
O O16 0.000000 0.000000 0.000000
#
# Coordination Sequence:
#
# PCOD9067706 Si02
#       7
#     2   2   2   2   2   2   2
#     4   9  23  43  65 100 130 179 217 273 338 386
#     4  11  26  44  71  96 140 180 223 274 336 408
#     4   8  24  41  64  95 133 165 225 271 331 396
#     4   8  20  42  62  92 135 165 219 276 316 401
#     4  11  27  43  67 106 133 174 229 278 336 395
#     4   9  23  41  64  92 125 181 216 268 338 386
#     4  12  23  43  69  94 138 171 220 284 330 397
#
# _framework density 21.688236
#
# number of rings (size 3 to 8) (size 9 to 14) (size 15 to 20)
#    1.714    0.286    1.429    0.000   10.000    2.286 
#    2.571    2.143    0.000    0.000    0.000    0.000 
#    0.000    0.000    0.000    0.000    0.000    0.000 
#
# Total GULP energy -77943.489311 kJ/mol
# GULP energy per Si atom -5567.392094 kJ/mol
# Density = 2.163887 g / cm^3
# Si number density = 21.688236 Si / 1000 Ang^3
#
#
#
# Elastic Constant Matrix: (Units=GPa)
#
#
# Indices 1 2 3 4 5 6 
#
# 1 84.7361 35.2279 5.8975 -0.2114 -13.1300 10.9231
# 2 35.2279 90.1618 -2.2809 9.4606 4.3015 16.7660
# 3 5.8975 -2.2809 55.1421 8.1221 -3.8120 16.5707
# 4 -0.2114 9.4606 8.1221 33.7843 2.1757 3.0522
# 5 -13.1300 4.3015 -3.8120 2.1757 33.2136 -4.2052
# 6 10.9231 16.7660 16.5707 3.0522 -4.2052 34.3619
#
#
#
# Elastic Compliance Matrix: (Units=1/GPa)
#
#
# Indices 1 2 3 4 5 6 
#
# 1 0.015787 -0.006688 -0.001704 0.001972 0.006746 -0.000283
# 2 -0.006688 0.015965 0.004041 -0.004459 -0.004946 -0.007822
# 3 -0.001704 0.004041 0.022919 -0.005591 0.000287 -0.011951
# 4 0.001972 -0.004459 -0.005591 0.032173 -0.001236 0.001236
# 5 0.006746 -0.004946 0.000287 -0.001236 0.034088 0.004412
# 6 -0.000283 -0.007822 -0.011951 0.001236 0.004412 0.039202
#
#
# Mechanical properties :
#
#
# Convention : Reuss Voigt Hill
#
# Bulk Modulus (GPa) = 21.75369 34.19211 27.97290
# Shear Modulus (GPa) = 27.15070 33.01834 30.08452
#
# Velocity S-wave (km/s) = 3.54201 3.90604 3.72847
# Velocity P-wave (km/s) = 5.17491 6.01185 5.60901
#
# Compressibility (1/GPa) = 0.04596922
#
# Stress axis : x y z
#
# Youngs Moduli (GPa) = 63.34329 62.63851 43.63188
#
# Poissons Ratio (x) = 0.41890 0.07435
# Poissons Ratio (y) = 0.42361 -0.17631
# Poissons Ratio (z) = 0.10794 -0.25312
#
# Static dielectric constant tensor:
#      x y z
#    x 1.797860 0.008560 -0.016980 
#    y 0.008560 1.874410 0.039130 
#    z -0.016980 0.039130 1.829260 
# 
# From -- ./inp_files/137453.got.cif
#   From: 2010.05.17/outbox.cif.g08.bks.cpg/sg2_69_cif.got.tgz:137453.got - 2010.06.03 11:33:40.
