data_PCOD9067755
_publ_section_title
;
Structure prediction by ZEFSAII (Michael W. Deem and Ramdas Pophale) SiO2 
 PCOD9067755
Probable space group: P -1
;
_chemical_formula_sum "Si O2"
_cell_formula_units_Z 16
_cell_length_a 4.879981
_cell_length_b 20.659993
_cell_length_c 8.042902
_cell_angle_alpha 67.286734
_cell_angle_beta 62.749429
_cell_angle_gamma 60.914433
_cell_volume 615.866871
_symmetry_space_group_name_H-M "P -1"
_symmetry_group_IT_number 2
_symmetry_cell_setting 'triclinic'
loop_
_space_group_symop_operation_xyz
x,y,z
-x,-y,-z
loop_
_atom_site_type_symbol
_atom_site_label
_atom_site_fract_x
_atom_site_fract_y
_atom_site_fract_z
Si Si1 0.628276 0.598277 0.655146
Si Si2 0.481495 0.917336 0.760642
Si Si3 0.779027 0.258523 0.537783
Si Si4 0.262060 0.233941 0.962601
Si Si5 0.324410 0.551090 0.341571
Si Si6 0.489477 0.835253 0.491894
Si Si7 0.749146 0.011909 0.785625
Si Si8 0.492222 0.672532 0.978618
O O1 0.323410 0.655676 0.576697
O O2 0.651618 0.512244 0.740344
O O3 0.948208 0.594273 0.463076
O O4 0.600897 0.633567 0.809413
O O5 0.486645 0.874072 0.630969
O O6 0.729987 0.960951 0.681410
O O7 0.112090 0.981578 0.795803
O O8 0.573607 0.852801 0.939482
O O9 0.500214 0.249713 0.745143
O O10 0.752326 0.209535 0.431905
O O11 0.131870 0.223907 0.562886
O O12 0.270060 0.287122 0.062240
O O13 0.880079 0.262873 0.985114
O O14 0.500000 0.500000 0.500000
O O15 0.481429 0.608481 0.172965
O O16 0.388268 0.902034 0.319839
O O17 0.500000 0.000000 0.000000
#
# Coordination Sequence:
#
# PCOD9067755 Si02
#       8
#     2   2   2   2   2   2   2   2
#     4  11  26  45  70 103 137 184 227 290 339 418
#     4  12  24  43  67  98 138 174 230 283 336 409
#     4  12  24  44  69  97 138 176 231 277 346 404
#     4  12  25  45  69 103 137 183 229 286 338 412
#     4  11  26  46  72 101 140 181 232 280 352 407
#     4  12  25  42  68 100 131 183 224 282 342 406
#     4  12  24  43  66  97 135 179 225 280 345 402
#     4  12  26  46  71 103 141 181 235 280 348 405
#
# _framework density 25.979641000000001
#
# number of rings (size 3 to 8) (size 9 to 14) (size 15 to 20)
#    0.000    0.250    1.250    8.250    5.250    0.500 
#    0.000    0.000    0.000    0.000    0.000    0.000 
#    0.000    0.000    0.000    0.000    0.000    0.000 
#
# Total GULP energy -89852.629832 kJ/mol
# GULP energy per Si atom -5615.789364 kJ/mol
# Density = 2.592051 g / cm^3
# Si number density = 25.979641 Si / 1000 Ang^3
#
#
#
# Elastic Constant Matrix: (Units=GPa)
#
#
# Indices 1 2 3 4 5 6 
#
# 1 134.2150 53.4039 13.6140 -9.5830 3.1660 -9.0633
# 2 53.4039 124.5247 52.2976 -26.5806 13.1122 -10.9234
# 3 13.6140 52.2976 102.4630 -18.7667 11.3858 -15.0570
# 4 -9.5830 -26.5806 -18.7667 55.6212 8.8950 7.1481
# 5 3.1660 13.1122 11.3858 8.8950 33.9341 2.7674
# 6 -9.0633 -10.9234 -15.0570 7.1481 2.7674 58.5335
#
#
#
# Elastic Compliance Matrix: (Units=1/GPa)
#
#
# Indices 1 2 3 4 5 6 
#
# 1 0.009118 -0.004407 0.001038 -0.000383 0.000533 0.000878
# 2 -0.004407 0.013465 -0.004909 0.004695 -0.004392 0.000202
# 3 0.001038 -0.004909 0.013371 0.002589 -0.003572 0.002537
# 4 -0.000383 0.004695 0.002589 0.022496 -0.008474 -0.000864
# 5 0.000533 -0.004392 -0.003572 -0.008474 0.034720 -0.002263
# 6 0.000878 0.000202 0.002537 -0.000864 -0.002263 0.018123
#
#
# Mechanical properties :
#
#
# Convention : Reuss Voigt Hill
#
# Bulk Modulus (GPa) = 51.55488 66.64818 59.10153
# Shear Modulus (GPa) = 37.22521 45.74359 41.48440
#
# Velocity S-wave (km/s) = 3.78942 4.20068 4.00034
# Velocity P-wave (km/s) = 6.24770 7.01693 6.64346
#
# Compressibility (1/GPa) = 0.01939681
#
# Stress axis : x y z
#
# Youngs Moduli (GPa) = 109.66770 74.26791 74.78613
#
# Poissons Ratio (x) = 0.32731 -0.07759
# Poissons Ratio (y) = 0.48332 0.36715
# Poissons Ratio (z) = -0.11378 0.36460
#
# Static dielectric constant tensor:
#      x y z
#    x 1.999900 0.040080 0.049150 
#    y 0.040080 2.064230 0.087780 
#    z 0.049150 0.087780 2.049070 
# 
# From -- ./inp_files/141232.got.cif
#   From: 2010.05.17/outbox.cif.g08.bks.cpg/sg2_71_cif.got.tgz:141232.got - 2010.06.03 11:33:40.
