data_PCOD9067634
_publ_section_title
;
Structure prediction by ZEFSAII (Michael W. Deem and Ramdas Pophale) SiO2 
 PCOD9067634
Probable space group: P -1
;
_chemical_formula_sum "Si O2"
_cell_formula_units_Z 14
_cell_length_a 16.523308
_cell_length_b 16.245362
_cell_length_c 7.496011
_cell_angle_alpha 58.844089
_cell_angle_beta 107.337239
_cell_angle_gamma 155.170480
_cell_volume 635.352134
_symmetry_space_group_name_H-M "P -1"
_symmetry_group_IT_number 2
_symmetry_cell_setting 'triclinic'
loop_
_space_group_symop_operation_xyz
x,y,z
-x,-y,-z
loop_
_atom_site_type_symbol
_atom_site_label
_atom_site_fract_x
_atom_site_fract_y
_atom_site_fract_z
Si Si1 0.074332 0.490318 0.860571
Si Si2 0.289924 0.040185 0.689183
Si Si3 0.475172 0.367950 0.728800
Si Si4 0.741773 0.301318 0.853893
Si Si5 0.977775 0.090290 0.860006
Si Si6 0.942914 0.833155 0.590422
Si Si7 0.296527 0.589154 0.605186
O O1 0.217632 0.583493 0.705906
O O2 0.964039 0.475771 0.746466
O O3 0.210305 0.637063 0.971309
O O4 0.849004 0.195704 0.075917
O O5 0.451938 0.261978 0.683694
O O6 0.448178 0.174273 0.481721
O O7 0.104271 0.926453 0.676519
O O8 0.500000 0.500000 0.500000
O O9 0.686605 0.560694 0.764692
O O10 0.263115 0.141045 0.966424
O O11 0.735365 0.390490 0.629608
O O12 0.500000 0.000000 0.000000
O O13 0.018510 0.144703 0.617348
O O14 0.146890 0.337138 0.794823
O O15 0.000000 0.000000 0.000000
O O16 0.000000 0.000000 0.500000
#
# Coordination Sequence:
#
# PCOD9067634 Si02
#       7
#     2   2   2   2   2   2   2
#     4  11  26  47  79 108 145 190 243 299 379 441
#     4  12  24  46  68 108 142 186 245 301 359 437
#     4  12  23  46  68  93 146 191 235 301 351 415
#     4  11  25  52  77 109 148 186 241 310 371 439
#     4  12  24  44  72 103 144 196 238 293 365 425
#     4  12  26  42  68 100 141 194 251 297 353 425
#     4  12  25  48  77 109 151 191 246 302 365 438
#
# _framework density 22.035024
#
# number of rings (size 3 to 8) (size 9 to 14) (size 15 to 20)
#    0.000    0.286    7.143    1.286    0.000    2.286 
#    5.143    0.000    0.000    0.000    0.000    0.000 
#    0.000    0.000    0.000    0.000    0.000    0.000 
#
# Total GULP energy -78203.119197 kJ/mol
# GULP energy per Si atom -5585.937086 kJ/mol
# Density = 2.198487 g / cm^3
# Si number density = 22.035024 Si / 1000 Ang^3
#
#
#
# Elastic Constant Matrix: (Units=GPa)
#
#
# Indices 1 2 3 4 5 6 
#
# 1 139.4352 34.9412 34.9892 -3.8230 -22.4429 17.5671
# 2 34.9412 89.7183 16.6410 -7.9576 1.8901 11.2089
# 3 34.9892 16.6410 74.1648 -21.5854 -18.6785 12.9591
# 4 -3.8230 -7.9576 -21.5854 27.2446 2.7619 -14.0994
# 5 -22.4429 1.8901 -18.6785 2.7619 53.5900 -4.2930
# 6 17.5671 11.2089 12.9591 -14.0994 -4.2930 38.6137
#
#
#
# Elastic Compliance Matrix: (Units=1/GPa)
#
#
# Indices 1 2 3 4 5 6 
#
# 1 0.009709 -0.003076 -0.003972 -0.004855 0.002747 -0.003659
# 2 -0.003076 0.012984 -0.001276 0.001789 -0.002408 -0.001556
# 3 -0.003972 -0.001276 0.021415 0.016299 0.005126 0.001512
# 4 -0.004855 0.001789 0.016299 0.058462 0.001997 0.017788
# 5 0.002747 -0.002408 0.005126 0.001997 0.021649 0.000865
# 6 -0.003659 -0.001556 0.001512 0.017788 0.000865 0.034098
#
#
# Mechanical properties :
#
#
# Convention : Reuss Voigt Hill
#
# Bulk Modulus (GPa) = 36.41757 52.94013 44.67885
# Shear Modulus (GPa) = 27.15629 38.33945 32.74787
#
# Velocity S-wave (km/s) = 3.51439 4.17577 3.85927
# Velocity P-wave (km/s) = 5.74725 6.87947 6.33869
#
# Compressibility (1/GPa) = 0.02745927
#
# Stress axis : x y z
#
# Youngs Moduli (GPa) = 102.99282 77.01522 46.69727
#
# Poissons Ratio (x) = 0.23690 0.18550
# Poissons Ratio (y) = 0.31681 0.05960
# Poissons Ratio (z) = 0.40912 0.09829
#
# Static dielectric constant tensor:
#      x y z
#    x 2.168000 0.047360 0.178280 
#    y 0.047360 1.805520 0.036850 
#    z 0.178280 0.036850 1.935160 
# 
# From -- ./inp_files/312799.got.cif
#   From: 2010.05.17/outbox.cif.g08.bks.cpg/sg2_157_cif.got.tgz:312799.got - 2010.06.03 11:33:40.
