data_PCOD9067258
_publ_section_title
;
Structure prediction by ZEFSAII (Michael W. Deem and Ramdas Pophale) SiO2 
 PCOD9067258
Probable space group: P -1
;
_chemical_formula_sum "Si O2"
_cell_formula_units_Z 15
_cell_length_a 5.591077
_cell_length_b 11.836938
_cell_length_c 16.464215
_cell_angle_alpha 146.980692
_cell_angle_beta 103.749564
_cell_angle_gamma 78.911234
_cell_volume 576.693916
_symmetry_space_group_name_H-M "P -1"
_symmetry_group_IT_number 2
_symmetry_cell_setting 'triclinic'
loop_
_space_group_symop_operation_xyz
x,y,z
-x,-y,-z
loop_
_atom_site_type_symbol
_atom_site_label
_atom_site_fract_x
_atom_site_fract_y
_atom_site_fract_z
Si Si1 0.641411 0.572383 0.475072
Si Si2 0.469099 0.691272 0.934751
Si Si3 0.636247 0.748170 0.272789
Si Si4 0.825860 0.004508 0.814434
Si Si5 0.000000 0.000000 0.500000
Si Si6 0.936693 0.262506 0.831360
Si Si7 0.111116 0.750354 0.801864
Si Si8 0.223262 0.552896 0.299537
O O1 0.500000 0.500000 0.500000
O O2 0.755480 0.792595 0.637684
O O3 0.818388 0.388379 0.353211
O O4 0.467685 0.595075 0.396858
O O5 0.330462 0.491131 0.843274
O O6 0.348140 0.778924 0.895174
O O7 0.712906 0.578911 0.855488
O O8 0.418690 0.872146 0.103689
O O9 0.356743 0.762294 0.226998
O O10 0.869809 0.811649 0.267985
O O11 0.724003 0.901945 0.442157
O O12 0.983646 0.950919 0.875115
O O13 0.975727 0.134529 0.839003
O O14 0.881121 0.225299 0.595822
O O15 0.000000 0.500000 0.000000
O O16 0.935328 0.601429 0.750459
#
# Coordination Sequence:
#
# PCOD9067258 Si02
#       8
#     2   2   2   2   1   2   2   2
#     4  11  25  48  75 113 158 204 269 337 398 491
#     4  11  26  49  73 115 158 204 266 333 405 490
#     4  12  27  50  80 117 161 209 278 341 408 491
#     4  12  26  47  82 110 157 215 263 335 417 476
#     4  12  26  48  84 110 156 218 266 334 412 476
#     4  12  28  51  77 117 162 216 270 337 410 493
#     4  11  25  49  72 112 152 204 266 327 399 491
#     4  11  25  48  76 109 160 200 264 333 401 493
#
# _framework density 26.010331999999998
#
# number of rings (size 3 to 8) (size 9 to 14) (size 15 to 20)
#    0.000    0.533    4.000    2.800    1.867    3.733 
#    2.400    0.000    0.000    0.000    0.000    0.000 
#    0.000    0.000    0.000    0.000    0.000    0.000 
#
# Total GULP energy -83774.307146 kJ/mol
# GULP energy per Si atom -5584.953810 kJ/mol
# Density = 2.595113 g / cm^3
# Si number density = 26.010332 Si / 1000 Ang^3
#
#
#
# Elastic Constant Matrix: (Units=GPa)
#
#
# Indices 1 2 3 4 5 6 
#
# 1 140.3066 51.0352 38.5856 6.1202 -19.7294 -6.9218
# 2 51.0352 158.3466 28.6319 27.4202 -8.9121 1.6102
# 3 38.5856 28.6319 87.0294 19.1396 -12.3125 -5.3027
# 4 6.1202 27.4202 19.1396 46.9672 -2.6396 -1.6221
# 5 -19.7294 -8.9121 -12.3125 -2.6396 56.3190 -12.9625
# 6 -6.9218 1.6102 -5.3027 -1.6221 -12.9625 53.3689
#
#
#
# Elastic Compliance Matrix: (Units=1/GPa)
#
#
# Indices 1 2 3 4 5 6 
#
# 1 0.009330 -0.002612 -0.003205 0.001820 0.002622 0.001663
# 2 -0.002612 0.007981 -0.000640 -0.004096 -0.000170 -0.000809
# 3 -0.003205 -0.000640 0.014596 -0.004993 0.002055 0.001401
# 4 0.001820 -0.004096 -0.004993 0.025519 0.000255 0.000701
# 5 0.002622 -0.000170 0.002055 0.000255 0.020376 0.005506
# 6 0.001663 -0.000809 0.001401 0.000701 0.005506 0.020476
#
#
# Mechanical properties :
#
#
# Convention : Reuss Voigt Hill
#
# Bulk Modulus (GPa) = 52.65329 69.13198 60.89263
# Shear Modulus (GPa) = 42.54465 49.15966 45.85216
#
# Velocity S-wave (km/s) = 4.04875 4.35214 4.20318
# Velocity P-wave (km/s) = 6.49181 7.20355 6.85692
#
# Compressibility (1/GPa) = 0.01899217
#
# Stress axis : x y z
#
# Youngs Moduli (GPa) = 107.17842 125.30165 68.51054
#
# Poissons Ratio (x) = 0.32730 0.21960
# Poissons Ratio (y) = 0.27996 0.04386
# Poissons Ratio (z) = 0.34354 0.08022
#
# Static dielectric constant tensor:
#      x y z
#    x 2.103510 -0.050860 0.012860 
#    y -0.050860 1.935240 0.108540 
#    z 0.012860 0.108540 1.555530 
# 
# From -- ./inp_files/549623.got.cif
#   From: 2010.05.17/outbox.cif.g08.bks.cpg/sg2_275_cif.got.tgz:549623.got - 2010.06.03 11:33:40.
