data_PCOD9067578
_publ_section_title
;
Structure prediction by ZEFSAII (Michael W. Deem and Ramdas Pophale) SiO2 
 PCOD9067578
Probable space group: P -1
;
_chemical_formula_sum "Si O2"
_cell_formula_units_Z 6
_cell_length_a 9.748140
_cell_length_b 6.879646
_cell_length_c 5.276175
_cell_angle_alpha 79.379359
_cell_angle_beta 96.067566
_cell_angle_gamma 45.372279
_cell_volume 233.101127
_symmetry_space_group_name_H-M "P -1"
_symmetry_group_IT_number 2
_symmetry_cell_setting 'triclinic'
loop_
_space_group_symop_operation_xyz
x,y,z
-x,-y,-z
loop_
_atom_site_type_symbol
_atom_site_label
_atom_site_fract_x
_atom_site_fract_y
_atom_site_fract_z
Si Si1 0.042369 0.283439 0.848533
Si Si2 0.432986 0.957313 0.749873
Si Si3 0.684777 0.366625 0.747619
O O1 0.849043 0.360123 0.696300
O O2 0.189389 0.191373 0.667662
O O3 0.000000 0.500000 0.000000
O O4 0.184981 0.964959 0.086811
O O5 0.561700 0.619164 0.874720
O O6 0.500000 0.000000 0.500000
O O7 0.500000 0.000000 0.000000
O O8 0.500000 0.500000 0.500000
#
# Coordination Sequence:
#
# PCOD9067578 Si02
#       3
#     2   2   2
#     4  11  25  50  81 114 160 208 270 329 401 478
#     4  12  26  50  81 116 162 213 264 332 407 481
#     4  11  26  49  80 117 158 209 269 328 405 475
#
# _framework density 25.739903999999999
#
# number of rings (size 3 to 8) (size 9 to 14) (size 15 to 20)
#    0.000    0.667    3.333    3.000    0.000    2.667 
#    0.000    0.000    0.000    0.000    0.000    0.000 
#    0.000    0.000    0.000    0.000    0.000    0.000 
#
# Total GULP energy -33595.276306 kJ/mol
# GULP energy per Si atom -5599.212718 kJ/mol
# Density = 2.568132 g / cm^3
# Si number density = 25.739904 Si / 1000 Ang^3
#
#
#
# Elastic Constant Matrix: (Units=GPa)
#
#
# Indices 1 2 3 4 5 6 
#
# 1 255.2391 90.9289 81.8273 7.5574 5.1078 -26.7629
# 2 90.9289 242.7567 46.1360 -1.9321 -5.6070 14.3657
# 3 81.8273 46.1360 110.8295 9.1738 7.4206 5.1452
# 4 7.5574 -1.9321 9.1738 57.5444 -1.2052 5.4198
# 5 5.1078 -5.6070 7.4206 -1.2052 70.7080 -3.3513
# 6 -26.7629 14.3657 5.1452 5.4198 -3.3513 65.6319
#
#
#
# Elastic Compliance Matrix: (Units=1/GPa)
#
#
# Indices 1 2 3 4 5 6 
#
# 1 0.006158 -0.001759 -0.003917 -0.000550 -0.000029 0.003247
# 2 -0.001759 0.005058 -0.000819 0.000711 0.000541 -0.001791
# 3 -0.003917 -0.000819 0.012557 -0.001319 -0.001234 -0.002357
# 4 -0.000550 0.000711 -0.001319 0.017857 0.000457 -0.001728
# 5 -0.000029 0.000541 -0.001234 0.000457 0.014356 0.000662
# 6 0.003247 -0.001791 -0.002357 -0.001728 0.000662 0.017314
#
#
# Mechanical properties :
#
#
# Convention : Reuss Voigt Hill
#
# Bulk Modulus (GPa) = 92.74361 116.28995 104.51678
# Shear Modulus (GPa) = 55.62693 64.77240 60.19966
#
# Velocity S-wave (km/s) = 4.65382 5.02183 4.84133
# Velocity P-wave (km/s) = 8.06143 8.88268 8.48200
#
# Compressibility (1/GPa) = 0.01078241
#
# Stress axis : x y z
#
# Youngs Moduli (GPa) = 162.39507 197.70424 79.63586
#
# Poissons Ratio (x) = 0.34780 0.31197
# Poissons Ratio (y) = 0.28569 0.06520
# Poissons Ratio (z) = 0.63617 0.16186
#
# Static dielectric constant tensor:
#      x y z
#    x 2.042700 -0.100990 -0.117100 
#    y -0.100990 1.980270 -0.131690 
#    z -0.117100 -0.131690 2.021770 
# 
# From -- ./inp_files/1198.got.cif
#   From: 2010.05.17/outbox.cif.g08.bks.cpg/sg2_1_cif.got.tgz:1198.got - 2010.06.03 11:33:40.
