data_PCOD9067960
_publ_section_title
;
Structure prediction by ZEFSAII (Michael W. Deem and Ramdas Pophale) SiO2 
 PCOD9067960
Probable space group: P -1
;
_chemical_formula_sum "Si O2"
_cell_formula_units_Z 13
_cell_length_a 11.287886
_cell_length_b 10.345833
_cell_length_c 4.909763
_cell_angle_alpha 113.029021
_cell_angle_beta 98.862459
_cell_angle_gamma 76.089944
_cell_volume 511.048746
_symmetry_space_group_name_H-M "P -1"
_symmetry_group_IT_number 2
_symmetry_cell_setting 'triclinic'
loop_
_space_group_symop_operation_xyz
x,y,z
-x,-y,-z
loop_
_atom_site_type_symbol
_atom_site_label
_atom_site_fract_x
_atom_site_fract_y
_atom_site_fract_z
Si Si1 0.000000 0.500000 0.500000
Si Si2 0.889133 0.057018 0.795768
Si Si3 0.292389 0.262663 0.068413
Si Si4 0.731816 0.442589 0.415836
Si Si5 0.436687 0.155308 0.507154
Si Si6 0.331013 0.713690 0.215193
Si Si7 0.063555 0.229859 0.709711
O O1 0.866471 0.450863 0.359330
O O2 0.968158 0.629568 0.365716
O O3 0.757424 0.157310 0.876955
O O4 0.951546 0.163640 0.722664
O O5 0.863858 0.912262 0.532098
O O6 0.000000 0.000000 0.000000
O O7 0.315405 0.407045 0.328564
O O8 0.367904 0.143364 0.190371
O O9 0.339782 0.235619 0.758918
O O10 0.146426 0.269520 0.019160
O O11 0.730225 0.330626 0.567403
O O12 0.652508 0.411288 0.106229
O O13 0.545795 0.241748 0.608511
O O14 0.500000 0.000000 0.500000
#
# Coordination Sequence:
#
# PCOD9067960 Si02
#       7
#     1   2   2   2   2   2   2
#     4  12  24  50  72 118 162 202 262 312 406 470
#     4  11  26  46  75 115 153 206 256 332 401 472
#     4  12  28  49  75 114 150 208 260 327 390 464
#     4  12  28  46  77 113 156 206 255 329 392 476
#     4  12  28  51  79 109 153 207 268 327 390 472
#     4  12  27  49  76 113 153 207 262 322 397 464
#     4  11  26  46  78 110 159 201 263 328 399 476
#
# _framework density 25.437888999999998
#
# number of rings (size 3 to 8) (size 9 to 14) (size 15 to 20)
#    0.000    0.308    1.538    6.000   10.769    4.923 
#    0.000    0.000    0.000    0.000    0.000    0.000 
#    0.000    0.000    0.000    0.000    0.000    0.000 
#
# Total GULP energy -72565.754130 kJ/mol
# GULP energy per Si atom -5581.981087 kJ/mol
# Density = 2.537999 g / cm^3
# Si number density = 25.437889 Si / 1000 Ang^3
#
#
#
# Elastic Constant Matrix: (Units=GPa)
#
#
# Indices 1 2 3 4 5 6 
#
# 1 76.4430 52.1508 6.4178 -6.9345 19.2126 24.0160
# 2 52.1508 142.7842 49.2026 -29.6850 35.2156 23.7531
# 3 6.4178 49.2026 96.2607 -8.3138 15.2022 15.7457
# 4 -6.9345 -29.6850 -8.3138 34.4763 -1.8110 6.0538
# 5 19.2126 35.2156 15.2022 -1.8110 36.5999 -2.8858
# 6 24.0160 23.7531 15.7457 6.0538 -2.8858 46.6532
#
#
#
# Elastic Compliance Matrix: (Units=1/GPa)
#
#
# Indices 1 2 3 4 5 6 
#
# 1 0.022366 -0.004776 0.004678 0.003045 -0.009857 -0.011665
# 2 -0.004776 0.017287 -0.004182 0.013578 -0.012305 -0.007454
# 3 0.004678 -0.004182 0.013954 0.001422 -0.004587 -0.005457
# 4 0.003045 0.013578 0.001422 0.043622 -0.014318 -0.015507
# 5 -0.009857 -0.012305 -0.004587 -0.014318 0.046925 0.017648
# 6 -0.011665 -0.007454 -0.005457 -0.015507 0.017648 0.036181
#
#
# Mechanical properties :
#
#
# Convention : Reuss Voigt Hill
#
# Bulk Modulus (GPa) = 22.19953 59.00337 40.60145
# Shear Modulus (GPa) = 24.52049 37.39366 30.95708
#
# Velocity S-wave (km/s) = 3.10810 3.83822 3.49229
# Velocity P-wave (km/s) = 4.65041 6.54889 5.67954
#
# Compressibility (1/GPa) = 0.04504600
#
# Stress axis : x y z
#
# Youngs Moduli (GPa) = 44.71096 57.84714 71.66318
#
# Poissons Ratio (x) = 0.27629 -0.33524
# Poissons Ratio (y) = 0.21355 0.29972
# Poissons Ratio (z) = -0.20916 0.24194
#
# Static dielectric constant tensor:
#      x y z
#    x 2.066170 -0.064140 -0.098740 
#    y -0.064140 2.052150 0.078160 
#    z -0.098740 0.078160 2.182180 
# 
# From -- ./inp_files/36379.got.cif
#   From: 2010.05.17/outbox.cif.g08.bks.cpg/sg2_19_cif.got.tgz:36379.got - 2010.06.03 11:33:40.
