data_PCOD9067768
_publ_section_title
;
Structure prediction by ZEFSAII (Michael W. Deem and Ramdas Pophale) SiO2 
 PCOD9067768
Probable space group: P -1
;
_chemical_formula_sum "Si O2"
_cell_formula_units_Z 16
_cell_length_a 5.507465
_cell_length_b 18.123478
_cell_length_c 14.868873
_cell_angle_alpha 147.003947
_cell_angle_beta 103.232571
_cell_angle_gamma 61.528046
_cell_volume 663.639004
_symmetry_space_group_name_H-M "P -1"
_symmetry_group_IT_number 2
_symmetry_cell_setting 'triclinic'
loop_
_space_group_symop_operation_xyz
x,y,z
-x,-y,-z
loop_
_atom_site_type_symbol
_atom_site_label
_atom_site_fract_x
_atom_site_fract_y
_atom_site_fract_z
Si Si1 0.965767 0.351585 0.738400
Si Si2 0.999248 0.975386 0.581279
Si Si3 0.107347 0.782700 0.747137
Si Si4 0.638646 0.706009 0.114192
Si Si5 0.555265 0.101094 0.036386
Si Si6 0.253647 0.624584 0.786682
Si Si7 0.840130 0.830733 0.100781
Si Si8 0.955680 0.432183 0.621971
O O1 0.071878 0.362003 0.658892
O O2 0.204981 0.309211 0.792778
O O3 0.687204 0.529967 0.923382
O O4 0.919303 0.204082 0.579878
O O5 0.672354 0.123528 0.733711
O O6 0.212700 0.011902 0.693646
O O7 0.000000 0.000000 0.500000
O O8 0.085611 0.721597 0.781405
O O9 0.041972 0.689121 0.573351
O O10 0.423046 0.766368 0.769288
O O11 0.883230 0.968295 0.892867
O O12 0.822123 0.723927 0.067577
O O13 0.367845 0.147564 0.978020
O O14 0.500000 0.000000 0.000000
O O15 0.599750 0.548778 0.724701
O O16 0.140812 0.505799 0.676477
O O17 0.149781 0.741129 0.982513
#
# Coordination Sequence:
#
# PCOD9067768 Si02
#       8
#     2   2   2   2   2   2   2   2
#     4  11  26  49  76 116 149 205 266 317 397 471
#     4  12  28  47  76 116 149 204 261 328 393 470
#     4  11  27  45  72 108 151 201 265 328 389 472
#     4  11  26  52  76 107 160 203 253 330 392 477
#     4  11  26  45  71 106 149 205 262 321 398 470
#     4  12  26  49  74 111 155 212 259 318 406 468
#     4  12  26  47  78 104 156 206 253 324 399 470
#     4  12  28  46  78 113 155 206 262 334 391 466
#
# _framework density 24.109494999999999
#
# number of rings (size 3 to 8) (size 9 to 14) (size 15 to 20)
#    0.000    0.500    3.750    2.625    7.000    1.500 
#    0.000    0.000    0.000    0.000    0.000    0.000 
#    0.000    0.000    0.000    0.000    0.000    0.000 
#
# Total GULP energy -89412.560640 kJ/mol
# GULP energy per Si atom -5588.285040 kJ/mol
# Density = 2.405462 g / cm^3
# Si number density = 24.109495 Si / 1000 Ang^3
#
#
#
# Elastic Constant Matrix: (Units=GPa)
#
#
# Indices 1 2 3 4 5 6 
#
# 1 57.6411 19.9054 22.8872 7.6545 17.0881 2.2395
# 2 19.9054 141.4162 33.4680 -17.2674 23.0886 2.6202
# 3 22.8872 33.4680 167.6787 -5.1629 44.0449 8.1057
# 4 7.6545 -17.2674 -5.1629 50.1122 0.2618 5.4576
# 5 17.0881 23.0886 44.0449 0.2618 52.1429 5.3427
# 6 2.2395 2.6202 8.1057 5.4576 5.3427 42.2226
#
#
#
# Elastic Compliance Matrix: (Units=1/GPa)
#
#
# Indices 1 2 3 4 5 6 
#
# 1 0.020569 -0.002344 -0.001262 -0.004101 -0.004659 0.000416
# 2 -0.002344 0.008334 -0.000596 0.003224 -0.002394 -0.000392
# 3 -0.001262 -0.000596 0.007869 0.000914 -0.005894 -0.000779
# 4 -0.004101 0.003224 0.000914 0.022109 -0.000666 -0.002931
# 5 -0.004659 -0.002394 -0.005894 -0.000666 0.026931 -0.001794
# 6 0.000416 -0.000392 -0.000779 -0.002931 -0.001794 0.024442
#
#
# Mechanical properties :
#
#
# Convention : Reuss Voigt Hill
#
# Bulk Modulus (GPa) = 35.25310 57.69526 46.47418
# Shear Modulus (GPa) = 39.02722 48.26056 43.64389
#
# Velocity S-wave (km/s) = 4.02773 4.47892 4.25930
# Velocity P-wave (km/s) = 6.02362 7.12250 6.59599
#
# Compressibility (1/GPa) = 0.02836630
#
# Stress axis : x y z
#
# Youngs Moduli (GPa) = 48.61690 119.98688 127.07899
#
# Poissons Ratio (x) = 0.28129 0.16042
# Poissons Ratio (y) = 0.11397 0.07578
# Poissons Ratio (z) = 0.06137 0.07155
#
# Static dielectric constant tensor:
#      x y z
#    x 2.084850 -0.084360 -0.025300 
#    y -0.084360 1.907920 0.036580 
#    z -0.025300 0.036580 1.956930 
# 
# From -- ./inp_files/485326.got.cif
#   From: 2010.05.17/outbox.cif.g08.bks.cpg/sg2_243_cif.got.tgz:485326.got - 2010.06.03 11:33:40.
