data_PCOD9067016
_publ_section_title
;
Structure prediction by ZEFSAII (Michael W. Deem and Ramdas Pophale) SiO2 
 PCOD9067016
Probable space group: P -1
;
_chemical_formula_sum "Si O2"
_cell_formula_units_Z 13
_cell_length_a 6.676318
_cell_length_b 14.800036
_cell_length_c 9.088212
_cell_angle_alpha 51.692225
_cell_angle_beta 122.933575
_cell_angle_gamma 130.066206
_cell_volume 523.393739
_symmetry_space_group_name_H-M "P -1"
_symmetry_group_IT_number 2
_symmetry_cell_setting 'triclinic'
loop_
_space_group_symop_operation_xyz
x,y,z
-x,-y,-z
loop_
_atom_site_type_symbol
_atom_site_label
_atom_site_fract_x
_atom_site_fract_y
_atom_site_fract_z
Si Si1 0.418166 0.587843 0.490762
Si Si2 0.879707 0.585833 0.167598
Si Si3 0.256670 0.939831 0.295587
Si Si4 0.889822 0.850355 0.976175
Si Si5 0.802279 0.031564 0.288764
Si Si6 0.000000 0.500000 0.000000
Si Si7 0.005476 0.752266 0.647504
O O1 0.500000 0.500000 0.500000
O O2 0.286952 0.512776 0.666915
O O3 0.697820 0.711864 0.521130
O O4 0.194734 0.620297 0.292829
O O5 0.814424 0.706404 0.042071
O O6 0.841333 0.539001 0.030780
O O7 0.196917 0.862257 0.499577
O O8 0.313988 0.089361 0.182194
O O9 0.501194 0.938823 0.307258
O O10 0.990726 0.865351 0.166757
O O11 0.135559 0.956104 0.869637
O O12 0.894559 0.179082 0.226051
O O13 0.000000 0.000000 0.500000
O O14 0.027050 0.621082 0.787804
#
# Coordination Sequence:
#
# PCOD9067016 Si02
#       7
#     2   2   2   2   2   1   2
#     4  11  25  49  72 106 149 199 247 300 379 443
#     4  11  26  47  76 108 148 195 248 311 368 451
#     4  11  27  49  72 106 150 192 249 305 369 442
#     4  11  25  47  75 109 140 199 243 306 368 447
#     4  12  26  47  72 107 147 194 243 305 374 438
#     4  12  26  48  70 114 144 190 254 304 376 432
#     4  12  26  47  70 106 147 193 241 306 367 444
#
# _framework density 24.837897999999999
#
# number of rings (size 3 to 8) (size 9 to 14) (size 15 to 20)
#    0.000    0.615    4.615    1.846    4.308    5.538 
#    0.000    0.000    0.000    0.000    0.000    0.000 
#    0.000    0.000    0.000    0.000    0.000    0.000 
#
# Total GULP energy -72470.083118 kJ/mol
# GULP energy per Si atom -5574.621778 kJ/mol
# Density = 2.478137 g / cm^3
# Si number density = 24.837898 Si / 1000 Ang^3
#
#
#
# Elastic Constant Matrix: (Units=GPa)
#
#
# Indices 1 2 3 4 5 6 
#
# 1 105.5112 28.5571 20.0441 4.2372 -0.4421 -13.1797
# 2 28.5571 57.7781 9.6781 5.7182 12.3057 -13.4623
# 3 20.0441 9.6781 102.3907 -9.8072 8.1868 -7.3475
# 4 4.2372 5.7182 -9.8072 33.0413 -14.7205 2.3886
# 5 -0.4421 12.3057 8.1868 -14.7205 46.3677 8.0617
# 6 -13.1797 -13.4623 -7.3475 2.3886 8.0617 42.3046
#
#
#
# Elastic Compliance Matrix: (Units=1/GPa)
#
#
# Indices 1 2 3 4 5 6 
#
# 1 0.011449 -0.005297 -0.001812 -0.000548 0.001431 0.001325
# 2 -0.005297 0.025530 -0.000746 -0.009665 -0.011336 0.009051
# 3 -0.001812 -0.000746 0.010631 0.003033 -0.000915 0.001047
# 4 -0.000548 -0.009665 0.003033 0.040801 0.016394 -0.008147
# 5 0.001431 -0.011336 -0.000915 0.016394 0.031745 -0.010296
# 6 0.001325 0.009051 0.001047 -0.008147 -0.010296 0.029535
#
#
# Mechanical properties :
#
#
# Convention : Reuss Voigt Hill
#
# Bulk Modulus (GPa) = 31.34870 42.47096 36.90983
# Shear Modulus (GPa) = 28.40326 38.16943 33.28634
#
# Velocity S-wave (km/s) = 3.38530 3.92438 3.66477
# Velocity P-wave (km/s) = 5.28480 6.13765 5.72712
#
# Compressibility (1/GPa) = 0.03189925
#
# Stress axis : x y z
#
# Youngs Moduli (GPa) = 87.34301 39.16890 94.06684
#
# Poissons Ratio (x) = 0.20748 0.17049
# Poissons Ratio (y) = 0.46266 0.07018
# Poissons Ratio (z) = 0.15830 0.02922
#
# Static dielectric constant tensor:
#      x y z
#    x 1.993230 -0.045520 0.046720 
#    y -0.045520 2.182810 0.190740 
#    z 0.046720 0.190740 2.150970 
# 
# From -- ./inp_files/58925.got.cif
#   From: 2010.05.17/outbox.cif.g08.bks.cpg/sg2_30_cif.got.tgz:58925.got - 2010.06.03 11:33:40.
