data_PCOD9067394
_publ_section_title
;
Structure prediction by ZEFSAII (Michael W. Deem and Ramdas Pophale) SiO2 
 PCOD9067394
Probable space group: P -1
;
_chemical_formula_sum "Si O2"
_cell_formula_units_Z 13
_cell_length_a 6.846274
_cell_length_b 9.124507
_cell_length_c 12.268867
_cell_angle_alpha 122.488880
_cell_angle_beta 75.464415
_cell_angle_gamma 81.468009
_cell_volume 586.941752
_symmetry_space_group_name_H-M "P -1"
_symmetry_group_IT_number 2
_symmetry_cell_setting 'triclinic'
loop_
_space_group_symop_operation_xyz
x,y,z
-x,-y,-z
loop_
_atom_site_type_symbol
_atom_site_label
_atom_site_fract_x
_atom_site_fract_y
_atom_site_fract_z
Si Si1 0.953784 0.565043 0.908331
Si Si2 0.534241 0.179477 0.900506
Si Si3 0.788769 0.179520 0.083588
Si Si4 0.525838 0.795986 0.663423
Si Si5 0.000000 0.500000 0.500000
Si Si6 0.176322 0.833478 0.553628
Si Si7 0.846458 0.232278 0.720719
O O1 0.949038 0.392513 0.768688
O O2 0.127274 0.651292 0.879644
O O3 0.715979 0.717558 0.999022
O O4 0.000000 0.500000 0.000000
O O5 0.638109 0.291641 0.850795
O O6 0.562591 0.988518 0.759078
O O7 0.662691 0.148928 0.983270
O O8 0.632892 0.217586 0.223301
O O9 0.000000 0.000000 0.000000
O O10 0.396097 0.806679 0.574749
O O11 0.746617 0.627392 0.570421
O O12 0.068173 0.689287 0.553707
O O13 0.210382 0.804686 0.407942
O O14 0.014523 0.045368 0.673987
#
# Coordination Sequence:
#
# PCOD9067394 Si02
#       7
#     2   2   2   2   1   2   2
#     4  12  26  46  75 113 147 193 238 303 378 434
#     4  12  25  48  75 111 149 189 242 309 370 437
#     4  12  27  46  77 112 147 194 243 304 374 432
#     4  12  27  48  77 109 149 194 249 300 369 432
#     4  12  28  50  72 106 148 200 252 300 350 438
#     4  11  27  50  72 105 145 203 241 303 360 432
#     4  11  25  49  74 108 151 188 249 299 366 446
#
# _framework density 22.148707000000002
#
# number of rings (size 3 to 8) (size 9 to 14) (size 15 to 20)
#    0.000    0.308    4.615    3.231    4.308    0.615 
#    2.769    0.000    0.000    0.000    0.000    0.000 
#    0.000    0.000    0.000    0.000    0.000    0.000 
#
# Total GULP energy -72613.049876 kJ/mol
# GULP energy per Si atom -5585.619221 kJ/mol
# Density = 2.209830 g / cm^3
# Si number density = 22.148707 Si / 1000 Ang^3
#
#
#
# Elastic Constant Matrix: (Units=GPa)
#
#
# Indices 1 2 3 4 5 6 
#
# 1 157.2346 64.2213 46.0224 7.9948 -3.6616 -35.4006
# 2 64.2213 89.6656 27.3768 26.9420 6.3090 2.1162
# 3 46.0224 27.3768 58.5424 14.1027 6.0000 -32.6522
# 4 7.9948 26.9420 14.1027 37.8319 -1.4774 3.0441
# 5 -3.6616 6.3090 6.0000 -1.4774 24.6565 4.0616
# 6 -35.4006 2.1162 -32.6522 3.0441 4.0616 38.1727
#
#
#
# Elastic Compliance Matrix: (Units=1/GPa)
#
#
# Indices 1 2 3 4 5 6 
#
# 1 0.014015 -0.012233 0.001255 0.004258 0.002837 0.014107
# 2 -0.012233 0.028043 -0.014158 -0.010267 -0.002216 -0.023955
# 3 0.001255 -0.014158 0.063092 -0.019400 -0.022568 0.059864
# 4 0.004258 -0.010267 -0.019400 0.041949 0.013267 -0.016833
# 5 0.002837 -0.002216 -0.022568 0.013267 0.051638 -0.023102
# 6 0.014107 -0.023955 0.059864 -0.016833 -0.023102 0.095614
#
#
# Mechanical properties :
#
#
# Convention : Reuss Voigt Hill
#
# Bulk Modulus (GPa) = 18.22237 64.52041 41.37139
# Shear Modulus (GPa) = 13.77734 31.32037 22.54885
#
# Velocity S-wave (km/s) = 2.49677 3.76452 3.19418
# Velocity P-wave (km/s) = 4.06903 6.93465 5.68535
#
# Compressibility (1/GPa) = 0.05487759
#
# Stress axis : x y z
#
# Youngs Moduli (GPa) = 71.35293 35.65935 15.84998
#
# Poissons Ratio (x) = 0.43622 -0.01989
# Poissons Ratio (y) = 0.87286 0.22440
# Poissons Ratio (z) = -0.08953 0.50486
#
# Static dielectric constant tensor:
#      x y z
#    x 1.778160 0.100860 -0.057110 
#    y 0.100860 2.027100 -0.158070 
#    z -0.057110 -0.158070 1.937550 
# 
# From -- ./inp_files/25932.got.cif
#   From: 2010.05.17/outbox.cif.g08.bks.cpg/sg2_13_cif.got.tgz:25932.got - 2010.06.03 11:33:40.
