data_PCOD9067857
_publ_section_title
;
Structure prediction by ZEFSAII (Michael W. Deem and Ramdas Pophale) SiO2 
 PCOD9067857
Probable space group: P -1
;
_chemical_formula_sum "Si O2"
_cell_formula_units_Z 12
_cell_length_a 9.614665
_cell_length_b 9.829539
_cell_length_c 11.968719
_cell_angle_alpha 51.424950
_cell_angle_beta 100.533589
_cell_angle_gamma 136.529510
_cell_volume 526.371837
_symmetry_space_group_name_H-M "P -1"
_symmetry_group_IT_number 2
_symmetry_cell_setting 'triclinic'
loop_
_space_group_symop_operation_xyz
x,y,z
-x,-y,-z
loop_
_atom_site_type_symbol
_atom_site_label
_atom_site_fract_x
_atom_site_fract_y
_atom_site_fract_z
Si Si1 0.567048 0.298762 0.845584
Si Si2 0.705536 0.730358 0.323352
Si Si3 0.555231 0.921078 0.648147
Si Si4 0.133595 0.097947 0.353780
Si Si5 0.130282 0.310598 0.829780
Si Si6 0.724778 0.186152 0.776347
O O1 0.350935 0.148481 0.813858
O O2 0.658751 0.560806 0.783742
O O3 0.751994 0.397155 0.735134
O O4 0.490122 0.100042 0.035928
O O5 0.500000 0.500000 0.500000
O O6 0.715592 0.585993 0.309021
O O7 0.952553 0.970511 0.296492
O O8 0.755737 0.981439 0.610664
O O9 0.315378 0.574530 0.808604
O O10 0.500000 0.000000 0.500000
O O11 0.648885 0.109363 0.676274
O O12 0.000000 0.000000 0.500000
O O13 0.939887 0.268120 0.788894
O O14 0.000000 0.000000 0.000000
#
# Coordination Sequence:
#
# PCOD9067857 Si02
#       6
#     2   2   2   2   2   2
#     4  11  26  46  69 105 144 183 238 293 358 420
#     4  12  24  43  72 102 142 186 236 293 350 426
#     4  12  29  45  72 108 142 185 240 299 355 422
#     4  12  25  44  71 101 139 190 232 285 359 425
#     4  12  25  47  74 106 140 191 241 289 359 429
#     4  11  27  46  71 104 143 184 236 301 353 421
#
# _framework density 22.797571999999999
#
# number of rings (size 3 to 8) (size 9 to 14) (size 15 to 20)
#    0.000    0.333    6.667    0.000    9.333    2.000 
#    0.000    3.333    0.000    0.000    0.000    0.000 
#    0.000    0.000    0.000    0.000    0.000    0.000 
#
# Total GULP energy -67114.123395 kJ/mol
# GULP energy per Si atom -5592.843616 kJ/mol
# Density = 2.274568 g / cm^3
# Si number density = 22.797572 Si / 1000 Ang^3
#
#
#
# Elastic Constant Matrix: (Units=GPa)
#
#
# Indices 1 2 3 4 5 6 
#
# 1 164.1471 48.5063 27.3048 20.7184 11.6917 -1.5196
# 2 48.5063 97.2379 21.5462 16.1610 9.1080 14.4411
# 3 27.3048 21.5462 67.8339 8.9590 4.8102 0.3360
# 4 20.7184 16.1610 8.9590 35.4381 2.8931 -2.3648
# 5 11.6917 9.1080 4.8102 2.8931 36.9604 10.5459
# 6 -1.5196 14.4411 0.3360 -2.3648 10.5459 49.0510
#
#
#
# Elastic Compliance Matrix: (Units=1/GPa)
#
#
# Indices 1 2 3 4 5 6 
#
# 1 0.007739 -0.003136 -0.001686 -0.002437 -0.001669 0.001416
# 2 -0.003136 0.013753 -0.002513 -0.004038 -0.000554 -0.004204
# 3 -0.001686 -0.002513 0.016543 -0.001918 -0.001052 0.000708
# 4 -0.002437 -0.004038 -0.001918 0.032279 -0.001360 0.002975
# 5 -0.001669 -0.000554 -0.001052 -0.001360 0.029775 -0.006348
# 6 0.001416 -0.004204 0.000708 0.002975 -0.006348 0.023172
#
#
# Mechanical properties :
#
#
# Convention : Reuss Voigt Hill
#
# Bulk Modulus (GPa) = 42.79687 58.21482 50.50585
# Shear Modulus (GPa) = 34.31291 39.74734 37.03012
#
# Velocity S-wave (km/s) = 3.88379 4.18004 4.03463
# Velocity P-wave (km/s) = 6.23899 6.99199 6.62620
#
# Compressibility (1/GPa) = 0.02336619
#
# Stress axis : x y z
#
# Youngs Moduli (GPa) = 129.21934 72.71388 60.44885
#
# Poissons Ratio (x) = 0.22801 0.10190
# Poissons Ratio (y) = 0.40519 0.15188
# Poissons Ratio (z) = 0.21784 0.18270
#
# Static dielectric constant tensor:
#      x y z
#    x 2.013470 -0.128010 0.068850 
#    y -0.128010 1.957910 -0.082060 
#    z 0.068850 -0.082060 1.935680 
# 
# From -- ./inp_files/159460.got.cif
#   From: 2010.05.17/outbox.cif.g08.bks.cpg/sg2_80_cif.got.tgz:159460.got - 2010.06.03 11:33:40.
