data_PCOD9067199
_publ_section_title
;
Structure prediction by ZEFSAII (Michael W. Deem and Ramdas Pophale) SiO2 
 PCOD9067199
Probable space group: P -1
;
_chemical_formula_sum "Si O2"
_cell_formula_units_Z 12
_cell_length_a 7.833155
_cell_length_b 9.490926
_cell_length_c 10.931238
_cell_angle_alpha 111.175761
_cell_angle_beta 43.955805
_cell_angle_gamma 89.599646
_cell_volume 479.137733
_symmetry_space_group_name_H-M "P -1"
_symmetry_group_IT_number 2
_symmetry_cell_setting 'triclinic'
loop_
_space_group_symop_operation_xyz
x,y,z
-x,-y,-z
loop_
_atom_site_type_symbol
_atom_site_label
_atom_site_fract_x
_atom_site_fract_y
_atom_site_fract_z
Si Si1 0.753568 0.245855 0.184626
Si Si2 0.762742 0.174266 0.704082
Si Si3 0.339634 0.387823 0.636349
Si Si4 0.473195 0.829094 0.949666
Si Si5 0.328580 0.131706 0.738341
Si Si6 0.900916 0.483083 0.679656
O O1 0.636891 0.266520 0.390289
O O2 0.671405 0.439180 0.256057
O O3 0.562290 0.195173 0.181126
O O4 0.062497 0.135804 0.948887
O O5 0.777814 0.167799 0.842457
O O6 0.522398 0.148485 0.749275
O O7 0.785745 0.341621 0.700079
O O8 0.000000 0.000000 0.500000
O O9 0.238371 0.301390 0.763444
O O10 0.131804 0.434966 0.646015
O O11 0.691450 0.673470 0.861461
O O12 0.500000 0.000000 0.000000
O O13 0.500000 0.000000 0.500000
O O14 0.000000 0.500000 0.500000
#
# Coordination Sequence:
#
# PCOD9067199 Si02
#       6
#     2   2   2   2   2   2
#     4  11  25  48  73 108 149 197 255 306 388 450
#     4  12  27  49  74 110 153 199 256 316 382 462
#     4  11  25  48  77 107 152 198 258 315 382 461
#     4  12  26  47  76 111 153 200 255 317 379 462
#     4  12  27  47  75 109 155 200 248 322 387 458
#     4  12  24  46  76 108 148 198 255 310 381 449
#
# _framework density 25.044989000000001
#
# number of rings (size 3 to 8) (size 9 to 14) (size 15 to 20)
#    0.000    0.333    1.667    7.000    4.667    0.667 
#    3.000    0.000    0.000    0.000    0.000    0.000 
#    0.000    0.000    0.000    0.000    0.000    0.000 
#
# Total GULP energy -67027.559448 kJ/mol
# GULP energy per Si atom -5585.629954 kJ/mol
# Density = 2.498799 g / cm^3
# Si number density = 25.044989 Si / 1000 Ang^3
#
#
#
# Elastic Constant Matrix: (Units=GPa)
#
#
# Indices 1 2 3 4 5 6 
#
# 1 102.9778 30.1491 14.1935 19.0119 -6.0078 17.0160
# 2 30.1491 169.2499 31.5366 0.0837 1.6107 10.4566
# 3 14.1935 31.5366 127.2714 17.3189 -0.5602 11.4560
# 4 19.0119 0.0837 17.3189 42.4637 2.7001 9.1425
# 5 -6.0078 1.6107 -0.5602 2.7001 39.9835 7.1166
# 6 17.0160 10.4566 11.4560 9.1425 7.1166 40.6467
#
#
#
# Elastic Compliance Matrix: (Units=1/GPa)
#
#
# Indices 1 2 3 4 5 6 
#
# 1 0.011962 -0.001940 0.000165 -0.004743 0.002910 -0.003998
# 2 -0.001940 0.006599 -0.001587 0.001694 -0.000566 -0.000720
# 3 0.000165 -0.001587 0.008833 -0.003393 0.000711 -0.001512
# 4 -0.004743 0.001694 -0.003393 0.027921 -0.002108 -0.003405
# 5 0.002910 -0.000566 0.000711 -0.002108 0.026594 -0.005455
# 6 -0.003998 -0.000720 -0.001512 -0.003405 -0.005455 0.028608
#
#
# Mechanical properties :
#
#
# Convention : Reuss Voigt Hill
#
# Bulk Modulus (GPa) = 48.38002 61.25084 54.81543
# Shear Modulus (GPa) = 40.28033 46.19343 43.23688
#
# Velocity S-wave (km/s) = 4.01474 4.29933 4.15947
# Velocity P-wave (km/s) = 6.39140 7.01107 6.70839
#
# Compressibility (1/GPa) = 0.02066969
#
# Stress axis : x y z
#
# Youngs Moduli (GPa) = 83.59719 151.54464 113.21233
#
# Poissons Ratio (x) = 0.29398 -0.01865
# Poissons Ratio (y) = 0.16217 0.17966
# Poissons Ratio (z) = -0.01377 0.24049
#
# Static dielectric constant tensor:
#      x y z
#    x 2.064590 0.060880 -0.122260 
#    y 0.060880 1.938880 -0.077370 
#    z -0.122260 -0.077370 2.260220 
# 
# From -- ./inp_files/169677.got.cif
#   From: 2010.05.17/outbox.cif.g08.bks.cpg/sg2_85_cif.got.tgz:169677.got - 2010.06.03 11:33:40.
