data_PCOD9067479
_publ_section_title
;
Structure prediction by ZEFSAII (Michael W. Deem and Ramdas Pophale) SiO2 
 PCOD9067479
Probable space group: P -1
;
_chemical_formula_sum "Si O2"
_cell_formula_units_Z 13
_cell_length_a 11.184203
_cell_length_b 7.015842
_cell_length_c 12.125754
_cell_angle_alpha 107.244878
_cell_angle_beta 37.047404
_cell_angle_gamma 119.517565
_cell_volume 490.259684
_symmetry_space_group_name_H-M "P -1"
_symmetry_group_IT_number 2
_symmetry_cell_setting 'triclinic'
loop_
_space_group_symop_operation_xyz
x,y,z
-x,-y,-z
loop_
_atom_site_type_symbol
_atom_site_label
_atom_site_fract_x
_atom_site_fract_y
_atom_site_fract_z
Si Si1 0.977358 0.386794 0.117301
Si Si2 0.805974 0.001815 0.475763
Si Si3 0.698771 0.370286 0.914475
Si Si4 0.399227 0.066464 0.738371
Si Si5 0.364976 0.486814 0.486812
Si Si6 0.000000 0.500000 0.500000
Si Si7 0.730836 0.942338 0.916373
O O1 0.841754 0.476011 0.311859
O O2 0.208754 0.462916 0.021828
O O3 0.829771 0.124233 0.170003
O O4 0.000000 0.500000 0.000000
O O5 0.596815 0.994263 0.560776
O O6 0.885922 0.220889 0.528811
O O7 0.019717 0.024423 0.255182
O O8 0.714574 0.754098 0.552626
O O9 0.559383 0.724939 0.940371
O O10 0.852448 0.480235 0.715285
O O11 0.728274 0.153697 0.893710
O O12 0.490649 0.308559 0.661388
O O13 0.368799 0.069863 0.891843
O O14 0.500000 0.500000 0.500000
#
# Coordination Sequence:
#
# PCOD9067479 Si02
#       7
#     2   2   2   2   2   1   2
#     4  12  24  49  84 120 169 214 273 350 407 496
#     4  12  27  53  81 119 165 218 280 338 427 489
#     4  11  25  49  80 125 167 217 280 339 416 497
#     4  12  26  55  84 122 172 212 280 352 411 504
#     4  12  27  50  82 125 162 224 273 340 431 496
#     4  12  28  50  82 118 168 218 272 356 404 494
#     4  11  26  53  81 121 167 221 278 341 422 498
#
# _framework density 26.516560999999999
#
# number of rings (size 3 to 8) (size 9 to 14) (size 15 to 20)
#    0.000    0.308    6.154    1.385    2.154    1.231 
#    8.308    1.538    0.000    0.000    0.000    0.000 
#    0.000    0.000    0.000    0.000    0.000    0.000 
#
# Total GULP energy -72715.649063 kJ/mol
# GULP energy per Si atom -5593.511466 kJ/mol
# Density = 2.645621 g / cm^3
# Si number density = 26.516561 Si / 1000 Ang^3
#
#
#
# Elastic Constant Matrix: (Units=GPa)
#
#
# Indices 1 2 3 4 5 6 
#
# 1 117.2601 47.7196 69.1661 -18.7994 -21.3660 31.0226
# 2 47.7196 250.2049 68.7074 -38.6814 5.7960 24.5821
# 3 69.1661 68.7074 149.7218 -30.1844 -2.0305 -5.2946
# 4 -18.7994 -38.6814 -30.1844 53.2621 -8.7961 -6.8009
# 5 -21.3660 5.7960 -2.0305 -8.7961 35.6903 -5.4078
# 6 31.0226 24.5821 -5.2946 -6.8009 -5.4078 46.9828
#
#
#
# Elastic Compliance Matrix: (Units=1/GPa)
#
#
# Indices 1 2 3 4 5 6 
#
# 1 0.018792 0.000029 -0.008639 0.001764 0.009360 -0.012064
# 2 0.000029 0.005176 -0.002073 0.002104 -0.000839 -0.002753
# 3 -0.008639 -0.002073 0.012559 0.003307 -0.002025 0.008450
# 4 0.001764 0.002104 0.003307 0.024315 0.007268 0.002464
# 5 0.009360 -0.000839 -0.002025 0.007268 0.035305 -0.000854
# 6 -0.012064 -0.002753 0.008450 0.002464 -0.000854 0.031901
#
#
# Mechanical properties :
#
#
# Convention : Reuss Voigt Hill
#
# Bulk Modulus (GPa) = 65.95623 98.70810 82.33216
# Shear Modulus (GPa) = 32.36936 49.29328 40.83132
#
# Velocity S-wave (km/s) = 3.49767 4.31625 3.92834
# Velocity P-wave (km/s) = 6.42178 7.88326 7.18975
#
# Compressibility (1/GPa) = 0.01516157
#
# Stress axis : x y z
#
# Youngs Moduli (GPa) = 53.21514 193.21216 79.62199
#
# Poissons Ratio (x) = -0.00567 0.68783
# Poissons Ratio (y) = -0.00156 0.16507
# Poissons Ratio (z) = 0.45971 0.40057
#
# Static dielectric constant tensor:
#      x y z
#    x 2.160920 -0.008650 -0.054540 
#    y -0.008650 2.085660 -0.008550 
#    z -0.054540 -0.008550 1.979100 
# 
# From -- ./inp_files/410672.got.cif
#   From: 2010.05.17/outbox.cif.g08.bks.cpg/sg2_206_cif.got.tgz:410672.got - 2010.06.03 11:33:40.
