data_PCOD9067304
_publ_section_title
;
Structure prediction by ZEFSAII (Michael W. Deem and Ramdas Pophale) SiO2 
 PCOD9067304
Probable space group: P -1
;
_chemical_formula_sum "Si O2"
_cell_formula_units_Z 11
_cell_length_a 15.987737
_cell_length_b 9.926334
_cell_length_c 9.259215
_cell_angle_alpha 131.779394
_cell_angle_beta 28.749531
_cell_angle_gamma 136.930612
_cell_volume 481.152101
_symmetry_space_group_name_H-M "P -1"
_symmetry_group_IT_number 2
_symmetry_cell_setting 'triclinic'
loop_
_space_group_symop_operation_xyz
x,y,z
-x,-y,-z
loop_
_atom_site_type_symbol
_atom_site_label
_atom_site_fract_x
_atom_site_fract_y
_atom_site_fract_z
Si Si1 0.500000 0.500000 0.500000
Si Si2 0.513974 0.087933 0.292886
Si Si3 0.076755 0.729995 0.078938
Si Si4 0.488679 0.683497 0.962156
Si Si5 0.200086 0.338992 0.301759
Si Si6 0.881520 0.002280 0.040674
O O1 0.518880 0.290285 0.363016
O O2 0.499932 0.562065 0.717602
O O3 0.313949 0.990721 0.608507
O O4 0.697234 0.156591 0.168534
O O5 0.520361 0.910851 0.057142
O O6 0.991307 0.737166 0.370038
O O7 0.000000 0.500000 0.000000
O O8 0.009106 0.825777 0.117106
O O9 0.648222 0.682344 0.832463
O O10 0.288677 0.559050 0.259333
O O11 0.169232 0.197475 0.112650
O O12 0.000000 0.000000 0.000000
#
# Coordination Sequence:
#
# PCOD9067304 Si02
#       6
#     1   2   2   2   2   2
#     4  12  26  46  74 118 150 202 260 322 372 454
#     4  12  27  49  79 111 160 204 259 318 391 455
#     4  12  27  47  80 114 155 209 259 312 394 469
#     4  11  25  48  79 111 156 206 253 320 391 459
#     4  11  25  48  77 112 156 199 260 317 387 463
#     4  12  28  49  76 115 157 201 260 321 381 456
#
# _framework density 22.861794
#
# number of rings (size 3 to 8) (size 9 to 14) (size 15 to 20)
#    0.000    0.364    3.636    3.818    7.636    1.455 
#    0.000    2.727    0.000    0.000    0.000    0.000 
#    0.000    0.000    0.000    0.000    0.000    0.000 
#
# Total GULP energy -61265.288840 kJ/mol
# GULP energy per Si atom -5569.571713 kJ/mol
# Density = 2.280976 g / cm^3
# Si number density = 22.861794 Si / 1000 Ang^3
#
#
#
# Elastic Constant Matrix: (Units=GPa)
#
#
# Indices 1 2 3 4 5 6 
#
# 1 157.0353 76.8169 61.4627 4.1373 36.9883 -4.0964
# 2 76.8169 157.9252 28.7654 44.5725 -1.3811 -7.8314
# 3 61.4627 28.7654 79.4070 12.0592 0.4673 34.0603
# 4 4.1373 44.5725 12.0592 46.1673 16.0374 -4.3167
# 5 36.9883 -1.3811 0.4673 16.0374 10.8948 16.9832
# 6 -4.0964 -7.8314 34.0603 -4.3167 16.9832 27.7730
#
#
#
# Elastic Compliance Matrix: (Units=1/GPa)
#
#
# Indices 1 2 3 4 5 6 
#
# 1 0.003411 -0.001419 0.002824 -0.004152 0.010144 -0.010209
# 2 -0.001419 0.010609 -0.006831 -0.006309 -0.002645 0.011796
# 3 0.002824 -0.006831 0.012854 0.009850 -0.020611 -0.003139
# 4 -0.004152 -0.006309 0.009850 0.020392 0.010141 -0.017504
# 5 0.010144 -0.002645 -0.020611 0.010141 -0.001314 0.028407
# 6 -0.010209 0.011796 -0.003139 -0.017504 0.028407 0.021585
#
#
# Mechanical properties :
#
#
# Convention : Reuss Voigt Hill
#
# Bulk Modulus (GPa) = 62.41679 80.93972 71.67826
# Shear Modulus (GPa) = 59.71642 32.12185 45.91914
#
# Velocity S-wave (km/s) = 5.11638 3.75246 4.48655
# Velocity P-wave (km/s) = 7.89076 7.36583 7.63281
#
# Compressibility (1/GPa) = 0.01602133
#
# Stress axis : x y z
#
# Youngs Moduli (GPa) = 293.19704 94.25761 77.79663
#
# Poissons Ratio (x) = 0.13376 -0.21968
# Poissons Ratio (y) = 0.41609 0.53142
# Poissons Ratio (z) = -0.82791 0.64386
#
# Static dielectric constant tensor:
#      x y z
#    x 1.811710 -0.000850 0.004490 
#    y -0.000850 1.907340 -0.040020 
#    z 0.004490 -0.040020 1.939030 
# 
# From -- ./inp_files/152722.got.cif
#   From: 2010.05.17/outbox.cif.g08.bks.cpg/sg2_77_cif.got.tgz:152722.got - 2010.06.03 11:33:40.
