data_PCOD9067401
_publ_section_title
;
Structure prediction by ZEFSAII (Michael W. Deem and Ramdas Pophale) SiO2 
 PCOD9067401
Probable space group: P -1
;
_chemical_formula_sum "Si O2"
_cell_formula_units_Z 14
_cell_length_a 5.323264
_cell_length_b 16.815868
_cell_length_c 16.251151
_cell_angle_alpha 153.176764
_cell_angle_beta 81.360243
_cell_angle_gamma 111.526155
_cell_volume 553.551134
_symmetry_space_group_name_H-M "P -1"
_symmetry_group_IT_number 2
_symmetry_cell_setting 'triclinic'
loop_
_space_group_symop_operation_xyz
x,y,z
-x,-y,-z
loop_
_atom_site_type_symbol
_atom_site_label
_atom_site_fract_x
_atom_site_fract_y
_atom_site_fract_z
Si Si1 0.085954 0.722952 0.481942
Si Si2 0.702825 0.554738 0.622133
Si Si3 0.251717 0.121626 0.468750
Si Si4 0.399159 0.719853 0.903258
Si Si5 0.419433 0.661582 0.187748
Si Si6 0.757084 0.167062 0.255476
Si Si7 0.188683 0.717911 0.087442
O O1 0.908066 0.772937 0.469568
O O2 0.926796 0.477626 0.277487
O O3 0.424871 0.809823 0.521383
O O4 0.065929 0.822919 0.661003
O O5 0.500000 0.500000 0.500000
O O6 0.601075 0.639816 0.780472
O O7 0.672922 0.336515 0.436878
O O8 0.026924 0.736593 0.743557
O O9 0.333130 0.190725 0.623109
O O10 0.073052 0.876557 0.235811
O O11 0.396099 0.748984 0.028225
O O12 0.492320 0.931828 0.048084
O O13 0.367104 0.766685 0.209140
O O14 0.500000 0.500000 0.000000
O O15 0.093834 0.515271 0.110502
#
# Coordination Sequence:
#
# PCOD9067401 Si02
#       7
#     2   2   2   2   2   2   2
#     4  12  26  48  75 115 151 198 263 319 374 470
#     4  11  25  49  74 113 153 198 255 324 377 472
#     4  12  27  48  77 108 158 199 257 323 383 455
#     4  12  24  48  77 107 153 205 252 315 390 456
#     4  11  26  47  72 108 152 198 260 320 380 463
#     4  11  26  49  74 111 155 198 261 313 392 454
#     4  11  26  46  73 111 147 204 256 310 394 453
#
# _framework density 25.291250999999999
#
# number of rings (size 3 to 8) (size 9 to 14) (size 15 to 20)
#    0.000    0.571    4.286    2.571    4.000    2.286 
#    7.714    0.000    0.000    0.000    0.000    0.000 
#    0.000    0.000    0.000    0.000    0.000    0.000 
#
# Total GULP energy -78424.613693 kJ/mol
# GULP energy per Si atom -5601.758121 kJ/mol
# Density = 2.523369 g / cm^3
# Si number density = 25.291251 Si / 1000 Ang^3
#
#
#
# Elastic Constant Matrix: (Units=GPa)
#
#
# Indices 1 2 3 4 5 6 
#
# 1 97.6715 64.1988 38.2062 1.4841 -8.2211 -2.5900
# 2 64.1988 97.1516 65.8115 10.1625 -13.5701 21.1525
# 3 38.2062 65.8115 117.8370 7.7363 -4.6764 11.0098
# 4 1.4841 10.1625 7.7363 54.9714 6.8537 0.4854
# 5 -8.2211 -13.5701 -4.6764 6.8537 43.4426 -10.2555
# 6 -2.5900 21.1525 11.0098 0.4854 -10.2555 44.6526
#
#
#
# Elastic Compliance Matrix: (Units=1/GPa)
#
#
# Indices 1 2 3 4 5 6 
#
# 1 0.021224 -0.017444 0.001883 0.002234 0.000575 0.009138
# 2 -0.017444 0.033258 -0.011263 -0.004409 0.003468 -0.013145
# 3 0.001883 -0.011263 0.013941 0.000215 -0.001292 0.001708
# 4 0.002234 -0.004409 0.000215 0.019371 -0.003728 0.001098
# 5 0.000575 0.003468 -0.001292 -0.003728 0.025761 0.004667
# 6 0.009138 -0.013145 0.001708 0.001098 0.004667 0.029791
#
#
# Mechanical properties :
#
#
# Convention : Reuss Voigt Hill
#
# Bulk Modulus (GPa) = 67.68126 72.12146 69.90136
# Shear Modulus (GPa) = 24.76245 38.24290 31.50268
#
# Velocity S-wave (km/s) = 3.13244 3.89279 3.53313
# Velocity P-wave (km/s) = 6.31678 6.98451 6.65902
#
# Compressibility (1/GPa) = 0.01477514
#
# Stress axis : x y z
#
# Youngs Moduli (GPa) = 47.11590 30.06839 71.73009
#
# Poissons Ratio (x) = 0.52451 -0.13508
# Poissons Ratio (y) = 0.82188 0.80791
# Poissons Ratio (z) = -0.08872 0.33867
#
# Static dielectric constant tensor:
#      x y z
#    x 2.025860 -0.021010 0.056240 
#    y -0.021010 2.079500 -0.029880 
#    z 0.056240 -0.029880 1.990850 
# 
# From -- ./inp_files/484639.got.cif
#   From: 2010.05.17/outbox.cif.g08.bks.cpg/sg2_243_cif.got.tgz:484639.got - 2010.06.03 11:33:40.
