data_PCOD9067371
_publ_section_title
;
Structure prediction by ZEFSAII (Michael W. Deem and Ramdas Pophale) SiO2 
 PCOD9067371
Probable space group: P -1
;
_chemical_formula_sum "Si O2"
_cell_formula_units_Z 13
_cell_length_a 11.118921
_cell_length_b 14.536867
_cell_length_c 10.202738
_cell_angle_alpha 69.955882
_cell_angle_beta 87.561944
_cell_angle_gamma 148.420844
_cell_volume 594.851425
_symmetry_space_group_name_H-M "P -1"
_symmetry_group_IT_number 2
_symmetry_cell_setting 'triclinic'
loop_
_space_group_symop_operation_xyz
x,y,z
-x,-y,-z
loop_
_atom_site_type_symbol
_atom_site_label
_atom_site_fract_x
_atom_site_fract_y
_atom_site_fract_z
Si Si1 0.674449 0.378732 0.160890
Si Si2 0.636811 0.010125 0.143459
Si Si3 0.749041 0.631072 0.336430
Si Si4 0.605410 0.837379 0.467685
Si Si5 0.000000 0.000000 0.000000
Si Si6 0.598004 0.955008 0.868223
Si Si7 0.768790 0.779828 0.823929
O O1 0.551696 0.228764 0.367665
O O2 0.411739 0.264602 0.208146
O O3 0.663896 0.301111 0.072851
O O4 0.010003 0.681499 0.016625
O O5 0.587684 0.891136 0.313097
O O6 0.422458 0.944856 0.204830
O O7 0.575272 0.924312 0.041482
O O8 0.500000 0.500000 0.500000
O O9 0.592534 0.410850 0.413486
O O10 0.069940 0.839856 0.289610
O O11 0.839053 0.770772 0.145781
O O12 0.964814 0.072494 0.346998
O O13 0.930645 0.937126 0.874800
O O14 0.500000 0.500000 0.000000
#
# Coordination Sequence:
#
# PCOD9067371 Si02
#       7
#     2   2   2   2   1   2   2
#     4  12  24  45  70 104 140 184 237 297 347 420
#     4  11  26  50  70 100 146 187 238 294 341 425
#     4  12  24  43  71 104 140 182 232 288 352 420
#     4  12  25  45  70 106 145 182 237 293 350 424
#     4  12  24  44  68 102 138 184 228 284 348 420
#     4  11  25  49  73 101 141 191 236 289 357 407
#     4  12  24  42  71 100 145 184 226 295 360 405
#
# _framework density 21.854196999999999
#
# number of rings (size 3 to 8) (size 9 to 14) (size 15 to 20)
#    0.000    0.308    6.154    2.769    0.000    2.462 
#    2.769    0.000    0.000    0.000    0.000    0.000 
#    0.000    0.000    0.000    0.000    0.000    0.000 
#
# Total GULP energy -72453.906645 kJ/mol
# GULP energy per Si atom -5573.377434 kJ/mol
# Density = 2.180446 g / cm^3
# Si number density = 21.854197 Si / 1000 Ang^3
#
#
#
# Elastic Constant Matrix: (Units=GPa)
#
#
# Indices 1 2 3 4 5 6 
#
# 1 109.5754 13.1182 58.7945 6.7493 5.9195 10.9013
# 2 13.1182 119.8245 55.4129 10.5239 -6.1700 -20.1493
# 3 58.7945 55.4129 99.6335 -8.7482 17.8709 -3.4357
# 4 6.7493 10.5239 -8.7482 36.9475 -3.3752 -2.0419
# 5 5.9195 -6.1700 17.8709 -3.3752 29.8009 -2.6309
# 6 10.9013 -20.1493 -3.4357 -2.0419 -2.6309 32.8421
#
#
#
# Elastic Compliance Matrix: (Units=1/GPa)
#
#
# Indices 1 2 3 4 5 6 
#
# 1 0.016983 0.005214 -0.014693 -0.007807 0.005276 -0.004038
# 2 0.005214 0.017462 -0.015295 -0.008063 0.011528 0.007805
# 3 -0.014693 -0.015295 0.031470 0.012760 -0.017838 -0.001850
# 4 -0.007807 -0.008063 0.012760 0.033494 -0.003911 0.000748
# 5 0.005276 0.011528 -0.017838 -0.003911 0.045756 0.006877
# 6 -0.004038 0.007805 -0.001850 0.000748 0.006877 0.036981
#
#
# Mechanical properties :
#
#
# Convention : Reuss Voigt Hill
#
# Bulk Modulus (GPa) = 61.09855 64.85383 62.97619
# Shear Modulus (GPa) = 21.08365 33.36529 27.22447
#
# Velocity S-wave (km/s) = 3.10940 3.91157 3.53332
# Velocity P-wave (km/s) = 6.39603 7.08100 6.74721
#
# Compressibility (1/GPa) = 0.01636700
#
# Stress axis : x y z
#
# Youngs Moduli (GPa) = 58.88146 57.26661 31.77639
#
# Poissons Ratio (x) = -0.29857 0.46688
# Poissons Ratio (y) = -0.30699 0.48602
# Poissons Ratio (z) = 0.86513 0.87590
#
# Static dielectric constant tensor:
#      x y z
#    x 1.825350 -0.006780 -0.034660 
#    y -0.006780 1.848890 0.041040 
#    z -0.034660 0.041040 1.786990 
# 
# From -- ./inp_files/270008.got.cif
#   From: 2010.05.17/outbox.cif.g08.bks.cpg/sg2_136_cif.got.tgz:270008.got - 2010.06.03 11:33:40.
