data_PCOD9067483
_publ_section_title
;
Structure prediction by ZEFSAII (Michael W. Deem and Ramdas Pophale) SiO2 
 PCOD9067483
Probable space group: P -1
;
_chemical_formula_sum "Si O2"
_cell_formula_units_Z 16
_cell_length_a 6.724255
_cell_length_b 9.128699
_cell_length_c 14.001890
_cell_angle_alpha 110.585961
_cell_angle_beta 59.691644
_cell_angle_gamma 93.432768
_cell_volume 687.245218
_symmetry_space_group_name_H-M "P -1"
_symmetry_group_IT_number 2
_symmetry_cell_setting 'triclinic'
loop_
_space_group_symop_operation_xyz
x,y,z
-x,-y,-z
loop_
_atom_site_type_symbol
_atom_site_label
_atom_site_fract_x
_atom_site_fract_y
_atom_site_fract_z
Si Si1 0.470035 0.827142 0.349945
Si Si2 0.088825 0.429878 0.167838
Si Si3 0.605720 0.379750 0.365073
Si Si4 0.300505 0.946675 0.212589
Si Si5 0.504248 0.531813 0.783915
Si Si6 0.189715 0.112824 0.961591
Si Si7 0.213701 0.915197 0.624803
Si Si8 0.875758 0.311284 0.939243
O O1 0.290420 0.850279 0.486964
O O2 0.545373 0.642707 0.270819
O O3 0.343313 0.898424 0.301379
O O4 0.681407 0.920842 0.350779
O O5 0.271013 0.486905 0.208702
O O6 0.844523 0.430831 0.279368
O O7 0.080774 0.540252 0.101407
O O8 0.177919 0.249722 0.074400
O O9 0.500000 0.500000 0.500000
O O10 0.453381 0.385058 0.307438
O O11 0.660696 0.206899 0.356814
O O12 0.062860 0.066473 0.289822
O O13 0.552496 0.983222 0.127166
O O14 0.248986 0.800101 0.125892
O O15 0.297512 0.629057 0.918026
O O16 0.102872 0.209502 0.908562
O O17 0.000000 0.000000 0.000000
#
# Coordination Sequence:
#
# PCOD9067483 Si02
#       8
#     2   2   2   2   2   2   2   2
#     4  11  25  49  82 111 154 195 263 316 382 449
#     4  12  27  48  75 112 151 200 256 312 382 453
#     4  12  29  51  76 106 155 203 257 313 381 452
#     4  12  26  46  81 113 154 199 257 312 385 460
#     4  12  25  50  80 113 148 202 257 317 375 459
#     4  12  29  47  72 112 156 204 246 315 383 453
#     4  11  28  51  76 116 151 207 250 320 382 455
#     4  12  26  46  81 113 150 200 253 315 383 456
#
# _framework density 23.281357
#
# number of rings (size 3 to 8) (size 9 to 14) (size 15 to 20)
#    0.000    0.250    5.000    2.625    7.000    3.000 
#    2.250    0.000    0.000    0.000    0.000    0.000 
#    0.000    0.000    0.000    0.000    0.000    0.000 
#
# Total GULP energy -89694.119195 kJ/mol
# GULP energy per Si atom -5605.882450 kJ/mol
# Density = 2.322837 g / cm^3
# Si number density = 23.281357 Si / 1000 Ang^3
#
#
#
# Elastic Constant Matrix: (Units=GPa)
#
#
# Indices 1 2 3 4 5 6 
#
# 1 109.5036 29.4102 35.8822 3.2693 3.9717 -1.7356
# 2 29.4102 92.0871 38.6978 -1.5839 -2.7425 1.9391
# 3 35.8822 38.6978 158.1679 -4.1755 7.5420 -0.0260
# 4 3.2693 -1.5839 -4.1755 27.6502 -3.5586 2.1336
# 5 3.9717 -2.7425 7.5420 -3.5586 46.2485 -4.4344
# 6 -1.7356 1.9391 -0.0260 2.1336 -4.4344 37.0467
#
#
#
# Elastic Compliance Matrix: (Units=1/GPa)
#
#
# Indices 1 2 3 4 5 6 
#
# 1 0.010521 -0.002702 -0.001733 -0.001820 -0.000860 0.000635
# 2 -0.002702 0.012880 -0.002582 0.000903 0.001421 -0.000685
# 3 -0.001733 -0.002582 0.007429 0.001042 -0.001149 -0.000138
# 4 -0.001820 0.000903 0.001042 0.037089 0.002707 -0.001944
# 5 -0.000860 0.001421 -0.001149 0.002707 0.022407 0.002411
# 6 0.000635 -0.000685 -0.000138 -0.001944 0.002411 0.027459
#
#
# Mechanical properties :
#
#
# Convention : Reuss Voigt Hill
#
# Bulk Modulus (GPa) = 59.53748 63.08210 61.30979
# Shear Modulus (GPa) = 36.38520 39.24031 37.81276
#
# Velocity S-wave (km/s) = 3.95758 4.10992 4.03446
# Velocity P-wave (km/s) = 6.81995 7.04814 6.93498
#
# Compressibility (1/GPa) = 0.01679614
#
# Stress axis : x y z
#
# Youngs Moduli (GPa) = 95.04537 77.64149 134.59905
#
# Poissons Ratio (x) = 0.20982 0.23321
# Poissons Ratio (y) = 0.25685 0.34755
# Poissons Ratio (z) = 0.16468 0.20048
#
# Static dielectric constant tensor:
#      x y z
#    x 1.877110 -0.006430 -0.007560 
#    y -0.006430 1.876950 -0.015200 
#    z -0.007560 -0.015200 1.871840 
# 
# From -- ./inp_files/482225.got.cif
#   From: 2010.05.17/outbox.cif.g08.bks.cpg/sg2_242_cif.got.tgz:482225.got - 2010.06.03 11:33:40.
