data_PCOD9067023
_publ_section_title
;
Structure prediction by ZEFSAII (Michael W. Deem and Ramdas Pophale) SiO2 
 PCOD9067023
Probable space group: P -1
;
_chemical_formula_sum "Si O2"
_cell_formula_units_Z 16
_cell_length_a 28.228544
_cell_length_b 9.290127
_cell_length_c 8.590593
_cell_angle_alpha 116.391807
_cell_angle_beta 141.167472
_cell_angle_gamma 35.871934
_cell_volume 712.919081
_symmetry_space_group_name_H-M "P -1"
_symmetry_group_IT_number 2
_symmetry_cell_setting 'triclinic'
loop_
_space_group_symop_operation_xyz
x,y,z
-x,-y,-z
loop_
_atom_site_type_symbol
_atom_site_label
_atom_site_fract_x
_atom_site_fract_y
_atom_site_fract_z
Si Si1 0.381763 0.586323 0.191519
Si Si2 0.013141 0.152044 0.031107
Si Si3 0.145066 0.080024 0.630104
Si Si4 0.870188 0.526140 0.306997
Si Si5 0.430500 0.008511 0.705460
Si Si6 0.355004 0.300780 0.345375
Si Si7 0.196813 0.268234 0.408837
Si Si8 0.223252 0.850842 0.215024
O O1 0.500000 0.500000 0.500000
O O2 0.453751 0.290491 0.230529
O O3 0.266495 0.801185 0.127038
O O4 0.296626 0.759773 0.901122
O O5 0.098595 0.096740 0.352402
O O6 0.893588 0.479028 0.828505
O O7 0.090591 0.989502 0.988990
O O8 0.000000 0.000000 0.000000
O O9 0.153540 0.258910 0.733922
O O10 0.026342 0.225787 0.512877
O O11 0.841285 0.601143 0.453627
O O12 0.763851 0.582410 0.996826
O O13 0.348542 0.246220 0.478618
O O14 0.343671 0.045223 0.609797
O O15 0.500000 0.000000 0.000000
O O16 0.335933 0.527703 0.409224
O O17 0.500000 0.000000 0.500000
O O18 0.190977 0.085966 0.306862
#
# Coordination Sequence:
#
# PCOD9067023 Si02
#       8
#     2   2   2   2   2   2   2   2
#     4  12  26  48  72 108 150 200 250 309 378 449
#     4  12  27  49  76 114 151 197 247 319 379 457
#     4  11  26  44  76 108 150 193 256 310 379 445
#     4  11  25  47  75 112 146 202 245 316 379 451
#     4  12  27  47  72 107 148 197 250 312 370 447
#     4  12  26  50  75 109 156 197 254 308 381 449
#     4  12  26  47  78 106 152 191 252 307 378 450
#     4  12  26  46  75 110 145 198 247 310 374 451
#
# _framework density 22.442938999999999
#
# number of rings (size 3 to 8) (size 9 to 14) (size 15 to 20)
#    0.000    0.250    3.750    4.875    7.000    0.000 
#    0.000    5.000    0.000    0.000    0.000    0.000 
#    0.000    0.000    0.000    0.000    0.000    0.000 
#
# Total GULP energy -89281.890500 kJ/mol
# GULP energy per Si atom -5580.118156 kJ/mol
# Density = 2.239186 g / cm^3
# Si number density = 22.442939 Si / 1000 Ang^3
#
#
#
# Elastic Constant Matrix: (Units=GPa)
#
#
# Indices 1 2 3 4 5 6 
#
# 1 121.2696 29.5589 43.4392 8.0360 5.8789 -0.3911
# 2 29.5589 117.5015 54.2399 2.2111 -10.5634 18.3497
# 3 43.4392 54.2399 126.6662 0.4756 -10.2969 11.1324
# 4 8.0360 2.2111 0.4756 35.3922 -3.4865 -0.1518
# 5 5.8789 -10.5634 -10.2969 -3.4865 38.2648 -2.2235
# 6 -0.3911 18.3497 11.1324 -0.1518 -2.2235 41.0458
#
#
#
# Elastic Compliance Matrix: (Units=1/GPa)
#
#
# Indices 1 2 3 4 5 6 
#
# 1 0.010056 -0.001521 -0.003157 -0.002430 -0.002951 0.001463
# 2 -0.001521 0.011500 -0.003879 -0.000129 0.002121 -0.003989
# 3 -0.003157 -0.003879 0.010928 0.001042 0.002384 -0.001127
# 4 -0.002430 -0.000129 0.001042 0.029123 0.003274 0.000037
# 5 -0.002951 0.002121 0.002384 0.003274 0.028107 -0.000088
# 6 0.001463 -0.003989 -0.001127 0.000037 -0.000088 0.026461
#
#
# Mechanical properties :
#
#
# Convention : Reuss Voigt Hill
#
# Bulk Modulus (GPa) = 65.06226 68.87924 66.97075
# Shear Modulus (GPa) = 36.12385 38.82051 37.47218
#
# Velocity S-wave (km/s) = 4.01632 4.16353 4.09059
# Velocity P-wave (km/s) = 7.11061 7.33967 7.22605
#
# Compressibility (1/GPa) = 0.01536989
#
# Stress axis : x y z
#
# Youngs Moduli (GPa) = 99.43959 86.95763 91.51183
#
# Poissons Ratio (x) = 0.13222 0.28890
# Poissons Ratio (y) = 0.15120 0.35502
# Poissons Ratio (z) = 0.31393 0.33735
#
# Static dielectric constant tensor:
#      x y z
#    x 1.957890 0.108830 0.017100 
#    y 0.108830 1.789730 -0.075260 
#    z 0.017100 -0.075260 1.813910 
# 
# From -- ./inp_files/356623.got.cif
#   From: 2010.05.17/outbox.cif.g08.bks.cpg/sg2_179_cif.got.tgz:356623.got - 2010.06.03 11:33:40.
