data_PCOD9067331
_publ_section_title
;
Structure prediction by ZEFSAII (Michael W. Deem and Ramdas Pophale) SiO2 
 PCOD9067331
Probable space group: P -1
;
_chemical_formula_sum "Si O2"
_cell_formula_units_Z 14
_cell_length_a 13.937963
_cell_length_b 15.140125
_cell_length_c 9.483918
_cell_angle_alpha 39.306414
_cell_angle_beta 40.574442
_cell_angle_gamma 29.953828
_cell_volume 607.338239
_symmetry_space_group_name_H-M "P -1"
_symmetry_group_IT_number 2
_symmetry_cell_setting 'triclinic'
loop_
_space_group_symop_operation_xyz
x,y,z
-x,-y,-z
loop_
_atom_site_type_symbol
_atom_site_label
_atom_site_fract_x
_atom_site_fract_y
_atom_site_fract_z
Si Si1 0.763927 0.003732 0.563025
Si Si2 0.089982 0.594237 0.626776
Si Si3 0.739457 0.601084 0.030418
Si Si4 0.305339 0.526426 0.183014
Si Si5 0.318197 0.010805 0.025290
Si Si6 0.451776 0.138412 0.506304
Si Si7 0.877893 0.237560 0.165746
O O1 0.677698 0.974596 0.828543
O O2 0.643025 0.056996 0.488472
O O3 0.763061 0.166296 0.400804
O O4 0.984634 0.802124 0.543138
O O5 0.217275 0.445757 0.793592
O O6 0.221703 0.549216 0.402414
O O7 0.905920 0.605959 0.785800
O O8 0.515963 0.801879 0.014893
O O9 0.781496 0.425627 0.128774
O O10 0.362036 0.336740 0.297910
O O11 0.500000 0.500000 0.000000
O O12 0.143284 0.703004 0.046508
O O13 0.107913 0.070473 0.157016
O O14 0.311400 0.154269 0.760593
O O15 0.500000 0.000000 0.500000
#
# Coordination Sequence:
#
# PCOD9067331 Si02
#       7
#     2   2   2   2   2   2   2
#     4  12  26  50  74 114 155 198 253 322 376 450
#     4  11  26  47  77 112 152 203 261 313 374 457
#     4  11  25  48  79 114 150 199 262 314 375 454
#     4  12  28  51  74 108 158 204 249 314 389 451
#     4  12  26  47  83 111 155 200 256 317 382 447
#     4  12  27  49  78 108 146 204 259 308 379 454
#     4  12  28  49  72 117 157 198 255 310 388 456
#
# _framework density 23.051403000000001
#
# number of rings (size 3 to 8) (size 9 to 14) (size 15 to 20)
#    0.000    0.286    4.286    3.429    4.000    4.571 
#    0.000    0.000    0.000    0.000    0.000    0.000 
#    0.000    0.000    0.000    0.000    0.000    0.000 
#
# Total GULP energy -78443.909832 kJ/mol
# GULP energy per Si atom -5603.136417 kJ/mol
# Density = 2.299894 g / cm^3
# Si number density = 23.051403 Si / 1000 Ang^3
#
#
#
# Elastic Constant Matrix: (Units=GPa)
#
#
# Indices 1 2 3 4 5 6 
#
# 1 98.8940 47.5650 44.5327 -2.1714 -3.3498 -5.2255
# 2 47.5650 106.7878 44.7339 10.3356 -13.2734 10.0070
# 3 44.5327 44.7339 127.5871 5.9986 11.5270 15.5072
# 4 -2.1714 10.3356 5.9986 36.9615 5.5383 -2.1141
# 5 -3.3498 -13.2734 11.5270 5.5383 25.6739 -13.2963
# 6 -5.2255 10.0070 15.5072 -2.1141 -13.2963 44.0891
#
#
#
# Elastic Compliance Matrix: (Units=1/GPa)
#
#
# Indices 1 2 3 4 5 6 
#
# 1 0.015224 -0.005154 -0.004716 0.002856 0.003903 0.005947
# 2 -0.005154 0.015248 -0.004279 -0.005423 0.010474 0.000332
# 3 -0.004716 -0.004279 0.013130 0.000270 -0.012979 -0.008107
# 4 0.002856 -0.005423 0.000270 0.030044 -0.008916 0.000226
# 5 0.003903 0.010474 -0.012979 -0.008916 0.063730 0.021442
# 6 0.005947 0.000332 -0.008107 0.000226 0.021442 0.032640
#
#
# Mechanical properties :
#
#
# Convention : Reuss Voigt Hill
#
# Bulk Modulus (GPa) = 65.34667 67.43689 66.39178
# Shear Modulus (GPa) = 24.58045 34.44073 29.51059
#
# Velocity S-wave (km/s) = 3.26902 3.86953 3.58188
# Velocity P-wave (km/s) = 6.53134 7.02018 6.78017
#
# Compressibility (1/GPa) = 0.01530300
#
# Stress axis : x y z
#
# Youngs Moduli (GPa) = 65.68759 65.58261 76.16427
#
# Poissons Ratio (x) = 0.33799 0.35922
# Poissons Ratio (y) = 0.33853 0.32590
# Poissons Ratio (z) = 0.30981 0.28063
#
# Static dielectric constant tensor:
#      x y z
#    x 1.893960 0.003900 0.003730 
#    y 0.003900 1.855990 -0.018310 
#    z 0.003730 -0.018310 1.831080 
# 
# From -- ./inp_files/279143.got.cif
#   From: 2010.05.17/outbox.cif.g08.bks.cpg/sg2_140_cif.got.tgz:279143.got - 2010.06.03 11:33:40.
