data_PCOD9067497
_publ_section_title
;
Structure prediction by ZEFSAII (Michael W. Deem and Ramdas Pophale) SiO2 
 PCOD9067497
Probable space group: P -1
;
_chemical_formula_sum "Si O2"
_cell_formula_units_Z 16
_cell_length_a 32.016484
_cell_length_b 4.895133
_cell_length_c 9.473302
_cell_angle_alpha 88.651937
_cell_angle_beta 28.753671
_cell_angle_gamma 98.696639
_cell_volume 666.880012
_symmetry_space_group_name_H-M "P -1"
_symmetry_group_IT_number 2
_symmetry_cell_setting 'triclinic'
loop_
_space_group_symop_operation_xyz
x,y,z
-x,-y,-z
loop_
_atom_site_type_symbol
_atom_site_label
_atom_site_fract_x
_atom_site_fract_y
_atom_site_fract_z
Si Si1 0.455770 0.282368 0.342829
Si Si2 0.656300 0.635028 0.069284
Si Si3 0.372270 0.180826 0.300299
Si Si4 0.801461 0.678325 0.091453
Si Si5 0.971084 0.560510 0.238057
Si Si6 0.910351 0.296444 0.853182
Si Si7 0.844517 0.919941 0.651719
Si Si8 0.602846 0.078888 0.042436
O O1 0.393304 0.392090 0.631550
O O2 0.399968 0.103961 0.374790
O O3 0.504033 0.097686 0.292470
O O4 0.538452 0.558329 0.029802
O O5 0.650320 0.346589 0.004951
O O6 0.604124 0.795602 0.123860
O O7 0.763293 0.833566 0.777886
O O8 0.290144 0.303254 0.566225
O O9 0.350437 0.935276 0.247082
O O10 0.825641 0.393486 0.055114
O O11 0.802073 0.748580 0.923214
O O12 0.885953 0.957022 0.898018
O O13 0.927941 0.812698 0.363955
O O14 0.059972 0.641492 0.074304
O O15 0.889688 0.266085 0.536848
O O16 0.000000 0.500000 0.000000
O O17 0.000000 0.500000 0.500000
#
# Coordination Sequence:
#
# PCOD9067497 Si02
#       8
#     2   2   2   2   2   2   2   2
#     4  11  25  50  73 107 146 198 241 295 365 420
#     4  12  27  46  78 102 150 196 239 294 361 430
#     4  11  27  47  74 109 149 189 244 304 354 419
#     4  12  25  46  75 106 142 186 245 294 347 426
#     4  12  27  47  74 106 145 180 231 296 365 428
#     4  12  24  45  78 103 137 185 236 294 354 426
#     4  12  24  49  72 107 141 188 240 286 356 436
#     4  12  26  48  69 107 144 191 249 293 356 424
#
# _framework density 23.992322000000001
#
# number of rings (size 3 to 8) (size 9 to 14) (size 15 to 20)
#    0.000    0.250    5.000    3.375    3.500    3.000 
#    0.000    0.000    0.000    0.000    0.000    0.000 
#    0.000    0.000    0.000    0.000    0.000    0.000 
#
# Total GULP energy -89667.449414 kJ/mol
# GULP energy per Si atom -5604.215588 kJ/mol
# Density = 2.393771 g / cm^3
# Si number density = 23.992322 Si / 1000 Ang^3
#
#
#
# Elastic Constant Matrix: (Units=GPa)
#
#
# Indices 1 2 3 4 5 6 
#
# 1 129.0234 5.9339 27.8349 13.0194 11.9477 18.0462
# 2 5.9339 77.1793 11.1835 12.9360 14.8476 1.7120
# 3 27.8349 11.1835 69.6001 15.8841 2.9021 11.9089
# 4 13.0194 12.9360 15.8841 33.2925 4.8382 9.5916
# 5 11.9477 14.8476 2.9021 4.8382 31.8744 15.0243
# 6 18.0462 1.7120 11.9089 9.5916 15.0243 34.1906
#
#
#
# Elastic Compliance Matrix: (Units=1/GPa)
#
#
# Indices 1 2 3 4 5 6 
#
# 1 0.009014 0.000350 -0.002845 -0.001282 -0.001859 -0.002608
# 2 0.000350 0.015725 -0.001916 -0.005526 -0.008867 0.005142
# 3 -0.002845 -0.001916 0.017759 -0.005827 0.003302 -0.004405
# 4 -0.001282 -0.005526 -0.005827 0.037612 0.001821 -0.008368
# 5 -0.001859 -0.008867 0.003302 0.001821 0.045069 -0.020041
# 6 -0.002608 0.005142 -0.004405 -0.008368 -0.020041 0.043055
#
#
# Mechanical properties :
#
#
# Convention : Reuss Voigt Hill
#
# Bulk Modulus (GPa) = 29.69373 40.63417 35.16395
# Shear Modulus (GPa) = 26.55578 35.26152 30.90865
#
# Velocity S-wave (km/s) = 3.33054 3.83783 3.59315
# Velocity P-wave (km/s) = 5.21471 6.05075 5.64822
#
# Compressibility (1/GPa) = 0.03367714
#
# Stress axis : x y z
#
# Youngs Moduli (GPa) = 110.93244 63.59135 56.30897
#
# Poissons Ratio (x) = -0.02223 0.16019
# Poissons Ratio (y) = -0.03877 0.10786
# Poissons Ratio (z) = 0.31559 0.12181
#
# Static dielectric constant tensor:
#      x y z
#    x 1.921580 0.014770 0.014650 
#    y 0.014770 1.886600 -0.037630 
#    z 0.014650 -0.037630 1.925350 
# 
# From -- ./inp_files/358224.got.cif
#   From: 2010.05.17/outbox.cif.g08.bks.cpg/sg2_180_cif.got.tgz:358224.got - 2010.06.03 11:33:40.
