data_PCOD9067632
_publ_section_title
;
Structure prediction by ZEFSAII (Michael W. Deem and Ramdas Pophale) SiO2 
 PCOD9067632
Probable space group: P -1
;
_chemical_formula_sum "Si O2"
_cell_formula_units_Z 11
_cell_length_a 8.673014
_cell_length_b 11.888456
_cell_length_c 14.369099
_cell_angle_alpha 147.879237
_cell_angle_beta 37.238641
_cell_angle_gamma 124.370912
_cell_volume 448.136347
_symmetry_space_group_name_H-M "P -1"
_symmetry_group_IT_number 2
_symmetry_cell_setting 'triclinic'
loop_
_space_group_symop_operation_xyz
x,y,z
-x,-y,-z
loop_
_atom_site_type_symbol
_atom_site_label
_atom_site_fract_x
_atom_site_fract_y
_atom_site_fract_z
Si Si1 0.573668 0.678435 0.024244
Si Si2 0.000000 0.000000 0.500000
Si Si3 0.159571 0.419897 0.548137
Si Si4 0.911538 0.003321 0.755154
Si Si5 0.657031 0.515818 0.297868
Si Si6 0.386255 0.928306 0.596936
O O1 0.301553 0.818219 0.199128
O O2 0.663366 0.868746 0.165670
O O3 0.500000 0.500000 0.000000
O O4 0.854138 0.533273 0.738207
O O5 0.074012 0.961820 0.549545
O O6 0.364597 0.538340 0.496875
O O7 0.166974 0.430152 0.665311
O O8 0.265302 0.158298 0.286068
O O9 0.786139 0.265828 0.022422
O O10 0.107486 0.905467 0.680656
O O11 0.599407 0.703510 0.378690
O O12 0.500000 0.000000 0.500000
#
# Coordination Sequence:
#
# PCOD9067632 Si02
#       6
#     2   1   2   2   2   2
#     4  12  25  47  72 108 145 191 249 309 357 440
#     4  12  26  42  76 104 140 196 236 302 374 410
#     4  11  25  52  76 108 152 197 249 294 379 439
#     4  12  26  47  74 113 145 197 248 303 366 445
#     4  11  28  50  75 109 154 198 238 313 361 448
#     4  12  26  45  72 111 150 191 251 303 372 431
#
# _framework density 24.546099999999999
#
# number of rings (size 3 to 8) (size 9 to 14) (size 15 to 20)
#    0.000    0.364    5.455    1.636    5.091    2.182 
#    3.273    0.000    0.000    0.000    0.000    0.000 
#    0.000    0.000    0.000    0.000    0.000    0.000 
#
# Total GULP energy -61325.024443 kJ/mol
# GULP energy per Si atom -5575.002222 kJ/mol
# Density = 2.449023 g / cm^3
# Si number density = 24.546100 Si / 1000 Ang^3
#
#
#
# Elastic Constant Matrix: (Units=GPa)
#
#
# Indices 1 2 3 4 5 6 
#
# 1 114.1171 22.7835 49.4271 21.9108 -0.8443 7.2378
# 2 22.7835 51.5596 13.8806 14.2226 -11.2332 11.4945
# 3 49.4271 13.8806 160.4158 27.6090 -5.4766 6.9012
# 4 21.9108 14.2226 27.6090 41.7599 5.6662 2.7734
# 5 -0.8443 -11.2332 -5.4766 5.6662 52.2329 10.9686
# 6 7.2378 11.4945 6.9012 2.7734 10.9686 30.9170
#
#
#
# Elastic Compliance Matrix: (Units=1/GPa)
#
#
# Indices 1 2 3 4 5 6 
#
# 1 0.011167 -0.003471 -0.002655 -0.002837 -0.000472 -0.000309
# 2 -0.003471 0.027973 0.001041 -0.008877 0.009645 -0.012446
# 3 -0.002655 0.001041 0.007837 -0.004274 0.001841 -0.001785
# 4 -0.002837 -0.008877 -0.004274 0.031910 -0.006803 0.004470
# 5 -0.000472 0.009645 0.001841 -0.006803 0.024669 -0.012028
# 6 -0.000309 -0.012446 -0.001785 0.004470 -0.012028 0.041309
#
#
# Mechanical properties :
#
#
# Convention : Reuss Voigt Hill
#
# Bulk Modulus (GPa) = 27.16791 55.36389 41.26590
# Shear Modulus (GPa) = 29.88601 40.98205 35.43403
#
# Velocity S-wave (km/s) = 3.49312 4.09050 3.80356
# Velocity P-wave (km/s) = 5.23081 6.70176 6.01145
#
# Compressibility (1/GPa) = 0.03680813
#
# Stress axis : x y z
#
# Youngs Moduli (GPa) = 89.55263 35.74878 127.60005
#
# Poissons Ratio (x) = 0.12408 0.33875
# Poissons Ratio (y) = 0.31082 -0.13289
# Poissons Ratio (z) = 0.23775 -0.03723
#
# Static dielectric constant tensor:
#      x y z
#    x 1.925320 -0.010680 -0.005980 
#    y -0.010680 1.963720 0.003380 
#    z -0.005980 0.003380 1.959810 
# 
# From -- ./inp_files/499546.got.cif
#   From: 2010.05.17/outbox.cif.g08.bks.cpg/sg2_250_cif.got.tgz:499546.got - 2010.06.03 11:33:40.
