data_PCOD9067945
_publ_section_title
;
Structure prediction by ZEFSAII (Michael W. Deem and Ramdas Pophale) SiO2 
 PCOD9067945
Probable space group: P -1
;
_chemical_formula_sum "Si O2"
_cell_formula_units_Z 14
_cell_length_a 7.864169
_cell_length_b 11.221782
_cell_length_c 8.682745
_cell_angle_alpha 70.147523
_cell_angle_beta 118.229292
_cell_angle_gamma 124.426332
_cell_volume 554.117378
_symmetry_space_group_name_H-M "P -1"
_symmetry_group_IT_number 2
_symmetry_cell_setting 'triclinic'
loop_
_space_group_symop_operation_xyz
x,y,z
-x,-y,-z
loop_
_atom_site_type_symbol
_atom_site_label
_atom_site_fract_x
_atom_site_fract_y
_atom_site_fract_z
Si Si1 0.252587 0.623264 0.584243
Si Si2 0.691713 0.416368 0.051808
Si Si3 0.961552 0.676228 0.849141
Si Si4 0.300980 0.932220 0.068290
Si Si5 0.246304 0.172607 0.820196
Si Si6 0.309875 0.188385 0.478836
Si Si7 0.781836 0.105898 0.608320
O O1 0.337265 0.568086 0.787957
O O2 0.444432 0.678255 0.512144
O O3 0.262034 0.778647 0.552336
O O4 0.000000 0.500000 0.500000
O O5 0.901034 0.386113 0.155280
O O6 0.762048 0.549322 0.910405
O O7 0.468576 0.286356 0.947744
O O8 0.870472 0.764435 0.672852
O O9 0.136194 0.772175 0.012472
O O10 0.351117 0.936971 0.267759
O O11 0.500000 0.000000 0.000000
O O12 0.177414 0.023638 0.943548
O O13 0.290804 0.161290 0.664401
O O14 0.038315 0.197637 0.726459
O O15 0.255591 0.039315 0.431127
#
# Coordination Sequence:
#
# PCOD9067945 Si02
#       7
#     2   2   2   2   2   2   2
#     4  12  29  49  72 106 149 191 246 298 365 431
#     4  11  27  48  75 106 145 197 235 302 364 430
#     4  11  26  46  75 103 148 184 252 289 368 430
#     4  12  24  45  76 106 144 191 241 301 360 433
#     4  12  26  45  76 108 144 189 245 296 364 429
#     4  12  28  47  73 110 145 194 242 304 358 431
#     4  12  27  49  74 109 149 189 243 302 365 425
#
# _framework density 25.265402999999999
#
# number of rings (size 3 to 8) (size 9 to 14) (size 15 to 20)
#    0.000    0.286    2.857    4.714   10.000    1.143 
#    0.000    0.000    0.000    0.000    0.000    0.000 
#    0.000    0.000    0.000    0.000    0.000    0.000 
#
# Total GULP energy -78427.392723 kJ/mol
# GULP energy per Si atom -5601.956623 kJ/mol
# Density = 2.520790 g / cm^3
# Si number density = 25.265403 Si / 1000 Ang^3
#
#
#
# Elastic Constant Matrix: (Units=GPa)
#
#
# Indices 1 2 3 4 5 6 
#
# 1 123.4599 28.7154 25.8329 2.2196 1.7202 24.2267
# 2 28.7154 70.4097 16.1710 9.0099 -10.5767 9.9162
# 3 25.8329 16.1710 119.3310 -1.9342 -13.7595 5.7552
# 4 2.2196 9.0099 -1.9342 39.9339 6.0032 7.9386
# 5 1.7202 -10.5767 -13.7595 6.0032 50.0748 -6.4833
# 6 24.2267 9.9162 5.7552 7.9386 -6.4833 29.6224
#
#
#
# Elastic Compliance Matrix: (Units=1/GPa)
#
#
# Indices 1 2 3 4 5 6 
#
# 1 0.011032 -0.003608 -0.001791 0.002312 -0.003043 -0.008752
# 2 -0.003608 0.017133 -0.001135 -0.004180 0.003854 -0.000600
# 3 -0.001791 -0.001135 0.009176 0.000348 0.002364 0.000486
# 4 0.002312 -0.004180 0.000348 0.028575 -0.005512 -0.009423
# 5 -0.003043 0.003854 0.002364 -0.005512 0.023142 0.007282
# 6 -0.008752 -0.000600 0.000486 -0.009423 0.007282 0.045142
#
#
# Mechanical properties :
#
#
# Convention : Reuss Voigt Hill
#
# Bulk Modulus (GPa) = 41.19679 50.51546 45.85613
# Shear Modulus (GPa) = 32.18336 40.09164 36.13750
#
# Velocity S-wave (km/s) = 3.57292 3.98781 3.78605
# Velocity P-wave (km/s) = 5.77599 6.42190 6.10749
#
# Compressibility (1/GPa) = 0.02427373
#
# Stress axis : x y z
#
# Youngs Moduli (GPa) = 90.64479 58.36591 108.97589
#
# Poissons Ratio (x) = 0.21060 0.19513
# Poissons Ratio (y) = 0.32708 0.12369
# Poissons Ratio (z) = 0.16231 0.06625
#
# Static dielectric constant tensor:
#      x y z
#    x 2.069660 -0.035640 0.007370 
#    y -0.035640 1.941880 -0.003180 
#    z 0.007370 -0.003180 1.902450 
# 
# From -- ./inp_files/156978.got.cif
#   From: 2010.05.17/outbox.cif.g08.bks.cpg/sg2_79_cif.got.tgz:156978.got - 2010.06.03 11:33:40.
