data_PCOD9067829
_publ_section_title
;
Structure prediction by ZEFSAII (Michael W. Deem and Ramdas Pophale) SiO2 
 PCOD9067829
Probable space group: P -1
;
_chemical_formula_sum "Si O2"
_cell_formula_units_Z 14
_cell_length_a 14.862927
_cell_length_b 24.465062
_cell_length_c 5.221024
_cell_angle_alpha 115.492733
_cell_angle_beta 64.199116
_cell_angle_gamma 159.776979
_cell_volume 589.361264
_symmetry_space_group_name_H-M "P -1"
_symmetry_group_IT_number 2
_symmetry_cell_setting 'triclinic'
loop_
_space_group_symop_operation_xyz
x,y,z
-x,-y,-z
loop_
_atom_site_type_symbol
_atom_site_label
_atom_site_fract_x
_atom_site_fract_y
_atom_site_fract_z
Si Si1 0.671041 0.783201 0.909881
Si Si2 0.787326 0.130538 0.396730
Si Si3 0.235812 0.370578 0.927964
Si Si4 0.001908 0.143240 0.437010
Si Si5 0.294980 0.118729 0.419328
Si Si6 0.136427 0.424688 0.852865
Si Si7 0.872702 0.399130 0.204311
O O1 0.784046 0.883901 0.729927
O O2 0.390577 0.601864 0.791593
O O3 0.849127 0.825014 0.841539
O O4 0.650068 0.812905 0.247561
O O5 0.787835 0.066052 0.412310
O O6 0.981215 0.289150 0.602752
O O7 0.500000 0.000000 0.500000
O O8 0.951762 0.207401 0.090914
O O9 0.251013 0.448743 0.988290
O O10 0.213309 0.310598 0.603121
O O11 0.500000 0.500000 0.000000
O O12 0.888762 0.040344 0.601478
O O13 0.569270 0.242803 0.253453
O O14 0.935013 0.363092 0.061651
O O15 0.000000 0.500000 0.500000
O O16 0.000000 0.500000 0.000000
#
# Coordination Sequence:
#
# PCOD9067829 Si02
#       7
#     2   2   2   2   2   2   2
#     4  12  26  48  77 113 149 197 248 312 373 451
#     4  11  28  47  74 108 148 198 247 319 372 444
#     4  11  26  48  79 103 145 199 253 312 369 443
#     4  11  28  46  74 109 148 194 252 306 382 445
#     4  12  27  46  74 112 153 196 246 308 379 447
#     4  11  26  45  75 108 147 188 258 301 374 442
#     4  12  25  45  71 109 147 197 243 301 369 449
#
# _framework density 23.754532000000001
#
# number of rings (size 3 to 8) (size 9 to 14) (size 15 to 20)
#    0.000    0.571    2.857    2.571   14.000    3.429 
#    0.000    0.000    0.000    0.000    0.000    0.000 
#    0.000    0.000    0.000    0.000    0.000    0.000 
#
# Total GULP energy -78304.760996 kJ/mol
# GULP energy per Si atom -5593.197214 kJ/mol
# Density = 2.370047 g / cm^3
# Si number density = 23.754532 Si / 1000 Ang^3
#
#
#
# Elastic Constant Matrix: (Units=GPa)
#
#
# Indices 1 2 3 4 5 6 
#
# 1 176.1287 30.9923 41.3416 -8.6521 -30.5666 -5.4068
# 2 30.9923 103.1213 8.5268 -8.1926 -6.8048 1.0249
# 3 41.3416 8.5268 101.5796 -0.2630 -17.3574 -15.5159
# 4 -8.6521 -8.1926 -0.2630 36.3351 -3.2196 -2.0856
# 5 -30.5666 -6.8048 -17.3574 -3.2196 42.4028 -3.0889
# 6 -5.4068 1.0249 -15.5159 -2.0856 -3.0889 43.6239
#
#
#
# Elastic Compliance Matrix: (Units=1/GPa)
#
#
# Indices 1 2 3 4 5 6 
#
# 1 0.007291 -0.001603 -0.001986 0.001783 0.004367 0.000629
# 2 -0.001603 0.010393 -0.000175 0.001989 0.000565 -0.000370
# 3 -0.001986 -0.000175 0.011966 0.000154 0.003763 0.004288
# 4 0.001783 0.001989 0.000154 0.028859 0.003997 0.001892
# 5 0.004367 0.000565 0.003763 0.003997 0.028965 0.004108
# 6 0.000629 -0.000370 0.004288 0.001892 0.004108 0.024916
#
#
# Mechanical properties :
#
#
# Convention : Reuss Voigt Hill
#
# Bulk Modulus (GPa) = 45.20544 60.28344 52.74444
# Shear Modulus (GPa) = 39.28050 44.47026 41.87538
#
# Velocity S-wave (km/s) = 4.07086 4.33144 4.20317
# Velocity P-wave (km/s) = 6.41618 7.10267 6.76814
#
# Compressibility (1/GPa) = 0.02212123
#
# Stress axis : x y z
#
# Youngs Moduli (GPa) = 137.16231 96.22226 83.57314
#
# Poissons Ratio (x) = 0.15428 0.16595
# Poissons Ratio (y) = 0.21992 0.01460
# Poissons Ratio (z) = 0.27236 0.01681
#
# Static dielectric constant tensor:
#      x y z
#    x 1.908640 0.025530 0.022720 
#    y 0.025530 1.949120 -0.061730 
#    z 0.022720 -0.061730 1.986920 
# 
# From -- ./inp_files/71038.got.cif
#   From: 2010.05.17/outbox.cif.g08.bks.cpg/sg2_36_cif.got.tgz:71038.got - 2010.06.03 11:33:40.
