data_PCOD9067046
_publ_section_title
;
Structure prediction by ZEFSAII (Michael W. Deem and Ramdas Pophale) SiO2 
 PCOD9067046
Probable space group: P -1
;
_chemical_formula_sum "Si O2"
_cell_formula_units_Z 12
_cell_length_a 9.231054
_cell_length_b 8.714647
_cell_length_c 8.815552
_cell_angle_alpha 71.817086
_cell_angle_beta 119.089568
_cell_angle_gamma 129.252285
_cell_volume 479.877734
_symmetry_space_group_name_H-M "P -1"
_symmetry_group_IT_number 2
_symmetry_cell_setting 'triclinic'
loop_
_space_group_symop_operation_xyz
x,y,z
-x,-y,-z
loop_
_atom_site_type_symbol
_atom_site_label
_atom_site_fract_x
_atom_site_fract_y
_atom_site_fract_z
Si Si1 0.853042 0.696681 0.690483
Si Si2 0.982420 0.735050 0.094817
Si Si3 0.642249 0.709992 0.093007
Si Si4 0.871232 0.362962 0.338589
Si Si5 0.557091 0.729692 0.373079
Si Si6 0.444526 0.030082 0.207985
O O1 0.736530 0.798271 0.563574
O O2 0.663726 0.466823 0.637301
O O3 0.032886 0.744183 0.654344
O O4 0.931445 0.725591 0.893565
O O5 0.895315 0.512514 0.173577
O O6 0.220053 0.886115 0.204424
O O7 0.862467 0.800130 0.109696
O O8 0.582356 0.858884 0.976929
O O9 0.500000 0.500000 0.000000
O O10 0.627150 0.676687 0.273372
O O11 0.000000 0.500000 0.500000
O O12 0.642262 0.217448 0.329896
O O13 0.517325 0.890681 0.260942
#
# Coordination Sequence:
#
# PCOD9067046 Si02
#       6
#     2   2   2   2   2   2
#     4  11  25  47  76 111 157 197 245 317 379 436
#     4  12  26  50  77 111 152 198 251 311 376 447
#     4  12  24  47  77 112 153 200 248 312 375 440
#     4  12  27  49  78 112 152 195 254 317 376 443
#     4  11  25  48  78 111 152 200 256 304 375 451
#     4  12  28  48  80 111 147 204 254 307 376 452
#
# _framework density 25.006371999999999
#
# number of rings (size 3 to 8) (size 9 to 14) (size 15 to 20)
#    0.000    0.333    5.000    2.500    4.667    1.333 
#    6.000    0.000    0.000    0.000    0.000    0.000 
#    0.000    0.000    0.000    0.000    0.000    0.000 
#
# Total GULP energy -67185.542197 kJ/mol
# GULP energy per Si atom -5598.795183 kJ/mol
# Density = 2.494946 g / cm^3
# Si number density = 25.006372 Si / 1000 Ang^3
#
#
#
# Elastic Constant Matrix: (Units=GPa)
#
#
# Indices 1 2 3 4 5 6 
#
# 1 129.6383 58.2336 80.5601 10.4394 30.9317 23.1108
# 2 58.2336 117.8864 34.4005 -1.9483 20.1181 27.4116
# 3 80.5601 34.4005 72.7613 9.8318 10.5226 -2.4105
# 4 10.4394 -1.9483 9.8318 34.8268 -5.0448 23.3142
# 5 30.9317 20.1181 10.5226 -5.0448 34.6284 -1.0946
# 6 23.1108 27.4116 -2.4105 23.3142 -1.0946 43.8819
#
#
#
# Elastic Compliance Matrix: (Units=1/GPa)
#
#
# Indices 1 2 3 4 5 6 
#
# 1 0.346464 0.100055 -0.454804 0.287248 -0.201072 -0.427580
# 2 0.100055 0.046450 -0.141898 0.100073 -0.063221 -0.144250
# 3 -0.454804 -0.141898 0.619404 -0.396504 0.261019 0.579361
# 4 0.287248 0.100073 -0.396504 0.305793 -0.162396 -0.402091
# 5 -0.201072 -0.063221 0.261019 -0.162396 0.150133 0.249751
# 6 -0.427580 -0.144250 0.579361 -0.402091 0.249751 0.589769
#
#
# Mechanical properties :
#
#
# Convention : Reuss Voigt Hill
#
# Bulk Modulus (GPa) = 52.56493 74.07492 63.31993
# Shear Modulus (GPa) = 1.63524 32.47354 17.05439
#
# Velocity S-wave (km/s) = 0.80954 3.60753 2.61435
# Velocity P-wave (km/s) = 4.68402 6.85851 5.87278
#
# Compressibility (1/GPa) = 0.01902409
#
# Stress axis : x y z
#
# Youngs Moduli (GPa) = 2.88630 21.52864 1.61445
#
# Poissons Ratio (x) = -2.15404 0.73426
# Poissons Ratio (y) = -0.28879 0.22909
# Poissons Ratio (z) = 1.31270 3.05487
#
# Static dielectric constant tensor:
#      x y z
#    x 1.965140 -0.002220 0.054330 
#    y -0.002220 2.017010 -0.041160 
#    z 0.054330 -0.041160 1.955050 
# 
# From -- ./inp_files/157744.got.cif
#   From: 2010.05.17/outbox.cif.g08.bks.cpg/sg2_79_cif.got.tgz:157744.got - 2010.06.03 11:33:40.
