data_PCOD9067044
_publ_section_title
;
Structure prediction by ZEFSAII (Michael W. Deem and Ramdas Pophale) SiO2 
 PCOD9067044
Probable space group: P -1
;
_chemical_formula_sum "Si O2"
_cell_formula_units_Z 11
_cell_length_a 11.947477
_cell_length_b 5.839920
_cell_length_c 8.337799
_cell_angle_alpha 124.751366
_cell_angle_beta 104.182938
_cell_angle_gamma 99.554699
_cell_volume 427.942090
_symmetry_space_group_name_H-M "P -1"
_symmetry_group_IT_number 2
_symmetry_cell_setting 'triclinic'
loop_
_space_group_symop_operation_xyz
x,y,z
-x,-y,-z
loop_
_atom_site_type_symbol
_atom_site_label
_atom_site_fract_x
_atom_site_fract_y
_atom_site_fract_z
Si Si1 0.926992 0.963021 0.623481
Si Si2 0.468308 0.513046 0.803864
Si Si3 0.736441 0.766583 0.947719
Si Si4 0.740193 0.316099 0.343370
Si Si5 0.000000 0.000000 0.000000
Si Si6 0.309776 0.856598 0.396574
O O1 0.868103 0.605761 0.497612
O O2 0.817630 0.085152 0.617448
O O3 0.000000 0.000000 0.500000
O O4 0.011077 0.118018 0.866681
O O5 0.593495 0.722854 0.839968
O O6 0.356388 0.628420 0.789319
O O7 0.418961 0.184860 0.570088
O O8 0.500000 0.500000 0.000000
O O9 0.712099 0.418454 0.842275
O O10 0.765445 0.017383 0.196208
O O11 0.844993 0.905146 0.909639
O O12 0.681384 0.287055 0.485850
#
# Coordination Sequence:
#
# PCOD9067044 Si02
#       6
#     2   2   2   2   1   2
#     4  11  27  51  77 109 161 206 256 319 383 463
#     4  11  25  47  76 111 150 203 255 315 390 451
#     4  12  26  46  75 110 153 198 254 315 377 463
#     4  11  25  50  74 109 157 196 256 325 380 452
#     4  12  28  48  76 116 148 206 258 306 390 458
#     4  11  25  49  74 111 149 201 255 318 389 449
#
# _framework density 25.704412000000001
#
# number of rings (size 3 to 8) (size 9 to 14) (size 15 to 20)
#    0.000    0.727    3.636    2.182    5.091    4.364 
#    0.000    0.000    0.000    0.000    0.000    0.000 
#    0.000    0.000    0.000    0.000    0.000    0.000 
#
# Total GULP energy -61294.924592 kJ/mol
# GULP energy per Si atom -5572.265872 kJ/mol
# Density = 2.564591 g / cm^3
# Si number density = 25.704412 Si / 1000 Ang^3
#
#
#
# Elastic Constant Matrix: (Units=GPa)
#
#
# Indices 1 2 3 4 5 6 
#
# 1 75.0429 -0.1550 8.1966 1.4775 -17.1794 15.8352
# 2 -0.1550 68.0806 41.2817 -4.5504 -9.2656 -2.0096
# 3 8.1966 41.2817 85.8615 12.0404 -27.6284 -14.1091
# 4 1.4775 -4.5504 12.0404 72.9157 -8.7214 1.3338
# 5 -17.1794 -9.2656 -27.6284 -8.7214 29.2742 3.9475
# 6 15.8352 -2.0096 -14.1091 1.3338 3.9475 46.2545
#
#
#
# Elastic Compliance Matrix: (Units=1/GPa)
#
#
# Indices 1 2 3 4 5 6 
#
# 1 0.017568 0.001428 0.000288 0.001291 0.012357 -0.006956
# 2 0.001428 0.022075 -0.012585 0.003166 -0.002674 -0.003232
# 3 0.000288 -0.012585 0.024741 -0.002828 0.017958 0.005450
# 4 0.001291 0.003166 -0.002828 0.014839 0.003770 -0.001917
# 5 0.012357 -0.002674 0.017958 0.003770 0.059180 -0.004028
# 6 -0.006956 -0.003232 0.005450 -0.001917 -0.004028 0.025922
#
#
# Mechanical properties :
#
#
# Convention : Reuss Voigt Hill
#
# Bulk Modulus (GPa) = 23.44878 36.40352 29.92615
# Shear Modulus (GPa) = 24.96515 41.66634 33.31574
#
# Velocity S-wave (km/s) = 3.11985 4.03051 3.60406
# Velocity P-wave (km/s) = 4.70322 5.98775 5.38393
#
# Compressibility (1/GPa) = 0.04264614
#
# Stress axis : x y z
#
# Youngs Moduli (GPa) = 56.92041 45.29925 40.41885
#
# Poissons Ratio (x) = -0.06468 -0.01166
# Poissons Ratio (y) = -0.08127 0.50869
# Poissons Ratio (z) = -0.01642 0.57011
#
# Static dielectric constant tensor:
#      x y z
#    x 2.063660 -0.023910 -0.015300 
#    y -0.023910 1.993250 -0.025420 
#    z -0.015300 -0.025420 2.257040 
# 
# From -- ./inp_files/24441.got.cif
#   From: 2010.05.17/outbox.cif.g08.bks.cpg/sg2_13_cif.got.tgz:24441.got - 2010.06.03 11:33:40.
