data_PCOD9067270
_publ_section_title
;
Structure prediction by ZEFSAII (Michael W. Deem and Ramdas Pophale) SiO2 
 PCOD9067270
Probable space group: P -1
;
_chemical_formula_sum "Si O2"
_cell_formula_units_Z 16
_cell_length_a 21.073798
_cell_length_b 9.151428
_cell_length_c 5.373781
_cell_angle_alpha 118.470727
_cell_angle_beta 47.263550
_cell_angle_gamma 118.682555
_cell_volume 649.191985
_symmetry_space_group_name_H-M "P -1"
_symmetry_group_IT_number 2
_symmetry_cell_setting 'triclinic'
loop_
_space_group_symop_operation_xyz
x,y,z
-x,-y,-z
loop_
_atom_site_type_symbol
_atom_site_label
_atom_site_fract_x
_atom_site_fract_y
_atom_site_fract_z
Si Si1 0.093177 0.615431 0.259748
Si Si2 0.808893 0.648376 0.394174
Si Si3 0.057499 0.989635 0.584119
Si Si4 0.412132 0.264472 0.650334
Si Si5 0.304281 0.166586 0.385129
Si Si6 0.634327 0.403477 0.893641
Si Si7 0.261893 0.791869 0.213828
Si Si8 0.559917 0.190866 0.483147
O O1 0.083700 0.804332 0.354553
O O2 0.170743 0.656027 0.294991
O O3 0.000000 0.500000 0.500000
O O4 0.127343 0.480920 0.887000
O O5 0.758523 0.700094 0.323342
O O6 0.724171 0.536549 0.667055
O O7 0.861730 0.837206 0.498039
O O8 0.000000 0.000000 0.500000
O O9 0.000000 0.000000 0.000000
O O10 0.368875 0.161704 0.441065
O O11 0.512372 0.253455 0.426010
O O12 0.359141 0.202838 0.005259
O O13 0.404152 0.452318 0.753719
O O14 0.241913 0.976422 0.415477
O O15 0.678630 0.258315 0.769048
O O16 0.562428 0.319353 0.807695
O O17 0.335909 0.802873 0.810096
O O18 0.500000 0.000000 0.500000
#
# Coordination Sequence:
#
# PCOD9067270 Si02
#       8
#     2   2   2   2   2   2   2   2
#     4  12  26  50  81 115 157 205 261 322 392 469
#     4  11  25  52  77 114 160 204 263 323 391 470
#     4  12  29  51  81 119 152 202 260 325 395 466
#     4  11  26  45  74 107 153 203 253 320 387 457
#     4  11  25  48  76 109 153 203 255 319 385 459
#     4  11  27  45  74 109 156 206 260 321 392 464
#     4  12  26  46  76 111 151 205 262 323 390 466
#     4  12  25  46  73 111 152 200 265 320 392 463
#
# _framework density 24.646021999999999
#
# number of rings (size 3 to 8) (size 9 to 14) (size 15 to 20)
#    0.000    0.500    5.000    1.875    5.250    5.000 
#    0.000    0.000    0.000    0.000    0.000    0.000 
#    0.000    0.000    0.000    0.000    0.000    0.000 
#
# Total GULP energy -89214.702732 kJ/mol
# GULP energy per Si atom -5575.918921 kJ/mol
# Density = 2.458993 g / cm^3
# Si number density = 24.646022 Si / 1000 Ang^3
#
#
#
# Elastic Constant Matrix: (Units=GPa)
#
#
# Indices 1 2 3 4 5 6 
#
# 1 154.9827 41.9466 21.1411 2.7084 -1.7929 0.2920
# 2 41.9466 118.4095 78.4418 0.7968 -18.5272 -35.0231
# 3 21.1411 78.4418 6.6141 20.8524 -14.0204 27.9771
# 4 2.7084 0.7968 20.8524 28.4457 -10.1830 -30.9270
# 5 -1.7929 -18.5272 -14.0204 -10.1830 46.5519 -1.8744
# 6 0.2920 -35.0231 27.9771 -30.9270 -1.8744 35.8228
#
#
#
# Elastic Compliance Matrix: (Units=1/GPa)
#
#
# Indices 1 2 3 4 5 6 
#
# 1 0.007144 -0.001662 -0.001814 -0.000313 -0.001025 -0.000590
# 2 -0.001662 0.004865 0.003853 -0.009140 0.000788 -0.006089
# 3 -0.001814 0.003853 0.003815 0.017259 0.007035 0.016071
# 4 -0.000313 -0.009140 0.017259 0.029764 0.008208 0.003713
# 5 -0.001025 0.000788 0.007035 0.008208 0.025820 0.003722
# 6 -0.000590 -0.006089 0.016071 0.003713 0.003722 0.012816
#
#
# Mechanical properties :
#
#
# Convention : Reuss Voigt Hill
#
# Bulk Modulus (GPa) = 60.31605 62.56281 61.43943
# Shear Modulus (GPa) = 56.18161 31.39586 43.78874
#
# Velocity S-wave (km/s) = 4.77963 3.57301 4.21967
# Velocity P-wave (km/s) = 7.41525 6.51625 6.98024
#
# Compressibility (1/GPa) = 0.01657934
#
# Stress axis : x y z
#
# Youngs Moduli (GPa) = 139.97120 205.53262 262.11513
#
# Poissons Ratio (x) = 0.34162 0.47542
# Poissons Ratio (y) = 0.23265 -1.00997
# Poissons Ratio (z) = 0.25388 -0.79195
#
# Static dielectric constant tensor:
#      x y z
#    x 2.048210 -0.007580 0.002660 
#    y -0.007580 2.006590 -0.016190 
#    z 0.002660 -0.016190 2.108150 
# 
# From -- ./inp_files/117305.got.cif
#   From: 2010.05.17/outbox.cif.g08.bks.cpg/sg2_59_cif.got.tgz:117305.got - 2010.06.03 11:33:40.
