data_PCOD9067521
_publ_section_title
;
Structure prediction by ZEFSAII (Michael W. Deem and Ramdas Pophale) SiO2 
 PCOD9067521
Probable space group: P -1
;
_chemical_formula_sum "Si O2"
_cell_formula_units_Z 15
_cell_length_a 14.230789
_cell_length_b 14.322536
_cell_length_c 22.461753
_cell_angle_alpha 162.687478
_cell_angle_beta 156.493630
_cell_angle_gamma 29.520087
_cell_volume 542.851064
_symmetry_space_group_name_H-M "P -1"
_symmetry_group_IT_number 2
_symmetry_cell_setting 'triclinic'
loop_
_space_group_symop_operation_xyz
x,y,z
-x,-y,-z
loop_
_atom_site_type_symbol
_atom_site_label
_atom_site_fract_x
_atom_site_fract_y
_atom_site_fract_z
Si Si1 0.235138 0.299788 0.006804
Si Si2 0.477414 0.132799 0.772428
Si Si3 0.000000 0.000000 0.000000
Si Si4 0.105110 0.275396 0.552101
Si Si5 0.597371 0.719568 0.777545
Si Si6 0.618118 0.670589 0.378838
Si Si7 0.961330 0.124234 0.165883
Si Si8 0.242193 0.838044 0.551220
O O1 0.382878 0.322312 0.166869
O O2 0.406868 0.431457 0.133850
O O3 0.125853 0.944475 0.724122
O O4 0.000000 0.500000 0.000000
O O5 0.264695 0.077144 0.567910
O O6 0.706409 0.944488 0.781508
O O7 0.424069 0.106435 0.795219
O O8 0.500000 0.500000 0.000000
O O9 0.020033 0.173582 0.047955
O O10 0.235813 0.363296 0.618818
O O11 0.064018 0.645069 0.769292
O O12 0.340810 0.755867 0.622292
O O13 0.707824 0.425918 0.629325
O O14 0.771255 0.014207 0.037834
O O15 0.814301 0.731866 0.581332
O O16 0.500000 0.000000 0.500000
O O17 0.000000 0.000000 0.500000
#
# Coordination Sequence:
#
# PCOD9067521 Si02
#       8
#     2   2   1   2   2   2   2   2
#     4  12  26  49  76 116 155 206 258 323 396 472
#     4  12  26  49  77 114 152 204 266 323 393 472
#     4  12  26  46  80 108 150 208 260 318 398 456
#     4  12  26  51  77 117 158 199 268 322 392 476
#     4  11  25  50  75 112 163 203 261 329 391 466
#     4  12  26  48  80 111 149 209 254 319 397 465
#     4  12  26  49  76 109 158 206 259 324 389 470
#     4  11  27  48  76 115 156 209 264 326 389 465
#
# _framework density 27.631888
#
# number of rings (size 3 to 8) (size 9 to 14) (size 15 to 20)
#    0.000    0.267    5.333    2.000    3.733    1.600 
#    9.600    0.000    0.000    0.000    0.000    0.000 
#    0.000    0.000    0.000    0.000    0.000    0.000 
#
# Total GULP energy -83780.907438 kJ/mol
# GULP energy per Si atom -5585.393829 kJ/mol
# Density = 2.756900 g / cm^3
# Si number density = 27.631888 Si / 1000 Ang^3
#
#
#
# Elastic Constant Matrix: (Units=GPa)
#
#
# Indices 1 2 3 4 5 6 
#
# 1 185.6522 50.1942 43.0424 -8.1126 12.2448 8.6095
# 2 50.1942 193.3653 53.7709 -31.8271 -1.5701 -1.5635
# 3 43.0424 53.7709 156.0205 -2.3897 2.6769 5.1090
# 4 -8.1126 -31.8271 -2.3897 58.7590 12.8173 5.2003
# 5 12.2448 -1.5701 2.6769 12.8173 52.1969 -7.7800
# 6 8.6095 -1.5635 5.1090 5.2003 -7.7800 53.2450
#
#
#
# Elastic Compliance Matrix: (Units=1/GPa)
#
#
# Indices 1 2 3 4 5 6 
#
# 1 0.006193 -0.001184 -0.001219 0.000661 -0.001773 -0.001243
# 2 -0.001184 0.006552 -0.001883 0.003338 -0.000217 0.000207
# 3 -0.001219 -0.001883 0.007398 -0.000841 -0.000016 -0.000488
# 4 0.000661 0.003338 -0.000841 0.020300 -0.005399 -0.002700
# 5 -0.001773 -0.000217 -0.000016 -0.005399 0.021483 0.003948
# 6 -0.001243 0.000207 -0.000488 -0.002700 0.003948 0.019876
#
#
# Mechanical properties :
#
#
# Convention : Reuss Voigt Hill
#
# Bulk Modulus (GPa) = 86.43234 92.11699 89.27467
# Shear Modulus (GPa) = 53.06105 58.70889 55.88497
#
# Velocity S-wave (km/s) = 4.38686 4.61442 4.50208
# Velocity P-wave (km/s) = 7.55031 7.86131 7.70738
#
# Compressibility (1/GPa) = 0.01156974
#
# Stress axis : x y z
#
# Youngs Moduli (GPa) = 161.48079 152.62567 135.16845
#
# Poissons Ratio (x) = 0.18074 0.16478
# Poissons Ratio (y) = 0.19123 0.25456
# Poissons Ratio (z) = 0.19685 0.28744
#
# Static dielectric constant tensor:
#      x y z
#    x 1.680840 0.611530 0.249550 
#    y 0.611530 1.668470 -0.249000 
#    z 0.249550 -0.249000 2.336460 
# 
# From -- ./inp_files/612165.got.cif
#   From: 2010.05.17/outbox.cif.g08.bks.cpg/sg2_307_cif.got.tgz:612165.got - 2010.06.03 11:33:40.
