data_PCOD9067952
_publ_section_title
;
Structure prediction by ZEFSAII (Michael W. Deem and Ramdas Pophale) SiO2 
 PCOD9067952
Probable space group: P -1
;
_chemical_formula_sum "Si O2"
_cell_formula_units_Z 12
_cell_length_a 9.645009
_cell_length_b 7.396560
_cell_length_c 14.867870
_cell_angle_alpha 133.713942
_cell_angle_beta 44.311648
_cell_angle_gamma 106.081425
_cell_volume 483.326657
_symmetry_space_group_name_H-M "P -1"
_symmetry_group_IT_number 2
_symmetry_cell_setting 'triclinic'
loop_
_space_group_symop_operation_xyz
x,y,z
-x,-y,-z
loop_
_atom_site_type_symbol
_atom_site_label
_atom_site_fract_x
_atom_site_fract_y
_atom_site_fract_z
Si Si1 0.362692 0.350220 0.966996
Si Si2 0.882738 0.851893 0.755106
Si Si3 0.500771 0.218535 0.183796
Si Si4 0.540545 0.919490 0.348556
Si Si5 0.325079 0.649244 0.555525
Si Si6 0.959658 0.868422 0.382060
O O1 0.381307 0.334309 0.844895
O O2 0.453227 0.038490 0.857355
O O3 0.500000 0.500000 0.000000
O O4 0.119329 0.548791 0.180308
O O5 0.725460 0.722507 0.743216
O O6 0.090972 0.648999 0.646658
O O7 0.983234 0.969294 0.669862
O O8 0.708905 0.097426 0.980574
O O9 0.460649 0.496319 0.350517
O O10 0.500000 0.000000 0.500000
O O11 0.723760 0.036345 0.291197
O O12 0.290301 0.085528 0.487214
O O13 0.500000 0.500000 0.500000
O O14 0.000000 0.000000 0.500000
#
# Coordination Sequence:
#
# PCOD9067952 Si02
#       6
#     2   2   2   2   2   2
#     4  12  25  47  76 105 146 192 251 299 365 436
#     4  11  26  46  75 108 143 193 244 303 363 439
#     4  11  26  47  74 108 145 192 241 304 364 443
#     4  12  27  47  73 110 148 194 244 307 366 435
#     4  12  27  48  70 106 154 188 240 295 378 433
#     4  12  26  46  77 105 145 194 247 303 364 438
#
# _framework density 24.827926999999999
#
# number of rings (size 3 to 8) (size 9 to 14) (size 15 to 20)
#    0.000    0.333    6.667    0.500    4.667    5.333 
#    0.000    0.000    0.000    0.000    0.000    0.000 
#    0.000    0.000    0.000    0.000    0.000    0.000 
#
# Total GULP energy -67007.977543 kJ/mol
# GULP energy per Si atom -5583.998129 kJ/mol
# Density = 2.477142 g / cm^3
# Si number density = 24.827927 Si / 1000 Ang^3
#
#
#
# Elastic Constant Matrix: (Units=GPa)
#
#
# Indices 1 2 3 4 5 6 
#
# 1 181.1656 19.1156 93.9902 -3.3738 19.9057 -3.7442
# 2 19.1156 64.8979 38.4992 -6.8872 16.9577 -7.8111
# 3 93.9902 38.4992 177.4482 -7.7895 33.0200 15.8131
# 4 -3.3738 -6.8872 -7.7895 39.5217 8.5063 8.2234
# 5 19.9057 16.9577 33.0200 8.5063 57.1831 0.0858
# 6 -3.7442 -7.8111 15.8131 8.2234 0.0858 19.0981
#
#
#
# Elastic Compliance Matrix: (Units=1/GPa)
#
#
# Indices 1 2 3 4 5 6 
#
# 1 0.008330 0.001520 -0.005500 -0.001690 0.000066 0.007536
# 2 0.001520 0.021073 -0.005920 0.000551 -0.003462 0.013597
# 3 -0.005500 -0.005920 0.012232 0.005085 -0.004126 -0.015798
# 4 -0.001690 0.000551 0.005085 0.031515 -0.007173 -0.017854
# 5 0.000066 -0.003462 -0.004126 -0.007173 0.021933 0.005003
# 6 0.007536 0.013597 -0.015798 -0.017854 0.005003 0.080146
#
#
# Mechanical properties :
#
#
# Convention : Reuss Voigt Hill
#
# Bulk Modulus (GPa) = 45.80048 80.74686 63.27367
# Shear Modulus (GPa) = 24.71492 41.28770 33.00131
#
# Velocity S-wave (km/s) = 3.15850 4.08236 3.64978
# Velocity P-wave (km/s) = 5.63814 7.40365 6.58038
#
# Compressibility (1/GPa) = 0.02183383
#
# Stress axis : x y z
#
# Youngs Moduli (GPa) = 120.05010 47.45453 81.75446
#
# Poissons Ratio (x) = -0.07211 0.44963
# Poissons Ratio (y) = -0.18242 0.48399
# Poissons Ratio (z) = 0.66025 0.28093
#
# Static dielectric constant tensor:
#      x y z
#    x 1.935170 -0.125620 -0.031630 
#    y -0.125620 2.866040 0.054960 
#    z -0.031630 0.054960 1.921970 
# 
# From -- ./inp_files/314551.got.cif
#   From: 2010.05.17/outbox.cif.g08.bks.cpg/sg2_158_cif.got.tgz:314551.got - 2010.06.03 11:33:40.
