data_PCOD9067751
_publ_section_title
;
Structure prediction by ZEFSAII (Michael W. Deem and Ramdas Pophale) SiO2 
 PCOD9067751
Probable space group: P -1
;
_chemical_formula_sum "Si O2"
_cell_formula_units_Z 16
_cell_length_a 12.896957
_cell_length_b 8.093909
_cell_length_c 11.964995
_cell_angle_alpha 83.756428
_cell_angle_beta 112.069197
_cell_angle_gamma 141.912958
_cell_volume 674.729657
_symmetry_space_group_name_H-M "P -1"
_symmetry_group_IT_number 2
_symmetry_cell_setting 'triclinic'
loop_
_space_group_symop_operation_xyz
x,y,z
-x,-y,-z
loop_
_atom_site_type_symbol
_atom_site_label
_atom_site_fract_x
_atom_site_fract_y
_atom_site_fract_z
Si Si1 0.879634 0.605765 0.393805
Si Si2 0.843890 0.188049 0.694344
Si Si3 0.932746 0.670020 0.659432
Si Si4 0.536168 0.951684 0.250903
Si Si5 0.260680 0.291142 0.806622
Si Si6 0.472161 0.237382 0.964199
Si Si7 0.520151 0.330081 0.546749
Si Si8 0.207588 0.817521 0.092898
O O1 0.986543 0.731158 0.545350
O O2 0.764721 0.636741 0.322174
O O3 0.027282 0.764946 0.340084
O O4 0.723224 0.272805 0.345711
O O5 0.932930 0.480168 0.712525
O O6 0.822358 0.099407 0.818469
O O7 0.638026 0.951922 0.571251
O O8 0.725527 0.502637 0.589114
O O9 0.071842 0.953749 0.765609
O O10 0.548816 0.925381 0.127024
O O11 0.514731 0.763546 0.332197
O O12 0.350170 0.844556 0.193569
O O13 0.426976 0.355602 0.874477
O O14 0.322908 0.496832 0.912398
O O15 0.320247 0.026993 0.017539
O O16 0.500000 0.500000 0.500000
O O17 0.000000 0.500000 0.000000
#
# Coordination Sequence:
#
# PCOD9067751 Si02
#       8
#     2   2   2   2   2   2   2   2
#     4  12  25  44  77 104 142 187 242 296 354 432
#     4  12  26  47  73 108 141 186 241 298 362 426
#     4  12  24  47  73 102 146 186 241 291 367 426
#     4  12  25  48  76 105 141 192 243 289 359 433
#     4  11  26  45  69 107 140 190 241 293 350 422
#     4  11  27  46  73 101 147 193 238 292 352 426
#     4  12  28  46  71 112 145 183 232 309 368 417
#     4  12  25  46  74 105 144 189 244 293 349 427
#
# _framework density 23.713201000000002
#
# number of rings (size 3 to 8) (size 9 to 14) (size 15 to 20)
#    0.000    0.250    3.750    5.250    5.250    1.000 
#    0.000    1.250    0.000    0.000    0.000    0.000 
#    0.000    0.000    0.000    0.000    0.000    0.000 
#
# Total GULP energy -89589.015860 kJ/mol
# GULP energy per Si atom -5599.313491 kJ/mol
# Density = 2.365923 g / cm^3
# Si number density = 23.713201 Si / 1000 Ang^3
#
#
#
# Elastic Constant Matrix: (Units=GPa)
#
#
# Indices 1 2 3 4 5 6 
#
# 1 55.2222 26.9213 25.0446 -10.1988 -7.2987 10.5025
# 2 26.9213 107.4328 51.3829 11.5409 -11.4197 -2.9744
# 3 25.0446 51.3829 120.4244 1.4317 -16.4434 16.3490
# 4 -10.1988 11.5409 1.4317 59.8694 4.2700 7.6328
# 5 -7.2987 -11.4197 -16.4434 4.2700 43.5721 -9.3109
# 6 10.5025 -2.9744 16.3490 7.6328 -9.3109 41.7627
#
#
#
# Elastic Compliance Matrix: (Units=1/GPa)
#
#
# Indices 1 2 3 4 5 6 
#
# 1 0.024367 -0.006291 -0.001522 0.006341 -0.000303 -0.007207
# 2 -0.006291 0.014316 -0.005228 -0.004654 0.002474 0.006051
# 3 -0.001522 -0.005228 0.011669 0.000895 0.001766 -0.004328
# 4 0.006341 -0.004654 0.000895 0.019724 -0.003160 -0.006586
# 5 -0.000303 0.002474 0.001766 -0.003160 0.025782 0.005887
# 6 -0.007207 0.006051 -0.004328 -0.006586 0.005887 0.030398
#
#
# Mechanical properties :
#
#
# Convention : Reuss Voigt Hill
#
# Bulk Modulus (GPa) = 41.20262 54.41965 47.81113
# Shear Modulus (GPa) = 31.16645 41.02288 36.09467
#
# Velocity S-wave (km/s) = 3.62927 4.16379 3.90569
# Velocity P-wave (km/s) = 5.91399 6.79081 6.36751
#
# Compressibility (1/GPa) = 0.02427030
#
# Stress axis : x y z
#
# Youngs Moduli (GPa) = 41.03843 69.85375 85.69554
#
# Poissons Ratio (x) = 0.43947 0.13040
# Poissons Ratio (y) = 0.25818 0.44803
# Poissons Ratio (z) = 0.06245 0.36520
#
# Static dielectric constant tensor:
#      x y z
#    x 1.936890 -0.016870 -0.040880 
#    y -0.016870 1.909380 -0.008560 
#    z -0.040880 -0.008560 1.911020 
# 
# From -- ./inp_files/447365.got.cif
#   From: 2010.05.17/outbox.cif.g08.bks.cpg/sg2_224_cif.got.tgz:447365.got - 2010.06.03 11:33:40.
