data_PCOD9067827
_publ_section_title
;
Structure prediction by ZEFSAII (Michael W. Deem and Ramdas Pophale) SiO2 
 PCOD9067827
Probable space group: P -1
;
_chemical_formula_sum "Si O2"
_cell_formula_units_Z 12
_cell_length_a 5.209982
_cell_length_b 9.761949
_cell_length_c 12.680588
_cell_angle_alpha 54.462321
_cell_angle_beta 107.767845
_cell_angle_gamma 92.824782
_cell_volume 492.893399
_symmetry_space_group_name_H-M "P -1"
_symmetry_group_IT_number 2
_symmetry_cell_setting 'triclinic'
loop_
_space_group_symop_operation_xyz
x,y,z
-x,-y,-z
loop_
_atom_site_type_symbol
_atom_site_label
_atom_site_fract_x
_atom_site_fract_y
_atom_site_fract_z
Si Si1 0.354097 0.047510 0.126907
Si Si2 0.808138 0.497131 0.577214
Si Si3 0.197194 0.751564 0.131465
Si Si4 0.487622 0.110567 0.343274
Si Si5 0.464992 0.401745 0.932427
Si Si6 0.999384 0.315161 0.300102
O O1 0.422529 0.012721 0.273403
O O2 0.401336 0.880413 0.136127
O O3 0.514357 0.201822 0.052904
O O4 0.046670 0.139958 0.015510
O O5 0.500000 0.500000 0.500000
O O6 0.884755 0.324650 0.733716
O O7 0.000000 0.500000 0.500000
O O8 0.844262 0.658766 0.583462
O O9 0.355747 0.598222 0.149633
O O10 0.763679 0.195054 0.332022
O O11 0.215175 0.250460 0.265253
O O12 0.500000 0.000000 0.500000
O O13 0.166085 0.496388 0.824583
O O14 0.500000 0.500000 0.000000
#
# Coordination Sequence:
#
# PCOD9067827 Si02
#       6
#     2   2   2   2   2   2
#     4  11  26  45  75 106 159 205 255 317 394 455
#     4  12  27  47  76 109 151 204 253 320 383 456
#     4  11  26  48  71 113 158 202 260 319 388 465
#     4  12  28  50  74 113 153 207 253 324 385 468
#     4  12  23  45  78 110 149 198 261 323 378 461
#     4  12  26  48  77 108 148 196 271 310 386 453
#
# _framework density 24.346036999999999
#
# number of rings (size 3 to 8) (size 9 to 14) (size 15 to 20)
#    0.000    0.333    3.333    5.000    4.667    1.333 
#    0.000    0.000    0.000    0.000    0.000    0.000 
#    0.000    0.000    0.000    0.000    0.000    0.000 
#
# Total GULP energy -67076.940128 kJ/mol
# GULP energy per Si atom -5589.745011 kJ/mol
# Density = 2.429062 g / cm^3
# Si number density = 24.346037 Si / 1000 Ang^3
#
#
#
# Elastic Constant Matrix: (Units=GPa)
#
#
# Indices 1 2 3 4 5 6 
#
# 1 127.3403 54.0854 20.1453 23.8063 6.5733 3.3818
# 2 54.0854 140.6386 39.5619 37.9020 -10.2080 11.4425
# 3 20.1453 39.5619 130.1127 23.9396 2.1386 12.4179
# 4 23.8063 37.9020 23.9396 52.1607 5.0300 4.7762
# 5 6.5733 -10.2080 2.1386 5.0300 40.7574 1.3849
# 6 3.3818 11.4425 12.4179 4.7762 1.3849 47.1625
#
#
#
# Elastic Compliance Matrix: (Units=1/GPa)
#
#
# Indices 1 2 3 4 5 6 
#
# 1 0.009765 -0.003449 -0.000153 -0.001703 -0.002235 0.000415
# 2 -0.003449 0.010896 -0.001626 -0.005860 0.004145 -0.001496
# 3 -0.000153 -0.001626 0.008850 -0.002614 -0.000468 -0.001646
# 4 -0.001703 -0.005860 -0.002614 0.025839 -0.004236 -0.000260
# 5 -0.002235 0.004145 -0.000468 -0.004236 0.026518 -0.001072
# 6 0.000415 -0.001496 -0.001646 -0.000260 -0.001072 0.022028
#
#
# Mechanical properties :
#
#
# Convention : Reuss Voigt Hill
#
# Bulk Modulus (GPa) = 52.48246 69.51965 61.00106
# Shear Modulus (GPa) = 41.42416 46.96939 44.19677
#
# Velocity S-wave (km/s) = 4.12937 4.39708 4.26532
# Velocity P-wave (km/s) = 6.65877 7.37536 7.02621
#
# Compressibility (1/GPa) = 0.01905398
#
# Stress axis : x y z
#
# Youngs Moduli (GPa) = 102.40803 91.77561 112.99992
#
# Poissons Ratio (x) = 0.31657 0.01725
# Poissons Ratio (y) = 0.35325 0.18376
# Poissons Ratio (z) = 0.01563 0.14925
#
# Static dielectric constant tensor:
#      x y z
#    x 2.141600 0.138810 -0.027130 
#    y 0.138810 2.004960 -0.014420 
#    z -0.027130 -0.014420 2.037030 
# 
# From -- ./inp_files/22738.got.cif
#   From: 2010.05.17/outbox.cif.g08.bks.cpg/sg2_12_cif.got.tgz:22738.got - 2010.06.03 11:33:40.
