data_PCOD9067732
_publ_section_title
;
Structure prediction by ZEFSAII (Michael W. Deem and Ramdas Pophale) SiO2 
 PCOD9067732
Probable space group: P -1
;
_chemical_formula_sum "Si O2"
_cell_formula_units_Z 15
_cell_length_a 11.362294
_cell_length_b 5.173595
_cell_length_c 15.008712
_cell_angle_alpha 88.870835
_cell_angle_beta 53.208667
_cell_angle_gamma 115.539967
_cell_volume 588.461004
_symmetry_space_group_name_H-M "P -1"
_symmetry_group_IT_number 2
_symmetry_cell_setting 'triclinic'
loop_
_space_group_symop_operation_xyz
x,y,z
-x,-y,-z
loop_
_atom_site_type_symbol
_atom_site_label
_atom_site_fract_x
_atom_site_fract_y
_atom_site_fract_z
Si Si1 0.627969 0.629511 0.560024
Si Si2 0.386538 0.138222 0.080841
Si Si3 0.164243 0.471697 0.913214
Si Si4 0.826849 0.197924 0.341090
Si Si5 0.860284 0.484535 0.500438
Si Si6 0.056963 0.025631 0.126510
Si Si7 0.500000 0.000000 0.500000
Si Si8 0.544689 0.889579 0.746351
O O1 0.658610 0.905731 0.478542
O O2 0.824972 0.753989 0.505201
O O3 0.572884 0.330316 0.530357
O O4 0.523360 0.618615 0.693111
O O5 0.195770 0.986420 0.119645
O O6 0.378976 0.110058 0.191898
O O7 0.500000 0.500000 0.000000
O O8 0.500000 0.000000 0.000000
O O9 0.346892 0.802265 0.839853
O O10 0.164512 0.276450 0.998603
O O11 0.100829 0.262939 0.854443
O O12 0.000000 0.500000 0.000000
O O13 0.913875 0.443963 0.377575
O O14 0.682986 0.212617 0.350763
O O15 0.957005 0.133176 0.235217
O O16 0.000000 0.500000 0.500000
O O17 0.681233 0.205114 0.631067
#
# Coordination Sequence:
#
# PCOD9067732 Si02
#       8
#     2   2   2   2   2   2   1   2
#     4   9  23  44  70 105 145 192 247 314 397 461
#     4  12  28  51  78 116 156 209 277 328 402 477
#     4  11  26  47  73 107 151 194 261 316 404 467
#     4   9  23  44  70 109 140 187 250 307 389 459
#     4  11  26  44  74 110 152 204 253 318 401 485
#     4  11  26  46  77 108 149 201 253 336 387 479
#     4   8  20  46  64 106 138 186 250 304 382 466
#     4  11  26  47  73 107 154 202 255 326 394 473
#
# _framework density 25.490219
#
# number of rings (size 3 to 8) (size 9 to 14) (size 15 to 20)
#    0.800    0.800    1.333    0.800    7.467    5.867 
#    0.000    2.000    0.000    0.000    0.000    0.000 
#    0.000    0.000    0.000    0.000    0.000    0.000 
#
# Total GULP energy -83616.403003 kJ/mol
# GULP energy per Si atom -5574.426867 kJ/mol
# Density = 2.543220 g / cm^3
# Si number density = 25.490219 Si / 1000 Ang^3
#
#
#
# Elastic Constant Matrix: (Units=GPa)
#
#
# Indices 1 2 3 4 5 6 
#
# 1 192.8525 28.0815 54.8578 1.5601 -10.6509 9.2503
# 2 28.0815 63.0079 34.8051 1.1270 5.0986 -19.7111
# 3 54.8578 34.8051 110.9140 0.0173 -3.7243 -5.7237
# 4 1.5601 1.1270 0.0173 46.9055 -8.4171 -7.1865
# 5 -10.6509 5.0986 -3.7243 -8.4171 53.3294 -3.7924
# 6 9.2503 -19.7111 -5.7237 -7.1865 -3.7924 35.0438
#
#
#
# Elastic Compliance Matrix: (Units=1/GPa)
#
#
# Indices 1 2 3 4 5 6 
#
# 1 0.006543 -0.002745 -0.002529 -0.000526 0.001048 -0.003679
# 2 -0.002745 0.024717 -0.005764 0.001213 -0.002148 0.013702
# 3 -0.002529 -0.005764 0.012083 0.000314 0.000908 -0.000438
# 4 -0.000526 0.001213 0.000314 0.022915 0.003843 0.005988
# 5 0.001048 -0.002148 0.000908 0.003843 0.019951 0.001611
# 6 -0.003679 0.013702 -0.000438 0.005988 0.001611 0.038545
#
#
# Mechanical properties :
#
#
# Convention : Reuss Voigt Hill
#
# Bulk Modulus (GPa) = 47.02101 66.91815 56.96958
# Shear Modulus (GPa) = 32.48461 43.65775 38.07118
#
# Velocity S-wave (km/s) = 3.57374 4.14300 3.86885
# Velocity P-wave (km/s) = 5.95949 7.01394 6.50811
#
# Compressibility (1/GPa) = 0.02126709
#
# Stress axis : x y z
#
# Youngs Moduli (GPa) = 152.83220 40.45800 82.75754
#
# Poissons Ratio (x) = 0.11107 0.20932
# Poissons Ratio (y) = 0.41956 0.47699
# Poissons Ratio (z) = 0.38656 0.23319
#
# Static dielectric constant tensor:
#      x y z
#    x 2.251360 -0.033220 -0.009730 
#    y -0.033220 2.079600 -0.054950 
#    z -0.009730 -0.054950 2.031840 
# 
# From -- ./inp_files/363024.got.cif
#   From: 2010.05.17/outbox.cif.g08.bks.cpg/sg2_182_cif.got.tgz:363024.got - 2010.06.03 11:33:40.
