data_PCOD9067818
_publ_section_title
;
Structure prediction by ZEFSAII (Michael W. Deem and Ramdas Pophale) SiO2 
 PCOD9067818
Probable space group: P -1
;
_chemical_formula_sum "Si O2"
_cell_formula_units_Z 14
_cell_length_a 12.373835
_cell_length_b 4.981587
_cell_length_c 11.986235
_cell_angle_alpha 107.262772
_cell_angle_beta 49.420279
_cell_angle_gamma 97.565212
_cell_volume 533.955165
_symmetry_space_group_name_H-M "P -1"
_symmetry_group_IT_number 2
_symmetry_cell_setting 'triclinic'
loop_
_space_group_symop_operation_xyz
x,y,z
-x,-y,-z
loop_
_atom_site_type_symbol
_atom_site_label
_atom_site_fract_x
_atom_site_fract_y
_atom_site_fract_z
Si Si1 0.194176 0.677616 0.133596
Si Si2 0.933128 0.472456 0.166242
Si Si3 0.755034 0.015496 0.452188
Si Si4 0.007496 0.192984 0.407148
Si Si5 0.375498 0.751703 0.640022
Si Si6 0.539062 0.170551 0.162622
Si Si7 0.375454 0.694478 0.224091
O O1 0.268133 0.598384 0.192182
O O2 0.078617 0.470623 0.142825
O O3 0.125147 0.997181 0.237819
O O4 0.318800 0.711524 0.966967
O O5 0.797468 0.280053 0.226898
O O6 0.842703 0.739455 0.315584
O O7 0.000000 0.500000 0.000000
O O8 0.637145 0.089572 0.449219
O O9 0.694316 0.046170 0.621274
O O10 0.876083 0.228908 0.412139
O O11 0.000000 0.500000 0.500000
O O12 0.000000 0.000000 0.500000
O O13 0.500000 0.500000 0.500000
O O14 0.427409 0.876656 0.735174
O O15 0.425445 0.432770 0.237064
O O16 0.498693 0.866271 0.106004
#
# Coordination Sequence:
#
# PCOD9067818 Si02
#       7
#     2   2   2   2   2   2   2
#     4  11  26  51  78 116 159 207 261 335 396 474
#     4  11  26  51  75 116 158 206 263 322 398 463
#     4  11  27  44  76 114 148 208 259 321 386 471
#     4  11  26  45  74 108 151 201 254 321 390 460
#     4  12  26  47  79 109 159 208 265 317 390 470
#     4  12  28  49  77 117 156 213 259 329 391 479
#     4  12  27  49  80 116 158 205 267 321 402 464
#
# _framework density 26.219429999999999
#
# number of rings (size 3 to 8) (size 9 to 14) (size 15 to 20)
#    0.000    0.571    4.286    1.714    8.000    2.857 
#    5.143    0.000    0.000    0.000    0.000    0.000 
#    0.000    0.000    0.000    0.000    0.000    0.000 
#
# Total GULP energy -78115.128413 kJ/mol
# GULP energy per Si atom -5579.652030 kJ/mol
# Density = 2.615975 g / cm^3
# Si number density = 26.219430 Si / 1000 Ang^3
#
#
#
# Elastic Constant Matrix: (Units=GPa)
#
#
# Indices 1 2 3 4 5 6 
#
# 1 237.0590 44.8687 32.8531 -8.0719 12.7818 11.6751
# 2 44.8687 102.1441 -1.5323 -7.5459 1.6192 -3.5066
# 3 32.8531 -1.5323 111.4434 -9.5237 2.2449 -13.3893
# 4 -8.0719 -7.5459 -9.5237 38.4623 2.1350 -1.9782
# 5 12.7818 1.6192 2.2449 2.1350 45.3563 -1.5130
# 6 11.6751 -3.5066 -13.3893 -1.9782 -1.5130 41.5565
#
#
#
# Elastic Compliance Matrix: (Units=1/GPa)
#
#
# Indices 1 2 3 4 5 6 
#
# 1 0.005086 -0.002306 -0.001760 0.000139 -0.001345 -0.002233
# 2 -0.002306 0.011046 0.001258 0.002093 0.000164 0.002091
# 3 -0.001760 0.001258 0.010216 0.002616 -0.000044 0.004015
# 4 0.000139 0.002093 0.002616 0.027282 -0.001453 0.002226
# 5 -0.001345 0.000164 -0.000044 -0.001453 0.022529 0.001129
# 6 -0.002233 0.002091 0.004015 0.002226 0.001129 0.026308
#
#
# Mechanical properties :
#
#
# Convention : Reuss Voigt Hill
#
# Bulk Modulus (GPa) = 48.23333 67.00283 57.61808
# Shear Modulus (GPa) = 43.48089 50.03883 46.75986
#
# Velocity S-wave (km/s) = 4.07670 4.37334 4.22762
# Velocity P-wave (km/s) = 6.37144 7.14923 6.77151
#
# Compressibility (1/GPa) = 0.02073255
#
# Stress axis : x y z
#
# Youngs Moduli (GPa) = 196.62188 90.53442 97.88327
#
# Poissons Ratio (x) = 0.20873 0.17230
# Poissons Ratio (y) = 0.45332 -0.12317
# Poissons Ratio (z) = 0.34612 -0.11392
#
# Static dielectric constant tensor:
#      x y z
#    x 2.134380 0.110590 0.178250 
#    y 0.110590 2.150250 0.001120 
#    z 0.178250 0.001120 2.615620 
# 
# From -- ./inp_files/410966.got.cif
#   From: 2010.05.17/outbox.cif.g08.bks.cpg/sg2_206_cif.got.tgz:410966.got - 2010.06.03 11:33:40.
