data_PCOD9067073
_publ_section_title
;
Structure prediction by ZEFSAII (Michael W. Deem and Ramdas Pophale) SiO2 
 PCOD9067073
Probable space group: P -1
;
_chemical_formula_sum "Si O2"
_cell_formula_units_Z 16
_cell_length_a 9.150251
_cell_length_b 22.988774
_cell_length_c 12.558927
_cell_angle_alpha 152.770178
_cell_angle_beta 47.357085
_cell_angle_gamma 141.355222
_cell_volume 753.531218
_symmetry_space_group_name_H-M "P -1"
_symmetry_group_IT_number 2
_symmetry_cell_setting 'triclinic'
loop_
_space_group_symop_operation_xyz
x,y,z
-x,-y,-z
loop_
_atom_site_type_symbol
_atom_site_label
_atom_site_fract_x
_atom_site_fract_y
_atom_site_fract_z
Si Si1 0.114131 0.970537 0.654941
Si Si2 0.585199 0.933886 0.124314
Si Si3 0.486749 0.386469 0.409278
Si Si4 0.247332 0.623521 0.238201
Si Si5 0.243667 0.929337 0.960807
Si Si6 0.111535 0.353835 0.709839
Si Si7 0.728606 0.936750 0.494259
Si Si8 0.018292 0.580133 0.511156
O O1 0.011378 0.795958 0.402793
O O2 0.267410 0.007786 0.745674
O O3 0.272867 0.072608 0.647511
O O4 0.901547 0.998629 0.810961
O O5 0.737604 0.040016 0.124526
O O6 0.355507 0.946357 0.252099
O O7 0.544774 0.770363 0.864364
O O8 0.500000 0.500000 0.500000
O O9 0.302685 0.354603 0.540420
O O10 0.747137 0.491071 0.484806
O O11 0.509114 0.771763 0.367892
O O12 0.138667 0.571509 0.326696
O O13 0.078809 0.653886 0.293982
O O14 0.233446 0.492756 0.958277
O O15 0.117278 0.754820 0.762124
O O16 0.500000 0.000000 0.000000
O O17 0.000000 0.000000 0.500000
O O18 0.000000 0.500000 0.500000
#
# Coordination Sequence:
#
# PCOD9067073 Si02
#       8
#     2   2   2   2   2   2   2   2
#     4  12  26  44  77 109 140 200 253 306 371 443
#     4  12  25  47  77 104 149 196 258 317 363 445
#     4  12  26  45  75 113 145 193 254 306 371 440
#     4  11  26  49  74 109 156 191 245 311 378 444
#     4  12  25  48  73 105 150 194 246 315 375 436
#     4  11  25  47  77 113 148 193 247 316 369 442
#     4  12  28  48  73 107 153 199 249 310 382 452
#     4  12  27  47  74 106 149 196 243 301 376 452
#
# _framework density 21.233362
#
# number of rings (size 3 to 8) (size 9 to 14) (size 15 to 20)
#    0.000    0.250    5.000    3.000    5.250    0.000 
#    0.000    1.250    0.000    0.000    0.000    0.000 
#    0.000    0.000    0.000    0.000    0.000    0.000 
#
# Total GULP energy -89216.449872 kJ/mol
# GULP energy per Si atom -5576.028117 kJ/mol
# Density = 2.118503 g / cm^3
# Si number density = 21.233362 Si / 1000 Ang^3
#
#
#
# Elastic Constant Matrix: (Units=GPa)
#
#
# Indices 1 2 3 4 5 6 
#
# 1 129.8552 28.3253 44.0773 18.2561 -5.6402 0.9245
# 2 28.3253 138.3033 46.5370 -0.7657 3.8072 -22.4059
# 3 44.0773 46.5370 151.0210 14.6927 -7.7547 3.0296
# 4 18.2561 -0.7657 14.6927 46.6000 3.4134 4.4631
# 5 -5.6402 3.8072 -7.7547 3.4134 32.4602 -1.3932
# 6 0.9245 -22.4059 3.0296 4.4631 -1.3932 54.9955
#
#
#
# Elastic Compliance Matrix: (Units=1/GPa)
#
#
# Indices 1 2 3 4 5 6 
#
# 1 0.009136 -0.001359 -0.001857 -0.003105 0.001616 -0.000312
# 2 -0.001359 0.009081 -0.002703 0.001319 -0.001926 0.003716
# 3 -0.001857 -0.002703 0.008324 -0.001972 0.002134 -0.001315
# 4 -0.003105 0.001319 -0.001972 0.023718 -0.003716 -0.001321
# 5 0.001616 -0.001926 0.002134 -0.003716 0.032222 0.000188
# 6 -0.000312 0.003716 -0.001315 -0.001321 0.000188 0.019887
#
#
# Mechanical properties :
#
#
# Convention : Reuss Voigt Hill
#
# Bulk Modulus (GPa) = 68.00867 73.00652 70.50760
# Shear Modulus (GPa) = 41.97908 46.82713 44.40310
#
# Velocity S-wave (km/s) = 4.45121 4.70122 4.57792
# Velocity P-wave (km/s) = 7.64960 7.99538 7.82440
#
# Compressibility (1/GPa) = 0.01470401
#
# Stress axis : x y z
#
# Youngs Moduli (GPa) = 109.45279 110.12392 120.12971
#
# Poissons Ratio (x) = 0.14963 0.22303
# Poissons Ratio (y) = 0.14871 0.32476
# Poissons Ratio (z) = 0.20320 0.29771
#
# Static dielectric constant tensor:
#      x y z
#    x 1.793860 -0.132050 0.028960 
#    y -0.132050 2.053070 -0.150170 
#    z 0.028960 -0.150170 1.840820 
# 
# From -- ./inp_files/405673.got.cif
#   From: 2010.05.17/outbox.cif.g08.bks.cpg/sg2_203_cif.got.tgz:405673.got - 2010.06.03 11:33:40.
