data_PCOD9067238
_publ_section_title
;
Structure prediction by ZEFSAII (Michael W. Deem and Ramdas Pophale) SiO2 
 PCOD9067238
Probable space group: P -1
;
_chemical_formula_sum "Si O2"
_cell_formula_units_Z 16
_cell_length_a 13.049502
_cell_length_b 8.719940
_cell_length_c 7.661349
_cell_angle_alpha 87.083610
_cell_angle_beta 92.625301
_cell_angle_gamma 131.465143
_cell_volume 652.353036
_symmetry_space_group_name_H-M "P -1"
_symmetry_group_IT_number 2
_symmetry_cell_setting 'triclinic'
loop_
_space_group_symop_operation_xyz
x,y,z
-x,-y,-z
loop_
_atom_site_type_symbol
_atom_site_label
_atom_site_fract_x
_atom_site_fract_y
_atom_site_fract_z
Si Si1 0.636220 0.784399 0.439182
Si Si2 0.161152 0.149651 0.989230
Si Si3 0.326527 0.771438 0.114915
Si Si4 0.510101 0.141774 0.345379
Si Si5 0.192099 0.859965 0.836011
Si Si6 0.227231 0.389717 0.627409
Si Si7 0.583538 0.484345 0.860586
Si Si8 0.925161 0.541137 0.626538
O O1 0.586014 0.810780 0.610431
O O2 0.721079 0.713277 0.456591
O O3 0.507746 0.614582 0.314356
O O4 0.720554 0.000568 0.332430
O O5 0.192565 0.293351 0.821462
O O6 0.200618 0.015311 0.952830
O O7 0.262129 0.298726 0.142400
O O8 0.000000 0.000000 0.000000
O O9 0.388912 0.666938 0.087075
O O10 0.213241 0.646141 0.271080
O O11 0.447186 0.000328 0.179923
O O12 0.251369 0.772964 0.944940
O O13 0.658703 0.365524 0.352398
O O14 0.500000 0.000000 0.500000
O O15 0.036935 0.684939 0.774739
O O16 0.110609 0.348499 0.502669
O O17 0.500000 0.500000 0.000000
O O18 0.000000 0.500000 0.500000
#
# Coordination Sequence:
#
# PCOD9067238 Si02
#       8
#     2   2   2   2   2   2   2   2
#     4  11  25  48  74 115 153 200 261 325 390 468
#     4  11  27  48  74 111 157 203 263 315 389 468
#     4  12  28  46  78 114 159 203 261 332 387 472
#     4  12  24  47  75 117 153 195 255 324 401 459
#     4  11  27  47  74 109 151 207 264 314 390 463
#     4  11  26  47  77 110 153 203 256 328 382 465
#     4  12  24  48  76 113 158 200 259 323 391 464
#     4  12  27  48  75 111 159 209 264 320 394 471
#
# _framework density 24.526596999999999
#
# number of rings (size 3 to 8) (size 9 to 14) (size 15 to 20)
#    0.000    0.500    5.000    2.250    7.000    2.500 
#    2.250    0.000    0.000    0.000    0.000    0.000 
#    0.000    0.000    0.000    0.000    0.000    0.000 
#
# Total GULP energy -89708.525907 kJ/mol
# GULP energy per Si atom -5606.782869 kJ/mol
# Density = 2.447077 g / cm^3
# Si number density = 24.526597 Si / 1000 Ang^3
#
#
#
# Elastic Constant Matrix: (Units=GPa)
#
#
# Indices 1 2 3 4 5 6 
#
# 1 168.8421 55.5409 63.0953 -2.2566 29.8662 -24.6891
# 2 55.5409 111.9565 37.9756 6.8509 -8.8521 -7.9558
# 3 63.0953 37.9756 102.1547 10.4709 19.0217 -13.4022
# 4 -2.2566 6.8509 10.4709 49.7707 2.5006 -0.5966
# 5 29.8662 -8.8521 19.0217 2.5006 51.9658 -5.0459
# 6 -24.6891 -7.9558 -13.4022 -0.5966 -5.0459 46.0017
#
#
#
# Elastic Compliance Matrix: (Units=1/GPa)
#
#
# Indices 1 2 3 4 5 6 
#
# 1 0.009896 -0.004007 -0.003517 0.002022 -0.004881 0.003085
# 2 -0.004007 0.012485 -0.003092 -0.001535 0.005607 -0.000297
# 3 -0.003517 -0.003092 0.014182 -0.002529 -0.003449 0.001299
# 4 0.002022 -0.001535 -0.002529 0.021004 -0.001490 0.000192
# 5 -0.004881 0.005607 -0.003449 -0.001490 0.024338 -0.000005
# 6 0.003085 -0.000297 0.001299 0.000192 -0.000005 0.023723
#
#
# Mechanical properties :
#
#
# Convention : Reuss Voigt Hill
#
# Bulk Modulus (GPa) = 65.22114 77.35297 71.28705
# Shear Modulus (GPa) = 37.88735 44.63707 41.26221
#
# Velocity S-wave (km/s) = 3.93459 4.27071 4.10609
# Velocity P-wave (km/s) = 6.87685 7.47833 7.18389
#
# Compressibility (1/GPa) = 0.01533245
#
# Stress axis : x y z
#
# Youngs Moduli (GPa) = 101.04594 80.09715 70.51080
#
# Poissons Ratio (x) = 0.32097 0.24796
# Poissons Ratio (y) = 0.40492 0.21800
# Poissons Ratio (z) = 0.35533 0.24764
#
# Static dielectric constant tensor:
#      x y z
#    x 1.952370 0.025710 -0.045180 
#    y 0.025710 1.958290 -0.043070 
#    z -0.045180 -0.043070 1.969750 
# 
# From -- ./inp_files/244128.got.cif
#   From: 2010.05.17/outbox.cif.g08.bks.cpg/sg2_123_cif.got.tgz:244128.got - 2010.06.03 11:33:40.
