data_PCOD9067719
_publ_section_title
;
Structure prediction by ZEFSAII (Michael W. Deem and Ramdas Pophale) SiO2 
 PCOD9067719
Probable space group: P -1
;
_chemical_formula_sum "Si O2"
_cell_formula_units_Z 12
_cell_length_a 11.826379
_cell_length_b 12.550468
_cell_length_c 14.603645
_cell_angle_alpha 159.429139
_cell_angle_beta 130.698871
_cell_angle_gamma 57.928969
_cell_volume 551.074620
_symmetry_space_group_name_H-M "P -1"
_symmetry_group_IT_number 2
_symmetry_cell_setting 'triclinic'
loop_
_space_group_symop_operation_xyz
x,y,z
-x,-y,-z
loop_
_atom_site_type_symbol
_atom_site_label
_atom_site_fract_x
_atom_site_fract_y
_atom_site_fract_z
Si Si1 0.554737 0.388504 0.344241
Si Si2 0.438863 0.613235 0.278587
Si Si3 0.368115 0.236962 0.666790
Si Si4 0.905372 0.756273 0.179443
Si Si5 0.986926 0.925494 0.686651
Si Si6 0.071010 0.306480 0.221510
O O1 0.500000 0.500000 0.500000
O O2 0.481833 0.541203 0.345453
O O3 0.741663 0.548815 0.565318
O O4 0.500000 0.000000 0.000000
O O5 0.590115 0.648709 0.323970
O O6 0.400629 0.927859 0.477444
O O7 0.270148 0.363921 0.970955
O O8 0.185119 0.171749 0.526315
O O9 0.500000 0.500000 0.000000
O O10 0.000000 0.000000 0.500000
O O11 0.896655 0.921063 0.210440
O O12 0.000000 0.500000 0.000000
O O13 0.013602 0.594626 0.460727
O O14 0.009712 0.178967 0.984564
O O15 0.000000 0.000000 0.000000
#
# Coordination Sequence:
#
# PCOD9067719 Si02
#       6
#     2   2   2   2   2   2
#     4  12  28  50  75 105 146 194 245 294 354 426
#     4  11  26  45  71 106 142 185 237 294 360 426
#     4  11  26  44  73 107 144 186 231 300 367 423
#     4  12  24  43  68 103 139 178 227 283 355 420
#     4  12  26  47  73 104 143 183 239 292 355 424
#     4  12  27  48  74 105 142 193 240 293 350 424
#
# _framework density 21.775635999999999
#
# number of rings (size 3 to 8) (size 9 to 14) (size 15 to 20)
#    0.000    0.333    1.667    6.500    9.333    0.000 
#    0.000    0.000    0.000    0.000    0.000    0.000 
#    0.000    0.000    0.000    0.000    0.000    0.000 
#
# Total GULP energy -66983.150525 kJ/mol
# GULP energy per Si atom -5581.929210 kJ/mol
# Density = 2.172607 g / cm^3
# Si number density = 21.775636 Si / 1000 Ang^3
#
#
#
# Elastic Constant Matrix: (Units=GPa)
#
#
# Indices 1 2 3 4 5 6 
#
# 1 66.4392 26.2247 41.4014 3.3880 9.2601 2.7584
# 2 26.2247 99.8143 31.3224 -3.4771 6.5999 24.7390
# 3 41.4014 31.3224 124.1849 -8.5665 22.4610 7.3681
# 4 3.3880 -3.4771 -8.5665 43.1434 3.6189 14.3111
# 5 9.2601 6.5999 22.4610 3.6189 45.2560 -4.2634
# 6 2.7584 24.7390 7.3681 14.3111 -4.2634 40.5822
#
#
#
# Elastic Compliance Matrix: (Units=1/GPa)
#
#
# Indices 1 2 3 4 5 6 
#
# 1 0.020957 -0.004763 -0.006450 -0.004798 0.000404 0.004385
# 2 -0.004763 0.014350 -0.000690 0.004984 -0.002143 -0.010281
# 3 -0.006450 -0.000690 0.011795 0.004330 -0.005095 -0.003345
# 4 -0.004798 0.004984 0.004330 0.030184 -0.005696 -0.014741
# 5 0.000404 -0.002143 -0.005095 -0.005696 0.025964 0.006940
# 6 0.004385 -0.010281 -0.003345 -0.014741 0.006940 0.037145
#
#
# Mechanical properties :
#
#
# Convention : Reuss Voigt Hill
#
# Bulk Modulus (GPa) = 42.92406 54.25950 48.59178
# Shear Modulus (GPa) = 29.07534 38.56230 33.81882
#
# Velocity S-wave (km/s) = 3.65804 4.21276 3.94516
# Velocity P-wave (km/s) = 6.13159 6.97386 6.56625
#
# Compressibility (1/GPa) = 0.02329696
#
# Stress axis : x y z
#
# Youngs Moduli (GPa) = 47.71754 69.68610 84.77811
#
# Poissons Ratio (x) = 0.33189 0.54679
# Poissons Ratio (y) = 0.22726 0.05852
# Poissons Ratio (z) = 0.30776 0.04810
#
# Static dielectric constant tensor:
#      x y z
#    x 1.833560 -0.017880 -0.033540 
#    y -0.017880 1.790650 -0.031870 
#    z -0.033540 -0.031870 1.804820 
# 
# From -- ./inp_files/25293.got.cif
#   From: 2010.05.17/outbox.cif.g08.bks.cpg/sg2_13_cif.got.tgz:25293.got - 2010.06.03 11:33:40.
