data_PCOD9067623
_publ_section_title
;
Structure prediction by ZEFSAII (Michael W. Deem and Ramdas Pophale) SiO2 
 PCOD9067623
Probable space group: P -1
;
_chemical_formula_sum "Si O2"
_cell_formula_units_Z 14
_cell_length_a 6.542145
_cell_length_b 13.812254
_cell_length_c 10.624846
_cell_angle_alpha 146.582350
_cell_angle_beta 100.673950
_cell_angle_gamma 75.231371
_cell_volume 510.599233
_symmetry_space_group_name_H-M "P -1"
_symmetry_group_IT_number 2
_symmetry_cell_setting 'triclinic'
loop_
_space_group_symop_operation_xyz
x,y,z
-x,-y,-z
loop_
_atom_site_type_symbol
_atom_site_label
_atom_site_fract_x
_atom_site_fract_y
_atom_site_fract_z
Si Si1 0.918622 0.261854 0.988921
Si Si2 0.350104 0.142660 0.371642
Si Si3 0.523990 0.204374 0.705495
Si Si4 0.207703 0.856158 0.898218
Si Si5 0.034107 0.898438 0.530478
Si Si6 0.207652 0.485401 0.122717
Si Si7 0.483468 0.607838 0.488329
O O1 0.712846 0.241680 0.858101
O O2 0.090445 0.074493 0.798090
O O3 0.848952 0.276914 0.143573
O O4 0.000000 0.000000 0.500000
O O5 0.529522 0.191835 0.539410
O O6 0.159083 0.127348 0.426400
O O7 0.324882 0.304243 0.444825
O O8 0.376364 0.960870 0.097939
O O9 0.500000 0.000000 0.500000
O O10 0.320918 0.350928 0.882520
O O11 0.297209 0.771553 0.685620
O O12 0.000000 0.000000 0.000000
O O13 0.122718 0.687609 0.287014
O O14 0.971115 0.589097 0.900260
O O15 0.395241 0.494085 0.250367
O O16 0.500000 0.500000 0.500000
#
# Coordination Sequence:
#
# PCOD9067623 Si02
#       7
#     2   2   2   2   2   2   2
#     4  11  27  52  85 119 169 223 276 348 427 493
#     4  11  27  50  83 114 167 216 274 344 420 489
#     4  12  26  53  83 126 168 215 274 350 431 508
#     4  11  25  51  81 113 161 226 285 340 406 493
#     4  11  26  53  79 121 165 213 274 340 423 502
#     4  12  31  52  85 124 170 219 279 347 425 509
#     4  12  29  50  79 123 162 217 286 337 409 498
#
# _framework density 27.418765
#
# number of rings (size 3 to 8) (size 9 to 14) (size 15 to 20)
#    0.000    0.571    2.857    3.857    8.000    4.571 
#    5.143    0.000    0.000    0.000    0.000    0.000 
#    0.000    0.000    0.000    0.000    0.000    0.000 
#
# Total GULP energy -78215.586721 kJ/mol
# GULP energy per Si atom -5586.827623 kJ/mol
# Density = 2.735636 g / cm^3
# Si number density = 27.418765 Si / 1000 Ang^3
#
#
#
# Elastic Constant Matrix: (Units=GPa)
#
#
# Indices 1 2 3 4 5 6 
#
# 1 93.4506 42.4909 21.2766 20.6351 10.0650 32.1815
# 2 42.4909 191.8737 22.6497 26.7387 2.9371 39.6830
# 3 21.2766 22.6497 154.3350 11.7841 -17.5816 4.7033
# 4 20.6351 26.7387 11.7841 52.1358 -1.1647 0.3927
# 5 10.0650 2.9371 -17.5816 -1.1647 45.4636 7.3749
# 6 32.1815 39.6830 4.7033 0.3927 7.3749 59.2859
#
#
#
# Elastic Compliance Matrix: (Units=1/GPa)
#
#
# Indices 1 2 3 4 5 6 
#
# 1 0.015503 -0.000954 -0.001716 -0.005271 -0.002996 -0.007233
# 2 -0.000954 0.006696 -0.000492 -0.002913 0.000150 -0.003925
# 3 -0.001716 -0.000492 0.007182 -0.000625 0.003123 0.000306
# 4 -0.005271 -0.002913 -0.000625 0.022889 0.000955 0.004590
# 5 -0.002996 0.000150 0.003123 0.000955 0.024163 -0.001734
# 6 -0.007233 -0.003925 0.000306 0.004590 -0.001734 0.023581
#
#
# Mechanical properties :
#
#
# Convention : Reuss Voigt Hill
#
# Bulk Modulus (GPa) = 43.36968 68.05484 55.71226
# Shear Modulus (GPa) = 43.85045 54.92653 49.38849
#
# Velocity S-wave (km/s) = 4.00345 4.48062 4.24874
# Velocity P-wave (km/s) = 6.10098 7.18626 6.66575
#
# Compressibility (1/GPa) = 0.02305758
#
# Stress axis : x y z
#
# Youngs Moduli (GPa) = 64.50519 149.33297 139.23137
#
# Poissons Ratio (x) = 0.14251 0.23885
# Poissons Ratio (y) = 0.06156 0.06851
# Poissons Ratio (z) = 0.11066 0.07348
#
# Static dielectric constant tensor:
#      x y z
#    x 2.420450 -0.232900 -0.114750 
#    y -0.232900 2.296390 0.085740 
#    z -0.114750 0.085740 2.205850 
# 
# From -- ./inp_files/209441.got.cif
#   From: 2010.05.17/outbox.cif.g08.bks.cpg/sg2_105_cif.got.tgz:209441.got - 2010.06.03 11:33:40.
