data_PCOD9067355
_publ_section_title
;
Structure prediction by ZEFSAII (Michael W. Deem and Ramdas Pophale) SiO2 
 PCOD9067355
Probable space group: P -1
;
_chemical_formula_sum "Si O2"
_cell_formula_units_Z 14
_cell_length_a 14.750444
_cell_length_b 5.311338
_cell_length_c 9.448358
_cell_angle_alpha 81.159779
_cell_angle_beta 49.622816
_cell_angle_gamma 91.821307
_cell_volume 548.657034
_symmetry_space_group_name_H-M "P -1"
_symmetry_group_IT_number 2
_symmetry_cell_setting 'triclinic'
loop_
_space_group_symop_operation_xyz
x,y,z
-x,-y,-z
loop_
_atom_site_type_symbol
_atom_site_label
_atom_site_fract_x
_atom_site_fract_y
_atom_site_fract_z
Si Si1 0.184399 0.333618 0.114640
Si Si2 0.580523 0.321198 0.015336
Si Si3 0.859778 0.860174 0.517609
Si Si4 0.010870 0.693533 0.142136
Si Si5 0.418254 0.004597 0.445933
Si Si6 0.713010 0.306987 0.617082
Si Si7 0.195665 0.156067 0.814861
O O1 0.133671 0.171381 0.317913
O O2 0.077486 0.473239 0.153128
O O3 0.301673 0.528721 0.035511
O O4 0.229434 0.204466 0.940422
O O5 0.496445 0.164192 0.230870
O O6 0.500000 0.500000 0.000000
O O7 0.634392 0.179243 0.842568
O O8 0.767821 0.596973 0.584797
O O9 0.974241 0.842293 0.305509
O O10 0.813333 0.126229 0.512781
O O11 0.886486 0.645109 0.182236
O O12 0.105379 0.882530 0.934944
O O13 0.306606 0.126672 0.607047
O O14 0.500000 0.000000 0.500000
O O15 0.365445 0.734578 0.443124
#
# Coordination Sequence:
#
# PCOD9067355 Si02
#       7
#     2   2   2   2   2   2   2
#     4  11  26  45  76 110 148 201 260 313 384 465
#     4  11  27  51  77 110 157 206 258 328 383 462
#     4  11  26  47  84 110 153 200 257 320 380 463
#     4  11  25  49  70 111 150 204 247 325 381 459
#     4  12  26  45  76 112 153 206 258 323 388 465
#     4  11  26  51  76 115 153 202 262 313 392 457
#     4  11  27  46  72 109 156 196 257 313 395 456
#
# _framework density 25.516850999999999
#
# number of rings (size 3 to 8) (size 9 to 14) (size 15 to 20)
#    0.000    0.857    1.429    3.857   10.000    3.429 
#    0.000    0.000    0.000    0.000    0.000    0.000 
#    0.000    0.000    0.000    0.000    0.000    0.000 
#
# Total GULP energy -78431.706664 kJ/mol
# GULP energy per Si atom -5602.264762 kJ/mol
# Density = 2.545877 g / cm^3
# Si number density = 25.516851 Si / 1000 Ang^3
#
#
#
# Elastic Constant Matrix: (Units=GPa)
#
#
# Indices 1 2 3 4 5 6 
#
# 1 164.6213 48.9327 53.2580 0.6667 28.1925 15.6648
# 2 48.9327 68.2546 33.1247 3.6365 3.3140 11.3292
# 3 53.2580 33.1247 182.2639 6.5708 6.4908 12.8046
# 4 0.6667 3.6365 6.5708 42.8527 4.9293 10.6077
# 5 28.1925 3.3140 6.4908 4.9293 59.2821 7.8946
# 6 15.6648 11.3292 12.8046 10.6077 7.8946 39.2834
#
#
#
# Elastic Compliance Matrix: (Units=1/GPa)
#
#
# Indices 1 2 3 4 5 6 
#
# 1 0.008875 -0.005359 -0.001454 0.001241 -0.003717 -0.001108
# 2 -0.005359 0.019869 -0.001868 -0.000768 0.002133 -0.003206
# 3 -0.001454 -0.001868 0.006322 -0.000613 0.000265 -0.000830
# 4 0.001241 -0.000768 -0.000613 0.025296 -0.001710 -0.006561
# 5 -0.003717 0.002133 0.000265 -0.001710 0.018973 -0.002570
# 6 -0.001108 -0.003206 -0.000830 -0.006561 -0.002570 0.029381
#
#
# Mechanical properties :
#
#
# Convention : Reuss Voigt Hill
#
# Bulk Modulus (GPa) = 56.48457 76.19673 66.34065
# Shear Modulus (GPa) = 37.88506 46.93859 42.41182
#
# Velocity S-wave (km/s) = 3.85737 4.29361 4.08132
# Velocity P-wave (km/s) = 6.48254 7.38284 6.94729
#
# Compressibility (1/GPa) = 0.01770395
#
# Stress axis : x y z
#
# Youngs Moduli (GPa) = 112.67919 50.33016 158.18089
#
# Poissons Ratio (x) = 0.26970 0.22998
# Poissons Ratio (y) = 0.60380 0.29552
# Poissons Ratio (z) = 0.16382 0.09403
#
# Static dielectric constant tensor:
#      x y z
#    x 2.038710 0.043590 -0.034280 
#    y 0.043590 2.102190 -0.041510 
#    z -0.034280 -0.041510 2.042130 
# 
# From -- ./inp_files/288745.got.cif
#   From: 2010.05.17/outbox.cif.g08.bks.cpg/sg2_145_cif.got.tgz:288745.got - 2010.06.03 11:33:40.
