data_PCOD9067230
_publ_section_title
;
Structure prediction by ZEFSAII (Michael W. Deem and Ramdas Pophale) SiO2 
 PCOD9067230
Probable space group: P -1
;
_chemical_formula_sum "Si O2"
_cell_formula_units_Z 14
_cell_length_a 19.873326
_cell_length_b 14.080810
_cell_length_c 10.669823
_cell_angle_alpha 31.120949
_cell_angle_beta 31.664743
_cell_angle_gamma 19.893589
_cell_volume 506.710173
_symmetry_space_group_name_H-M "P -1"
_symmetry_group_IT_number 2
_symmetry_cell_setting 'triclinic'
loop_
_space_group_symop_operation_xyz
x,y,z
-x,-y,-z
loop_
_atom_site_type_symbol
_atom_site_label
_atom_site_fract_x
_atom_site_fract_y
_atom_site_fract_z
Si Si1 0.326640 0.227410 0.741278
Si Si2 0.263451 0.707932 0.645038
Si Si3 0.345386 0.813909 0.055937
Si Si4 0.359075 0.838271 0.713596
Si Si5 0.000000 0.000000 0.000000
Si Si6 0.000000 0.000000 0.500000
Si Si7 0.743142 0.690023 0.959991
Si Si8 0.950975 0.323191 0.553726
O O1 0.549014 0.071377 0.579802
O O2 0.192453 0.481177 0.560053
O O3 0.349321 0.993146 0.928930
O O4 0.208628 0.389524 0.876768
O O5 0.500000 0.500000 0.500000
O O6 0.167857 0.885387 0.466348
O O7 0.118066 0.962385 0.693340
O O8 0.247732 0.509635 0.900436
O O9 0.388636 0.816406 0.840221
O O10 0.488052 0.479235 0.234174
O O11 0.118647 0.981402 0.224643
O O12 0.136748 0.015437 0.834943
O O13 0.171696 0.638741 0.185783
O O14 0.900115 0.668136 0.687001
O O15 0.500000 0.000000 0.000000
#
# Coordination Sequence:
#
# PCOD9067230 Si02
#       8
#     2   2   2   2   1   1   2   2
#     4  12  26  47  78 112 151 199 262 323 393 474
#     4  12  25  44  72 108 157 200 254 321 396 464
#     4  11  25  48  77 111 152 205 256 325 389 472
#     4  11  25  48  74 109 154 201 258 316 398 472
#     4  12  28  48  76 106 156 204 258 322 388 470
#     4  12  24  44  74 112 152 208 260 314 390 468
#     4  12  25  44  72 114 152 194 253 324 390 466
#     4  12  26  47  72 109 152 204 257 320 390 468
#
# _framework density 27.629207999999998
#
# number of rings (size 3 to 8) (size 9 to 14) (size 15 to 20)
#    0.000    0.286    1.429    8.571    2.000    0.000 
#    0.000    5.000    0.000    0.000    0.000    0.000 
#    0.000    0.000    0.000    0.000    0.000    0.000 
#
# Total GULP energy -78099.845334 kJ/mol
# GULP energy per Si atom -5578.560381 kJ/mol
# Density = 2.756632 g / cm^3
# Si number density = 27.629208 Si / 1000 Ang^3
#
#
#
# Elastic Constant Matrix: (Units=GPa)
#
#
# Indices 1 2 3 4 5 6 
#
# 1 132.5814 41.0793 51.7993 -0.7430 -20.1036 -16.3504
# 2 41.0793 108.2579 27.3450 6.5847 -31.6680 5.5693
# 3 51.7993 27.3450 227.1669 16.9985 -46.8378 -1.1280
# 4 -0.7430 6.5847 16.9985 43.3418 -10.5658 -4.4411
# 5 -20.1036 -31.6680 -46.8378 -10.5658 72.2866 -3.7904
# 6 -16.3504 5.5693 -1.1280 -4.4411 -3.7904 65.9516
#
#
#
# Elastic Compliance Matrix: (Units=1/GPa)
#
#
# Indices 1 2 3 4 5 6 
#
# 1 0.009724 -0.003345 -0.001841 0.001796 0.000456 0.002809
# 2 -0.003345 0.011810 0.000277 -0.001113 0.004173 -0.001657
# 3 -0.001841 0.000277 0.005508 -0.001551 0.002934 -0.000321
# 4 0.001796 -0.001113 -0.001551 0.024792 0.002753 0.002340
# 5 0.000456 0.004173 0.002934 0.002753 0.018147 0.001039
# 6 0.002809 -0.001657 -0.000321 0.002340 0.001039 0.016211
#
#
# Mechanical properties :
#
#
# Convention : Reuss Voigt Hill
#
# Bulk Modulus (GPa) = 58.06159 78.71704 68.38931
# Shear Modulus (GPa) = 49.13893 59.50151 54.32022
#
# Velocity S-wave (km/s) = 4.22182 4.64569 4.43882
# Velocity P-wave (km/s) = 6.69516 7.57159 7.14682
#
# Compressibility (1/GPa) = 0.01722309
#
# Stress axis : x y z
#
# Youngs Moduli (GPa) = 102.83962 84.67088 181.55101
#
# Poissons Ratio (x) = 0.28324 0.33425
# Poissons Ratio (y) = 0.34402 -0.05022
# Poissons Ratio (z) = 0.18934 -0.02342
#
# Static dielectric constant tensor:
#      x y z
#    x 0.052930 -1.523220 -2.379470 
#    y -1.523220 0.897320 -1.683760 
#    z -2.379470 -1.683760 -0.664450 
# 
# From -- ./inp_files/471844.got.cif
#   From: 2010.05.17/outbox.cif.g08.bks.cpg/sg2_236_cif.got.tgz:471844.got - 2010.06.03 11:33:40.
