data_PCOD9067816
_publ_section_title
;
Structure prediction by ZEFSAII (Michael W. Deem and Ramdas Pophale) SiO2 
 PCOD9067816
Probable space group: P -1
;
_chemical_formula_sum "Si O2"
_cell_formula_units_Z 16
_cell_length_a 13.815170
_cell_length_b 9.820229
_cell_length_c 8.918785
_cell_angle_alpha 111.891735
_cell_angle_beta 104.885256
_cell_angle_gamma 129.500226
_cell_volume 627.033184
_symmetry_space_group_name_H-M "P -1"
_symmetry_group_IT_number 2
_symmetry_cell_setting 'triclinic'
loop_
_space_group_symop_operation_xyz
x,y,z
-x,-y,-z
loop_
_atom_site_type_symbol
_atom_site_label
_atom_site_fract_x
_atom_site_fract_y
_atom_site_fract_z
Si Si1 0.683334 0.354054 0.955804
Si Si2 0.892867 0.535287 0.644379
Si Si3 0.492567 0.153846 0.366171
Si Si4 0.885715 0.993537 0.885640
Si Si5 0.491976 0.687494 0.880263
Si Si6 0.149755 0.105295 0.506891
Si Si7 0.391753 0.478879 0.223480
Si Si8 0.026705 0.706419 0.435864
O O1 0.703716 0.513979 0.914215
O O2 0.615604 0.122801 0.759684
O O3 0.531214 0.226961 0.957720
O O4 0.859389 0.529330 0.188652
O O5 0.699244 0.362820 0.527913
O O6 0.961835 0.662864 0.559790
O O7 0.903615 0.373768 0.581389
O O8 0.032806 0.764641 0.911249
O O9 0.445261 0.155832 0.181010
O O10 0.468814 0.251827 0.522802
O O11 0.898937 0.008708 0.721571
O O12 0.701600 0.716089 0.756238
O O13 0.000000 0.000000 0.000000
O O14 0.574542 0.624492 0.907403
O O15 0.296237 0.398426 0.659733
O O16 0.183402 0.000508 0.573271
O O17 0.000000 0.000000 0.500000
#
# Coordination Sequence:
#
# PCOD9067816 Si02
#       8
#     2   2   2   2   2   2   2   2
#     4  12  27  47  73 107 149 194 243 299 361 440
#     4  11  26  45  74 107 142 193 239 302 367 430
#     4  12  25  49  71 105 151 192 242 298 367 431
#     4  12  24  45  74 101 144 189 244 301 361 427
#     4  12  26  46  76 108 145 196 244 298 364 429
#     4  12  24  45  75 103 142 187 247 302 356 431
#     4  12  28  47  72 113 146 194 243 301 365 431
#     4  11  26  46  72 106 144 189 245 298 365 433
#
# _framework density 25.516991999999998
#
# number of rings (size 3 to 8) (size 9 to 14) (size 15 to 20)
#    0.000    0.250    5.000    3.000    5.250    1.500 
#    0.000    0.000    0.000    0.000    0.000    0.000 
#    0.000    0.000    0.000    0.000    0.000    0.000 
#
# Total GULP energy -89574.026089 kJ/mol
# GULP energy per Si atom -5598.376631 kJ/mol
# Density = 2.545891 g / cm^3
# Si number density = 25.516992 Si / 1000 Ang^3
#
#
#
# Elastic Constant Matrix: (Units=GPa)
#
#
# Indices 1 2 3 4 5 6 
#
# 1 82.1027 32.4101 23.7095 -7.2243 -4.4883 -8.4721
# 2 32.4101 95.8445 15.4894 -11.8767 1.6670 -12.7054
# 3 23.7095 15.4894 114.4026 -3.0963 -18.1978 4.7529
# 4 -7.2243 -11.8767 -3.0963 39.6668 -1.6747 -4.9734
# 5 -4.4883 1.6670 -18.1978 -1.6747 26.8068 -1.8283
# 6 -8.4721 -12.7054 4.7529 -4.9734 -1.8283 29.0374
#
#
#
# Elastic Compliance Matrix: (Units=1/GPa)
#
#
# Indices 1 2 3 4 5 6 
#
# 1 0.015077 -0.004048 -0.002436 0.001837 0.001472 0.003434
# 2 -0.004048 0.013223 -0.001364 0.003709 -0.001830 0.005348
# 3 -0.002436 -0.001364 0.010602 -0.000072 0.006690 -0.002634
# 4 0.001837 0.003709 -0.000072 0.027627 0.002234 0.007043
# 5 0.001472 -0.001830 0.006690 0.002234 0.042454 0.001589
# 6 0.003434 0.005348 -0.002634 0.007043 0.001589 0.039518
#
#
# Mechanical properties :
#
#
# Convention : Reuss Voigt Hill
#
# Bulk Modulus (GPa) = 43.08918 48.39642 45.74280
# Shear Modulus (GPa) = 29.08123 33.81825 31.44974
#
# Velocity S-wave (km/s) = 3.37958 3.64445 3.51451
# Velocity P-wave (km/s) = 5.67026 6.05944 5.86808
#
# Compressibility (1/GPa) = 0.02320768
#
# Stress axis : x y z
#
# Youngs Moduli (GPa) = 66.32433 75.62483 94.31989
#
# Poissons Ratio (x) = 0.30610 0.22972
# Poissons Ratio (y) = 0.26846 0.12868
# Poissons Ratio (z) = 0.16154 0.10318
#
# Static dielectric constant tensor:
#      x y z
#    x 2.074020 0.019380 0.077670 
#    y 0.019380 1.992360 0.079510 
#    z 0.077670 0.079510 2.016550 
# 
# From -- ./inp_files/299273.got.cif
#   From: 2010.05.17/outbox.cif.g08.bks.cpg/sg2_150_cif.got.tgz:299273.got - 2010.06.03 11:33:40.
