data_PCOD9067528
_publ_section_title
;
Structure prediction by ZEFSAII (Michael W. Deem and Ramdas Pophale) SiO2 
 PCOD9067528
Probable space group: P -1
;
_chemical_formula_sum "Si O2"
_cell_formula_units_Z 13
_cell_length_a 8.957831
_cell_length_b 9.966716
_cell_length_c 9.173888
_cell_angle_alpha 61.132315
_cell_angle_beta 43.905007
_cell_angle_gamma 77.236362
_cell_volume 486.417633
_symmetry_space_group_name_H-M "P -1"
_symmetry_group_IT_number 2
_symmetry_cell_setting 'triclinic'
loop_
_space_group_symop_operation_xyz
x,y,z
-x,-y,-z
loop_
_atom_site_type_symbol
_atom_site_label
_atom_site_fract_x
_atom_site_fract_y
_atom_site_fract_z
Si Si1 0.843897 0.754192 0.798400
Si Si2 0.492922 0.711957 0.612913
Si Si3 0.500000 0.000000 0.500000
Si Si4 0.029750 0.052156 0.680012
Si Si5 0.874900 0.261279 0.921104
Si Si6 0.352260 0.567980 0.240396
Si Si7 0.176651 0.539553 0.691810
O O1 0.949686 0.833955 0.533818
O O2 0.978345 0.624551 0.820969
O O3 0.594179 0.668882 0.991649
O O4 0.872703 0.890751 0.825516
O O5 0.574895 0.873659 0.390729
O O6 0.632069 0.614469 0.660867
O O7 0.356895 0.587037 0.664527
O O8 0.336628 0.792644 0.793609
O O9 0.727740 0.979885 0.446307
O O10 0.940518 0.132866 0.839258
O O11 0.803205 0.390943 0.797726
O O12 0.074537 0.357603 0.825802
O O13 0.275757 0.606594 0.433014
#
# Coordination Sequence:
#
# PCOD9067528 Si02
#       7
#     2   2   1   2   2   2   2
#     4  11  25  50  76 106 153 193 249 303 371 429
#     4  12  27  46  71 112 152 191 242 315 364 439
#     4  12  26  46  70 104 152 190 240 302 378 426
#     4  11  26  49  73 111 152 193 243 313 361 448
#     4  12  26  46  80 109 146 198 252 301 369 436
#     4  12  26  46  81 109 142 200 254 299 365 437
#     4  12  25  48  71 111 149 193 249 303 368 432
#
# _framework density 26.726006000000002
#
# number of rings (size 3 to 8) (size 9 to 14) (size 15 to 20)
#    0.000    0.308    4.615    3.692    2.154    2.462 
#    0.000    0.000    0.000    0.000    0.000    0.000 
#    0.000    0.000    0.000    0.000    0.000    0.000 
#
# Total GULP energy -72749.228053 kJ/mol
# GULP energy per Si atom -5596.094466 kJ/mol
# Density = 2.666518 g / cm^3
# Si number density = 26.726006 Si / 1000 Ang^3
#
#
#
# Elastic Constant Matrix: (Units=GPa)
#
#
# Indices 1 2 3 4 5 6 
#
# 1 130.5536 60.0742 4.4017 1.0151 11.4969 -2.6799
# 2 60.0742 212.2080 30.9274 8.7560 8.7911 7.7490
# 3 4.4017 30.9274 97.4089 13.2558 15.2415 3.7718
# 4 1.0151 8.7560 13.2558 39.7693 3.8503 11.5612
# 5 11.4969 8.7911 15.2415 3.8503 38.6094 -4.2540
# 6 -2.6799 7.7490 3.7718 11.5612 -4.2540 54.0985
#
#
#
# Elastic Compliance Matrix: (Units=1/GPa)
#
#
# Indices 1 2 3 4 5 6 
#
# 1 0.009047 -0.002599 0.000741 0.000162 -0.002350 0.000549
# 2 -0.002599 0.005727 -0.001623 -0.000447 0.000074 -0.000734
# 3 0.000741 -0.001623 0.011846 -0.003136 -0.004239 -0.000220
# 4 0.000162 -0.000447 -0.003136 0.028213 -0.002173 -0.005909
# 5 -0.002350 0.000074 -0.004239 -0.002173 0.028793 0.002897
# 6 0.000549 -0.000734 -0.000220 -0.005909 0.002897 0.020123
#
#
# Mechanical properties :
#
#
# Convention : Reuss Voigt Hill
#
# Bulk Modulus (GPa) = 50.86870 70.10854 60.48862
# Shear Modulus (GPa) = 42.63868 49.47991 46.05929
#
# Velocity S-wave (km/s) = 3.99858 4.30743 4.15588
# Velocity P-wave (km/s) = 6.35554 7.14338 6.76095
#
# Compressibility (1/GPa) = 0.01965845
#
# Stress axis : x y z
#
# Youngs Moduli (GPa) = 110.52832 174.61930 84.41383
#
# Poissons Ratio (x) = 0.45376 -0.06252
# Poissons Ratio (y) = 0.28722 0.13702
# Poissons Ratio (z) = -0.08186 0.28343
#
# Static dielectric constant tensor:
#      x y z
#    x 2.075400 0.054080 -0.069420 
#    y 0.054080 2.288180 -0.230320 
#    z -0.069420 -0.230320 2.457510 
# 
# From -- ./inp_files/152025.got.cif
#   From: 2010.05.17/outbox.cif.g08.bks.cpg/sg2_77_cif.got.tgz:152025.got - 2010.06.03 11:33:40.
