data_PCOD9067085
_publ_section_title
;
Structure prediction by ZEFSAII (Michael W. Deem and Ramdas Pophale) SiO2 
 PCOD9067085
Probable space group: P -1
;
_chemical_formula_sum "Si O2"
_cell_formula_units_Z 12
_cell_length_a 11.709405
_cell_length_b 9.407453
_cell_length_c 8.893335
_cell_angle_alpha 49.489876
_cell_angle_beta 137.446424
_cell_angle_gamma 113.314729
_cell_volume 497.143563
_symmetry_space_group_name_H-M "P -1"
_symmetry_group_IT_number 2
_symmetry_cell_setting 'triclinic'
loop_
_space_group_symop_operation_xyz
x,y,z
-x,-y,-z
loop_
_atom_site_type_symbol
_atom_site_label
_atom_site_fract_x
_atom_site_fract_y
_atom_site_fract_z
Si Si1 0.423945 0.306780 0.561734
Si Si2 0.932162 0.652634 0.956937
Si Si3 0.436367 0.379408 0.853462
Si Si4 0.794658 0.432773 0.238090
Si Si5 0.032277 0.046899 0.826798
Si Si6 0.580662 0.968971 0.763821
O O1 0.500000 0.500000 0.500000
O O2 0.262177 0.279748 0.325708
O O3 0.374819 0.301497 0.692326
O O4 0.562236 0.145533 0.736259
O O5 0.025324 0.836084 0.900257
O O6 0.914937 0.553568 0.172978
O O7 0.000000 0.500000 0.000000
O O8 0.285368 0.501735 0.719278
O O9 0.612113 0.465105 0.947488
O O10 0.510362 0.194829 0.146619
O O11 0.900970 0.220299 0.507947
O O12 0.218376 0.106535 0.977745
O O13 0.000000 0.000000 0.000000
O O14 0.500000 0.000000 0.500000
#
# Coordination Sequence:
#
# PCOD9067085 Si02
#       6
#     2   2   2   2   2   2
#     4  12  25  47  74 109 149 196 251 302 371 441
#     4  12  28  49  75 113 155 192 245 314 376 443
#     4  11  25  47  78 107 148 199 250 307 361 449
#     4  11  26  49  77 112 149 198 252 301 379 440
#     4  12  28  46  77 109 150 196 247 310 372 443
#     4  12  27  49  76 107 147 197 250 309 375 446
#
# _framework density 24.137893999999999
#
# number of rings (size 3 to 8) (size 9 to 14) (size 15 to 20)
#    0.000    0.333    1.667    6.500    9.333    2.000 
#    0.000    0.833    0.000    0.000    0.000    0.000 
#    0.000    0.000    0.000    0.000    0.000    0.000 
#
# Total GULP energy -66951.221424 kJ/mol
# GULP energy per Si atom -5579.268452 kJ/mol
# Density = 2.408295 g / cm^3
# Si number density = 24.137894 Si / 1000 Ang^3
#
#
#
# Elastic Constant Matrix: (Units=GPa)
#
#
# Indices 1 2 3 4 5 6 
#
# 1 91.1825 33.7177 39.2186 -5.6827 -1.2184 -10.7667
# 2 33.7177 126.9909 29.1215 -15.5833 3.0549 -13.4028
# 3 39.2186 29.1215 94.1666 -1.0309 1.8618 -0.0869
# 4 -5.6827 -15.5833 -1.0309 46.3624 3.0570 10.7488
# 5 -1.2184 3.0549 1.8618 3.0570 45.5693 3.1488
# 6 -10.7667 -13.4028 -0.0869 10.7488 3.1488 52.0332
#
#
#
# Elastic Compliance Matrix: (Units=1/GPa)
#
#
# Indices 1 2 3 4 5 6 
#
# 1 0.014400 -0.002352 -0.005276 0.000293 0.000582 0.002269
# 2 -0.002352 0.009421 -0.001887 0.002556 -0.000890 0.001463
# 3 -0.005276 -0.001887 0.013401 -0.000631 -0.000423 -0.001400
# 4 0.000293 0.002556 -0.000631 0.023483 -0.001433 -0.004046
# 5 0.000582 -0.000890 -0.000423 -0.001433 0.022213 -0.001158
# 6 0.002269 0.001463 -0.001400 -0.004046 -0.001158 0.020968
#
#
# Mechanical properties :
#
#
# Convention : Reuss Voigt Hill
#
# Bulk Modulus (GPa) = 54.97101 57.38396 56.17749
# Shear Modulus (GPa) = 38.76546 42.81180 40.78863
#
# Velocity S-wave (km/s) = 4.01184 4.21602 4.11520
# Velocity P-wave (km/s) = 6.65455 6.89382 6.77524
#
# Compressibility (1/GPa) = 0.01819141
#
# Stress axis : x y z
#
# Youngs Moduli (GPa) = 69.44410 106.14295 74.62325
#
# Poissons Ratio (x) = 0.24965 0.39372
# Poissons Ratio (y) = 0.16334 0.14082
# Poissons Ratio (z) = 0.36640 0.20030
#
# Static dielectric constant tensor:
#      x y z
#    x 1.713370 0.212230 0.364850 
#    y 0.212230 2.559280 0.270380 
#    z 0.364850 0.270380 2.486660 
# 
# From -- ./inp_files/236983.got.cif
#   From: 2010.05.17/outbox.cif.g08.bks.cpg/sg2_119_cif.got.tgz:236983.got - 2010.06.03 11:33:40.
