data_PCOD9067487
_publ_section_title
;
Structure prediction by ZEFSAII (Michael W. Deem and Ramdas Pophale) SiO2 
 PCOD9067487
Probable space group: P -1
;
_chemical_formula_sum "Si O2"
_cell_formula_units_Z 14
_cell_length_a 6.530979
_cell_length_b 11.986883
_cell_length_c 13.901144
_cell_angle_alpha 114.345575
_cell_angle_beta 41.285330
_cell_angle_gamma 112.933198
_cell_volume 648.393561
_symmetry_space_group_name_H-M "P -1"
_symmetry_group_IT_number 2
_symmetry_cell_setting 'triclinic'
loop_
_space_group_symop_operation_xyz
x,y,z
-x,-y,-z
loop_
_atom_site_type_symbol
_atom_site_label
_atom_site_fract_x
_atom_site_fract_y
_atom_site_fract_z
Si Si1 0.790579 0.843324 0.087523
Si Si2 0.351947 0.476304 0.343506
Si Si3 0.207173 0.315143 0.628088
Si Si4 0.816088 0.782230 0.607270
Si Si5 0.541067 0.872640 0.389943
Si Si6 0.453287 0.586557 0.136029
Si Si7 0.469406 0.982159 0.890833
O O1 0.685990 0.901016 0.244181
O O2 0.733427 0.698458 0.074133
O O3 0.570566 0.888606 0.099074
O O4 0.143792 0.894103 0.955934
O O5 0.574547 0.561723 0.369009
O O6 0.340823 0.330075 0.311103
O O7 0.436871 0.518298 0.219938
O O8 0.000000 0.500000 0.500000
O O9 0.297533 0.256430 0.473996
O O10 0.243302 0.210562 0.657213
O O11 0.865011 0.353590 0.746818
O O12 0.727622 0.911288 0.723797
O O13 0.194501 0.794592 0.477897
O O14 0.500000 0.000000 0.500000
O O15 0.500000 0.500000 0.000000
O O16 0.500000 0.000000 0.000000
#
# Coordination Sequence:
#
# PCOD9067487 Si02
#       7
#     2   2   2   2   2   2   2
#     4  11  25  50  63 105 140 177 241 283 345 433
#     4  12  24  47  69 106 140 178 239 291 351 423
#     4  12  24  45  73 101 139 187 232 297 348 423
#     4  12  26  44  73 109 135 186 237 292 354 421
#     4  12  25  44  75 103 142 180 238 289 350 422
#     4  12  29  45  72 104 144 188 236 294 356 427
#     4  11  28  45  72  99 142 187 230 292 357 415
#
# _framework density 21.591826000000001
#
# number of rings (size 3 to 8) (size 9 to 14) (size 15 to 20)
#    0.000    0.286    5.714    2.143    8.000    2.857 
#    0.000    0.000    0.000    0.000    0.000    0.000 
#    0.000    0.000    0.000    0.000    0.000    0.000 
#
# Total GULP energy -78357.980591 kJ/mol
# GULP energy per Si atom -5596.998614 kJ/mol
# Density = 2.154268 g / cm^3
# Si number density = 21.591826 Si / 1000 Ang^3
#
#
#
# Elastic Constant Matrix: (Units=GPa)
#
#
# Indices 1 2 3 4 5 6 
#
# 1 87.8584 6.2529 18.8774 -7.7080 16.9029 -9.1549
# 2 6.2529 55.5852 0.7049 -12.2270 11.1376 3.2656
# 3 18.8774 0.7049 91.7567 6.7894 22.8430 -6.3197
# 4 -7.7080 -12.2270 6.7894 42.4279 1.7928 7.6502
# 5 16.9029 11.1376 22.8430 1.7928 42.8624 -6.6205
# 6 -9.1549 3.2656 -6.3197 7.6502 -6.6205 42.0579
#
#
#
# Elastic Compliance Matrix: (Units=1/GPa)
#
#
# Indices 1 2 3 4 5 6 
#
# 1 0.012908 -0.000173 -0.001742 0.002475 -0.003992 0.001483
# 2 -0.000173 0.021091 0.000766 0.006906 -0.006707 -0.003872
# 3 -0.001742 0.000766 0.013017 -0.002081 -0.006221 0.000917
# 4 0.002475 0.006906 -0.002081 0.027566 -0.003727 -0.005911
# 5 -0.003992 -0.006707 -0.006221 -0.003727 0.030773 0.004239
# 6 0.001483 -0.003872 0.000917 -0.005911 0.004239 0.026280
#
#
# Mechanical properties :
#
#
# Convention : Reuss Voigt Hill
#
# Bulk Modulus (GPa) = 22.36252 31.87452 27.11852
# Shear Modulus (GPa) = 33.59362 39.42730 36.51046
#
# Velocity S-wave (km/s) = 3.94870 4.27784 4.11656
# Velocity P-wave (km/s) = 5.58293 6.26053 5.93142
#
# Compressibility (1/GPa) = 0.04471768
#
# Stress axis : x y z
#
# Youngs Moduli (GPa) = 77.47077 47.41469 76.82531
#
# Poissons Ratio (x) = 0.00819 0.13380
# Poissons Ratio (y) = 0.01339 -0.05882
# Poissons Ratio (z) = 0.13492 -0.03630
#
# Static dielectric constant tensor:
#      x y z
#    x 1.802710 0.006460 -0.017670 
#    y 0.006460 1.785990 0.005930 
#    z -0.017670 0.005930 1.695620 
# 
# From -- ./inp_files/27559.got.cif
#   From: 2010.05.17/outbox.cif.g08.bks.cpg/sg2_14_cif.got.tgz:27559.got - 2010.06.03 11:33:40.
