data_PCOD9067196
_publ_section_title
;
Structure prediction by ZEFSAII (Michael W. Deem and Ramdas Pophale) SiO2 
 PCOD9067196
Probable space group: P -1
;
_chemical_formula_sum "Si O2"
_cell_formula_units_Z 15
_cell_length_a 10.796145
_cell_length_b 10.210246
_cell_length_c 11.172437
_cell_angle_alpha 37.151058
_cell_angle_beta 66.696763
_cell_angle_gamma 51.457557
_cell_volume 568.263239
_symmetry_space_group_name_H-M "P -1"
_symmetry_group_IT_number 2
_symmetry_cell_setting 'triclinic'
loop_
_space_group_symop_operation_xyz
x,y,z
-x,-y,-z
loop_
_atom_site_type_symbol
_atom_site_label
_atom_site_fract_x
_atom_site_fract_y
_atom_site_fract_z
Si Si1 0.518919 0.289444 0.001609
Si Si2 0.679099 0.132988 0.745340
Si Si3 0.097247 0.318211 0.433013
Si Si4 0.030458 0.927878 0.181250
Si Si5 0.883556 0.536912 0.127928
Si Si6 0.269226 0.790978 0.599896
Si Si7 0.500000 0.000000 0.000000
Si Si8 0.743163 0.439771 0.906087
O O1 0.431605 0.566211 0.765189
O O2 0.559877 0.061631 0.063277
O O3 0.668588 0.276490 0.014404
O O4 0.386404 0.338626 0.116229
O O5 0.715759 0.137520 0.591958
O O6 0.492911 0.265029 0.750341
O O7 0.794493 0.168879 0.760381
O O8 0.719984 0.833876 0.973651
O O9 0.208767 0.433715 0.308289
O O10 0.957927 0.498726 0.258472
O O11 0.025694 0.258248 0.618235
O O12 0.196708 0.045575 0.522566
O O13 0.906807 0.217956 0.072066
O O14 0.000000 0.000000 0.000000
O O15 0.840950 0.325223 0.281664
O O16 0.000000 0.500000 0.000000
#
# Coordination Sequence:
#
# PCOD9067196 Si02
#       8
#     2   2   2   2   2   2   1   2
#     4  11  25  48  73 106 153 193 245 302 360 441
#     4  12  25  44  71 102 146 187 236 306 366 430
#     4  12  23  41  74 110 143 188 243 299 369 434
#     4  12  26  47  71 104 147 192 248 303 360 438
#     4  12  21  39  71 108 142 179 234 303 367 430
#     4  12  23  42  72 110 143 186 244 299 372 433
#     4  12  26  48  70 104 144 194 238 304 370 420
#     4  11  25  49  73 105 149 198 243 296 367 441
#
# _framework density 26.396218999999999
#
# number of rings (size 3 to 8) (size 9 to 14) (size 15 to 20)
#    0.000    0.267    6.667    3.600    0.000    1.600 
#    4.800    0.000    0.000    0.000    0.000    0.000 
#    0.000    0.000    0.000    0.000    0.000    0.000 
#
# Total GULP energy -83869.740834 kJ/mol
# GULP energy per Si atom -5591.316056 kJ/mol
# Density = 2.633614 g / cm^3
# Si number density = 26.396219 Si / 1000 Ang^3
#
#
#
# Elastic Constant Matrix: (Units=GPa)
#
#
# Indices 1 2 3 4 5 6 
#
# 1 107.6970 41.6226 45.7793 10.4418 -18.8607 8.1903
# 2 41.6226 128.1936 46.5798 30.4566 -22.5366 -1.4743
# 3 45.7793 46.5798 159.0019 41.0959 -30.0751 -9.0573
# 4 10.4418 30.4566 41.0959 69.1028 -4.9450 0.1916
# 5 -18.8607 -22.5366 -30.0751 -4.9450 58.2017 0.6386
# 6 8.1903 -1.4743 -9.0573 0.1916 0.6386 38.1958
#
#
#
# Elastic Compliance Matrix: (Units=1/GPa)
#
#
# Indices 1 2 3 4 5 6 
#
# 1 0.012026 -0.002965 -0.002854 0.001298 0.001422 -0.003400
# 2 -0.002965 0.010285 -0.000781 -0.003457 0.002315 0.000826
# 3 -0.002854 -0.000781 0.009257 -0.004513 0.003143 0.002747
# 4 0.001298 -0.003457 -0.004513 0.018367 -0.001672 -0.001546
# 5 0.001422 0.002315 0.003143 -0.001672 0.020019 0.000203
# 6 -0.003400 0.000826 0.002747 -0.001546 0.000203 0.027598
#
#
# Mechanical properties :
#
#
# Convention : Reuss Voigt Hill
#
# Bulk Modulus (GPa) = 54.44244 73.65067 64.04655
# Shear Modulus (GPa) = 42.78092 50.49413 46.63752
#
# Velocity S-wave (km/s) = 4.03019 4.37845 4.20792
# Velocity P-wave (km/s) = 6.50587 7.31599 6.92279
#
# Compressibility (1/GPa) = 0.01836802
#
# Stress axis : x y z
#
# Youngs Moduli (GPa) = 83.15118 97.22800 108.02715
#
# Poissons Ratio (x) = 0.28831 0.30833
# Poissons Ratio (y) = 0.24657 0.08433
# Poissons Ratio (z) = 0.23733 0.07590
#
# Static dielectric constant tensor:
#      x y z
#    x 2.261500 -0.236190 -0.063420 
#    y -0.236190 2.373140 0.081050 
#    z -0.063420 0.081050 2.113780 
# 
# From -- ./inp_files/67593.got.cif
#   From: 2010.05.17/outbox.cif.g08.bks.cpg/sg2_34_cif.got.tgz:67593.got - 2010.06.03 11:33:40.
