data_PCOD9067558
_publ_section_title
;
Structure prediction by ZEFSAII (Michael W. Deem and Ramdas Pophale) SiO2 
 PCOD9067558
Probable space group: P -1
;
_chemical_formula_sum "Si O2"
_cell_formula_units_Z 12
_cell_length_a 11.990945
_cell_length_b 4.947678
_cell_length_c 8.152068
_cell_angle_alpha 96.471259
_cell_angle_beta 117.381197
_cell_angle_gamma 86.466379
_cell_volume 426.693867
_symmetry_space_group_name_H-M "P -1"
_symmetry_group_IT_number 2
_symmetry_cell_setting 'triclinic'
loop_
_space_group_symop_operation_xyz
x,y,z
-x,-y,-z
loop_
_atom_site_type_symbol
_atom_site_label
_atom_site_fract_x
_atom_site_fract_y
_atom_site_fract_z
Si Si1 0.702235 0.409973 0.736315
Si Si2 0.635359 0.071895 0.161801
Si Si3 0.883409 0.009061 0.650512
Si Si4 0.823852 0.464900 0.391485
Si Si5 0.145633 0.236545 0.895093
Si Si6 0.551989 0.767148 0.396096
O O1 0.778542 0.145234 0.707685
O O2 0.632768 0.559421 0.547453
O O3 0.580709 0.355582 0.765483
O O4 0.803397 0.598093 0.905081
O O5 0.875129 0.556225 0.257009
O O6 0.739651 0.952389 0.101957
O O7 0.500000 0.000000 0.000000
O O8 0.679090 0.378636 0.247455
O O9 0.875896 0.188645 0.489687
O O10 0.019614 0.068678 0.822056
O O11 0.860522 0.701306 0.559522
O O12 0.631169 0.919869 0.323223
O O13 0.500000 0.000000 0.500000
#
# Coordination Sequence:
#
# PCOD9067558 Si02
#       6
#     2   2   2   2   2   2
#     4  11  27  50  81 117 163 210 270 328 403 479
#     4  12  27  49  83 120 163 208 272 332 401 475
#     4  12  28  52  83 117 160 215 265 329 405 476
#     4  12  27  52  82 116 160 210 268 328 401 476
#     4  12  27  50  81 120 160 206 271 337 396 475
#     4  11  25  50  78 114 164 214 261 324 405 477
#
# _framework density 28.123206
#
# number of rings (size 3 to 8) (size 9 to 14) (size 15 to 20)
#    0.000    0.333    1.667    5.500    4.667    5.333 
#    0.000    1.667    0.000    0.000    0.000    0.000 
#    0.000    0.000    0.000    0.000    0.000    0.000 
#
# Total GULP energy -67396.918884 kJ/mol
# GULP energy per Si atom -5616.409907 kJ/mol
# Density = 2.805920 g / cm^3
# Si number density = 28.123206 Si / 1000 Ang^3
#
#
#
# Elastic Constant Matrix: (Units=GPa)
#
#
# Indices 1 2 3 4 5 6 
#
# 1 139.9261 57.2222 75.6001 9.6753 39.1133 4.9471
# 2 57.2222 179.5776 58.5752 40.5637 15.0677 -1.4124
# 3 75.6001 58.5752 168.2643 58.7955 37.4728 -2.3674
# 4 9.6753 40.5637 58.7955 56.4223 11.1774 3.0137
# 5 39.1133 15.0677 37.4728 11.1774 69.4057 9.6620
# 6 4.9471 -1.4124 -2.3674 3.0137 9.6620 53.1882
#
#
#
# Elastic Compliance Matrix: (Units=1/GPa)
#
#
# Indices 1 2 3 4 5 6 
#
# 1 0.012538 -0.003353 -0.006261 0.007647 -0.004017 -0.001238
# 2 -0.003353 0.007673 0.000765 -0.005910 0.000656 0.000765
# 3 -0.006261 0.000765 0.013719 -0.013462 -0.002208 0.002377
# 4 0.007647 -0.005910 -0.013462 0.035051 -0.000946 -0.003281
# 5 -0.004017 0.000656 -0.002208 -0.000946 0.018288 -0.002976
# 6 -0.001238 0.000765 0.002377 -0.003281 -0.002976 0.019769
#
#
# Mechanical properties :
#
#
# Convention : Reuss Voigt Hill
#
# Bulk Modulus (GPa) = 61.60578 96.72922 79.16750
# Shear Modulus (GPa) = 38.41798 55.56128 46.98963
#
# Velocity S-wave (km/s) = 3.70003 4.44964 4.09204
# Velocity P-wave (km/s) = 6.34089 7.80183 7.10899
#
# Compressibility (1/GPa) = 0.01623224
#
# Stress axis : x y z
#
# Youngs Moduli (GPa) = 79.75498 130.31970 72.89382
#
# Poissons Ratio (x) = 0.43697 0.45638
# Poissons Ratio (y) = 0.26743 -0.05576
# Poissons Ratio (z) = 0.49934 -0.09969
#
# Static dielectric constant tensor:
#      x y z
#    x 2.328200 -0.022500 0.036870 
#    y -0.022500 2.198910 -0.036080 
#    z 0.036870 -0.036080 2.233810 
# 
# From -- ./inp_files/360279.got.cif
#   From: 2010.05.17/outbox.cif.g08.bks.cpg/sg2_181_cif.got.tgz:360279.got - 2010.06.03 11:33:40.
