data_PCOD9067987
_publ_section_title
;
Structure prediction by ZEFSAII (Michael W. Deem and Ramdas Pophale) SiO2 
 PCOD9067987
Probable space group: P -1
;
_chemical_formula_sum "Si O2"
_cell_formula_units_Z 11
_cell_length_a 9.104596
_cell_length_b 4.893776
_cell_length_c 14.459051
_cell_angle_alpha 60.986965
_cell_angle_beta 122.434294
_cell_angle_gamma 83.417126
_cell_volume 409.649846
_symmetry_space_group_name_H-M "P -1"
_symmetry_group_IT_number 2
_symmetry_cell_setting 'triclinic'
loop_
_space_group_symop_operation_xyz
x,y,z
-x,-y,-z
loop_
_atom_site_type_symbol
_atom_site_label
_atom_site_fract_x
_atom_site_fract_y
_atom_site_fract_z
Si Si1 0.650488 0.247514 0.962228
Si Si2 0.181959 0.132032 0.407473
Si Si3 0.443423 0.999935 0.685719
Si Si4 0.000000 0.000000 0.000000
Si Si5 0.244639 0.775488 0.298046
Si Si6 0.752301 0.740845 0.234670
O O1 0.616127 0.627983 0.851026
O O2 0.434364 0.289901 0.862180
O O3 0.820481 0.962067 0.997880
O O4 0.717956 0.105474 0.111837
O O5 0.260819 0.390898 0.349647
O O6 0.962191 0.400969 0.330714
O O7 0.332873 0.927374 0.576109
O O8 0.175664 0.899009 0.359254
O O9 0.553020 0.211459 0.652289
O O10 0.279134 0.208481 0.675264
O O11 0.084281 0.028708 0.126280
#
# Coordination Sequence:
#
# PCOD9067987 Si02
#       6
#     2   2   2   1   2   2
#     4  11  26  46  77 114 153 205 262 324 374 470
#     4  12  29  51  80 115 161 202 259 322 388 467
#     4  12  27  48  80 111 160 206 259 317 395 458
#     4  12  24  52  80 112 152 202 264 316 388 444
#     4  12  28  50  81 115 152 207 265 318 381 463
#     4  11  26  49  74 115 157 204 259 317 393 458
#
# _framework density 26.852201000000001
#
# number of rings (size 3 to 8) (size 9 to 14) (size 15 to 20)
#    0.000    0.364    3.636    3.273    5.091    6.545 
#    0.000    0.000    0.000    0.000    0.000    0.000 
#    0.000    0.000    0.000    0.000    0.000    0.000 
#
# Total GULP energy -61490.512674 kJ/mol
# GULP energy per Si atom -5590.046607 kJ/mol
# Density = 2.679108 g / cm^3
# Si number density = 26.852201 Si / 1000 Ang^3
#
#
#
# Elastic Constant Matrix: (Units=GPa)
#
#
# Indices 1 2 3 4 5 6 
#
# 1 70.9850 -0.2648 74.5213 47.6942 -37.3118 -6.1838
# 2 -0.2648 81.1381 56.2354 37.8068 -7.5576 -15.4953
# 3 74.5213 56.2354 114.3156 8.8029 39.5096 -27.8287
# 4 47.6942 37.8068 8.8029 26.2137 33.1096 -22.3947
# 5 -37.3118 -7.5576 39.5096 33.1096 7.2316 15.5028
# 6 -6.1838 -15.4953 -27.8287 -22.3947 15.5028 48.5710
#
#
#
# Elastic Compliance Matrix: (Units=1/GPa)
#
#
# Indices 1 2 3 4 5 6 
#
# 1 0.006505 -0.002522 0.000408 0.005478 -0.007446 0.005160
# 2 -0.002522 0.013292 -0.000900 0.000154 -0.007465 0.005857
# 3 0.000408 -0.000900 0.007659 -0.009168 0.004616 -0.001548
# 4 0.005478 0.000154 -0.009168 0.015175 0.011714 -0.001249
# 5 -0.007446 -0.007465 0.004616 0.011714 0.009818 0.001583
# 6 0.005160 0.005857 -0.001548 -0.001249 0.001583 0.021146
#
#
# Mechanical properties :
#
#
# Convention : Reuss Voigt Hill
#
# Bulk Modulus (GPa) = 46.67263 58.60253 52.63758
# Shear Modulus (GPa) = 57.62615 25.46639 41.54627
#
# Velocity S-wave (km/s) = 4.63757 3.08294 3.93774
# Velocity P-wave (km/s) = 6.78934 5.87743 6.34978
#
# Compressibility (1/GPa) = 0.02142583
#
# Stress axis : x y z
#
# Youngs Moduli (GPa) = 153.73305 75.23360 130.57340
#
# Poissons Ratio (x) = 0.18976 -0.05327
# Poissons Ratio (y) = 0.38776 0.11757
# Poissons Ratio (z) = -0.06272 0.06774
#
# Static dielectric constant tensor:
#      x y z
#    x 2.094350 -0.035060 0.017780 
#    y -0.035060 2.029600 -0.078700 
#    z 0.017780 -0.078700 2.107450 
# 
# From -- ./inp_files/129321.got.cif
#   From: 2010.05.17/outbox.cif.g08.bks.cpg/sg2_65_cif.got.tgz:129321.got - 2010.06.03 11:33:40.
