data_PCOD9067437
_publ_section_title
;
Structure prediction by ZEFSAII (Michael W. Deem and Ramdas Pophale) SiO2 
 PCOD9067437
Probable space group: P -1
;
_chemical_formula_sum "Si O2"
_cell_formula_units_Z 12
_cell_length_a 6.611073
_cell_length_b 13.053595
_cell_length_c 9.672353
_cell_angle_alpha 56.816325
_cell_angle_beta 133.472853
_cell_angle_gamma 115.154417
_cell_volume 505.343781
_symmetry_space_group_name_H-M "P -1"
_symmetry_group_IT_number 2
_symmetry_cell_setting 'triclinic'
loop_
_space_group_symop_operation_xyz
x,y,z
-x,-y,-z
loop_
_atom_site_type_symbol
_atom_site_label
_atom_site_fract_x
_atom_site_fract_y
_atom_site_fract_z
Si Si1 0.499363 0.873888 0.000532
Si Si2 0.412120 0.271450 0.490656
Si Si3 0.663919 0.539859 0.913053
Si Si4 0.893002 0.100669 0.768541
Si Si5 0.133663 0.891361 0.565197
Si Si6 0.289993 0.627523 0.189157
O O1 0.407369 0.879123 0.794133
O O2 0.284729 0.772011 0.043922
O O3 0.807099 0.825242 0.177999
O O4 0.500000 0.000000 0.000000
O O5 0.392649 0.335118 0.285713
O O6 0.638302 0.169820 0.658887
O O7 0.541127 0.368352 0.592400
O O8 0.106654 0.219719 0.440282
O O9 0.588141 0.435223 0.840968
O O10 0.500000 0.500000 0.000000
O O11 0.985229 0.557267 0.099821
O O12 0.809624 0.068793 0.594736
O O13 0.000000 0.000000 0.000000
O O14 0.000000 0.000000 0.500000
#
# Coordination Sequence:
#
# PCOD9067437 Si02
#       6
#     2   2   2   2   2   2
#     4  12  24  49  75 107 154 199 243 310 383 451
#     4  12  27  47  77 109 149 200 251 310 383 448
#     4  11  28  49  77 110 147 198 262 316 363 442
#     4  12  28  44  72 115 152 197 250 309 374 455
#     4  12  25  46  75 103 156 201 246 303 388 454
#     4  11  25  49  77 105 153 197 249 310 380 445
#
# _framework density 23.746210000000001
#
# number of rings (size 3 to 8) (size 9 to 14) (size 15 to 20)
#    0.000    0.333    5.000    2.500    4.667    3.333 
#    0.000    0.000    0.000    0.000    0.000    0.000 
#    0.000    0.000    0.000    0.000    0.000    0.000 
#
# Total GULP energy -67038.515773 kJ/mol
# GULP energy per Si atom -5586.542981 kJ/mol
# Density = 2.369216 g / cm^3
# Si number density = 23.746210 Si / 1000 Ang^3
#
#
#
# Elastic Constant Matrix: (Units=GPa)
#
#
# Indices 1 2 3 4 5 6 
#
# 1 117.7137 38.4606 57.2965 13.7090 -34.1559 -4.5765
# 2 38.4606 101.5027 30.0271 11.4067 -10.1352 1.0396
# 3 57.2965 30.0271 154.7656 28.2408 -31.8468 -0.5872
# 4 13.7090 11.4067 28.2408 41.6870 4.7850 -1.3376
# 5 -34.1559 -10.1352 -31.8468 4.7850 55.4724 -1.0736
# 6 -4.5765 1.0396 -0.5872 -1.3376 -1.0736 28.8340
#
#
#
# Elastic Compliance Matrix: (Units=1/GPa)
#
#
# Indices 1 2 3 4 5 6 
#
# 1 0.012920 -0.003318 -0.002429 -0.002335 0.006199 0.002243
# 2 -0.003318 0.011495 -0.000786 -0.001522 -0.000283 -0.001038
# 3 -0.002429 -0.000786 0.009476 -0.005909 0.004305 -0.000278
# 4 -0.002335 -0.001522 -0.005909 0.030080 -0.007690 0.000673
# 5 0.006199 -0.000283 0.004305 -0.007690 0.024959 0.001654
# 6 0.002243 -0.001038 -0.000278 0.000673 0.001654 0.035162
#
#
# Mechanical properties :
#
#
# Convention : Reuss Voigt Hill
#
# Bulk Modulus (GPa) = 48.02179 69.50559 58.76369
# Shear Modulus (GPa) = 34.69796 41.74520 38.22158
#
# Velocity S-wave (km/s) = 3.82671 4.19737 4.01632
# Velocity P-wave (km/s) = 6.30807 7.26803 6.80500
#
# Compressibility (1/GPa) = 0.02082388
#
# Stress axis : x y z
#
# Youngs Moduli (GPa) = 77.40219 86.99162 105.52648
#
# Poissons Ratio (x) = 0.28868 0.25633
# Poissons Ratio (y) = 0.25685 0.08296
# Poissons Ratio (z) = 0.18802 0.06839
#
# Static dielectric constant tensor:
#      x y z
#    x 1.904400 0.020970 0.034600 
#    y 0.020970 1.965050 -0.010500 
#    z 0.034600 -0.010500 1.579760 
# 
# From -- ./inp_files/130702.got.cif
#   From: 2010.05.17/outbox.cif.g08.bks.cpg/sg2_66_cif.got.tgz:130702.got - 2010.06.03 11:33:40.
