data_PCOD9067424
_publ_section_title
;
Structure prediction by ZEFSAII (Michael W. Deem and Ramdas Pophale) SiO2 
 PCOD9067424
Probable space group: P -1
;
_chemical_formula_sum "Si O2"
_cell_formula_units_Z 16
_cell_length_a 9.983064
_cell_length_b 6.993812
_cell_length_c 18.760636
_cell_angle_alpha 115.599168
_cell_angle_beta 52.116040
_cell_angle_gamma 131.593133
_cell_volume 772.505203
_symmetry_space_group_name_H-M "P -1"
_symmetry_group_IT_number 2
_symmetry_cell_setting 'triclinic'
loop_
_space_group_symop_operation_xyz
x,y,z
-x,-y,-z
loop_
_atom_site_type_symbol
_atom_site_label
_atom_site_fract_x
_atom_site_fract_y
_atom_site_fract_z
Si Si1 0.914248 0.489727 0.816866
Si Si2 0.378491 0.489176 0.831559
Si Si3 0.983162 0.001839 0.920925
Si Si4 0.220639 0.990364 0.618114
Si Si5 0.592104 0.037817 0.591915
Si Si6 0.660146 0.437429 0.306927
Si Si7 0.729461 0.212490 0.979283
Si Si8 0.772423 0.492929 0.719127
O O1 0.840313 0.328448 0.887020
O O2 0.793072 0.366651 0.763702
O O3 0.147809 0.583146 0.747704
O O4 0.890775 0.722239 0.876235
O O5 0.205368 0.186488 0.842137
O O6 0.395830 0.593468 0.763359
O O7 0.594216 0.543368 0.793550
O O8 0.285339 0.596621 0.933276
O O9 0.842362 0.100850 0.963379
O O10 0.000000 0.000000 0.000000
O O11 0.265320 0.938026 0.515498
O O12 0.991516 0.760115 0.677956
O O13 0.390488 0.000493 0.615290
O O14 0.265483 0.273454 0.651189
O O15 0.703364 0.291547 0.644983
O O16 0.520139 0.787106 0.622593
O O17 0.500000 0.000000 0.000000
#
# Coordination Sequence:
#
# PCOD9067424 Si02
#       8
#     2   2   2   2   2   2   2   2
#     4  12  26  44  70 100 147 184 237 292 347 413
#     4  12  25  44  70 101 141 185 242 286 346 416
#     4  12  24  46  67  95 137 192 239 289 349 400
#     4  11  25  50  75 107 147 180 232 299 359 432
#     4  11  25  49  76 108 143 186 229 293 371 424
#     4  12  24  46  75 107 140 189 234 293 354 423
#     4  12  28  43  64 100 141 190 237 291 340 411
#     4  12  26  46  75 109 143 188 236 294 355 425
#
# _framework density 20.711834
#
# number of rings (size 3 to 8) (size 9 to 14) (size 15 to 20)
#    0.000    0.250    5.000    4.125    5.250    1.000 
#    0.000    1.250    0.000    0.000    0.000    0.000 
#    0.000    0.000    0.000    0.000    0.000    0.000 
#
# Total GULP energy -89546.315496 kJ/mol
# GULP energy per Si atom -5596.644718 kJ/mol
# Density = 2.066469 g / cm^3
# Si number density = 20.711834 Si / 1000 Ang^3
#
#
#
# Elastic Constant Matrix: (Units=GPa)
#
#
# Indices 1 2 3 4 5 6 
#
# 1 134.3433 18.6574 37.9347 -15.3814 7.6484 -11.7550
# 2 18.6574 79.4181 9.4127 -7.5028 4.6851 -6.3689
# 3 37.9347 9.4127 79.3489 -9.2417 10.3952 -15.7772
# 4 -15.3814 -7.5028 -9.2417 30.1206 -1.0260 6.3159
# 5 7.6484 4.6851 10.3952 -1.0260 41.1740 -4.1298
# 6 -11.7550 -6.3689 -15.7772 6.3159 -4.1298 32.1230
#
#
#
# Elastic Compliance Matrix: (Units=1/GPa)
#
#
# Indices 1 2 3 4 5 6 
#
# 1 0.009089 -0.001338 -0.003648 0.003045 -0.000478 0.000609
# 2 -0.001338 0.013322 -0.000262 0.002215 -0.001000 0.001459
# 3 -0.003648 -0.000262 0.016092 0.001693 -0.002728 0.005833
# 4 0.003045 0.002215 0.001693 0.036839 -0.000825 -0.004964
# 5 -0.000478 -0.001000 -0.002728 -0.000825 0.025329 0.001705
# 6 0.000609 0.001459 0.005833 -0.004964 0.001705 0.035703
#
#
# Mechanical properties :
#
#
# Convention : Reuss Voigt Hill
#
# Bulk Modulus (GPa) = 35.70471 47.23554 41.47012
# Shear Modulus (GPa) = 32.00930 35.82388 33.91659
#
# Velocity S-wave (km/s) = 3.93550 4.16340 4.05105
# Velocity P-wave (km/s) = 6.15850 6.77993 6.47667
#
# Compressibility (1/GPa) = 0.02800751
#
# Stress axis : x y z
#
# Youngs Moduli (GPa) = 110.02756 75.06280 62.14237
#
# Poissons Ratio (x) = 0.10044 0.22670
# Poissons Ratio (y) = 0.14723 0.01625
# Poissons Ratio (z) = 0.40138 0.01963
#
# Static dielectric constant tensor:
#      x y z
#    x 1.715690 0.010760 0.038520 
#    y 0.010760 1.716870 0.097350 
#    z 0.038520 0.097350 1.654980 
# 
# From -- ./inp_files/46981.got.cif
#   From: 2010.05.17/outbox.cif.g08.bks.cpg/sg2_24_cif.got.tgz:46981.got - 2010.06.03 11:33:40.
