data_PCOD9067210
_publ_section_title
;
Structure prediction by ZEFSAII (Michael W. Deem and Ramdas Pophale) SiO2 
 PCOD9067210
Probable space group: P -1
;
_chemical_formula_sum "Si O2"
_cell_formula_units_Z 16
_cell_length_a 16.857560
_cell_length_b 13.962194
_cell_length_c 14.912318
_cell_angle_alpha 49.805832
_cell_angle_beta 34.758224
_cell_angle_gamma 23.862355
_cell_volume 719.016262
_symmetry_space_group_name_H-M "P -1"
_symmetry_group_IT_number 2
_symmetry_cell_setting 'triclinic'
loop_
_space_group_symop_operation_xyz
x,y,z
-x,-y,-z
loop_
_atom_site_type_symbol
_atom_site_label
_atom_site_fract_x
_atom_site_fract_y
_atom_site_fract_z
Si Si1 0.152348 0.562707 0.070047
Si Si2 0.355895 0.604519 0.472610
Si Si3 0.299759 0.929337 0.249097
Si Si4 0.374535 0.849572 0.576116
Si Si5 0.651443 0.959626 0.681559
Si Si6 0.783451 0.648510 0.469696
Si Si7 0.701776 0.442208 0.892424
Si Si8 0.409606 0.939217 0.814604
O O1 0.285257 0.565373 0.007393
O O2 0.961833 0.620352 0.275231
O O3 0.422214 0.273444 0.951184
O O4 0.925935 0.797849 0.065902
O O5 0.500000 0.500000 0.500000
O O6 0.336036 0.759541 0.357035
O O7 0.550090 0.356189 0.381729
O O8 0.021682 0.813573 0.654531
O O9 0.326443 0.004194 0.261433
O O10 0.569617 0.754808 0.531236
O O11 0.441276 0.860252 0.411663
O O12 0.034872 0.150463 0.729073
O O13 0.438871 0.012280 0.825014
O O14 0.975296 0.646371 0.547970
O O15 0.602730 0.833844 0.613275
O O16 0.556639 0.690555 0.851471
O O17 0.500000 0.500000 0.000000
#
# Coordination Sequence:
#
# PCOD9067210 Si02
#       8
#     2   2   2   2   2   2   2   2
#     4  12  27  45  69 108 147 180 228 299 353 408
#     4  11  25  48  73  98 141 196 237 280 342 426
#     4  11  28  45  69 108 143 184 240 286 345 423
#     4  12  24  45  77 102 135 188 238 287 355 412
#     4  12  23  44  73 102 134 187 237 284 345 421
#     4  12  23  46  72 106 140 181 235 295 351 415
#     4  12  29  45  70 108 141 183 233 294 351 422
#     4  12  25  45  74 102 141 185 235 285 354 423
#
# _framework density 22.252627
#
# number of rings (size 3 to 8) (size 9 to 14) (size 15 to 20)
#    0.000    0.250    7.500    1.500    3.500    2.500 
#    0.000    0.000    0.000    0.000    0.000    0.000 
#    0.000    0.000    0.000    0.000    0.000    0.000 
#
# Total GULP energy -89570.589741 kJ/mol
# GULP energy per Si atom -5598.161859 kJ/mol
# Density = 2.220198 g / cm^3
# Si number density = 22.252627 Si / 1000 Ang^3
#
#
#
# Elastic Constant Matrix: (Units=GPa)
#
#
# Indices 1 2 3 4 5 6 
#
# 1 211.8136 54.1572 41.7854 13.8597 -29.1273 -3.6989
# 2 54.1572 111.4019 14.6528 13.4244 -7.8332 -4.5717
# 3 41.7854 14.6528 48.8352 13.8069 -4.6519 -4.4043
# 4 13.8597 13.4244 13.8069 24.2509 5.0932 -2.3522
# 5 -29.1273 -7.8332 -4.6519 5.0932 24.8986 8.3215
# 6 -3.6989 -4.5717 -4.4043 -2.3522 8.3215 49.0018
#
#
#
# Elastic Compliance Matrix: (Units=1/GPa)
#
#
# Indices 1 2 3 4 5 6 
#
# 1 0.007397 -0.002228 -0.004353 -0.002374 0.008139 -0.001537
# 2 -0.002228 0.010787 0.000357 -0.005255 0.001826 0.000308
# 3 -0.004353 0.000357 0.028572 -0.014496 0.002965 0.001073
# 4 -0.002374 -0.005255 -0.014496 0.058489 -0.020549 0.004325
# 5 0.008139 0.001826 0.002965 -0.020549 0.058303 -0.009836
# 6 -0.001537 0.000308 0.001073 0.004325 -0.009836 0.022295
#
#
# Mechanical properties :
#
#
# Convention : Reuss Voigt Hill
#
# Bulk Modulus (GPa) = 29.14738 65.91574 47.53156
# Shear Modulus (GPa) = 23.84055 37.06060 30.45057
#
# Velocity S-wave (km/s) = 3.27671 4.08542 3.70321
# Velocity P-wave (km/s) = 5.23857 7.20694 6.30011
#
# Compressibility (1/GPa) = 0.03430840
#
# Stress axis : x y z
#
# Youngs Moduli (GPa) = 135.18493 92.70416 34.99948
#
# Poissons Ratio (x) = 0.20657 0.15235
# Poissons Ratio (y) = 0.30123 -0.01251
# Poissons Ratio (z) = 0.58845 -0.03313
#
# Static dielectric constant tensor:
#      x y z
#    x 1.808680 -0.008180 0.003350 
#    y -0.008180 1.828500 -0.029770 
#    z 0.003350 -0.029770 1.836580 
# 
# From -- ./inp_files/532464.got.cif
#   From: 2010.05.17/outbox.cif.g08.bks.cpg/sg2_267_cif.got.tgz:532464.got - 2010.06.03 11:33:40.
