data_PCOD9067153
_publ_section_title
;
Structure prediction by ZEFSAII (Michael W. Deem and Ramdas Pophale) SiO2 
 PCOD9067153
Probable space group: P -1
;
_chemical_formula_sum "Si O2"
_cell_formula_units_Z 16
_cell_length_a 9.192133
_cell_length_b 9.547287
_cell_length_c 14.572305
_cell_angle_alpha 77.513193
_cell_angle_beta 40.396298
_cell_angle_gamma 68.744466
_cell_volume 768.608724
_symmetry_space_group_name_H-M "P -1"
_symmetry_group_IT_number 2
_symmetry_cell_setting 'triclinic'
loop_
_space_group_symop_operation_xyz
x,y,z
-x,-y,-z
loop_
_atom_site_type_symbol
_atom_site_label
_atom_site_fract_x
_atom_site_fract_y
_atom_site_fract_z
Si Si1 0.275445 0.894721 0.380371
Si Si2 0.286029 0.590478 0.366576
Si Si3 0.951493 0.091687 0.103753
Si Si4 0.350566 0.095229 0.640193
Si Si5 0.802696 0.424496 0.076298
Si Si6 0.574690 0.863657 0.053966
Si Si7 0.072323 0.395963 0.621827
Si Si8 0.723805 0.547189 0.915453
O O1 0.261731 0.727802 0.426870
O O2 0.467638 0.916662 0.359086
O O3 0.387861 0.886778 0.224503
O O4 0.000000 0.000000 0.500000
O O5 0.548261 0.536705 0.208387
O O6 0.104840 0.643754 0.360723
O O7 0.234208 0.458780 0.468520
O O8 0.795493 0.264683 0.139192
O O9 0.838281 0.991382 0.234063
O O10 0.189165 0.119176 0.018635
O O11 0.000000 0.000000 0.000000
O O12 0.218167 0.260950 0.637385
O O13 0.500000 0.000000 0.500000
O O14 0.843966 0.416623 0.949279
O O15 0.000000 0.500000 0.000000
O O16 0.642012 0.707488 0.984933
O O17 0.500000 0.000000 0.000000
O O18 0.902755 0.529472 0.747749
O O19 0.500000 0.500000 0.000000
#
# Coordination Sequence:
#
# PCOD9067153 Si02
#       8
#     2   2   2   2   2   2   2   2
#     4  12  27  49  73 103 149 192 239 304 366 437
#     4  11  25  48  71 103 145 190 242 295 370 426
#     4  12  26  46  74 105 144 192 241 298 362 428
#     4  12  28  47  73 107 144 192 245 298 367 433
#     4  12  24  46  72 102 146 185 241 298 355 432
#     4  12  29  47  72 111 146 190 244 299 366 434
#     4  11  26  46  73 105 141 191 243 300 359 438
#     4  12  25  44  75 107 142 186 242 298 362 428
#
# _framework density 20.816834
#
# number of rings (size 3 to 8) (size 9 to 14) (size 15 to 20)
#    0.000    0.250    5.000    2.250   10.500    1.500 
#    0.000    0.000    0.000    0.000    0.000    0.000 
#    0.000    0.000    0.000    0.000    0.000    0.000 
#
# Total GULP energy -89264.611709 kJ/mol
# GULP energy per Si atom -5579.038232 kJ/mol
# Density = 2.076945 g / cm^3
# Si number density = 20.816834 Si / 1000 Ang^3
#
#
#
# Elastic Constant Matrix: (Units=GPa)
#
#
# Indices 1 2 3 4 5 6 
#
# 1 106.5799 42.7914 38.7565 -0.3729 -4.2861 17.8120
# 2 42.7914 119.9426 38.2188 3.8202 -5.6280 4.5783
# 3 38.7565 38.2188 141.8786 0.9651 0.9562 10.3875
# 4 -0.3729 3.8202 0.9651 36.4398 2.0834 3.5273
# 5 -4.2861 -5.6280 0.9562 2.0834 35.6890 -5.2855
# 6 17.8120 4.5783 10.3875 3.5273 -5.2855 39.9766
#
#
#
# Elastic Compliance Matrix: (Units=1/GPa)
#
#
# Indices 1 2 3 4 5 6 
#
# 1 0.012366 -0.003593 -0.002080 0.000992 0.000233 -0.004614
# 2 -0.003593 0.010282 -0.001879 -0.001269 0.001495 0.001221
# 3 -0.002080 -0.001879 0.008211 0.000121 -0.000940 -0.001126
# 4 0.000992 -0.001269 0.000121 0.028006 -0.002176 -0.003087
# 5 0.000233 0.001495 -0.000940 -0.002176 0.029028 0.003999
# 6 -0.004614 0.001221 -0.001126 -0.003087 0.003999 0.028024
#
#
# Mechanical properties :
#
#
# Convention : Reuss Voigt Hill
#
# Bulk Modulus (GPa) = 63.48012 67.54828 65.51420
# Shear Modulus (GPa) = 36.69095 38.99672 37.84384
#
# Velocity S-wave (km/s) = 4.20284 4.33289 4.26836
# Velocity P-wave (km/s) = 7.35613 7.58625 7.47208
#
# Compressibility (1/GPa) = 0.01575296
#
# Stress axis : x y z
#
# Youngs Moduli (GPa) = 80.86772 97.25766 121.79188
#
# Poissons Ratio (x) = 0.34948 0.25338
# Poissons Ratio (y) = 0.29058 0.22885
# Poissons Ratio (z) = 0.16824 0.18275
#
# Static dielectric constant tensor:
#      x y z
#    x 1.765550 -0.010810 0.001380 
#    y -0.010810 1.727030 0.029410 
#    z 0.001380 0.029410 1.709200 
# 
# From -- ./inp_files/494788.got.cif
#   From: 2010.05.17/outbox.cif.g08.bks.cpg/sg2_248_cif.got.tgz:494788.got - 2010.06.03 11:33:40.
