data_PCOD9067338
_publ_section_title
;
Structure prediction by ZEFSAII (Michael W. Deem and Ramdas Pophale) SiO2 
 PCOD9067338
Probable space group: P -1
;
_chemical_formula_sum "Si O2"
_cell_formula_units_Z 10
_cell_length_a 12.246411
_cell_length_b 10.132438
_cell_length_c 15.740149
_cell_angle_alpha 36.701991
_cell_angle_beta 150.513576
_cell_angle_gamma 154.726501
_cell_volume 409.452722
_symmetry_space_group_name_H-M "P -1"
_symmetry_group_IT_number 2
_symmetry_cell_setting 'triclinic'
loop_
_space_group_symop_operation_xyz
x,y,z
-x,-y,-z
loop_
_atom_site_type_symbol
_atom_site_label
_atom_site_fract_x
_atom_site_fract_y
_atom_site_fract_z
Si Si1 0.259385 0.853714 0.025145
Si Si2 0.304827 0.862984 0.526132
Si Si3 0.152584 0.893492 0.119555
Si Si4 0.046137 0.730458 0.673224
Si Si5 0.999732 0.982011 0.658424
O O1 0.273560 0.054829 0.859331
O O2 0.146725 0.888666 0.017147
O O3 0.000000 0.500000 0.000000
O O4 0.590271 0.977910 0.208834
O O5 0.000000 0.500000 0.500000
O O6 0.500000 0.000000 0.500000
O O7 0.504710 0.892395 0.721160
O O8 0.218181 0.048052 0.405293
O O9 0.991129 0.554466 0.214336
O O10 0.000000 0.000000 0.000000
O O11 0.870141 0.700438 0.653062
O O12 0.932687 0.780512 0.487691
#
# Coordination Sequence:
#
# PCOD9067338 Si02
#       5
#     2   2   2   2   2
#     4  12  26  46  76 119 154 206 268 330 414 483
#     4  12  28  51  78 120 159 219 273 334 416 485
#     4  12  28  50  78 112 165 212 271 336 402 493
#     4  11  26  49  75 117 157 208 270 329 411 481
#     4  11  25  48  80 109 159 203 266 338 400 482
#
# _framework density 24.422843
#
# number of rings (size 3 to 8) (size 9 to 14) (size 15 to 20)
#    0.000    0.400    4.000    3.000    2.800    7.200 
#    0.000    0.000    0.000    0.000    0.000    0.000 
#    0.000    0.000    0.000    0.000    0.000    0.000 
#
# Total GULP energy -55997.306643 kJ/mol
# GULP energy per Si atom -5599.730664 kJ/mol
# Density = 2.436726 g / cm^3
# Si number density = 24.422843 Si / 1000 Ang^3
#
#
#
# Elastic Constant Matrix: (Units=GPa)
#
#
# Indices 1 2 3 4 5 6 
#
# 1 180.9207 60.0324 38.5642 -10.7217 -10.5388 -33.0084
# 2 60.0324 148.9106 54.8655 9.9433 5.5174 -9.7787
# 3 38.5642 54.8655 156.5650 -7.8982 -21.9275 -4.8603
# 4 -10.7217 9.9433 -7.8982 46.2752 -4.5061 5.8197
# 5 -10.5388 5.5174 -21.9275 -4.5061 61.9397 -8.6010
# 6 -33.0084 -9.7787 -4.8603 5.8197 -8.6010 41.5632
#
#
#
# Elastic Compliance Matrix: (Units=1/GPa)
#
#
# Indices 1 2 3 4 5 6 
#
# 1 0.007857 -0.002893 -0.000307 0.001901 0.002424 0.005759
# 2 -0.002893 0.009328 -0.003132 -0.003407 -0.002758 -0.000563
# 3 -0.000307 -0.003132 0.008151 0.002274 0.003325 0.000342
# 4 0.001901 -0.003407 0.002274 0.023673 0.002913 -0.001738
# 5 0.002424 -0.002758 0.003325 0.002913 0.018910 0.005170
# 6 0.005759 -0.000563 0.000342 -0.001738 0.005170 0.029854
#
#
# Mechanical properties :
#
#
# Convention : Reuss Voigt Hill
#
# Bulk Modulus (GPa) = 78.91178 88.14670 83.52924
# Shear Modulus (GPa) = 43.60619 52.15124 47.87871
#
# Velocity S-wave (km/s) = 4.23006 4.62599 4.43245
# Velocity P-wave (km/s) = 7.49925 8.04384 7.77631
#
# Compressibility (1/GPa) = 0.01267238
#
# Stress axis : x y z
#
# Youngs Moduli (GPa) = 127.27060 107.19924 122.67751
#
# Poissons Ratio (x) = 0.31012 0.03771
# Poissons Ratio (y) = 0.36819 0.38423
# Poissons Ratio (z) = 0.03913 0.33575
#
# Static dielectric constant tensor:
#      x y z
#    x 2.001160 0.031300 0.033560 
#    y 0.031300 1.937240 -0.019240 
#    z 0.033560 -0.019240 1.933560 
# 
# From -- ./inp_files/57390.got.cif
#   From: 2010.05.17/outbox.cif.g08.bks.cpg/sg2_29_cif.got.tgz:57390.got - 2010.06.03 11:33:40.
