data_PCOD9067194
_publ_section_title
;
Structure prediction by ZEFSAII (Michael W. Deem and Ramdas Pophale) SiO2 
 PCOD9067194
Probable space group: P -1
;
_chemical_formula_sum "Si O2"
_cell_formula_units_Z 15
_cell_length_a 9.229483
_cell_length_b 9.392918
_cell_length_c 11.881355
_cell_angle_alpha 53.991132
_cell_angle_beta 68.486115
_cell_angle_gamma 48.761557
_cell_volume 626.181533
_symmetry_space_group_name_H-M "P -1"
_symmetry_group_IT_number 2
_symmetry_cell_setting 'triclinic'
loop_
_space_group_symop_operation_xyz
x,y,z
-x,-y,-z
loop_
_atom_site_type_symbol
_atom_site_label
_atom_site_fract_x
_atom_site_fract_y
_atom_site_fract_z
Si Si1 0.000000 0.000000 0.000000
Si Si2 0.278499 0.318205 0.321015
Si Si3 0.253450 0.988868 0.119346
Si Si4 0.481754 0.811534 0.484309
Si Si5 0.291353 0.357784 0.865880
Si Si6 0.861679 0.520688 0.392009
Si Si7 0.294767 0.556846 0.999843
Si Si8 0.840740 0.142584 0.573424
O O1 0.810116 0.087080 0.932785
O O2 0.869528 0.196478 0.035734
O O3 0.439561 0.296609 0.365905
O O4 0.271657 0.405174 0.160109
O O5 0.067034 0.478116 0.362210
O O6 0.339971 0.072810 0.413413
O O7 0.483859 0.813558 0.150492
O O8 0.157355 0.992719 0.260982
O O9 0.218818 0.215995 0.995229
O O10 0.675676 0.739208 0.395936
O O11 0.365249 0.742025 0.483491
O O12 0.175801 0.479224 0.730039
O O13 0.278265 0.505189 0.900964
O O14 0.867378 0.320153 0.531482
O O15 0.500000 0.500000 0.000000
O O16 0.000000 0.000000 0.500000
#
# Coordination Sequence:
#
# PCOD9067194 Si02
#       8
#     1   2   2   2   2   2   2   2
#     4  12  28  46  76 114 148 196 256 310 382 450
#     4  11  27  47  72 108 149 195 249 305 391 447
#     4  11  26  50  75 113 149 201 253 310 378 465
#     4  11  25  48  73 106 149 195 243 315 375 455
#     4  11  26  49  79 104 153 203 254 307 385 449
#     4  12  26  46  77 109 144 197 253 316 373 458
#     4  12  28  47  75 111 155 198 254 319 380 455
#     4  12  26  46  75 109 150 193 252 306 378 451
#
# _framework density 23.954718
#
# number of rings (size 3 to 8) (size 9 to 14) (size 15 to 20)
#    0.000    0.533    4.000    2.400    7.467    2.133 
#    2.400    0.000    0.000    0.000    0.000    0.000 
#    0.000    0.000    0.000    0.000    0.000    0.000 
#
# Total GULP energy -83829.196499 kJ/mol
# GULP energy per Si atom -5588.613100 kJ/mol
# Density = 2.390020 g / cm^3
# Si number density = 23.954718 Si / 1000 Ang^3
#
#
#
# Elastic Constant Matrix: (Units=GPa)
#
#
# Indices 1 2 3 4 5 6 
#
# 1 100.4226 1.8136 24.6195 5.0160 12.8083 -4.9728
# 2 1.8136 115.5479 21.5577 18.8199 -0.5462 -6.7532
# 3 24.6195 21.5577 87.3028 18.6602 -6.2265 -0.7206
# 4 5.0160 18.8199 18.6602 23.7715 2.9263 11.7429
# 5 12.8083 -0.5462 -6.2265 2.9263 32.0575 9.4706
# 6 -4.9728 -6.7532 -0.7206 11.7429 9.4706 38.1885
#
#
#
# Elastic Compliance Matrix: (Units=1/GPa)
#
#
# Indices 1 2 3 4 5 6 
#
# 1 0.011923 0.000905 -0.003735 -0.001306 -0.006429 0.003638
# 2 0.000905 0.010869 -0.000613 -0.010985 -0.000960 0.005644
# 3 -0.003735 -0.000613 0.015807 -0.012960 0.005013 0.002445
# 4 -0.001306 -0.010985 -0.012960 0.073550 -0.001639 -0.024567
# 5 -0.006429 -0.000960 0.005013 -0.001639 0.037756 -0.009772
# 6 0.003638 0.005644 0.002445 -0.024567 -0.009772 0.037682
#
#
# Mechanical properties :
#
#
# Convention : Reuss Voigt Hill
#
# Bulk Modulus (GPa) = 31.53418 44.36166 37.94792
# Shear Modulus (GPa) = 24.38503 35.82233 30.10368
#
# Velocity S-wave (km/s) = 3.19402 3.87126 3.54883
# Velocity P-wave (km/s) = 5.17639 6.20817 5.71561
#
# Compressibility (1/GPa) = 0.03171162
#
# Stress axis : x y z
#
# Youngs Moduli (GPa) = 83.87416 92.00426 63.26421
#
# Poissons Ratio (x) = -0.08323 0.23629
# Poissons Ratio (y) = -0.07587 0.03878
# Poissons Ratio (z) = 0.31327 0.05640
#
# Static dielectric constant tensor:
#      x y z
#    x 1.920000 -0.014980 0.013270 
#    y -0.014980 1.890140 -0.003890 
#    z 0.013270 -0.003890 1.962980 
# 
# From -- ./inp_files/381291.got.cif
#   From: 2010.05.17/outbox.cif.g08.bks.cpg/sg2_191_cif.got.tgz:381291.got - 2010.06.03 11:33:40.
