data_PCOD9067892
_publ_section_title
;
Structure prediction by ZEFSAII (Michael W. Deem and Ramdas Pophale) SiO2 
 PCOD9067892
Probable space group: P -1
;
_chemical_formula_sum "Si O2"
_cell_formula_units_Z 16
_cell_length_a 8.831293
_cell_length_b 5.337690
_cell_length_c 16.041699
_cell_angle_alpha 71.388844
_cell_angle_beta 104.367468
_cell_angle_gamma 83.751385
_cell_volume 679.510298
_symmetry_space_group_name_H-M "P -1"
_symmetry_group_IT_number 2
_symmetry_cell_setting 'triclinic'
loop_
_space_group_symop_operation_xyz
x,y,z
-x,-y,-z
loop_
_atom_site_type_symbol
_atom_site_label
_atom_site_fract_x
_atom_site_fract_y
_atom_site_fract_z
Si Si1 0.079503 0.261221 0.477101
Si Si2 0.075059 0.355741 0.720898
Si Si3 0.552126 0.561406 0.907545
Si Si4 0.011955 0.795419 0.797931
Si Si5 0.099543 0.740506 0.993672
Si Si6 0.425191 0.972441 0.582868
Si Si7 0.646138 0.000327 0.770912
Si Si8 0.592791 0.529969 0.271272
O O1 0.000000 0.500000 0.500000
O O2 0.043223 0.399865 0.367890
O O3 0.263547 0.192461 0.534496
O O4 0.000000 0.000000 0.500000
O O5 0.259177 0.322243 0.722366
O O6 0.056491 0.497751 0.795009
O O7 0.031006 0.069246 0.724157
O O8 0.587705 0.855101 0.859069
O O9 0.422931 0.543849 0.820009
O O10 0.500000 0.500000 0.000000
O O11 0.723784 0.363524 0.935773
O O12 0.828203 0.869362 0.794057
O O13 0.118686 0.810043 0.892406
O O14 0.000000 0.500000 0.000000
O O15 0.000000 0.000000 0.000000
O O16 0.548241 0.978647 0.674613
O O17 0.367915 0.699612 0.629311
O O18 0.500000 0.000000 0.500000
O O19 0.586164 0.314219 0.747895
#
# Coordination Sequence:
#
# PCOD9067892 Si02
#       8
#     2   2   2   2   2   2   2   2
#     4  12  25  47  72 103 143 187 238 296 354 423
#     4  12  27  47  75 104 143 190 242 296 360 426
#     4  11  26  46  72 105 143 190 238 294 362 429
#     4  12  27  47  75 104 143 190 242 296 360 426
#     4  12  25  47  72 103 143 187 238 296 354 423
#     4  11  26  46  72 105 143 190 238 294 362 429
#     4  11  26  47  71 103 147 187 236 301 357 426
#     4  11  26  47  71 103 147 187 236 301 357 426
#
# _framework density 23.546371000000001
#
# number of rings (size 3 to 8) (size 9 to 14) (size 15 to 20)
#    0.000    0.500    2.500    4.500   10.500    1.000 
#    0.000    0.000    0.000    0.000    0.000    0.000 
#    0.000    0.000    0.000    0.000    0.000    0.000 
#
# Total GULP energy -89340.723500 kJ/mol
# GULP energy per Si atom -5583.795219 kJ/mol
# Density = 2.349278 g / cm^3
# Si number density = 23.546371 Si / 1000 Ang^3
#
#
#
# Elastic Constant Matrix: (Units=GPa)
#
#
# Indices 1 2 3 4 5 6 
#
# 1 110.9043 27.2737 26.8733 -6.7794 1.3453 -10.0972
# 2 27.2737 99.7242 14.8465 3.5704 -5.5668 -11.8775
# 3 26.8733 14.8465 121.8415 -8.4488 -6.1307 -1.9338
# 4 -6.7794 3.5704 -8.4488 34.6384 -9.8201 1.6093
# 5 1.3453 -5.5668 -6.1307 -9.8201 40.8935 -7.5604
# 6 -10.0972 -11.8775 -1.9338 1.6093 -7.5604 44.0101
#
#
#
# Elastic Compliance Matrix: (Units=1/GPa)
#
#
# Indices 1 2 3 4 5 6 
#
# 1 0.010308 -0.002438 -0.001850 0.001672 -0.000266 0.001519
# 2 -0.002438 0.011294 -0.000815 -0.001502 0.001651 0.002791
# 3 -0.001850 -0.000815 0.008979 0.002446 0.001880 -0.000016
# 4 0.001672 -0.001502 0.002446 0.032170 0.007881 0.000263
# 5 -0.000266 0.001651 0.001880 0.007881 0.027777 0.004951
# 6 0.001519 0.002791 -0.000016 0.000263 0.004951 0.024664
#
#
# Mechanical properties :
#
#
# Convention : Reuss Voigt Hill
#
# Bulk Modulus (GPa) = 49.07892 52.27301 50.67597
# Shear Modulus (GPa) = 37.82439 41.47350 39.64894
#
# Velocity S-wave (km/s) = 4.01231 4.20140 4.10795
# Velocity P-wave (km/s) = 6.50797 6.76638 6.63843
#
# Compressibility (1/GPa) = 0.02037534
#
# Stress axis : x y z
#
# Youngs Moduli (GPa) = 97.01024 88.54184 111.37477
#
# Poissons Ratio (x) = 0.21583 0.20603
# Poissons Ratio (y) = 0.23647 0.09081
# Poissons Ratio (z) = 0.17946 0.07219
#
# Static dielectric constant tensor:
#      x y z
#    x 1.870000 0.032150 0.005190 
#    y 0.032150 1.967540 0.032320 
#    z 0.005190 0.032320 2.108080 
# 
# From -- ./inp_files/53348.got.cif
#   From: 2010.05.17/outbox.cif.g08.bks.cpg/sg2_27_cif.got.tgz:53348.got - 2010.06.03 11:33:40.
