data_PCOD9067290
_publ_section_title
;
Structure prediction by ZEFSAII (Michael W. Deem and Ramdas Pophale) SiO2 
 PCOD9067290
Probable space group: P -1
;
_chemical_formula_sum "Si O2"
_cell_formula_units_Z 16
_cell_length_a 18.285196
_cell_length_b 9.451990
_cell_length_c 7.087622
_cell_angle_alpha 130.631964
_cell_angle_beta 57.777179
_cell_angle_gamma 107.713985
_cell_volume 784.690949
_symmetry_space_group_name_H-M "P -1"
_symmetry_group_IT_number 2
_symmetry_cell_setting 'triclinic'
loop_
_space_group_symop_operation_xyz
x,y,z
-x,-y,-z
loop_
_atom_site_type_symbol
_atom_site_label
_atom_site_fract_x
_atom_site_fract_y
_atom_site_fract_z
Si Si1 0.268903 0.489510 0.333395
Si Si2 0.994320 0.205988 0.265003
Si Si3 0.184278 0.634436 0.187851
Si Si4 0.543609 0.691809 0.152317
Si Si5 0.059599 0.371489 0.947455
Si Si6 0.277560 0.834627 0.904664
Si Si7 0.528685 0.039861 0.207741
Si Si8 0.856926 0.818038 0.651162
O O1 0.232479 0.561893 0.245870
O O2 0.285473 0.667081 0.595990
O O3 0.201319 0.359037 0.409927
O O4 0.355415 0.360228 0.062887
O O5 0.072693 0.213588 0.309470
O O6 0.902897 0.249489 0.526830
O O7 0.007139 0.335783 0.178369
O O8 0.000000 0.000000 0.000000
O O9 0.145221 0.467846 0.979226
O O10 0.244459 0.748541 0.070072
O O11 0.521741 0.781973 0.465805
O O12 0.512542 0.855501 0.191869
O O13 0.500000 0.500000 0.000000
O O14 0.091626 0.190155 0.625116
O O15 0.000000 0.500000 0.000000
O O16 0.369832 0.920887 0.882453
O O17 0.204622 0.994245 0.080750
O O18 0.500000 0.000000 0.000000
#
# Coordination Sequence:
#
# PCOD9067290 Si02
#       8
#     2   2   2   2   2   2   2   2
#     4  12  25  47  71 103 142 182 236 289 349 418
#     4  12  26  44  65  98 137 190 237 283 351 412
#     4  12  26  42  69 102 135 185 236 287 345 414
#     4  11  25  48  77 104 144 192 224 288 365 423
#     4  12  24  42  67  94 136 185 233 286 348 406
#     4  12  27  45  70 107 139 181 236 292 349 417
#     4  11  27  48  74 110 147 180 234 289 355 437
#     4  12  25  45  71  97 144 184 234 295 345 410
#
# _framework density 20.390191999999999
#
# number of rings (size 3 to 8) (size 9 to 14) (size 15 to 20)
#    0.000    0.250    6.250    2.625    3.500    3.500 
#    2.250    0.000    0.000    0.000    0.000    0.000 
#    0.000    0.000    0.000    0.000    0.000    0.000 
#
# Total GULP energy -89517.957683 kJ/mol
# GULP energy per Si atom -5594.872355 kJ/mol
# Density = 2.034378 g / cm^3
# Si number density = 20.390192 Si / 1000 Ang^3
#
#
#
# Elastic Constant Matrix: (Units=GPa)
#
#
# Indices 1 2 3 4 5 6 
#
# 1 71.2826 8.1719 56.2574 4.2652 12.6743 -5.1169
# 2 8.1719 83.2365 37.0991 -2.9608 15.0952 1.7038
# 3 56.2574 37.0991 166.5057 7.2099 10.8813 -12.1644
# 4 4.2652 -2.9608 7.2099 40.5399 -3.2043 -1.0822
# 5 12.6743 15.0952 10.8813 -3.2043 31.6882 1.9521
# 6 -5.1169 1.7038 -12.1644 -1.0822 1.9521 35.2170
#
#
#
# Elastic Compliance Matrix: (Units=1/GPa)
#
#
# Indices 1 2 3 4 5 6 
#
# 1 0.020614 0.002277 -0.006884 -0.001320 -0.007152 0.000863
# 2 0.002277 0.014695 -0.003758 0.000958 -0.006444 -0.001292
# 3 -0.006884 -0.003758 0.009312 -0.001058 0.001097 0.002305
# 4 -0.001320 0.000958 -0.001058 0.025301 0.002993 0.000008
# 5 -0.007152 -0.006444 0.001097 0.002993 0.037558 -0.002338
# 6 0.000863 -0.001292 0.002305 0.000008 -0.002338 0.029509
#
#
# Mechanical properties :
#
#
# Convention : Reuss Voigt Hill
#
# Bulk Modulus (GPa) = 35.85678 58.23129 47.04403
# Shear Modulus (GPa) = 30.67205 36.12211 33.39708
#
# Velocity S-wave (km/s) = 3.88268 4.21354 4.05149
# Velocity P-wave (km/s) = 6.14197 7.23134 6.70880
#
# Compressibility (1/GPa) = 0.02788873
#
# Stress axis : x y z
#
# Youngs Moduli (GPa) = 48.51171 68.05226 107.39183
#
# Poissons Ratio (x) = -0.15496 0.73934
# Poissons Ratio (y) = -0.11047 0.40360
# Poissons Ratio (z) = 0.33398 0.25576
#
# Static dielectric constant tensor:
#      x y z
#    x 1.677080 0.026910 -0.032560 
#    y 0.026910 1.753030 0.010430 
#    z -0.032560 0.010430 1.681970 
# 
# From -- ./inp_files/48426.got.cif
#   From: 2010.05.17/outbox.cif.g08.bks.cpg/sg2_25_cif.got.tgz:48426.got - 2010.06.03 11:33:40.
