data_PCOD9067410
_publ_section_title
;
Structure prediction by ZEFSAII (Michael W. Deem and Ramdas Pophale) SiO2 
 PCOD9067410
Probable space group: P -1
;
_chemical_formula_sum "Si O2"
_cell_formula_units_Z 15
_cell_length_a 9.831448
_cell_length_b 8.807351
_cell_length_c 12.346552
_cell_angle_alpha 56.766231
_cell_angle_beta 112.575164
_cell_angle_gamma 72.736632
_cell_volume 622.743356
_symmetry_space_group_name_H-M "P -1"
_symmetry_group_IT_number 2
_symmetry_cell_setting 'triclinic'
loop_
_space_group_symop_operation_xyz
x,y,z
-x,-y,-z
loop_
_atom_site_type_symbol
_atom_site_label
_atom_site_fract_x
_atom_site_fract_y
_atom_site_fract_z
Si Si1 0.746509 0.875520 0.882587
Si Si2 0.542448 0.478203 0.892832
Si Si3 0.006749 0.974244 0.819592
Si Si4 0.039827 0.602294 0.249269
Si Si5 0.000000 0.500000 0.500000
Si Si6 0.433158 0.217733 0.819166
Si Si7 0.163663 0.947059 0.489180
Si Si8 0.280185 0.227272 0.321079
O O1 0.741298 0.756845 0.820704
O O2 0.874825 0.944771 0.859666
O O3 0.547662 0.106712 0.783778
O O4 0.860677 0.683896 0.088320
O O5 0.488421 0.348448 0.853796
O O6 0.378933 0.747993 0.686724
O O7 0.500000 0.500000 0.000000
O O8 0.779990 0.286362 0.033158
O O9 0.022050 0.154088 0.814810
O O10 0.890648 0.108504 0.619344
O O11 0.217268 0.458526 0.274300
O O12 0.098432 0.436112 0.433852
O O13 0.793853 0.616663 0.334796
O O14 0.500000 0.000000 0.000000
O O15 0.155999 0.162141 0.361832
O O16 0.000000 0.000000 0.500000
O O17 0.500000 0.000000 0.500000
#
# Coordination Sequence:
#
# PCOD9067410 Si02
#       8
#     2   2   2   2   1   2   2   2
#     4  11  25  49  75 108 151 197 254 311 384 457
#     4  12  26  45  78 109 147 199 252 312 386 456
#     4  11  25  49  76 110 150 198 250 315 384 456
#     4  12  25  46  78 107 151 193 251 315 377 449
#     4  12  26  44  74 106 152 196 242 314 376 442
#     4  12  26  48  73 112 148 198 257 316 380 455
#     4  11  26  47  71 106 153 198 253 308 379 460
#     4  11  28  47  73 110 151 203 253 314 384 457
#
# _framework density 24.086969
#
# number of rings (size 3 to 8) (size 9 to 14) (size 15 to 20)
#    0.000    0.533    4.000    2.400    5.600    2.133 
#    0.000    3.333    0.000    0.000    0.000    0.000 
#    0.000    0.000    0.000    0.000    0.000    0.000 
#
# Total GULP energy -83615.931988 kJ/mol
# GULP energy per Si atom -5574.395466 kJ/mol
# Density = 2.403215 g / cm^3
# Si number density = 24.086969 Si / 1000 Ang^3
#
#
#
# Elastic Constant Matrix: (Units=GPa)
#
#
# Indices 1 2 3 4 5 6 
#
# 1 98.2276 36.1401 28.4983 -0.1573 17.4412 -31.1531
# 2 36.1401 142.7762 47.8690 18.2966 -11.0675 -31.1347
# 3 28.4983 47.8690 138.6605 37.4138 10.7629 -8.8038
# 4 -0.1573 18.2966 37.4138 52.1891 -15.5625 -1.9908
# 5 17.4412 -11.0675 10.7629 -15.5625 42.8907 0.0116
# 6 -31.1531 -31.1347 -8.8038 -1.9908 0.0116 33.0914
#
#
#
# Elastic Compliance Matrix: (Units=1/GPa)
#
#
# Indices 1 2 3 4 5 6 
#
# 1 0.016805 -0.001090 -0.001721 0.000246 -0.006597 0.014355
# 2 -0.001090 0.010359 -0.003198 0.000142 0.003968 0.007877
# 3 -0.001721 -0.003198 0.011469 -0.009063 -0.006291 -0.002121
# 4 0.000246 0.000142 -0.009063 0.029443 0.012894 -0.000279
# 5 -0.006597 0.003968 -0.006291 0.012894 0.033280 -0.003387
# 6 0.014355 0.007877 -0.002121 -0.000279 -0.003387 0.050565
#
#
# Mechanical properties :
#
#
# Convention : Reuss Voigt Hill
#
# Bulk Modulus (GPa) = 37.57172 67.18657 52.37915
# Shear Modulus (GPa) = 28.93345 43.44469 36.18907
#
# Velocity S-wave (km/s) = 3.46960 4.25156 3.88033
# Velocity P-wave (km/s) = 5.62877 7.21491 6.47063
#
# Compressibility (1/GPa) = 0.02661576
#
# Stress axis : x y z
#
# Youngs Moduli (GPa) = 59.50588 96.53150 87.19453
#
# Poissons Ratio (x) = 0.10517 0.15004
# Poissons Ratio (y) = 0.06483 0.27888
# Poissons Ratio (z) = 0.10239 0.30875
#
# Static dielectric constant tensor:
#      x y z
#    x 1.984230 0.068270 -0.098410 
#    y 0.068270 1.677200 0.026210 
#    z -0.098410 0.026210 1.934710 
# 
# From -- ./inp_files/381406.got.cif
#   From: 2010.05.17/outbox.cif.g08.bks.cpg/sg2_191_cif.got.tgz:381406.got - 2010.06.03 11:33:40.
