data_PCOD9067951
_publ_section_title
;
Structure prediction by ZEFSAII (Michael W. Deem and Ramdas Pophale) SiO2 
 PCOD9067951
Probable space group: P -1
;
_chemical_formula_sum "Si O2"
_cell_formula_units_Z 16
_cell_length_a 11.890802
_cell_length_b 11.531603
_cell_length_c 14.069873
_cell_angle_alpha 79.472521
_cell_angle_beta 20.167298
_cell_angle_gamma 75.823698
_cell_volume 638.424081
_symmetry_space_group_name_H-M "P -1"
_symmetry_group_IT_number 2
_symmetry_cell_setting 'triclinic'
loop_
_space_group_symop_operation_xyz
x,y,z
-x,-y,-z
loop_
_atom_site_type_symbol
_atom_site_label
_atom_site_fract_x
_atom_site_fract_y
_atom_site_fract_z
Si Si1 0.675565 0.818655 0.621417
Si Si2 0.569174 0.426854 0.103962
Si Si3 0.343001 0.656670 0.153229
Si Si4 0.673198 0.061326 0.691687
Si Si5 0.836081 0.293225 0.237099
Si Si6 0.896768 0.597372 0.151815
Si Si7 0.094507 0.229066 0.236698
Si Si8 0.697604 0.084675 0.281325
O O1 0.552697 0.698913 0.771494
O O2 0.548588 0.831990 0.611327
O O3 0.064136 0.779006 0.347554
O O4 0.567949 0.953489 0.730690
O O5 0.331224 0.560576 0.261802
O O6 0.732065 0.411388 0.872632
O O7 0.826777 0.426989 0.983439
O O8 0.697431 0.697286 0.872961
O O9 0.794066 0.172878 0.525290
O O10 0.371409 0.118448 0.991783
O O11 0.000000 0.000000 0.500000
O O12 0.466107 0.378539 0.516728
O O13 0.792333 0.158307 0.284019
O O14 0.978895 0.312686 0.223526
O O15 0.060405 0.291823 0.965056
O O16 0.000000 0.500000 0.000000
O O17 0.500000 0.000000 0.500000
O O18 0.000000 0.000000 0.000000
#
# Coordination Sequence:
#
# PCOD9067951 Si02
#       8
#     2   2   2   2   2   2   2   2
#     4  12  25  45  75 103 155 190 247 314 372 456
#     4  11  26  48  73 110 146 199 253 311 383 452
#     4  11  26  46  75 107 150 199 250 310 379 451
#     4  12  25  44  73 106 152 196 248 301 386 449
#     4  12  25  48  73 106 147 192 249 308 371 445
#     4  12  26  49  77 106 144 194 253 312 375 441
#     4  12  26  48  73 112 151 196 253 312 372 462
#     4  12  26  45  73 109 146 194 244 304 379 444
#
# _framework density 25.061712
#
# number of rings (size 3 to 8) (size 9 to 14) (size 15 to 20)
#    0.000    0.250    2.500    6.375    3.500    0.000 
#    2.250    0.000    0.000    0.000    0.000    0.000 
#    0.000    0.000    0.000    0.000    0.000    0.000 
#
# Total GULP energy -89374.677604 kJ/mol
# GULP energy per Si atom -5585.917350 kJ/mol
# Density = 2.500467 g / cm^3
# Si number density = 25.061712 Si / 1000 Ang^3
#
#
#
# Elastic Constant Matrix: (Units=GPa)
#
#
# Indices 1 2 3 4 5 6 
#
# 1 155.0106 22.0788 20.0624 4.9997 -28.4848 -8.4701
# 2 22.0788 101.1074 28.9260 -11.6800 -1.5770 11.8390
# 3 20.0624 28.9260 84.6542 2.6540 5.0809 -1.2322
# 4 4.9997 -11.6800 2.6540 37.4761 -3.6356 3.0854
# 5 -28.4848 -1.5770 5.0809 -3.6356 38.0602 -2.4175
# 6 -8.4701 11.8390 -1.2322 3.0854 -2.4175 60.9284
#
#
#
# Elastic Compliance Matrix: (Units=1/GPa)
#
#
# Indices 1 2 3 4 5 6 
#
# 1 0.008172 -0.001494 -0.001750 -0.000960 0.006303 0.001690
# 2 -0.001494 0.012234 -0.004022 0.004552 0.000177 -0.002890
# 3 -0.001750 -0.004022 0.013900 -0.002411 -0.003511 0.000802
# 4 -0.000960 0.004552 -0.002411 0.028833 0.002392 -0.002432
# 5 0.006303 0.000177 -0.003511 0.002392 0.031818 0.001912
# 6 0.001690 -0.002890 0.000802 -0.002432 0.001912 0.017424
#
#
# Mechanical properties :
#
#
# Convention : Reuss Voigt Hill
#
# Bulk Modulus (GPa) = 50.57008 53.65627 52.11318
# Shear Modulus (GPa) = 37.45183 45.27328 41.36255
#
# Velocity S-wave (km/s) = 3.86992 4.25487 4.06695
# Velocity P-wave (km/s) = 6.33959 6.75239 6.54924
#
# Compressibility (1/GPa) = 0.01977454
#
# Stress axis : x y z
#
# Youngs Moduli (GPa) = 122.36773 81.73679 71.94433
#
# Poissons Ratio (x) = 0.12214 0.12588
# Poissons Ratio (y) = 0.18286 0.28934
# Poissons Ratio (z) = 0.21411 0.32872
#
# Static dielectric constant tensor:
#      x y z
#    x 1.802820 0.140650 -0.105420 
#    y 0.140650 1.842730 0.191670 
#    z -0.105420 0.191670 1.834960 
# 
# From -- ./inp_files/519662.got.cif
#   From: 2010.05.17/outbox.cif.g08.bks.cpg/sg2_260_cif.got.tgz:519662.got - 2010.06.03 11:33:40.
