data_PCOD9067013
_publ_section_title
;
Structure prediction by ZEFSAII (Michael W. Deem and Ramdas Pophale) SiO2 
 PCOD9067013
Probable space group: P -1
;
_chemical_formula_sum "Si O2"
_cell_formula_units_Z 12
_cell_length_a 5.071532
_cell_length_b 15.892152
_cell_length_c 12.715525
_cell_angle_alpha 153.318936
_cell_angle_beta 77.273573
_cell_angle_gamma 106.048769
_cell_volume 441.394196
_symmetry_space_group_name_H-M "P -1"
_symmetry_group_IT_number 2
_symmetry_cell_setting 'triclinic'
loop_
_space_group_symop_operation_xyz
x,y,z
-x,-y,-z
loop_
_atom_site_type_symbol
_atom_site_label
_atom_site_fract_x
_atom_site_fract_y
_atom_site_fract_z
Si Si1 0.982333 0.474846 0.098815
Si Si2 0.425110 0.796206 0.398909
Si Si3 0.697432 0.790255 0.573428
Si Si4 0.410623 0.701388 0.708229
Si Si5 0.876980 0.852168 0.987984
Si Si6 0.800759 0.847931 0.221097
O O1 0.285245 0.592897 0.229663
O O2 0.793501 0.596972 0.312051
O O3 0.946477 0.254943 0.885862
O O4 0.000000 0.500000 0.000000
O O5 0.603958 0.884624 0.580933
O O6 0.595138 0.783612 0.264279
O O7 0.203094 0.927121 0.534011
O O8 0.461598 0.741590 0.626024
O O9 0.944218 0.938321 0.771394
O O10 0.500000 0.500000 0.500000
O O11 0.105827 0.726382 0.795387
O O12 0.639092 0.844596 0.915029
O O13 0.741372 0.781048 0.032228
#
# Coordination Sequence:
#
# PCOD9067013 Si02
#       6
#     2   2   2   2   2   2
#     4  12  26  45  73 117 152 207 265 322 396 470
#     4  11  26  47  72 113 155 210 255 331 401 461
#     4  12  27  49  78 111 161 203 270 326 397 474
#     4  12  29  50  81 116 156 210 272 328 401 475
#     4  12  27  50  77 118 154 219 257 331 398 475
#     4  11  25  47  75 107 160 198 266 316 399 471
#
# _framework density 27.186578999999998
#
# number of rings (size 3 to 8) (size 9 to 14) (size 15 to 20)
#    0.000    0.333    3.333    4.000    4.667    5.333 
#    0.000    0.000    0.000    0.000    0.000    0.000 
#    0.000    0.000    0.000    0.000    0.000    0.000 
#
# Total GULP energy -67241.056927 kJ/mol
# GULP energy per Si atom -5603.421411 kJ/mol
# Density = 2.712470 g / cm^3
# Si number density = 27.186579 Si / 1000 Ang^3
#
#
#
# Elastic Constant Matrix: (Units=GPa)
#
#
# Indices 1 2 3 4 5 6 
#
# 1 90.7873 36.1705 43.2705 -9.7760 -6.8311 -6.1265
# 2 36.1705 170.1206 65.7164 -32.5425 -20.9444 0.3593
# 3 43.2705 65.7164 166.6890 -4.8867 -37.1187 -10.5096
# 4 -9.7760 -32.5425 -4.8867 69.6178 -2.3062 -11.2043
# 5 -6.8311 -20.9444 -37.1187 -2.3062 50.6875 1.5532
# 6 -6.1265 0.3593 -10.5096 -11.2043 1.5532 39.5239
#
#
#
# Elastic Compliance Matrix: (Units=1/GPa)
#
#
# Indices 1 2 3 4 5 6 
#
# 1 0.013181 -0.001601 -0.002873 0.001134 -0.000988 0.001654
# 2 -0.001601 0.007931 -0.002268 0.003370 0.001555 -0.000029
# 3 -0.002873 -0.002268 0.008864 -0.000413 0.005099 0.001615
# 4 0.001134 0.003370 -0.000413 0.016896 0.001866 0.004752
# 5 -0.000988 0.001555 0.005099 0.001866 0.024033 0.000773
# 6 0.001654 -0.000029 0.001615 0.004752 0.000773 0.027304
#
#
# Mechanical properties :
#
#
# Convention : Reuss Voigt Hill
#
# Bulk Modulus (GPa) = 60.63297 79.76796 70.20047
# Shear Modulus (GPa) = 42.66536 50.79514 46.73025
#
# Velocity S-wave (km/s) = 3.96580 4.32718 4.15043
# Velocity P-wave (km/s) = 6.58188 7.37364 6.98898
#
# Compressibility (1/GPa) = 0.01649268
#
# Stress axis : x y z
#
# Youngs Moduli (GPa) = 75.86483 126.09132 112.81242
#
# Poissons Ratio (x) = 0.20185 0.32412
# Poissons Ratio (y) = 0.12145 0.25585
# Poissons Ratio (z) = 0.21796 0.28597
#
# Static dielectric constant tensor:
#      x y z
#    x 2.170520 0.032110 0.079800 
#    y 0.032110 2.058450 0.029150 
#    z 0.079800 0.029150 2.178020 
# 
# From -- ./inp_files/60183.got.cif
#   From: 2010.05.17/outbox.cif.g08.bks.cpg/sg2_31_cif.got.tgz:60183.got - 2010.06.03 11:33:40.
