data_PCOD9067545
_publ_section_title
;
Structure prediction by ZEFSAII (Michael W. Deem and Ramdas Pophale) SiO2 
 PCOD9067545
Probable space group: P -1
;
_chemical_formula_sum "Si O2"
_cell_formula_units_Z 16
_cell_length_a 27.606787
_cell_length_b 22.346380
_cell_length_c 10.712828
_cell_angle_alpha 144.922335
_cell_angle_beta 145.336131
_cell_angle_gamma 10.728777
_cell_volume 696.465274
_symmetry_space_group_name_H-M "P -1"
_symmetry_group_IT_number 2
_symmetry_cell_setting 'triclinic'
loop_
_space_group_symop_operation_xyz
x,y,z
-x,-y,-z
loop_
_atom_site_type_symbol
_atom_site_label
_atom_site_fract_x
_atom_site_fract_y
_atom_site_fract_z
Si Si1 0.963739 0.791940 0.423191
Si Si2 0.819539 0.121700 0.888396
Si Si3 0.408916 0.921592 0.482294
Si Si4 0.648143 0.785702 0.152933
Si Si5 0.238838 0.891630 0.993938
Si Si6 0.133784 0.115196 0.911620
Si Si7 0.171464 0.258784 0.813473
Si Si8 0.400464 0.007492 0.240425
O O1 0.893779 0.755714 0.251749
O O2 0.278522 0.446877 0.505912
O O3 0.833289 0.012169 0.631202
O O4 0.873129 0.912838 0.294604
O O5 0.901941 0.994696 0.988299
O O6 0.523929 0.507317 0.932950
O O7 0.000000 0.000000 0.000000
O O8 0.272778 0.974517 0.239137
O O9 0.302603 0.153162 0.594717
O O10 0.331635 0.024284 0.638054
O O11 0.868816 0.484156 0.017197
O O12 0.598145 0.769057 0.135519
O O13 0.371846 0.107877 0.042721
O O14 0.139498 0.014042 0.849798
O O15 0.365877 0.935192 0.109123
O O16 0.894667 0.622595 0.799442
O O17 0.500000 0.000000 0.500000
#
# Coordination Sequence:
#
# PCOD9067545 Si02
#       8
#     2   2   2   2   2   2   2   2
#     4  12  24  44  75 102 137 188 238 284 346 409
#     4  11  25  50  77  98 126 184 238 295 360 425
#     4  12  22  40  72 101 137 191 231 276 333 420
#     4  12  24  40  66 102 148 190 228 271 335 420
#     4  11  27  46  72 103 137 172 237 298 356 410
#     4  12  27  44  66 108 147 181 228 293 346 406
#     4  12  23  42  66 102 145 192 236 271 329 426
#     4  12  26  39  63 101 149 195 233 273 335 405
#
# _framework density 22.973147999999998
#
# number of rings (size 3 to 8) (size 9 to 14) (size 15 to 20)
#    0.000    0.250    7.500    2.250    1.750    2.500 
#    0.000    0.625    0.000    0.000    0.000    0.000 
#    0.000    0.000    0.000    0.000    0.000    0.000 
#
# Total GULP energy -89459.230758 kJ/mol
# GULP energy per Si atom -5591.201922 kJ/mol
# Density = 2.292086 g / cm^3
# Si number density = 22.973148 Si / 1000 Ang^3
#
#
#
# Elastic Constant Matrix: (Units=GPa)
#
#
# Indices 1 2 3 4 5 6 
#
# 1 214.6608 35.7748 22.8301 0.0185 -6.3836 -7.2788
# 2 35.7748 60.9885 16.9913 3.7502 1.3923 -9.0863
# 3 22.8301 16.9913 45.9420 5.9332 -5.2779 -6.7747
# 4 0.0185 3.7502 5.9332 30.8216 -10.4074 -1.6913
# 5 -6.3836 1.3923 -5.2779 -10.4074 33.3609 5.4438
# 6 -7.2788 -9.0863 -6.7747 -1.6913 5.4438 40.6159
#
#
#
# Elastic Compliance Matrix: (Units=1/GPa)
#
#
# Indices 1 2 3 4 5 6 
#
# 1 0.005328 -0.002773 -0.001627 0.001055 0.001216 -0.000056
# 2 -0.002773 0.020374 -0.005748 -0.002397 -0.003607 0.003486
# 3 -0.001627 -0.005748 0.025751 -0.003248 0.002625 0.002231
# 4 0.001055 -0.002397 -0.003248 0.037209 0.011541 -0.000886
# 5 0.001216 -0.003607 0.002625 0.011541 0.035088 -0.004373
# 6 -0.000056 0.003486 0.002231 -0.000886 -0.004373 0.026312
#
#
# Mechanical properties :
#
#
# Convention : Reuss Voigt Hill
#
# Bulk Modulus (GPa) = 32.09542 52.53152 42.31347
# Shear Modulus (GPa) = 27.66376 37.35936 32.51156
#
# Velocity S-wave (km/s) = 3.47389 4.03701 3.76599
# Velocity P-wave (km/s) = 5.48559 6.68177 6.11301
#
# Compressibility (1/GPa) = 0.03115709
#
# Stress axis : x y z
#
# Youngs Moduli (GPa) = 187.69328 49.08334 38.83382
#
# Poissons Ratio (x) = 0.13611 0.06318
# Poissons Ratio (y) = 0.52047 0.22321
# Poissons Ratio (z) = 0.30534 0.28212
#
# Static dielectric constant tensor:
#      x y z
#    x 1.951100 0.038420 -0.029410 
#    y 0.038420 1.852500 -0.030930 
#    z -0.029410 -0.030930 1.920140 
# 
# From -- ./inp_files/477777.got.cif
#   From: 2010.05.17/outbox.cif.g08.bks.cpg/sg2_239_cif.got.tgz:477777.got - 2010.06.03 11:33:40.
