data_PCOD9067303
_publ_section_title
;
Structure prediction by ZEFSAII (Michael W. Deem and Ramdas Pophale) SiO2 
 PCOD9067303
Probable space group: P -1
;
_chemical_formula_sum "Si O2"
_cell_formula_units_Z 10
_cell_length_a 9.260660
_cell_length_b 5.482528
_cell_length_c 16.138868
_cell_angle_alpha 109.687597
_cell_angle_beta 142.949450
_cell_angle_gamma 57.921389
_cell_volume 412.211322
_symmetry_space_group_name_H-M "P -1"
_symmetry_group_IT_number 2
_symmetry_cell_setting 'triclinic'
loop_
_space_group_symop_operation_xyz
x,y,z
-x,-y,-z
loop_
_atom_site_type_symbol
_atom_site_label
_atom_site_fract_x
_atom_site_fract_y
_atom_site_fract_z
Si Si1 0.759125 0.406318 0.376151
Si Si2 0.561811 0.685367 0.632304
Si Si3 0.083145 0.930785 0.344076
Si Si4 0.648957 0.151210 0.036402
Si Si5 0.298955 0.951739 0.136985
O O1 0.633442 0.391752 0.405904
O O2 0.000000 0.500000 0.500000
O O3 0.516563 0.643995 0.238008
O O4 0.878383 0.099942 0.344812
O O5 0.359616 0.926444 0.502921
O O6 0.790585 0.414797 0.656869
O O7 0.693472 0.810988 0.771640
O O8 0.929381 0.071514 0.204409
O O9 0.500000 0.500000 0.000000
O O10 0.500000 0.000000 0.000000
O O11 0.647204 0.025917 0.931048
O O12 0.000000 0.000000 0.000000
#
# Coordination Sequence:
#
# PCOD9067303 Si02
#       5
#     2   2   2   2   2
#     4  12  25  47  79 113 153 206 264 327 408 482
#     4  11  27  49  75 116 157 203 268 336 394 488
#     4  11  25  48  77 112 152 206 264 329 405 475
#     4  12  28  48  78 116 158 210 271 330 406 489
#     4  12  28  50  77 112 162 211 266 336 406 478
#
# _framework density 24.259405000000001
#
# number of rings (size 3 to 8) (size 9 to 14) (size 15 to 20)
#    0.000    0.400    4.000    3.000    5.600    2.400 
#    3.600    0.000    0.000    0.000    0.000    0.000 
#    0.000    0.000    0.000    0.000    0.000    0.000 
#
# Total GULP energy -55899.224251 kJ/mol
# GULP energy per Si atom -5589.922425 kJ/mol
# Density = 2.420419 g / cm^3
# Si number density = 24.259405 Si / 1000 Ang^3
#
#
#
# Elastic Constant Matrix: (Units=GPa)
#
#
# Indices 1 2 3 4 5 6 
#
# 1 133.5705 71.3781 61.5218 4.8063 -12.6002 -3.5347
# 2 71.3781 144.9729 65.4305 15.3746 5.1979 -40.8076
# 3 61.5218 65.4305 244.5795 1.3041 -9.4773 0.3373
# 4 4.8063 15.3746 1.3041 62.6677 -4.9526 -6.2228
# 5 -12.6002 5.1979 -9.4773 -4.9526 42.8559 12.3202
# 6 -3.5347 -40.8076 0.3373 -6.2228 12.3202 41.8881
#
#
#
# Elastic Compliance Matrix: (Units=1/GPa)
#
#
# Indices 1 2 3 4 5 6 
#
# 1 0.013375 -0.009807 -0.000413 0.000976 0.008218 -0.010694
# 2 -0.009807 0.020406 -0.003508 -0.002974 -0.012929 0.022441
# 3 -0.000413 -0.003508 0.005240 0.000581 0.002742 -0.004215
# 4 0.000976 -0.002974 0.000581 0.016719 0.003064 -0.001238
# 5 0.008218 -0.012929 0.002742 0.003064 0.034492 -0.021614
# 6 -0.010694 0.022441 -0.004215 -0.001238 -0.021614 0.051040
#
#
# Mechanical properties :
#
#
# Convention : Reuss Voigt Hill
#
# Bulk Modulus (GPa) = 86.47523 102.19820 94.33671
# Shear Modulus (GPa) = 28.97169 51.13520 40.05344
#
# Velocity S-wave (km/s) = 3.45953 4.59611 4.06772
# Velocity P-wave (km/s) = 7.18897 8.38954 7.81235
#
# Compressibility (1/GPa) = 0.01156401
#
# Stress axis : x y z
#
# Youngs Moduli (GPa) = 74.76777 49.00623 190.84413
#
# Poissons Ratio (x) = 0.48062 0.07875
# Poissons Ratio (y) = 0.73328 0.66949
# Poissons Ratio (z) = 0.03085 0.17192
#
# Static dielectric constant tensor:
#      x y z
#    x 1.782360 0.025110 0.044000 
#    y 0.025110 1.952610 0.039870 
#    z 0.044000 0.039870 1.939680 
# 
# From -- ./inp_files/22818.got.cif
#   From: 2010.05.17/outbox.cif.g08.bks.cpg/sg2_12_cif.got.tgz:22818.got - 2010.06.03 11:33:40.
