data_PCOD9067082
_publ_section_title
;
Structure prediction by ZEFSAII (Michael W. Deem and Ramdas Pophale) SiO2 
 PCOD9067082
Probable space group: P -1
;
_chemical_formula_sum "Si O2"
_cell_formula_units_Z 14
_cell_length_a 5.331866
_cell_length_b 20.299336
_cell_length_c 9.649741
_cell_angle_alpha 37.360286
_cell_angle_beta 88.494873
_cell_angle_gamma 105.457626
_cell_volume 557.943266
_symmetry_space_group_name_H-M "P -1"
_symmetry_group_IT_number 2
_symmetry_cell_setting 'triclinic'
loop_
_space_group_symop_operation_xyz
x,y,z
-x,-y,-z
loop_
_atom_site_type_symbol
_atom_site_label
_atom_site_fract_x
_atom_site_fract_y
_atom_site_fract_z
Si Si1 0.748650 0.635507 0.250296
Si Si2 0.386823 0.133169 0.810454
Si Si3 0.083600 0.520078 0.126901
Si Si4 0.417682 0.231228 0.181486
Si Si5 0.170339 0.012490 0.753556
Si Si6 0.568390 0.627226 0.553227
Si Si7 0.692574 0.191958 0.983918
O O1 0.500000 0.500000 0.500000
O O2 0.678667 0.691677 0.294311
O O3 0.728720 0.694721 0.009706
O O4 0.070379 0.668383 0.217190
O O5 0.405311 0.065304 0.786031
O O6 0.364799 0.253402 0.555298
O O7 0.637389 0.186565 0.829511
O O8 0.120174 0.044291 0.059411
O O9 0.255287 0.443781 0.288551
O O10 0.770588 0.463143 0.296381
O O11 0.295509 0.661720 0.929636
O O12 0.000000 0.500000 0.000000
O O13 0.225010 0.126066 0.465998
O O14 0.474153 0.167066 0.153009
O O15 0.199085 0.909545 0.835864
#
# Coordination Sequence:
#
# PCOD9067082 Si02
#       7
#     2   2   2   2   2   2   2
#     4  12  25  44  73 106 147 196 253 313 386 456
#     4  11  25  47  78 106 146 203 258 319 379 467
#     4  12  28  49  77 115 156 201 256 325 394 461
#     4  12  27  44  73 110 152 198 254 319 387 459
#     4  11  26  48  69 109 150 201 258 315 389 456
#     4  12  24  48  79 107 152 199 260 314 387 461
#     4  12  24  47  72 107 149 203 257 315 382 462
#
# _framework density 25.092157
#
# number of rings (size 3 to 8) (size 9 to 14) (size 15 to 20)
#    0.000    0.286    4.286    3.857    0.000    4.571 
#    5.143    0.000    0.000    0.000    0.000    0.000 
#    0.000    0.000    0.000    0.000    0.000    0.000 
#
# Total GULP energy -78247.606740 kJ/mol
# GULP energy per Si atom -5589.114767 kJ/mol
# Density = 2.503505 g / cm^3
# Si number density = 25.092157 Si / 1000 Ang^3
#
#
#
# Elastic Constant Matrix: (Units=GPa)
#
#
# Indices 1 2 3 4 5 6 
#
# 1 91.7497 17.7408 46.3575 -7.6128 8.1675 11.2032
# 2 17.7408 115.5751 30.8119 -3.6235 11.5173 9.6518
# 3 46.3575 30.8119 146.6083 -14.0570 15.4759 9.5066
# 4 -7.6128 -3.6235 -14.0570 36.0261 4.7619 6.6708
# 5 8.1675 11.5173 15.4759 4.7619 29.2085 1.9685
# 6 11.2032 9.6518 9.5066 6.6708 1.9685 44.5690
#
#
#
# Elastic Compliance Matrix: (Units=1/GPa)
#
#
# Indices 1 2 3 4 5 6 
#
# 1 0.013494 -0.000648 -0.003558 0.002142 -0.001797 -0.002734
# 2 -0.000648 0.009560 -0.001286 0.001021 -0.002962 -0.001655
# 3 -0.003558 -0.001286 0.008999 0.003324 -0.003735 -0.001079
# 4 0.002142 0.001021 0.003324 0.031694 -0.007533 -0.005879
# 5 -0.001797 -0.002962 -0.003735 -0.007533 0.039027 0.001294
# 6 -0.002734 -0.001655 -0.001079 -0.005879 0.001294 0.024536
#
#
# Mechanical properties :
#
#
# Convention : Reuss Voigt Hill
#
# Bulk Modulus (GPa) = 47.46607 60.41704 53.94156
# Shear Modulus (GPa) = 34.40724 39.22893 36.81809
#
# Velocity S-wave (km/s) = 3.70704 3.95827 3.83471
# Velocity P-wave (km/s) = 6.10578 6.70976 6.41488
#
# Compressibility (1/GPa) = 0.02106768
#
# Stress axis : x y z
#
# Youngs Moduli (GPa) = 74.10776 104.60055 111.11990
#
# Poissons Ratio (x) = 0.06780 0.39539
# Poissons Ratio (y) = 0.04803 0.14295
# Poissons Ratio (z) = 0.26369 0.13457
#
# Static dielectric constant tensor:
#      x y z
#    x 2.194700 0.025220 0.006660 
#    y 0.025220 2.136930 -0.040560 
#    z 0.006660 -0.040560 1.946870 
# 
# From -- ./inp_files/141022.got.cif
#   From: 2010.05.17/outbox.cif.g08.bks.cpg/sg2_71_cif.got.tgz:141022.got - 2010.06.03 11:33:40.
