data_PCOD9067968
_publ_section_title
;
Structure prediction by ZEFSAII (Michael W. Deem and Ramdas Pophale) SiO2 
 PCOD9067968
Probable space group: P -1
;
_chemical_formula_sum "Si O2"
_cell_formula_units_Z 14
_cell_length_a 11.607385
_cell_length_b 10.101849
_cell_length_c 14.039350
_cell_angle_alpha 131.027821
_cell_angle_beta 30.696999
_cell_angle_gamma 123.780074
_cell_volume 633.823518
_symmetry_space_group_name_H-M "P -1"
_symmetry_group_IT_number 2
_symmetry_cell_setting 'triclinic'
loop_
_space_group_symop_operation_xyz
x,y,z
-x,-y,-z
loop_
_atom_site_type_symbol
_atom_site_label
_atom_site_fract_x
_atom_site_fract_y
_atom_site_fract_z
Si Si1 0.780405 0.523678 0.102313
Si Si2 0.627181 0.439096 0.977434
Si Si3 0.488498 0.323831 0.358691
Si Si4 0.774135 0.963759 0.034287
Si Si5 0.284434 0.106191 0.741158
Si Si6 0.969834 0.804745 0.460907
Si Si7 0.173688 0.332980 0.304774
O O1 0.803856 0.515400 0.966089
O O2 0.615765 0.385607 0.202134
O O3 0.705963 0.725591 0.254956
O O4 0.000000 0.500000 0.000000
O O5 0.414142 0.418452 0.186867
O O6 0.500000 0.500000 0.000000
O O7 0.779702 0.276755 0.760282
O O8 0.500000 0.500000 0.500000
O O9 0.228177 0.281519 0.501664
O O10 0.618480 0.140969 0.211608
O O11 0.695514 0.880919 0.151740
O O12 0.783595 0.802137 0.876559
O O13 0.034477 0.025772 0.874802
O O14 0.500000 0.000000 0.500000
O O15 0.892875 0.782352 0.613168
O O16 0.000000 0.000000 0.500000
O O17 0.000000 0.500000 0.500000
#
# Coordination Sequence:
#
# PCOD9067968 Si02
#       7
#     2   2   2   2   2   2   2
#     4  12  25  46  77 112 153 200 256 326 397 468
#     4  12  26  48  77 110 153 203 263 321 392 475
#     4  12  26  49  78 114 159 208 266 332 407 479
#     4  11  27  47  74 112 160 201 266 329 397 477
#     4  11  26  46  76 110 154 206 260 327 400 479
#     4  12  29  47  78 113 156 209 268 334 403 473
#     4  12  27  48  75 109 156 209 265 322 396 484
#
# _framework density 22.088168
#
# number of rings (size 3 to 8) (size 9 to 14) (size 15 to 20)
#    0.000    0.286    4.286    3.429    4.000    5.714 
#    0.000    0.000    0.000    0.000    0.000    0.000 
#    0.000    0.000    0.000    0.000    0.000    0.000 
#
# Total GULP energy -77946.467522 kJ/mol
# GULP energy per Si atom -5567.604823 kJ/mol
# Density = 2.203789 g / cm^3
# Si number density = 22.088168 Si / 1000 Ang^3
#
#
#
# Elastic Constant Matrix: (Units=GPa)
#
#
# Indices 1 2 3 4 5 6 
#
# 1 151.5089 51.4506 67.4474 32.7560 -13.2693 -21.4429
# 2 51.4506 123.2945 43.2574 14.8980 -22.5648 -33.5176
# 3 67.4474 43.2574 168.5488 21.7381 -33.2043 -17.4277
# 4 32.7560 14.8980 21.7381 43.3903 -0.4597 -2.7316
# 5 -13.2693 -22.5648 -33.2043 -0.4597 38.5837 1.7103
# 6 -21.4429 -33.5176 -17.4277 -2.7316 1.7103 42.2646
#
#
#
# Elastic Compliance Matrix: (Units=1/GPa)
#
#
# Indices 1 2 3 4 5 6 
#
# 1 0.009856 -0.002068 -0.002556 -0.005328 -0.000171 0.001969
# 2 -0.002068 0.012758 -0.000023 -0.002195 0.006320 0.008661
# 3 -0.002556 -0.000023 0.008728 -0.002248 0.006509 0.001875
# 4 -0.005328 -0.002195 -0.002248 0.028690 -0.004561 -0.003332
# 5 -0.000171 0.006320 0.006509 -0.004561 0.034840 0.005905
# 6 0.001969 0.008661 0.001875 -0.003332 0.005905 0.031847
#
#
# Mechanical properties :
#
#
# Convention : Reuss Voigt Hill
#
# Bulk Modulus (GPa) = 45.35649 85.29589 65.32619
# Shear Modulus (GPa) = 34.87618 43.59418 39.23518
#
# Velocity S-wave (km/s) = 3.97792 4.44739 4.21919
# Velocity P-wave (km/s) = 6.45579 8.06674 7.30581
#
# Compressibility (1/GPa) = 0.02204756
#
# Stress axis : x y z
#
# Youngs Moduli (GPa) = 101.45981 78.37940 114.57693
#
# Poissons Ratio (x) = 0.16212 0.29288
# Poissons Ratio (y) = 0.20986 0.00262
# Poissons Ratio (z) = 0.25935 0.00179
#
# Static dielectric constant tensor:
#      x y z
#    x 1.883680 0.038320 0.107660 
#    y 0.038320 1.865710 0.074670 
#    z 0.107660 0.074670 1.780370 
# 
# From -- ./inp_files/516183.got.cif
#   From: 2010.05.17/outbox.cif.g08.bks.cpg/sg2_259_cif.got.tgz:516183.got - 2010.06.03 11:33:40.
