data_PCOD9067560
_publ_section_title
;
Structure prediction by ZEFSAII (Michael W. Deem and Ramdas Pophale) SiO2 
 PCOD9067560
Probable space group: P -1
;
_chemical_formula_sum "Si O2"
_cell_formula_units_Z 11
_cell_length_a 8.448734
_cell_length_b 5.105048
_cell_length_c 14.355647
_cell_angle_alpha 119.813768
_cell_angle_beta 52.580627
_cell_angle_gamma 113.916007
_cell_volume 421.849518
_symmetry_space_group_name_H-M "P -1"
_symmetry_group_IT_number 2
_symmetry_cell_setting 'triclinic'
loop_
_space_group_symop_operation_xyz
x,y,z
-x,-y,-z
loop_
_atom_site_type_symbol
_atom_site_label
_atom_site_fract_x
_atom_site_fract_y
_atom_site_fract_z
Si Si1 0.919081 0.966179 0.418358
Si Si2 0.257598 0.574250 0.728988
Si Si3 0.721211 0.763991 0.795497
Si Si4 0.000000 0.000000 0.000000
Si Si5 0.536536 0.169258 0.661966
Si Si6 0.381312 0.177185 0.961243
O O1 0.863921 0.615854 0.344128
O O2 0.715847 0.116406 0.518955
O O3 0.000000 0.000000 0.500000
O O4 0.089505 0.130746 0.318204
O O5 0.374187 0.337755 0.698947
O O6 0.100563 0.702203 0.875989
O O7 0.427223 0.842651 0.678143
O O8 0.644610 0.403367 0.744069
O O9 0.531792 0.931823 0.863040
O O10 0.767581 0.886847 0.906299
O O11 0.774814 0.800430 0.060107
O O12 0.500000 0.500000 0.000000
#
# Coordination Sequence:
#
# PCOD9067560 Si02
#       6
#     2   2   2   1   2   2
#     4  12  29  51  82 118 165 223 269 337 417 498
#     4  12  29  52  80 119 163 212 284 340 414 494
#     4  11  26  49  79 115 161 209 277 333 422 480
#     4  12  26  48  86 110 160 210 278 340 420 474
#     4  12  27  52  78 117 166 215 268 342 407 498
#     4  11  25  50  78 117 162 210 270 355 402 497
#
# _framework density 26.075648999999999
#
# number of rings (size 3 to 8) (size 9 to 14) (size 15 to 20)
#    0.000    0.364    1.818    4.909    7.636    3.636 
#    0.000    0.000    0.000    0.000    0.000    0.000 
#    0.000    0.000    0.000    0.000    0.000    0.000 
#
# Total GULP energy -61457.000664 kJ/mol
# GULP energy per Si atom -5587.000060 kJ/mol
# Density = 2.601630 g / cm^3
# Si number density = 26.075649 Si / 1000 Ang^3
#
#
#
# Elastic Constant Matrix: (Units=GPa)
#
#
# Indices 1 2 3 4 5 6 
#
# 1 64.2622 3.1993 25.9494 -2.2363 -24.3610 -12.8805
# 2 3.1993 107.1452 13.6765 7.4396 15.6369 13.5299
# 3 25.9494 13.6765 171.3755 10.8092 -13.7428 -9.6306
# 4 -2.2363 7.4396 10.8092 55.3113 -1.2803 1.0826
# 5 -24.3610 15.6369 -13.7428 -1.2803 45.3009 2.1012
# 6 -12.8805 13.5299 -9.6306 1.0826 2.1012 45.3326
#
#
#
# Elastic Compliance Matrix: (Units=1/GPa)
#
#
# Indices 1 2 3 4 5 6 
#
# 1 0.022520 -0.003160 -0.001929 0.001875 0.012376 0.006314
# 2 -0.003160 0.010996 -0.000990 -0.001464 -0.005647 -0.004093
# 3 -0.001929 -0.000990 0.006437 -0.001197 0.001173 0.001089
# 4 0.001875 -0.001464 -0.001197 0.018621 0.001668 0.000194
# 5 0.012376 -0.005647 0.001173 0.001668 0.030897 0.003979
# 6 0.006314 -0.004093 0.001089 0.000194 0.003979 0.025117
#
#
# Mechanical properties :
#
#
# Convention : Reuss Voigt Hill
#
# Bulk Modulus (GPa) = 35.97567 47.60372 41.78970
# Shear Modulus (GPa) = 36.76188 49.18613 42.97401
#
# Velocity S-wave (km/s) = 3.75883 4.34785 4.06402
# Velocity P-wave (km/s) = 5.71533 6.59551 6.17113
#
# Compressibility (1/GPa) = 0.02779656
#
# Stress axis : x y z
#
# Youngs Moduli (GPa) = 44.40559 90.93864 155.35409
#
# Poissons Ratio (x) = 0.28735 0.29964
# Poissons Ratio (y) = 0.14031 0.15374
# Poissons Ratio (z) = 0.08565 0.08999
#
# Static dielectric constant tensor:
#      x y z
#    x 2.114030 0.016210 0.134080 
#    y 0.016210 1.994240 -0.005920 
#    z 0.134080 -0.005920 2.134540 
# 
# From -- ./inp_files/487362.got.cif
#   From: 2010.05.17/outbox.cif.g08.bks.cpg/sg2_244_cif.got.tgz:487362.got - 2010.06.03 11:33:40.
