data_PCOD9067336
_publ_section_title
;
Structure prediction by ZEFSAII (Michael W. Deem and Ramdas Pophale) SiO2 
 PCOD9067336
Probable space group: P -1
;
_chemical_formula_sum "Si O2"
_cell_formula_units_Z 6
_cell_length_a 9.577308
_cell_length_b 6.136536
_cell_length_c 5.265116
_cell_angle_alpha 99.368561
_cell_angle_beta 75.924200
_cell_angle_gamma 50.382166
_cell_volume 209.242582
_symmetry_space_group_name_H-M "P -1"
_symmetry_group_IT_number 2
_symmetry_cell_setting 'triclinic'
loop_
_space_group_symop_operation_xyz
x,y,z
-x,-y,-z
loop_
_atom_site_type_symbol
_atom_site_label
_atom_site_fract_x
_atom_site_fract_y
_atom_site_fract_z
Si Si1 0.764109 0.235522 0.720140
Si Si2 0.416859 0.321831 0.698402
Si Si3 0.995243 0.655905 0.780877
O O1 0.608081 0.280079 0.614606
O O2 0.664752 0.558903 0.952411
O O3 0.000000 0.000000 0.500000
O O4 0.799033 0.024280 0.904038
O O5 0.204826 0.568968 0.685344
O O6 0.500000 0.000000 0.500000
O O7 0.000000 0.500000 0.500000
O O8 0.000000 0.500000 0.000000
#
# Coordination Sequence:
#
# PCOD9067336 Si02
#       3
#     2   2   2
#     4  11  26  51  79 116 160 208 267 333 399 478
#     4  11  25  48  79 117 154 212 267 327 401 480
#     4  12  26  50  80 116 162 212 264 332 404 482
#
# _framework density 28.674849999999999
#
# number of rings (size 3 to 8) (size 9 to 14) (size 15 to 20)
#    0.000    0.667    3.333    3.000    0.000    2.667 
#   12.000    0.000    0.000    0.000    0.000    0.000 
#    0.000    0.000    0.000    0.000    0.000    0.000 
#
# Total GULP energy -33604.691547 kJ/mol
# GULP energy per Si atom -5600.781925 kJ/mol
# Density = 2.860958 g / cm^3
# Si number density = 28.674850 Si / 1000 Ang^3
#
#
#
# Elastic Constant Matrix: (Units=GPa)
#
#
# Indices 1 2 3 4 5 6 
#
# 1 337.3649 60.1045 112.2359 8.7101 20.8483 -49.6740
# 2 60.1045 148.6273 35.4690 4.0541 10.9009 -49.2996
# 3 112.2359 35.4690 194.5499 23.0933 23.8295 6.0626
# 4 8.7101 4.0541 23.0933 54.7649 7.5776 9.8651
# 5 20.8483 10.9009 23.8295 7.5776 80.0350 8.5504
# 6 -49.6740 -49.2996 6.0626 9.8651 8.5504 64.3010
#
#
#
# Elastic Compliance Matrix: (Units=1/GPa)
#
#
# Indices 1 2 3 4 5 6 
#
# 1 0.004429 0.000210 -0.002590 -0.000230 -0.000814 0.003970
# 2 0.000210 0.010050 -0.001862 -0.001288 -0.001651 0.008460
# 3 -0.002590 -0.001862 0.007390 -0.001792 -0.000701 -0.003757
# 4 -0.000230 -0.001288 -0.001792 0.019958 -0.000697 -0.003966
# 5 -0.000814 -0.001651 -0.000701 -0.000697 0.013583 -0.003528
# 6 0.003970 0.008460 -0.003757 -0.003966 -0.003528 0.026537
#
#
# Mechanical properties :
#
#
# Convention : Reuss Voigt Hill
#
# Bulk Modulus (GPa) = 74.71363 121.79565 98.25464
# Shear Modulus (GPa) = 52.69047 71.33569 62.01308
#
# Velocity S-wave (km/s) = 4.29128 4.99314 4.65545
# Velocity P-wave (km/s) = 7.11796 8.70683 7.95218
#
# Compressibility (1/GPa) = 0.01338444
#
# Stress axis : x y z
#
# Youngs Moduli (GPa) = 225.76746 99.50053 135.32659
#
# Poissons Ratio (x) = -0.02088 0.35053
# Poissons Ratio (y) = -0.04738 0.25197
# Poissons Ratio (z) = 0.58480 0.18526
#
# Static dielectric constant tensor:
#      x y z
#    x 2.197230 0.165900 -0.158150 
#    y 0.165900 2.371950 -0.302070 
#    z -0.158150 -0.302070 2.586580 
# 
# From -- ./inp_files/1192.got.cif
#   From: 2010.05.17/outbox.cif.g08.bks.cpg/sg2_1_cif.got.tgz:1192.got - 2010.06.03 11:33:40.
