data_PCOD9067356
_publ_section_title
;
Structure prediction by ZEFSAII (Michael W. Deem and Ramdas Pophale) SiO2 
 PCOD9067356
Probable space group: P -1
;
_chemical_formula_sum "Si O2"
_cell_formula_units_Z 16
_cell_length_a 11.301088
_cell_length_b 11.933222
_cell_length_c 6.586569
_cell_angle_alpha 110.791832
_cell_angle_beta 57.426980
_cell_angle_gamma 101.750772
_cell_volume 699.700813
_symmetry_space_group_name_H-M "P -1"
_symmetry_group_IT_number 2
_symmetry_cell_setting 'triclinic'
loop_
_space_group_symop_operation_xyz
x,y,z
-x,-y,-z
loop_
_atom_site_type_symbol
_atom_site_label
_atom_site_fract_x
_atom_site_fract_y
_atom_site_fract_z
Si Si1 0.313163 0.675549 0.347665
Si Si2 0.731105 0.856398 0.217904
Si Si3 0.026297 0.299554 0.961874
Si Si4 0.597837 0.703161 0.880846
Si Si5 0.211521 0.884452 0.780947
Si Si6 0.511089 0.109630 0.215626
Si Si7 0.889591 0.451892 0.850325
Si Si8 0.657856 0.489504 0.428616
O O1 0.277726 0.815498 0.481841
O O2 0.326011 0.631308 0.537175
O O3 0.462316 0.652444 0.093008
O O4 0.191159 0.605766 0.298650
O O5 0.595562 0.894541 0.497877
O O6 0.825303 0.766056 0.202864
O O7 0.815375 0.978076 0.161474
O O8 0.682427 0.786706 0.014359
O O9 0.030954 0.421169 0.172444
O O10 0.916224 0.199641 0.079747
O O11 0.981653 0.353363 0.819681
O O12 0.533802 0.777021 0.801877
O O13 0.683447 0.595837 0.634882
O O14 0.332302 0.887449 0.841465
O O15 0.500000 0.000000 0.000000
O O16 0.767191 0.487878 0.145396
O O17 0.500000 0.500000 0.500000
#
# Coordination Sequence:
#
# PCOD9067356 Si02
#       8
#     2   2   2   2   2   2   2   2
#     4  12  24  43  73 106 140 189 233 293 362 413
#     4  12  26  47  71 108 145 183 241 292 350 431
#     4  11  26  49  72  98 149 192 235 292 351 424
#     4  12  24  40  73 108 142 182 231 301 361 409
#     4  12  24  48  72 103 146 187 237 291 354 429
#     4  12  24  46  74 106 138 182 237 294 356 413
#     4  11  25  49  71 101 145 191 240 291 354 422
#     4  12  24  41  72 109 142 177 238 301 354 415
#
# _framework density 22.866917000000001
#
# number of rings (size 3 to 8) (size 9 to 14) (size 15 to 20)
#    0.000    0.250    5.000    4.875    1.750    0.500 
#    6.750    1.250    0.000    0.000    0.000    0.000 
#    0.000    0.000    0.000    0.000    0.000    0.000 
#
# Total GULP energy -89614.942835 kJ/mol
# GULP energy per Si atom -5600.933927 kJ/mol
# Density = 2.281487 g / cm^3
# Si number density = 22.866917 Si / 1000 Ang^3
#
#
#
# Elastic Constant Matrix: (Units=GPa)
#
#
# Indices 1 2 3 4 5 6 
#
# 1 120.2483 48.4503 24.9956 5.3829 12.6672 -1.2238
# 2 48.4503 140.4108 24.9527 10.1823 8.7135 -1.4009
# 3 24.9956 24.9527 94.0714 11.9310 7.6197 13.7234
# 4 5.3829 10.1823 11.9310 35.3624 13.4837 -5.3078
# 5 12.6672 8.7135 7.6197 13.4837 31.6012 7.1846
# 6 -1.2238 -1.4009 13.7234 -5.3078 7.1846 42.0713
#
#
#
# Elastic Compliance Matrix: (Units=1/GPa)
#
#
# Indices 1 2 3 4 5 6 
#
# 1 0.010343 -0.003061 -0.002104 0.001799 -0.003969 0.001790
# 2 -0.003061 0.008538 -0.001330 -0.001329 -0.000358 0.000523
# 3 -0.002104 -0.001330 0.012803 -0.004918 0.001390 -0.005140
# 4 0.001799 -0.001329 -0.004918 0.038174 -0.017602 0.009434
# 5 -0.003969 -0.000358 0.001390 -0.017602 0.042809 -0.010112
# 6 0.001790 0.000523 -0.005140 0.009434 -0.010112 0.028432
#
#
# Mechanical properties :
#
#
# Convention : Reuss Voigt Hill
#
# Bulk Modulus (GPa) = 53.49472 61.28085 57.38779
# Shear Modulus (GPa) = 31.18742 38.89579 35.04160
#
# Velocity S-wave (km/s) = 3.69706 4.12875 3.91885
# Velocity P-wave (km/s) = 6.45516 7.04172 6.75481
#
# Compressibility (1/GPa) = 0.01869343
#
# Stress axis : x y z
#
# Youngs Moduli (GPa) = 96.68664 117.11693 78.10675
#
# Poissons Ratio (x) = 0.35853 0.16433
# Poissons Ratio (y) = 0.29598 0.10390
# Poissons Ratio (z) = 0.20342 0.15579
#
# Static dielectric constant tensor:
#      x y z
#    x 1.847400 0.018960 -0.035700 
#    y 0.018960 1.887390 0.000250 
#    z -0.035700 0.000250 1.865130 
# 
# From -- ./inp_files/71673.got.cif
#   From: 2010.05.17/outbox.cif.g08.bks.cpg/sg2_36_cif.got.tgz:71673.got - 2010.06.03 11:33:40.
