data_PCOD9067091
_publ_section_title
;
Structure prediction by ZEFSAII (Michael W. Deem and Ramdas Pophale) SiO2 
 PCOD9067091
Probable space group: P -1
;
_chemical_formula_sum "Si O2"
_cell_formula_units_Z 14
_cell_length_a 8.468090
_cell_length_b 8.442709
_cell_length_c 12.525563
_cell_angle_alpha 101.764175
_cell_angle_beta 62.862304
_cell_angle_gamma 61.273524
_cell_volume 587.201874
_symmetry_space_group_name_H-M "P -1"
_symmetry_group_IT_number 2
_symmetry_cell_setting 'triclinic'
loop_
_space_group_symop_operation_xyz
x,y,z
-x,-y,-z
loop_
_atom_site_type_symbol
_atom_site_label
_atom_site_fract_x
_atom_site_fract_y
_atom_site_fract_z
Si Si1 0.713224 0.766396 0.357923
Si Si2 0.212074 0.614523 0.148260
Si Si3 0.512232 0.635349 0.761123
Si Si4 0.785285 0.491496 0.108252
Si Si5 0.687258 0.923469 0.077181
Si Si6 0.253189 0.564491 0.550366
Si Si7 0.236842 0.984839 0.170970
O O1 0.682080 0.696332 0.242842
O O2 0.765250 0.590639 0.400106
O O3 0.941669 0.740253 0.273585
O O4 0.500000 0.000000 0.500000
O O5 0.365112 0.439575 0.170447
O O6 0.247694 0.785618 0.155316
O O7 0.263694 0.507856 0.001762
O O8 0.324448 0.603707 0.816863
O O9 0.714224 0.483965 0.591867
O O10 0.377827 0.880948 0.806113
O O11 0.930834 0.687764 0.994736
O O12 0.454842 0.952290 0.150817
O O13 0.740589 0.972119 0.952444
O O14 0.500000 0.500000 0.500000
O O15 0.017495 0.805861 0.679408
#
# Coordination Sequence:
#
# PCOD9067091 Si02
#       7
#     2   2   2   2   2   2   2
#     4  12  28  50  78 114 153 201 256 317 387 455
#     4  12  29  48  75 118 157 197 257 323 380 453
#     4  12  27  49  80 114 155 203 256 318 383 455
#     4  12  26  49  80 113 153 198 258 314 387 454
#     4  11  25  47  78 112 150 207 256 310 381 462
#     4  12  25  51  79 110 157 206 259 313 385 463
#     4  11  25  47  79 111 156 201 258 316 382 453
#
# _framework density 23.841885999999999
#
# number of rings (size 3 to 8) (size 9 to 14) (size 15 to 20)
#    0.000    0.286    4.286    3.000    6.000    4.000 
#    0.000    0.000    0.000    0.000    0.000    0.000 
#    0.000    0.000    0.000    0.000    0.000    0.000 
#
# Total GULP energy -78466.694059 kJ/mol
# GULP energy per Si atom -5604.763861 kJ/mol
# Density = 2.378762 g / cm^3
# Si number density = 23.841886 Si / 1000 Ang^3
#
#
#
# Elastic Constant Matrix: (Units=GPa)
#
#
# Indices 1 2 3 4 5 6 
#
# 1 128.2889 53.3775 83.1270 13.6388 -23.7115 17.8291
# 2 53.3775 132.1567 74.2601 15.5253 3.3369 -1.2062
# 3 83.1270 74.2601 202.7451 24.1515 -14.9977 -3.5666
# 4 13.6388 15.5253 24.1515 60.2961 -2.2101 -4.0375
# 5 -23.7115 3.3369 -14.9977 -2.2101 43.6803 -4.5910
# 6 17.8291 -1.2062 -3.5666 -4.0375 -4.5910 44.8375
#
#
#
# Elastic Compliance Matrix: (Units=1/GPa)
#
#
# Indices 1 2 3 4 5 6 
#
# 1 0.013626 -0.003403 -0.003918 -0.000783 0.005714 -0.005307
# 2 -0.003403 0.010627 -0.002623 -0.000979 -0.003506 0.000983
# 3 -0.003918 -0.002623 0.007766 -0.001378 0.000888 0.002072
# 4 -0.000783 -0.000979 -0.001378 0.017695 0.000261 0.001795
# 5 0.005714 -0.003506 0.000888 0.000261 0.026629 0.000454
# 6 -0.005307 0.000983 0.002072 0.001795 0.000454 0.024812
#
#
# Mechanical properties :
#
#
# Convention : Reuss Voigt Hill
#
# Bulk Modulus (GPa) = 82.42555 98.30222 90.36388
# Shear Modulus (GPa) = 39.97191 46.59118 43.28154
#
# Velocity S-wave (km/s) = 4.09900 4.42540 4.26532
# Velocity P-wave (km/s) = 7.55309 8.21174 7.88929
#
# Compressibility (1/GPa) = 0.01213216
#
# Stress axis : x y z
#
# Youngs Moduli (GPa) = 73.38704 94.09623 128.77321
#
# Poissons Ratio (x) = 0.32020 0.50453
# Poissons Ratio (y) = 0.24973 0.33774
# Poissons Ratio (z) = 0.28753 0.24679
#
# Static dielectric constant tensor:
#      x y z
#    x 1.936640 0.011190 0.038680 
#    y 0.011190 1.970840 -0.013690 
#    z 0.038680 -0.013690 1.890260 
# 
# From -- ./inp_files/382899.got.cif
#   From: 2010.05.17/outbox.cif.g08.bks.cpg/sg2_192_cif.got.tgz:382899.got - 2010.06.03 11:33:40.
