data_PCOD9067701
_publ_section_title
;
Structure prediction by ZEFSAII (Michael W. Deem and Ramdas Pophale) SiO2 
 PCOD9067701
Probable space group: P -1
;
_chemical_formula_sum "Si O2"
_cell_formula_units_Z 12
_cell_length_a 4.833661
_cell_length_b 15.359905
_cell_length_c 11.200085
_cell_angle_alpha 35.777459
_cell_angle_beta 73.615265
_cell_angle_gamma 83.917877
_cell_volume 455.076245
_symmetry_space_group_name_H-M "P -1"
_symmetry_group_IT_number 2
_symmetry_cell_setting 'triclinic'
loop_
_space_group_symop_operation_xyz
x,y,z
-x,-y,-z
loop_
_atom_site_type_symbol
_atom_site_label
_atom_site_fract_x
_atom_site_fract_y
_atom_site_fract_z
Si Si1 0.035879 0.689092 0.081699
Si Si2 0.192428 0.063816 0.024382
Si Si3 0.960580 0.335410 0.251020
Si Si4 0.505623 0.823140 0.677199
Si Si5 0.357191 0.771428 0.386188
Si Si6 0.581131 0.496151 0.634481
O O1 0.148675 0.578131 0.284273
O O2 0.712653 0.614723 0.154026
O O3 0.996197 0.839570 0.987322
O O4 0.277064 0.731537 0.902801
O O5 0.507463 0.169948 0.827360
O O6 0.270447 0.933039 0.244161
O O7 0.000000 0.000000 0.000000
O O8 0.194268 0.237784 0.289276
O O9 0.639612 0.234427 0.367686
O O10 0.925979 0.340742 0.392359
O O11 0.000000 0.500000 0.000000
O O12 0.500000 0.000000 0.500000
O O13 0.596288 0.665753 0.493479
O O14 0.500000 0.500000 0.500000
#
# Coordination Sequence:
#
# PCOD9067701 Si02
#       6
#     2   2   2   2   2   2
#     4  12  26  46  74 100 144 179 235 287 346 418
#     4  11  26  44  70 105 139 185 226 291 358 413
#     4  12  27  49  73 106 142 190 240 291 350 420
#     4  12  27  48  72 106 140 191 237 289 350 417
#     4  11  26  44  72 102 143 180 234 289 351 419
#     4  12  25  46  69 107 137 182 229 285 352 414
#
# _framework density 26.369209000000001
#
# number of rings (size 3 to 8) (size 9 to 14) (size 15 to 20)
#    0.000    0.333    1.667    6.500    9.333    0.000 
#    0.000    0.000    0.000    0.000    0.000    0.000 
#    0.000    0.000    0.000    0.000    0.000    0.000 
#
# Total GULP energy -66957.281279 kJ/mol
# GULP energy per Si atom -5579.773440 kJ/mol
# Density = 2.630919 g / cm^3
# Si number density = 26.369209 Si / 1000 Ang^3
#
#
#
# Elastic Constant Matrix: (Units=GPa)
#
#
# Indices 1 2 3 4 5 6 
#
# 1 98.5355 26.9251 48.0085 -12.0424 32.7085 -9.3805
# 2 26.9251 123.5224 35.9240 -20.2432 20.5885 -20.5995
# 3 48.0085 35.9240 158.1698 -11.4412 26.5600 -9.1730
# 4 -12.0424 -20.2432 -11.4412 71.5237 -26.8356 -3.1018
# 5 32.7085 20.5885 26.5600 -26.8356 50.5496 -7.0536
# 6 -9.3805 -20.5995 -9.1730 -3.1018 -7.0536 52.0223
#
#
#
# Elastic Compliance Matrix: (Units=1/GPa)
#
#
# Indices 1 2 3 4 5 6 
#
# 1 0.014371 -0.001112 -0.002835 -0.001326 -0.007992 0.000489
# 2 -0.001112 0.009826 -0.001382 0.002178 -0.000919 0.003452
# 3 -0.002835 -0.001382 0.007788 -0.000318 -0.001857 0.000044
# 4 -0.001326 0.002178 -0.000318 0.018316 0.010288 0.003054
# 5 -0.007992 -0.000919 -0.001857 0.010288 0.032162 0.002842
# 6 0.000489 0.003452 0.000044 0.003054 0.002842 0.021253
#
#
# Mechanical properties :
#
#
# Convention : Reuss Voigt Hill
#
# Bulk Modulus (GPa) = 46.88888 66.88254 56.88571
# Shear Modulus (GPa) = 41.15815 52.77714 46.96764
#
# Velocity S-wave (km/s) = 3.95503 4.47863 4.22495
# Velocity P-wave (km/s) = 6.21906 7.22240 6.73943
#
# Compressibility (1/GPa) = 0.02132702
#
# Stress axis : x y z
#
# Youngs Moduli (GPa) = 69.58375 101.77419 128.39953
#
# Poissons Ratio (x) = 0.11315 0.36401
# Poissons Ratio (y) = 0.07736 0.17748
# Poissons Ratio (z) = 0.19727 0.14068
#
# Static dielectric constant tensor:
#      x y z
#    x 2.115500 0.160420 0.040790 
#    y 0.160420 2.290080 0.096750 
#    z 0.040790 0.096750 2.136460 
# 
# From -- ./inp_files/367326.got.cif
#   From: 2010.05.17/outbox.cif.g08.bks.cpg/sg2_184_cif.got.tgz:367326.got - 2010.06.03 11:33:40.
