data_PCOD9067325
_publ_section_title
;
Structure prediction by ZEFSAII (Michael W. Deem and Ramdas Pophale) SiO2 
 PCOD9067325
Probable space group: P -1
;
_chemical_formula_sum "Si O2"
_cell_formula_units_Z 12
_cell_length_a 12.357138
_cell_length_b 4.963525
_cell_length_c 7.908999
_cell_angle_alpha 82.077087
_cell_angle_beta 75.929203
_cell_angle_gamma 79.003021
_cell_volume 459.766935
_symmetry_space_group_name_H-M "P -1"
_symmetry_group_IT_number 2
_symmetry_cell_setting 'triclinic'
loop_
_space_group_symop_operation_xyz
x,y,z
-x,-y,-z
loop_
_atom_site_type_symbol
_atom_site_label
_atom_site_fract_x
_atom_site_fract_y
_atom_site_fract_z
Si Si1 0.185525 0.169820 0.545561
Si Si2 0.362432 0.171214 0.777545
Si Si3 0.823766 0.565857 0.954766
Si Si4 0.505128 0.591961 0.794169
Si Si5 0.757743 0.321904 0.672086
Si Si6 0.964713 0.163982 0.171482
O O1 0.281795 0.128330 0.656822
O O2 0.229628 0.977806 0.386340
O O3 0.078552 0.046923 0.667257
O O4 0.134432 0.593843 0.873917
O O5 0.417724 0.446365 0.731754
O O6 0.463337 0.916484 0.774228
O O7 0.282724 0.210069 0.970787
O O8 0.790553 0.351334 0.851560
O O9 0.928670 0.695797 0.833174
O O10 0.630317 0.483484 0.691445
O O11 0.500000 0.500000 0.000000
O O12 0.833566 0.510969 0.524913
O O13 0.000000 0.000000 0.000000
#
# Coordination Sequence:
#
# PCOD9067325 Si02
#       6
#     2   2   2   2   2   2
#     4  12  28  47  71 111 152 187 236 307 370 421
#     4  12  25  47  77 102 148 195 242 292 354 441
#     4  11  26  46  78 107 141 194 249 301 352 441
#     4  12  26  44  77 109 141 194 251 289 354 433
#     4  12  29  46  72 113 152 182 242 310 364 413
#     4  11  25  48  79 103 140 198 251 284 371 446
#
# _framework density 26.100178
#
# number of rings (size 3 to 8) (size 9 to 14) (size 15 to 20)
#    0.000    0.333    3.333    4.500    7.000    5.333 
#    0.000    0.000    0.000    0.000    0.000    0.000 
#    0.000    0.000    0.000    0.000    0.000    0.000 
#
# Total GULP energy -67399.065744 kJ/mol
# GULP energy per Si atom -5616.588812 kJ/mol
# Density = 2.604077 g / cm^3
# Si number density = 26.100178 Si / 1000 Ang^3
#
#
#
# Elastic Constant Matrix: (Units=GPa)
#
#
# Indices 1 2 3 4 5 6 
#
# 1 99.3380 16.4465 37.0344 12.8466 0.0375 23.1492
# 2 16.4465 85.6090 14.7500 7.8517 -0.8218 13.3235
# 3 37.0344 14.7500 99.8750 16.9149 12.2509 12.2878
# 4 12.8466 7.8517 16.9149 53.2712 13.6504 -1.4678
# 5 0.0375 -0.8218 12.2509 13.6504 43.0698 3.0972
# 6 23.1492 13.3235 12.2878 -1.4678 3.0972 48.9910
#
#
#
# Elastic Compliance Matrix: (Units=1/GPa)
#
#
# Indices 1 2 3 4 5 6 
#
# 1 0.013241 -0.000781 -0.003998 -0.002542 0.002295 -0.005263
# 2 -0.000781 0.012647 -0.001082 -0.001750 0.001316 -0.002935
# 3 -0.003998 -0.001082 0.012465 -0.002133 -0.002827 -0.000828
# 4 -0.002542 -0.001750 -0.002133 0.022120 -0.006672 0.003296
# 5 0.002295 0.001316 -0.002827 -0.006672 0.026347 -0.002599
# 6 -0.005263 -0.002935 -0.000828 0.003296 -0.002599 0.024167
#
#
# Mechanical properties :
#
#
# Convention : Reuss Voigt Hill
#
# Bulk Modulus (GPa) = 37.55051 46.80932 42.17992
# Shear Modulus (GPa) = 37.99790 43.50581 40.75186
#
# Velocity S-wave (km/s) = 3.81970 4.08717 3.95570
# Velocity P-wave (km/s) = 5.81994 6.34403 6.08763
#
# Compressibility (1/GPa) = 0.02663080
#
# Stress axis : x y z
#
# Youngs Moduli (GPa) = 75.52557 79.06796 80.22679
#
# Poissons Ratio (x) = 0.06173 0.32075
# Poissons Ratio (y) = 0.05896 0.08682
# Poissons Ratio (z) = 0.30195 0.08557
#
# Static dielectric constant tensor:
#      x y z
#    x 2.018950 -0.026050 -0.015390 
#    y -0.026050 2.014470 -0.056620 
#    z -0.015390 -0.056620 2.064620 
# 
# From -- ./inp_files/287320.got.cif
#   From: 2010.05.17/outbox.cif.g08.bks.cpg/sg2_144_cif.got.tgz:287320.got - 2010.06.03 11:33:40.
