data_PCOD9067240
_publ_section_title
;
Structure prediction by ZEFSAII (Michael W. Deem and Ramdas Pophale) SiO2 
 PCOD9067240
Probable space group: P -1
;
_chemical_formula_sum "Si O2"
_cell_formula_units_Z 16
_cell_length_a 11.841817
_cell_length_b 12.719594
_cell_length_c 6.823362
_cell_angle_alpha 128.193775
_cell_angle_beta 79.837494
_cell_angle_gamma 104.108588
_cell_volume 782.927087
_symmetry_space_group_name_H-M "P -1"
_symmetry_group_IT_number 2
_symmetry_cell_setting 'triclinic'
loop_
_space_group_symop_operation_xyz
x,y,z
-x,-y,-z
loop_
_atom_site_type_symbol
_atom_site_label
_atom_site_fract_x
_atom_site_fract_y
_atom_site_fract_z
Si Si1 0.393993 0.066786 0.519442
Si Si2 0.157465 0.427008 0.248093
Si Si3 0.270789 0.953469 0.043777
Si Si4 0.258790 0.620038 0.096446
Si Si5 0.299629 0.195707 0.056446
Si Si6 0.453459 0.632142 0.730520
Si Si7 0.889140 0.330902 0.169275
Si Si8 0.600818 0.213576 0.435016
O O1 0.470139 0.196061 0.535658
O O2 0.500000 0.000000 0.500000
O O3 0.308564 0.113333 0.757687
O O4 0.322439 0.974818 0.269839
O O5 0.214914 0.494767 0.109097
O O6 0.234338 0.322747 0.192678
O O7 0.141391 0.548668 0.542662
O O8 0.028095 0.347485 0.149965
O O9 0.172339 0.819171 0.914769
O O10 0.373340 0.921023 0.832524
O O11 0.241916 0.092224 0.123052
O O12 0.307973 0.742877 0.370090
O O13 0.368527 0.604626 0.909264
O O14 0.159990 0.647296 0.007498
O O15 0.434856 0.253057 0.130138
O O16 0.500000 0.500000 0.500000
O O17 0.385923 0.679339 0.620979
#
# Coordination Sequence:
#
# PCOD9067240 Si02
#       8
#     2   2   2   2   2   2   2   2
#     4  12  23  38  65  98 141 179 215 268 336 420
#     4  11  27  48  70  98 136 179 235 291 338 392
#     4  12  24  42  69  98 138 180 227 278 338 405
#     4  12  22  42  71  99 130 174 231 277 333 407
#     4  12  26  42  64 106 141 178 221 276 347 411
#     4  12  25  39  64 102 142 177 215 275 348 411
#     4  11  25  48  74  97 127 184 240 286 338 397
#     4  12  22  39  62 100 133 177 217 265 339 411
#
# _framework density 20.436129000000001
#
# number of rings (size 3 to 8) (size 9 to 14) (size 15 to 20)
#    0.000    0.250    6.250    3.750    1.750    2.500 
#    0.000    0.625    0.000    0.000    0.000    0.000 
#    0.000    0.000    0.000    0.000    0.000    0.000 
#
# Total GULP energy -89459.307344 kJ/mol
# GULP energy per Si atom -5591.206709 kJ/mol
# Density = 2.038962 g / cm^3
# Si number density = 20.436129 Si / 1000 Ang^3
#
#
#
# Elastic Constant Matrix: (Units=GPa)
#
#
# Indices 1 2 3 4 5 6 
#
# 1 95.4674 43.2116 29.6235 -2.8980 21.1615 10.6086
# 2 43.2116 138.4137 26.7576 -11.5712 3.2235 6.8331
# 3 29.6235 26.7576 107.3357 -14.3072 17.3123 10.4259
# 4 -2.8980 -11.5712 -14.3072 27.9317 2.3366 7.7355
# 5 21.1615 3.2235 17.3123 2.3366 31.8201 8.9168
# 6 10.6086 6.8331 10.4259 7.7355 8.9168 24.7891
#
#
#
# Elastic Compliance Matrix: (Units=1/GPa)
#
#
# Indices 1 2 3 4 5 6 
#
# 1 0.014773 -0.004017 -0.001576 0.000211 -0.008098 -0.001705
# 2 -0.004017 0.008980 -0.000894 0.003276 0.002670 -0.002363
# 3 -0.001576 -0.000894 0.012193 0.007445 -0.004684 -0.004846
# 4 0.000211 0.003276 0.007445 0.046070 -0.003027 -0.017412
# 5 -0.008098 0.002670 -0.004684 -0.003027 0.041960 -0.009449
# 6 -0.001705 -0.002363 -0.004846 -0.017412 -0.009449 0.052592
#
#
# Mechanical properties :
#
#
# Convention : Reuss Voigt Hill
#
# Bulk Modulus (GPa) = 43.53220 60.04467 51.78844
# Shear Modulus (GPa) = 25.35502 33.01643 29.18573
#
# Velocity S-wave (km/s) = 3.52617 4.02380 3.78318
# Velocity P-wave (km/s) = 6.15844 7.14377 6.66932
#
# Compressibility (1/GPa) = 0.02297150
#
# Stress axis : x y z
#
# Youngs Moduli (GPa) = 67.69188 111.35827 82.01377
#
# Poissons Ratio (x) = 0.44731 0.12925
# Poissons Ratio (y) = 0.27191 0.07335
# Poissons Ratio (z) = 0.10668 0.09960
#
# Static dielectric constant tensor:
#      x y z
#    x 1.739050 -0.008370 -0.004030 
#    y -0.008370 1.830880 0.016580 
#    z -0.004030 0.016580 1.751660 
# 
# From -- ./inp_files/71974.got.cif
#   From: 2010.05.17/outbox.cif.g08.bks.cpg/sg2_36_cif.got.tgz:71974.got - 2010.06.03 11:33:40.
