data_PCOD9067132
_publ_section_title
;
Structure prediction by ZEFSAII (Michael W. Deem and Ramdas Pophale) SiO2 
 PCOD9067132
Probable space group: P -1
;
_chemical_formula_sum "Si O2"
_cell_formula_units_Z 16
_cell_length_a 14.637395
_cell_length_b 11.914386
_cell_length_c 15.302853
_cell_angle_alpha 55.632314
_cell_angle_beta 36.880835
_cell_angle_gamma 29.346467
_cell_volume 700.477926
_symmetry_space_group_name_H-M "P -1"
_symmetry_group_IT_number 2
_symmetry_cell_setting 'triclinic'
loop_
_space_group_symop_operation_xyz
x,y,z
-x,-y,-z
loop_
_atom_site_type_symbol
_atom_site_label
_atom_site_fract_x
_atom_site_fract_y
_atom_site_fract_z
Si Si1 0.865060 0.161979 0.156920
Si Si2 0.621576 0.512736 0.331720
Si Si3 0.848396 0.715695 0.953001
Si Si4 0.898068 0.248296 0.718135
Si Si5 0.411840 0.792830 0.810523
Si Si6 0.923767 0.926253 0.534166
Si Si7 0.234599 0.244317 0.535185
Si Si8 0.812193 0.720379 0.778007
O O1 0.640777 0.425193 0.262423
O O2 0.711237 0.188566 0.189505
O O3 0.006207 0.951911 0.210576
O O4 0.123983 0.054347 0.965666
O O5 0.500000 0.500000 0.500000
O O6 0.407621 0.801031 0.361356
O O7 0.940031 0.316107 0.199132
O O8 0.839906 0.660933 0.885220
O O9 0.000000 0.500000 0.000000
O O10 0.529143 0.004296 0.097268
O O11 0.587106 0.549766 0.839490
O O12 0.122727 0.198623 0.588940
O O13 0.905912 0.208395 0.627341
O O14 0.635025 0.739800 0.635378
O O15 0.948122 0.766996 0.637126
O O16 0.000000 0.000000 0.500000
O O17 0.981186 0.494623 0.681277
O O18 0.500000 0.000000 0.500000
#
# Coordination Sequence:
#
# PCOD9067132 Si02
#       8
#     2   2   2   2   2   2   2   2
#     4  11  26  46  69 108 148 182 243 304 367 438
#     4  12  25  43  75 106 143 195 242 298 370 435
#     4  11  26  50  74 108 147 194 246 309 372 437
#     4  12  25  47  75 105 141 195 243 295 372 432
#     4  11  25  48  69 105 145 189 242 303 365 434
#     4  12  25  44  76 110 145 190 249 304 363 441
#     4  12  27  46  79 106 147 198 249 303 361 445
#     4  11  27  49  72 111 151 187 252 309 365 441
#
# _framework density 22.841548
#
# number of rings (size 3 to 8) (size 9 to 14) (size 15 to 20)
#    0.000    0.500    5.000    2.250    5.250    1.000 
#    0.000    0.000    0.000    0.000    0.000    0.000 
#    0.000    0.000    0.000    0.000    0.000    0.000 
#
# Total GULP energy -89587.836066 kJ/mol
# GULP energy per Si atom -5599.239754 kJ/mol
# Density = 2.278956 g / cm^3
# Si number density = 22.841548 Si / 1000 Ang^3
#
#
#
# Elastic Constant Matrix: (Units=GPa)
#
#
# Indices 1 2 3 4 5 6 
#
# 1 95.3759 10.3187 35.6084 1.4615 -0.3164 -0.3664
# 2 10.3187 90.8723 23.7887 0.4768 11.2165 -16.8948
# 3 35.6084 23.7887 122.3893 11.2219 -4.5519 6.8047
# 4 1.4615 0.4768 11.2219 29.4907 1.2242 6.3732
# 5 -0.3164 11.2165 -4.5519 1.2242 20.2333 2.3052
# 6 -0.3664 -16.8948 6.8047 6.3732 2.3052 39.2965
#
#
#
# Elastic Compliance Matrix: (Units=1/GPa)
#
#
# Indices 1 2 3 4 5 6 
#
# 1 0.011808 -0.000263 -0.003495 0.000658 -0.000556 0.000528
# 2 -0.000263 0.014534 -0.003514 -0.000090 -0.009694 0.007438
# 3 -0.003495 -0.003514 0.010526 -0.003302 0.004816 -0.003113
# 4 0.000658 -0.000090 -0.003302 0.036358 -0.002288 -0.005223
# 5 -0.000556 -0.009694 0.004816 -0.002288 0.056919 -0.007975
# 6 0.000528 0.007438 -0.003113 -0.005223 -0.007975 0.030504
#
#
# Mechanical properties :
#
#
# Convention : Reuss Voigt Hill
#
# Bulk Modulus (GPa) = 44.79452 49.78544 47.28998
# Shear Modulus (GPa) = 27.37707 33.73222 30.55464
#
# Velocity S-wave (km/s) = 3.46578 3.84707 3.66140
# Velocity P-wave (km/s) = 5.97236 6.44799 6.21473
#
# Compressibility (1/GPa) = 0.02232416
#
# Stress axis : x y z
#
# Youngs Moduli (GPa) = 84.68745 68.80337 95.00692
#
# Poissons Ratio (x) = 0.01806 0.33203
# Poissons Ratio (y) = 0.02223 0.33390
# Poissons Ratio (z) = 0.29597 0.24181
#
# Static dielectric constant tensor:
#      x y z
#    x 1.871230 -0.037090 -0.043900 
#    y -0.037090 1.859020 0.027830 
#    z -0.043900 0.027830 1.925090 
# 
# From -- ./inp_files/532463.got.cif
#   From: 2010.05.17/outbox.cif.g08.bks.cpg/sg2_267_cif.got.tgz:532463.got - 2010.06.03 11:33:40.
