data_PCOD9067593
_publ_section_title
;
Structure prediction by ZEFSAII (Michael W. Deem and Ramdas Pophale) SiO2 
 PCOD9067593
Probable space group: P -1
;
_chemical_formula_sum "Si O2"
_cell_formula_units_Z 13
_cell_length_a 9.025220
_cell_length_b 11.263781
_cell_length_c 11.727171
_cell_angle_alpha 68.928649
_cell_angle_beta 46.247133
_cell_angle_gamma 41.799756
_cell_volume 543.003363
_symmetry_space_group_name_H-M "P -1"
_symmetry_group_IT_number 2
_symmetry_cell_setting 'triclinic'
loop_
_space_group_symop_operation_xyz
x,y,z
-x,-y,-z
loop_
_atom_site_type_symbol
_atom_site_label
_atom_site_fract_x
_atom_site_fract_y
_atom_site_fract_z
Si Si1 0.915585 0.398996 0.526334
Si Si2 0.500000 0.500000 0.500000
Si Si3 0.075886 0.719542 0.041145
Si Si4 0.548177 0.016779 0.595604
Si Si5 0.650879 0.301681 0.869765
Si Si6 0.813207 0.934860 0.871977
Si Si7 0.765137 0.171104 0.485098
O O1 0.680712 0.501158 0.510833
O O2 0.800593 0.351199 0.701900
O O3 0.000000 0.500000 0.500000
O O4 0.227104 0.186401 0.395164
O O5 0.513340 0.364046 0.617164
O O6 0.233273 0.736934 0.047438
O O7 0.296216 0.498465 0.987376
O O8 0.752399 0.831470 0.225180
O O9 0.993169 0.823231 0.930278
O O10 0.500000 0.000000 0.500000
O O11 0.670873 0.101074 0.482958
O O12 0.727474 0.124265 0.848182
O O13 0.070538 0.790118 0.685597
O O14 0.500000 0.000000 0.000000
O O15 0.000000 0.000000 0.500000
#
# Coordination Sequence:
#
# PCOD9067593 Si02
#       7
#     2   1   2   2   2   2   2
#     4  12  26  48  78 115 150 207 264 320 391 460
#     4  12  26  42  76 110 152 186 262 318 372 462
#     4  11  26  45  77 105 146 202 245 317 388 452
#     4  12  23  46  74 106 149 196 254 318 383 455
#     4  11  25  51  71 106 153 192 256 316 381 464
#     4  12  26  45  74 108 150 197 251 306 389 465
#     4  12  24  46  70 106 153 195 244 321 382 443
#
# _framework density 23.940919000000001
#
# number of rings (size 3 to 8) (size 9 to 14) (size 15 to 20)
#    0.000    0.308    4.615    3.231    0.000    5.538 
#    0.000    0.000    0.000    0.000    0.000    0.000 
#    0.000    0.000    0.000    0.000    0.000    0.000 
#
# Total GULP energy -72406.753305 kJ/mol
# GULP energy per Si atom -5569.750254 kJ/mol
# Density = 2.388643 g / cm^3
# Si number density = 23.940919 Si / 1000 Ang^3
#
#
#
# Elastic Constant Matrix: (Units=GPa)
#
#
# Indices 1 2 3 4 5 6 
#
# 1 167.8532 68.9520 28.4439 -21.9873 -8.2204 10.2952
# 2 68.9520 165.3331 23.7598 -6.1145 -21.3288 1.2362
# 3 28.4439 23.7598 97.2326 4.3247 -1.5117 -8.1500
# 4 -21.9873 -6.1145 4.3247 41.9415 -9.4093 -2.9164
# 5 -8.2204 -21.3288 -1.5117 -9.4093 32.2850 -12.4194
# 6 10.2952 1.2362 -8.1500 -2.9164 -12.4194 48.9816
#
#
#
# Elastic Compliance Matrix: (Units=1/GPa)
#
#
# Indices 1 2 3 4 5 6 
#
# 1 0.008132 -0.002854 -0.001983 0.004099 0.000691 -0.001548
# 2 -0.002854 0.008131 -0.000972 0.001166 0.005602 0.001723
# 3 -0.001983 -0.000972 0.011371 -0.002321 -0.000495 0.002070
# 4 0.004099 0.001166 -0.002321 0.029221 0.011524 0.003385
# 5 0.000691 0.005602 -0.000495 0.011524 0.042449 0.011080
# 6 -0.001548 0.001723 0.002070 0.003385 0.011080 0.024053
#
#
# Mechanical properties :
#
#
# Convention : Reuss Voigt Hill
#
# Bulk Modulus (GPa) = 62.43758 74.74780 68.59269
# Shear Modulus (GPa) = 35.63424 45.25916 40.44670
#
# Velocity S-wave (km/s) = 3.86220 4.35265 4.11474
# Velocity P-wave (km/s) = 6.78419 7.51999 7.16155
#
# Compressibility (1/GPa) = 0.01601599
#
# Stress axis : x y z
#
# Youngs Moduli (GPa) = 122.97637 122.98022 87.94108
#
# Poissons Ratio (x) = 0.35099 0.17436
# Poissons Ratio (y) = 0.35098 0.08552
# Poissons Ratio (z) = 0.24382 0.11959
#
# Static dielectric constant tensor:
#      x y z
#    x 1.931130 -0.133900 -0.057770 
#    y -0.133900 1.875890 -0.006520 
#    z -0.057770 -0.006520 1.955840 
# 
# From -- ./inp_files/271678.got.cif
#   From: 2010.05.17/outbox.cif.g08.bks.cpg/sg2_136_cif.got.tgz:271678.got - 2010.06.03 11:33:40.
