data_PCOD9067801
_publ_section_title
;
Structure prediction by ZEFSAII (Michael W. Deem and Ramdas Pophale) SiO2 
 PCOD9067801
Probable space group: P -1
;
_chemical_formula_sum "Si O2"
_cell_formula_units_Z 15
_cell_length_a 20.824059
_cell_length_b 11.664696
_cell_length_c 6.928640
_cell_angle_alpha 117.987429
_cell_angle_beta 121.795148
_cell_angle_gamma 31.038018
_cell_volume 736.940639
_symmetry_space_group_name_H-M "P -1"
_symmetry_group_IT_number 2
_symmetry_cell_setting 'triclinic'
loop_
_space_group_symop_operation_xyz
x,y,z
-x,-y,-z
loop_
_atom_site_type_symbol
_atom_site_label
_atom_site_fract_x
_atom_site_fract_y
_atom_site_fract_z
Si Si1 0.546420 0.009938 0.773187
Si Si2 0.904827 0.748452 0.609629
Si Si3 0.800829 0.057817 0.338719
Si Si4 0.456726 0.449129 0.536218
Si Si5 0.000000 0.000000 0.500000
Si Si6 0.642647 0.658395 0.939521
Si Si7 0.940072 0.212366 0.974818
Si Si8 0.298739 0.983537 0.178619
O O1 0.611215 0.826295 0.889290
O O2 0.500000 0.000000 0.500000
O O3 0.648668 0.973896 0.836870
O O4 0.422032 0.240122 0.872090
O O5 0.000000 0.500000 0.500000
O O6 0.828342 0.916783 0.440438
O O7 0.799900 0.841065 0.669147
O O8 0.982404 0.763742 0.833563
O O9 0.672680 0.320515 0.384853
O O10 0.918262 0.992873 0.455078
O O11 0.774426 0.017879 0.069676
O O12 0.500000 0.500000 0.500000
O O13 0.423656 0.368479 0.296802
O O14 0.572897 0.256926 0.713457
O O15 0.055769 0.824920 0.274727
O O16 0.795807 0.426137 0.999736
O O17 0.000000 0.000000 0.000000
#
# Coordination Sequence:
#
# PCOD9067801 Si02
#       8
#     2   2   2   2   1   2   2   2
#     4  11  26  47  70 105 142 188 236 292 361 438
#     4  12  29  47  72 105 147 196 239 299 362 431
#     4  12  26  48  71 107 143 182 246 299 361 431
#     4  12  23  45  76 103 140 183 230 300 364 423
#     4  12  24  46  74 106 140 190 244 294 356 432
#     4  11  26  45  73 105 142 181 237 298 355 424
#     4  12  26  48  74 104 146 192 241 298 359 432
#     4  12  27  46  74 104 143 189 238 297 367 432
#
# _framework density 20.354420000000001
#
# number of rings (size 3 to 8) (size 9 to 14) (size 15 to 20)
#    0.000    0.267    6.667    1.200    3.733    3.733 
#    0.000    0.000    0.000    0.000    0.000    0.000 
#    0.000    0.000    0.000    0.000    0.000    0.000 
#
# Total GULP energy -83643.577370 kJ/mol
# GULP energy per Si atom -5576.238491 kJ/mol
# Density = 2.030809 g / cm^3
# Si number density = 20.354420 Si / 1000 Ang^3
#
#
#
# Elastic Constant Matrix: (Units=GPa)
#
#
# Indices 1 2 3 4 5 6 
#
# 1 151.3333 53.2671 25.8162 12.3659 -16.0235 -3.9160
# 2 53.2671 122.8519 58.6166 25.0502 -16.1992 -11.8562
# 3 25.8162 58.6166 101.5305 16.6751 -9.5544 -8.9644
# 4 12.3659 25.0502 16.6751 33.3415 -12.1567 -3.2012
# 5 -16.0235 -16.1992 -9.5544 -12.1567 33.0712 16.2350
# 6 -3.9160 -11.8562 -8.9644 -3.2012 16.2350 26.8537
#
#
#
# Elastic Compliance Matrix: (Units=1/GPa)
#
#
# Indices 1 2 3 4 5 6 
#
# 1 0.008076 -0.003340 -0.000108 0.000687 0.003728 -0.002505
# 2 -0.003340 0.013924 -0.005946 -0.006047 -0.000269 0.003117
# 3 -0.000108 -0.005946 0.013837 -0.002572 -0.001043 0.002302
# 4 0.000687 -0.006047 -0.002572 0.040409 0.015358 -0.007897
# 5 0.003728 -0.000269 -0.001043 0.015358 0.051649 -0.029318
# 6 -0.002505 0.003117 0.002302 -0.007897 -0.029318 0.055802
#
#
# Mechanical properties :
#
#
# Convention : Reuss Voigt Hill
#
# Bulk Modulus (GPa) = 58.65990 72.34616 65.50303
# Shear Modulus (GPa) = 24.01894 34.52101 29.26997
#
# Velocity S-wave (km/s) = 3.43889 4.12271 3.79623
# Velocity P-wave (km/s) = 6.68205 7.63431 7.17400
#
# Compressibility (1/GPa) = 0.01704742
#
# Stress axis : x y z
#
# Youngs Moduli (GPa) = 123.82589 71.81988 72.26888
#
# Poissons Ratio (x) = 0.23990 0.00782
# Poissons Ratio (y) = 0.41361 0.42972
# Poissons Ratio (z) = 0.01340 0.42705
#
# Static dielectric constant tensor:
#      x y z
#    x 1.689670 0.001670 0.003690 
#    y 0.001670 1.694900 0.000150 
#    z 0.003690 0.000150 1.731740 
# 
# From -- ./inp_files/118878.got.cif
#   From: 2010.05.17/outbox.cif.g08.bks.cpg/sg2_60_cif.got.tgz:118878.got - 2010.06.03 11:33:40.
