data_PCOD9067391
_publ_section_title
;
Structure prediction by ZEFSAII (Michael W. Deem and Ramdas Pophale) SiO2 
 PCOD9067391
Probable space group: P -1
;
_chemical_formula_sum "Si O2"
_cell_formula_units_Z 12
_cell_length_a 9.611109
_cell_length_b 8.457062
_cell_length_c 9.293567
_cell_angle_alpha 98.602965
_cell_angle_beta 112.162438
_cell_angle_gamma 42.710387
_cell_volume 464.632043
_symmetry_space_group_name_H-M "P -1"
_symmetry_group_IT_number 2
_symmetry_cell_setting 'triclinic'
loop_
_space_group_symop_operation_xyz
x,y,z
-x,-y,-z
loop_
_atom_site_type_symbol
_atom_site_label
_atom_site_fract_x
_atom_site_fract_y
_atom_site_fract_z
Si Si1 0.660403 0.664601 0.531598
Si Si2 0.454637 0.712812 0.194988
Si Si3 0.312002 0.174763 0.723857
Si Si4 0.076481 0.371823 0.165210
Si Si5 0.034136 0.105684 0.647170
Si Si6 0.861329 0.219539 0.125399
O O1 0.458982 0.740921 0.373122
O O2 0.729562 0.739941 0.446469
O O3 0.685312 0.748634 0.698792
O O4 0.828722 0.387860 0.587793
O O5 0.483510 0.868367 0.156222
O O6 0.687088 0.440992 0.199615
O O7 0.274615 0.740732 0.057557
O O8 0.108268 0.408864 0.769516
O O9 0.263081 0.026222 0.704102
O O10 0.038310 0.213143 0.145535
O O11 0.000000 0.500000 0.000000
O O12 0.042962 0.008237 0.786952
O O13 0.000000 0.000000 0.500000
#
# Coordination Sequence:
#
# PCOD9067391 Si02
#       6
#     2   2   2   2   2   2
#     4   9  17  33  49  68  97 126 152 189 236 275
#     4   8  17  32  46  66 101 124 148 189 240 276
#     4   8  17  31  49  65 100 122 152 185 239 274
#     4  10  18  31  49  69  92 128 159 189 232 280
#     4  11  15  24  48  78  93 116 157 199 224 271
#     4  10  18  28  48  74  95 118 160 193 229 276
#
# _framework density 25.826889999999999
#
# number of rings (size 3 to 8) (size 9 to 14) (size 15 to 20)
#    1.000    1.667    1.667    3.000    0.000    0.667 
#    0.000    4.167    0.000    0.000    0.000    5.833 
#    0.000    0.000    0.000    0.000    0.000    0.000 
#
# Total GULP energy -66991.072657 kJ/mol
# GULP energy per Si atom -5582.589388 kJ/mol
# Density = 2.576811 g / cm^3
# Si number density = 25.826890 Si / 1000 Ang^3
#
#
#
# Elastic Constant Matrix: (Units=GPa)
#
#
# Indices 1 2 3 4 5 6 
#
# 1 135.0459 41.6639 52.4396 -12.3951 29.2799 35.7177
# 2 41.6639 126.3571 41.4350 2.8382 8.6114 40.7568
# 3 52.4396 41.4350 173.2386 -9.5329 22.9491 26.3397
# 4 -12.3951 2.8382 -9.5329 51.3043 17.5357 -1.0256
# 5 29.2799 8.6114 22.9491 17.5357 40.6859 11.0153
# 6 35.7177 40.7568 26.3397 -1.0256 11.0153 41.8819
#
#
#
# Elastic Compliance Matrix: (Units=1/GPa)
#
#
# Indices 1 2 3 4 5 6 
#
# 1 0.012228 -0.001260 -0.000990 0.005718 -0.008780 -0.006130
# 2 -0.001260 0.012086 -0.001442 -0.002527 0.003140 -0.010667
# 3 -0.000990 -0.001442 0.007244 0.002456 -0.003788 -0.001251
# 4 0.005718 -0.002527 0.002456 0.027327 -0.017068 0.001196
# 5 -0.008780 0.003140 -0.003788 -0.017068 0.040906 -0.004362
# 6 -0.006130 -0.010667 -0.001251 0.001196 -0.004362 0.041449
#
#
# Mechanical properties :
#
#
# Convention : Reuss Voigt Hill
#
# Bulk Modulus (GPa) = 41.36860 78.41317 59.89088
# Shear Modulus (GPa) = 31.91145 46.71464 39.31305
#
# Velocity S-wave (km/s) = 3.51891 4.25757 3.90574
# Velocity P-wave (km/s) = 5.70638 7.38892 6.60147
#
# Compressibility (1/GPa) = 0.02417293
#
# Stress axis : x y z
#
# Youngs Moduli (GPa) = 81.78045 82.73940 138.03757
#
# Poissons Ratio (x) = 0.10425 0.13670
# Poissons Ratio (y) = 0.10304 0.19911
# Poissons Ratio (z) = 0.08099 0.11935
#
# Static dielectric constant tensor:
#      x y z
#    x 2.276720 -0.144420 0.051600 
#    y -0.144420 2.121110 0.043640 
#    z 0.051600 0.043640 2.000270 
# 
# From -- ./inp_files/237959.got.cif
#   From: 2010.05.17/outbox.cif.g08.bks.cpg/sg2_119_cif.got.tgz:237959.got - 2010.06.03 11:33:40.
