data_PCOD9067398
_publ_section_title
;
Structure prediction by ZEFSAII (Michael W. Deem and Ramdas Pophale) SiO2 
 PCOD9067398
Probable space group: P -1
;
_chemical_formula_sum "Si O2"
_cell_formula_units_Z 16
_cell_length_a 11.083205
_cell_length_b 17.065605
_cell_length_c 9.202467
_cell_angle_alpha 150.949648
_cell_angle_beta 125.156227
_cell_angle_gamma 51.647324
_cell_volume 660.247213
_symmetry_space_group_name_H-M "P -1"
_symmetry_group_IT_number 2
_symmetry_cell_setting 'triclinic'
loop_
_space_group_symop_operation_xyz
x,y,z
-x,-y,-z
loop_
_atom_site_type_symbol
_atom_site_label
_atom_site_fract_x
_atom_site_fract_y
_atom_site_fract_z
Si Si1 0.354910 0.356507 0.748295
Si Si2 0.069883 0.328980 0.359411
Si Si3 0.700614 0.192352 0.189352
Si Si4 0.885367 0.459250 0.732075
Si Si5 0.882056 0.025485 0.294336
Si Si6 0.634341 0.767610 0.111427
Si Si7 0.290936 0.727708 0.197160
Si Si8 0.804569 0.035006 0.719568
O O1 0.246497 0.282647 0.455982
O O2 0.354736 0.307906 0.838879
O O3 0.527813 0.293574 0.706314
O O4 0.281754 0.557436 0.991316
O O5 0.000000 0.500000 0.500000
O O6 0.982107 0.360655 0.504303
O O7 0.065557 0.174618 0.004993
O O8 0.766772 0.351823 0.513720
O O9 0.729740 0.101502 0.215613
O O10 0.528484 0.226493 0.063350
O O11 0.805065 0.061156 0.933508
O O12 0.770793 0.642320 0.910333
O O13 0.000000 0.500000 0.000000
O O14 0.026695 0.070129 0.390893
O O15 0.826947 0.111860 0.548043
O O16 0.676668 0.942886 0.439062
O O17 0.249909 0.774319 0.075620
#
# Coordination Sequence:
#
# PCOD9067398 Si02
#       8
#     2   2   2   2   2   2   2   2
#     4  11  25  49  74 109 153 198 248 312 376 446
#     4  12  28  46  73 108 151 196 254 309 373 453
#     4  12  26  47  74 110 150 194 253 313 375 444
#     4  12  26  47  75 108 149 199 249 312 378 439
#     4  12  27  47  73 109 153 193 250 312 375 449
#     4  12  26  45  81 111 150 195 257 309 375 447
#     4  11  27  47  77 104 152 202 244 303 390 446
#     4  12  25  47  77 110 147 197 250 313 373 448
#
# _framework density 24.233347999999999
#
# number of rings (size 3 to 8) (size 9 to 14) (size 15 to 20)
#    0.000    0.250    3.750    4.500    5.250    1.500 
#    0.000    0.000    0.000    0.000    0.000    0.000 
#    0.000    0.000    0.000    0.000    0.000    0.000 
#
# Total GULP energy -89503.928498 kJ/mol
# GULP energy per Si atom -5593.995531 kJ/mol
# Density = 2.417819 g / cm^3
# Si number density = 24.233348 Si / 1000 Ang^3
#
#
#
# Elastic Constant Matrix: (Units=GPa)
#
#
# Indices 1 2 3 4 5 6 
#
# 1 52.7092 3.1652 25.3198 -4.6997 0.7385 -22.0258
# 2 3.1652 97.5422 33.4298 -15.4633 21.6953 -1.8149
# 3 25.3198 33.4298 137.0041 -2.6919 11.2162 -10.3813
# 4 -4.6997 -15.4633 -2.6919 48.7947 -6.1440 7.3748
# 5 0.7385 21.6953 11.2162 -6.1440 45.8264 -1.8741
# 6 -22.0258 -1.8149 -10.3813 7.3748 -1.8741 41.8811
#
#
#
# Elastic Compliance Matrix: (Units=1/GPa)
#
#
# Indices 1 2 3 4 5 6 
#
# 1 0.026288 0.000719 -0.004125 0.000714 0.000863 0.012747
# 2 0.000719 0.012839 -0.002837 0.003448 -0.004958 -0.000598
# 3 -0.004125 -0.002837 0.008808 -0.000922 -0.000869 0.000015
# 4 0.000714 0.003448 -0.000922 0.022324 0.001429 -0.003571
# 5 0.000863 -0.004958 -0.000869 0.001429 0.024595 0.000872
# 6 0.012747 -0.000598 0.000015 -0.003571 0.000872 0.031226
#
#
# Mechanical properties :
#
#
# Convention : Reuss Voigt Hill
#
# Bulk Modulus (GPa) = 28.20896 45.67611 36.94254
# Shear Modulus (GPa) = 33.24847 42.32315 37.78581
#
# Velocity S-wave (km/s) = 3.70809 4.18363 3.95302
# Velocity P-wave (km/s) = 5.47714 6.49818 6.00939
#
# Compressibility (1/GPa) = 0.03544972
#
# Stress axis : x y z
#
# Youngs Moduli (GPa) = 38.03956 77.88646 113.53589
#
# Poissons Ratio (x) = -0.05601 0.46828
# Poissons Ratio (y) = -0.02735 0.32215
# Poissons Ratio (z) = 0.15690 0.22100
#
# Static dielectric constant tensor:
#      x y z
#    x 1.946010 0.015600 0.043530 
#    y 0.015600 1.918200 0.021360 
#    z 0.043530 0.021360 1.948960 
# 
# From -- ./inp_files/280299.got.cif
#   From: 2010.05.17/outbox.cif.g08.bks.cpg/sg2_141_cif.got.tgz:280299.got - 2010.06.03 11:33:40.
