data_PCOD9067941
_publ_section_title
;
Structure prediction by ZEFSAII (Michael W. Deem and Ramdas Pophale) SiO2 
 PCOD9067941
Probable space group: P -1
;
_chemical_formula_sum "Si O2"
_cell_formula_units_Z 14
_cell_length_a 8.622561
_cell_length_b 12.318278
_cell_length_c 6.391539
_cell_angle_alpha 106.857499
_cell_angle_beta 78.135251
_cell_angle_gamma 69.573255
_cell_volume 572.115942
_symmetry_space_group_name_H-M "P -1"
_symmetry_group_IT_number 2
_symmetry_cell_setting 'triclinic'
loop_
_space_group_symop_operation_xyz
x,y,z
-x,-y,-z
loop_
_atom_site_type_symbol
_atom_site_label
_atom_site_fract_x
_atom_site_fract_y
_atom_site_fract_z
Si Si1 0.327775 0.027470 0.697032
Si Si2 0.406079 0.449149 0.718030
Si Si3 0.229182 0.196445 0.194143
Si Si4 0.994017 0.865136 0.441626
Si Si5 0.554813 0.223203 0.293071
Si Si6 0.985211 0.457661 0.231592
Si Si7 0.376769 0.697086 0.089489
O O1 0.149558 0.121312 0.687619
O O2 0.500000 0.000000 0.500000
O O3 0.327592 0.892555 0.659860
O O4 0.340527 0.081310 0.948133
O O5 0.539486 0.355332 0.459625
O O6 0.218512 0.506816 0.698468
O O7 0.454853 0.343150 0.828777
O O8 0.416753 0.566101 0.891063
O O9 0.091240 0.163109 0.343430
O O10 0.361352 0.226390 0.323907
O O11 0.123429 0.314211 0.138580
O O12 0.187125 0.753096 0.283292
O O13 0.000000 0.000000 0.500000
O O14 0.630488 0.205418 0.029505
O O15 0.000000 0.500000 0.500000
O O16 0.000000 0.500000 0.000000
#
# Coordination Sequence:
#
# PCOD9067941 Si02
#       7
#     2   2   2   2   2   2   2
#     4  12  28  46  78 109 150 201 267 328 403 480
#     4  11  26  46  74 112 159 206 264 325 407 473
#     4  12  28  48  79 111 158 205 268 333 405 485
#     4  12  28  50  76 116 156 204 263 336 408 479
#     4  12  25  46  76 110 150 211 262 327 398 482
#     4  12  28  48  82 120 162 211 275 338 408 485
#     4  11  27  46  77 112 163 205 265 329 406 481
#
# _framework density 24.470564
#
# number of rings (size 3 to 8) (size 9 to 14) (size 15 to 20)
#    0.000    0.286    2.857    4.286   10.000    6.857 
#    0.000    0.000    0.000    0.000    0.000    0.000 
#    0.000    0.000    0.000    0.000    0.000    0.000 
#
# Total GULP energy -78077.506047 kJ/mol
# GULP energy per Si atom -5576.964718 kJ/mol
# Density = 2.441487 g / cm^3
# Si number density = 24.470564 Si / 1000 Ang^3
#
#
#
# Elastic Constant Matrix: (Units=GPa)
#
#
# Indices 1 2 3 4 5 6 
#
# 1 80.3823 29.0886 45.6324 -22.0125 2.1933 -11.5265
# 2 29.0886 122.3840 54.6714 -17.1512 -3.4935 -19.6586
# 3 45.6324 54.6714 132.5346 -5.2563 -6.9326 15.4584
# 4 -22.0125 -17.1512 -5.2563 51.1600 4.4210 8.7940
# 5 2.1933 -3.4935 -6.9326 4.4210 45.3421 -15.8615
# 6 -11.5265 -19.6586 15.4584 8.7940 -15.8615 37.8945
#
#
#
# Elastic Compliance Matrix: (Units=1/GPa)
#
#
# Indices 1 2 3 4 5 6 
#
# 1 0.019461 0.001142 -0.007871 0.006502 0.000214 0.008303
# 2 0.001142 0.013068 -0.006793 0.001992 0.003537 0.010916
# 3 -0.007871 -0.006793 0.014291 -0.001934 -0.002017 -0.012143
# 4 0.006502 0.001992 -0.001934 0.023731 -0.003946 -0.003359
# 5 0.000214 0.003537 -0.002017 -0.003946 0.027726 0.015244
# 6 0.008303 0.010916 -0.012143 -0.003359 0.015244 0.046691
#
#
# Mechanical properties :
#
#
# Convention : Reuss Voigt Hill
#
# Bulk Modulus (GPa) = 50.56621 66.00951 58.28786
# Shear Modulus (GPa) = 27.99492 40.60655 34.30073
#
# Velocity S-wave (km/s) = 3.38601 4.07800 3.74801
# Velocity P-wave (km/s) = 5.99964 7.01477 6.52697
#
# Compressibility (1/GPa) = 0.01977605
#
# Stress axis : x y z
#
# Youngs Moduli (GPa) = 51.38498 76.52505 69.97250
#
# Poissons Ratio (x) = -0.08736 0.55074
# Poissons Ratio (y) = -0.05866 0.47530
# Poissons Ratio (z) = 0.40444 0.51981
#
# Static dielectric constant tensor:
#      x y z
#    x 1.695430 0.296510 0.687810 
#    y 0.296510 1.810400 -0.606500 
#    z 0.687810 -0.606500 0.351060 
# 
# From -- ./inp_files/39794.got.cif
#   From: 2010.05.17/outbox.cif.g08.bks.cpg/sg2_20_cif.got.tgz:39794.got - 2010.06.03 11:33:40.
