data_PCOD9067581
_publ_section_title
;
Structure prediction by ZEFSAII (Michael W. Deem and Ramdas Pophale) SiO2 
 PCOD9067581
Probable space group: P -1
;
_chemical_formula_sum "Si O2"
_cell_formula_units_Z 12
_cell_length_a 9.123914
_cell_length_b 8.712323
_cell_length_c 11.478193
_cell_angle_alpha 105.246567
_cell_angle_beta 140.059645
_cell_angle_gamma 97.886896
_cell_volume 473.075764
_symmetry_space_group_name_H-M "P -1"
_symmetry_group_IT_number 2
_symmetry_cell_setting 'triclinic'
loop_
_space_group_symop_operation_xyz
x,y,z
-x,-y,-z
loop_
_atom_site_type_symbol
_atom_site_label
_atom_site_fract_x
_atom_site_fract_y
_atom_site_fract_z
Si Si1 0.921502 0.110037 0.719845
Si Si2 0.152033 0.763029 0.927659
Si Si3 0.585843 0.476268 0.916013
Si Si4 0.585676 0.881850 0.680352
Si Si5 0.989577 0.684853 0.554113
Si Si6 0.500000 0.500000 0.500000
Si Si7 0.000000 0.000000 0.500000
O O1 0.669603 0.123776 0.531762
O O2 0.002840 0.028648 0.646795
O O3 0.815795 0.970880 0.737110
O O4 0.172306 0.321510 0.939351
O O5 0.145457 0.768726 0.785654
O O6 0.839112 0.620467 0.746720
O O7 0.328659 0.674894 0.053665
O O8 0.294638 0.968796 0.113004
O O9 0.332576 0.392750 0.657438
O O10 0.500000 0.500000 0.000000
O O11 0.497303 0.669007 0.602534
O O12 0.000000 0.500000 0.500000
O O13 0.083203 0.839542 0.539975
#
# Coordination Sequence:
#
# PCOD9067581 Si02
#       7
#     2   2   2   2   2   1   1
#     4  11  25  50  81 120 163 222 280 349 427 509
#     4  12  27  51  83 125 168 229 282 350 429 513
#     4  12  24  52  84 121 174 220 280 358 432 505
#     4  11  27  51  82 119 170 222 282 349 422 510
#     4  12  27  50  83 124 171 222 279 349 434 510
#     4  12  26  50  76 118 166 210 288 342 412 510
#     4  12  24  48  82 118 166 214 278 356 422 508
#
# _framework density 25.365917
#
# number of rings (size 3 to 8) (size 9 to 14) (size 15 to 20)
#    0.000    0.333    5.000    2.500    2.333    2.000 
#    0.000    4.167    7.333    0.000    0.000    0.000 
#    0.000    0.000    0.000    0.000    0.000    0.000 
#
# Total GULP energy -66809.689151 kJ/mol
# GULP energy per Si atom -5567.474096 kJ/mol
# Density = 2.530818 g / cm^3
# Si number density = 25.365917 Si / 1000 Ang^3
#
#
#
# Elastic Constant Matrix: (Units=GPa)
#
#
# Indices 1 2 3 4 5 6 
#
# 1 59.0189 37.9156 28.5922 12.1529 -19.7879 -8.3047
# 2 37.9156 144.4459 74.4246 -8.7665 -9.8367 -36.7824
# 3 28.5922 74.4246 168.0247 20.0887 -3.2902 -9.9808
# 4 12.1529 -8.7665 20.0887 57.1588 -16.5459 -3.9047
# 5 -19.7879 -9.8367 -3.2902 -16.5459 49.2278 -0.0146
# 6 -8.3047 -36.7824 -9.9808 -3.9047 -0.0146 51.5570
#
#
#
# Elastic Compliance Matrix: (Units=1/GPa)
#
#
# Indices 1 2 3 4 5 6 
#
# 1 0.024216 -0.005681 -0.001072 -0.003565 0.007329 -0.000628
# 2 -0.005681 0.013916 -0.005426 0.006499 0.002321 0.008455
# 3 -0.001072 -0.005426 0.008883 -0.004626 -0.002477 -0.002675
# 4 -0.003565 0.006499 -0.004626 0.023358 0.007409 0.004938
# 5 0.007329 0.002321 -0.002477 0.007409 0.026049 0.002925
# 6 -0.000628 0.008455 -0.002675 0.004938 0.002925 0.025184
#
#
# Mechanical properties :
#
#
# Convention : Reuss Voigt Hill
#
# Bulk Modulus (GPa) = 44.13926 72.59490 58.36708
# Shear Modulus (GPa) = 32.56999 46.95917 39.76458
#
# Velocity S-wave (km/s) = 3.58719 4.30731 3.96364
# Velocity P-wave (km/s) = 5.88184 7.30879 6.63379
#
# Compressibility (1/GPa) = 0.02265557
#
# Stress axis : x y z
#
# Youngs Moduli (GPa) = 41.29558 71.86129 112.57341
#
# Poissons Ratio (x) = 0.40826 0.12066
# Poissons Ratio (y) = 0.23461 0.61086
# Poissons Ratio (z) = 0.04426 0.38994
#
# Static dielectric constant tensor:
#      x y z
#    x 1.936870 0.091770 0.197860 
#    y 0.091770 1.991720 -0.048400 
#    z 0.197860 -0.048400 1.780490 
# 
# From -- ./inp_files/377009.got.cif
#   From: 2010.05.17/outbox.cif.g08.bks.cpg/sg2_189_cif.got.tgz:377009.got - 2010.06.03 11:33:40.
