data_PCOD9067907
_publ_section_title
;
Structure prediction by ZEFSAII (Michael W. Deem and Ramdas Pophale) SiO2 
 PCOD9067907
Probable space group: P -1
;
_chemical_formula_sum "Si O2"
_cell_formula_units_Z 14
_cell_length_a 16.079440
_cell_length_b 24.968484
_cell_length_c 5.113754
_cell_angle_alpha 118.282844
_cell_angle_beta 116.079774
_cell_angle_gamma 18.908870
_cell_volume 585.629500
_symmetry_space_group_name_H-M "P -1"
_symmetry_group_IT_number 2
_symmetry_cell_setting 'triclinic'
loop_
_space_group_symop_operation_xyz
x,y,z
-x,-y,-z
loop_
_atom_site_type_symbol
_atom_site_label
_atom_site_fract_x
_atom_site_fract_y
_atom_site_fract_z
Si Si1 0.475885 0.449239 0.216120
Si Si2 0.436222 0.805696 0.810486
Si Si3 0.414409 0.106882 0.427305
Si Si4 0.032386 0.839796 0.095422
Si Si5 0.169433 0.856160 0.703463
Si Si6 0.719644 0.675271 0.378766
Si Si7 0.914925 0.785397 0.028585
O O1 0.500000 0.500000 0.500000
O O2 0.598534 0.319011 0.238577
O O3 0.179468 0.618178 0.157445
O O4 0.672163 0.334746 0.980859
O O5 0.305614 0.820105 0.611714
O O6 0.543736 0.769267 0.608525
O O7 0.642849 0.677358 0.036669
O O8 0.193792 0.994789 0.012431
O O9 0.331790 0.228024 0.614190
O O10 0.500000 0.000000 0.500000
O O11 0.664540 0.956710 0.242747
O O12 0.163249 0.229976 0.240633
O O13 0.019704 0.891896 0.448216
O O14 0.967391 0.809419 0.965433
O O15 0.000000 0.000000 0.000000
O O16 0.000000 0.500000 0.500000
#
# Coordination Sequence:
#
# PCOD9067907 Si02
#       7
#     2   2   2   2   2   2   2
#     4  12  28  45  76 115 157 200 262 330 400 476
#     4  12  27  48  80 108 161 209 262 325 399 485
#     4  11  27  48  80 104 149 210 268 325 402 465
#     4  12  25  48  75 113 160 202 257 325 403 478
#     4  12  27  46  75 114 154 212 259 312 409 487
#     4  12  29  51  77 113 156 209 272 335 391 469
#     4  11  26  46  72 110 148 197 262 326 396 468
#
# _framework density 23.905902999999999
#
# number of rings (size 3 to 8) (size 9 to 14) (size 15 to 20)
#    0.000    0.286    4.286    3.000   10.000    1.143 
#    0.000    0.000    0.000    0.000    0.000    0.000 
#    0.000    0.000    0.000    0.000    0.000    0.000 
#
# Total GULP energy -78155.365052 kJ/mol
# GULP energy per Si atom -5582.526075 kJ/mol
# Density = 2.385149 g / cm^3
# Si number density = 23.905903 Si / 1000 Ang^3
#
#
#
# Elastic Constant Matrix: (Units=GPa)
#
#
# Indices 1 2 3 4 5 6 
#
# 1 109.2765 31.1657 2.6818 8.2210 7.1294 -4.2176
# 2 31.1657 102.0414 30.6734 -32.9707 27.4675 1.3754
# 3 2.6818 30.6734 62.7830 7.6772 -6.3080 -33.8208
# 4 8.2210 -32.9707 7.6772 28.5469 9.7057 23.3048
# 5 7.1294 27.4675 -6.3080 9.7057 22.2218 -21.7517
# 6 -4.2176 1.3754 -33.8208 23.3048 -21.7517 29.6818
#
#
#
# Elastic Compliance Matrix: (Units=1/GPa)
#
#
# Indices 1 2 3 4 5 6 
#
# 1 0.009845 -0.001592 -0.001503 -0.000570 -0.004123 -0.002814
# 2 -0.001592 0.006383 0.003629 -0.003636 0.005554 0.010538
# 3 -0.001503 0.003629 0.009347 0.009654 -0.010379 -0.004917
# 4 -0.000570 -0.003636 0.009654 0.011340 0.016281 0.014115
# 5 -0.004123 0.005554 -0.010379 0.016281 0.015872 -0.013822
# 6 -0.002814 0.010538 -0.004917 0.014115 -0.013822 0.005988
#
#
# Mechanical properties :
#
#
# Convention : Reuss Voigt Hill
#
# Bulk Modulus (GPa) = 37.53263 44.79363 41.16313
# Shear Modulus (GPa) = 75.08813 30.06210 52.57512
#
# Velocity S-wave (km/s) = 5.61053 3.55000 4.69471
# Velocity P-wave (km/s) = 7.59638 5.96502 6.82958
#
# Compressibility (1/GPa) = 0.02664349
#
# Stress axis : x y z
#
# Youngs Moduli (GPa) = 101.57199 156.65947 106.98618
#
# Poissons Ratio (x) = 0.24934 0.16082
# Poissons Ratio (y) = 0.16167 -0.38823
# Poissons Ratio (z) = 0.15268 -0.56849
#
# Static dielectric constant tensor:
#      x y z
#    x 1.974670 0.067380 -0.053600 
#    y 0.067380 1.993800 -0.001450 
#    z -0.053600 -0.001450 1.947860 
# 
# From -- ./inp_files/101124.got.cif
#   From: 2010.05.17/outbox.cif.g08.bks.cpg/sg2_51_cif.got.tgz:101124.got - 2010.06.03 11:33:40.
