data_PCOD9067461
_publ_section_title
;
Structure prediction by ZEFSAII (Michael W. Deem and Ramdas Pophale) SiO2 
 PCOD9067461
Probable space group: P -1
;
_chemical_formula_sum "Si O2"
_cell_formula_units_Z 16
_cell_length_a 7.685938
_cell_length_b 8.628046
_cell_length_c 9.101515
_cell_angle_alpha 96.105988
_cell_angle_beta 94.428761
_cell_angle_gamma 79.010486
_cell_volume 588.130810
_symmetry_space_group_name_H-M "P -1"
_symmetry_group_IT_number 2
_symmetry_cell_setting 'triclinic'
loop_
_space_group_symop_operation_xyz
x,y,z
-x,-y,-z
loop_
_atom_site_type_symbol
_atom_site_label
_atom_site_fract_x
_atom_site_fract_y
_atom_site_fract_z
Si Si1 0.116700 0.640747 0.014323
Si Si2 0.064321 0.169617 0.241541
Si Si3 0.255010 0.924214 0.598928
Si Si4 0.661430 0.290131 0.706196
Si Si5 0.351153 0.347008 0.918221
Si Si6 0.854302 0.710895 0.360672
Si Si7 0.790667 0.530997 0.585342
Si Si8 0.430186 0.106829 0.146171
O O1 0.298865 0.536460 0.947926
O O2 0.035264 0.775884 0.910689
O O3 0.170124 0.714756 0.175336
O O4 0.000000 0.500000 0.000000
O O5 0.129854 0.327437 0.321467
O O6 0.253260 0.061360 0.202477
O O7 0.919820 0.114407 0.332950
O O8 0.419016 0.896113 0.721615
O O9 0.204718 0.109903 0.574411
O O10 0.689105 0.174183 0.556111
O O11 0.508022 0.278511 0.810363
O O12 0.638212 0.467736 0.654278
O O13 0.189860 0.290261 0.813557
O O14 0.373409 0.273957 0.074074
O O15 0.741627 0.596226 0.426971
O O16 0.048709 0.620703 0.412801
O O17 0.500000 0.000000 0.000000
#
# Coordination Sequence:
#
# PCOD9067461 Si02
#       8
#     2   2   2   2   2   2   2   2
#     4  12  23  52  83 118 159 223 283 342 413 491
#     4  12  27  52  88 118 167 223 283 341 417 502
#     4  12  30  54  83 124 174 219 277 341 431 503
#     4  12  28  47  82 128 163 216 278 349 422 496
#     4  12  25  49  83 117 165 217 282 346 410 492
#     4  11  25  50  80 114 163 215 268 346 410 491
#     4  11  25  49  78 119 155 212 285 332 411 491
#     4  12  28  53  80 126 169 220 277 341 418 511
#
# _framework density 27.204832
#
# number of rings (size 3 to 8) (size 9 to 14) (size 15 to 20)
#    0.000    0.250    5.000    2.625    1.750    6.500 
#    0.000    0.000    0.000    0.000    0.000    0.000 
#    0.000    0.000    0.000    0.000    0.000    0.000 
#
# Total GULP energy -89674.301258 kJ/mol
# GULP energy per Si atom -5604.643829 kJ/mol
# Density = 2.714291 g / cm^3
# Si number density = 27.204832 Si / 1000 Ang^3
#
#
#
# Elastic Constant Matrix: (Units=GPa)
#
#
# Indices 1 2 3 4 5 6 
#
# 1 196.9983 54.4809 81.7373 -1.8068 -12.3773 -12.7144
# 2 54.4809 131.5956 72.9720 12.1158 -1.7920 -13.8835
# 3 81.7373 72.9720 221.3842 7.1895 8.3476 -13.4048
# 4 -1.8068 12.1158 7.1895 65.9182 -5.0781 -12.1873
# 5 -12.3773 -1.7920 8.3476 -5.0781 55.6198 -1.4235
# 6 -12.7144 -13.8835 -13.4048 -12.1873 -1.4235 33.8700
#
#
#
# Elastic Compliance Matrix: (Units=1/GPa)
#
#
# Indices 1 2 3 4 5 6 
#
# 1 0.006521 -0.001558 -0.001906 0.001096 0.001826 0.001526
# 2 -0.001558 0.010002 -0.002568 -0.001192 0.000305 0.002082
# 3 -0.001906 -0.002568 0.006162 -0.000269 -0.001443 0.000513
# 4 0.001096 -0.001192 -0.000269 0.016688 0.001920 0.005902
# 5 0.001826 0.000305 -0.001443 0.001920 0.018831 0.001722
# 6 0.001526 0.002082 0.000513 0.005902 0.001722 0.033350
#
#
# Mechanical properties :
#
#
# Convention : Reuss Voigt Hill
#
# Bulk Modulus (GPa) = 94.16310 107.59540 100.87925
# Shear Modulus (GPa) = 46.65980 53.80079 50.23029
#
# Velocity S-wave (km/s) = 4.14590 4.45187 4.30161
# Velocity P-wave (km/s) = 7.58985 8.12782 7.86344
#
# Compressibility (1/GPa) = 0.01061987
#
# Stress axis : x y z
#
# Youngs Moduli (GPa) = 153.34570 99.98240 162.29522
#
# Poissons Ratio (x) = 0.15575 0.30938
# Poissons Ratio (y) = 0.23887 0.41683
# Poissons Ratio (z) = 0.29232 0.25679
#
# Static dielectric constant tensor:
#      x y z
#    x 2.361200 -0.051240 -0.043390 
#    y -0.051240 2.139910 -0.003410 
#    z -0.043390 -0.003410 2.096320 
# 
# From -- ./inp_files/382398.got.cif
#   From: 2010.05.17/outbox.cif.g08.bks.cpg/sg2_192_cif.got.tgz:382398.got - 2010.06.03 11:33:40.
