data_PCOD9067477
_publ_section_title
;
Structure prediction by ZEFSAII (Michael W. Deem and Ramdas Pophale) SiO2 
 PCOD9067477
Probable space group: P -1
;
_chemical_formula_sum "Si O2"
_cell_formula_units_Z 14
_cell_length_a 4.917621
_cell_length_b 16.933344
_cell_length_c 12.652474
_cell_angle_alpha 152.416646
_cell_angle_beta 91.359317
_cell_angle_gamma 85.639787
_cell_volume 484.262479
_symmetry_space_group_name_H-M "P -1"
_symmetry_group_IT_number 2
_symmetry_cell_setting 'triclinic'
loop_
_space_group_symop_operation_xyz
x,y,z
-x,-y,-z
loop_
_atom_site_type_symbol
_atom_site_label
_atom_site_fract_x
_atom_site_fract_y
_atom_site_fract_z
Si Si1 0.438762 0.812833 0.644576
Si Si2 0.489651 0.807812 0.112871
Si Si3 0.266963 0.602964 0.694191
Si Si4 0.145555 0.684405 0.154233
Si Si5 0.615303 0.804333 0.417972
Si Si6 0.048907 0.517768 0.255250
Si Si7 0.172169 0.132302 0.097238
O O1 0.663306 0.786565 0.523177
O O2 0.233541 0.669307 0.461271
O O3 0.584273 0.824057 0.772177
O O4 0.278287 0.002557 0.851378
O O5 0.268017 0.771097 0.155986
O O6 0.535168 0.001861 0.365130
O O7 0.375561 0.765131 0.945994
O O8 0.742175 0.659538 0.949250
O O9 0.500000 0.500000 0.500000
O O10 0.990963 0.305301 0.264573
O O11 0.165127 0.500848 0.673577
O O12 0.392660 0.681175 0.235479
O O13 0.878057 0.785288 0.323558
O O14 0.072473 0.505468 0.891169
O O15 0.000000 0.000000 0.000000
#
# Coordination Sequence:
#
# PCOD9067477 Si02
#       7
#     2   2   2   2   2   2   2
#     4  11  29  53  82 120 165 231 279 350 426 511
#     4  11  25  49  80 123 163 218 283 352 426 502
#     4  11  28  54  85 126 167 223 283 353 428 511
#     4  11  26  48  82 122 167 219 282 354 428 500
#     4  12  26  49  83 119 167 224 284 347 425 516
#     4  11  27  54  79 122 171 213 283 357 424 508
#     4  11  27  56  83 117 172 222 284 347 425 510
#
# _framework density 28.909942000000001
#
# number of rings (size 3 to 8) (size 9 to 14) (size 15 to 20)
#    0.000    0.857    1.429    2.571   10.000    5.714 
#    5.143    0.000    0.000    0.000    0.000    0.000 
#    0.000    0.000    0.000    0.000    0.000    0.000 
#
# Total GULP energy -78636.214647 kJ/mol
# GULP energy per Si atom -5616.872475 kJ/mol
# Density = 2.884414 g / cm^3
# Si number density = 28.909942 Si / 1000 Ang^3
#
#
#
# Elastic Constant Matrix: (Units=GPa)
#
#
# Indices 1 2 3 4 5 6 
#
# 1 167.1357 37.9445 81.9825 -16.3636 -3.1542 13.7609
# 2 37.9445 125.9812 71.8989 -13.4479 -7.5934 23.8979
# 3 81.9825 71.8989 230.0741 -10.7340 -26.2570 13.1646
# 4 -16.3636 -13.4479 -10.7340 68.4433 7.5699 0.5533
# 5 -3.1542 -7.5934 -26.2570 7.5699 77.2355 -10.6593
# 6 13.7609 23.8979 13.1646 0.5533 -10.6593 62.3130
#
#
#
# Elastic Compliance Matrix: (Units=1/GPa)
#
#
# Indices 1 2 3 4 5 6 
#
# 1 0.007539 -0.000546 -0.002488 0.001411 -0.000881 -0.001093
# 2 -0.000546 0.010538 -0.002897 0.001580 -0.000599 -0.003425
# 3 -0.002488 -0.002897 0.006298 -0.000390 0.001883 0.000656
# 4 0.001411 0.001580 -0.000390 0.015384 -0.001599 -0.001245
# 5 -0.000881 -0.000599 0.001883 -0.001599 0.013985 0.002433
# 6 -0.001093 -0.003425 0.000656 -0.001245 0.002433 0.017892
#
#
# Mechanical properties :
#
#
# Convention : Reuss Voigt Hill
#
# Bulk Modulus (GPa) = 79.92128 100.76029 90.34078
# Shear Modulus (GPa) = 57.03305 63.68938 60.36121
#
# Velocity S-wave (km/s) = 4.44642 4.69873 4.57432
# Velocity P-wave (km/s) = 7.35295 8.02286 7.69520
#
# Compressibility (1/GPa) = 0.01251231
#
# Stress axis : x y z
#
# Youngs Moduli (GPa) = 132.64363 94.89584 158.79193
#
# Poissons Ratio (x) = 0.05180 0.39506
# Poissons Ratio (y) = 0.07241 0.46006
# Poissons Ratio (z) = 0.33001 0.27494
#
# Static dielectric constant tensor:
#      x y z
#    x 2.346420 -0.064850 -0.008820 
#    y -0.064850 2.304290 0.003130 
#    z -0.008820 0.003130 2.234810 
# 
# From -- ./inp_files/485849.got.cif
#   From: 2010.05.17/outbox.cif.g08.bks.cpg/sg2_243_cif.got.tgz:485849.got - 2010.06.03 11:33:40.
