data_PCOD9067185
_publ_section_title
;
Structure prediction by ZEFSAII (Michael W. Deem and Ramdas Pophale) SiO2 
 PCOD9067185
Probable space group: P -1
;
_chemical_formula_sum "Si O2"
_cell_formula_units_Z 16
_cell_length_a 8.315628
_cell_length_b 17.727197
_cell_length_c 7.428206
_cell_angle_alpha 91.744521
_cell_angle_beta 145.152785
_cell_angle_gamma 93.227859
_cell_volume 619.021896
_symmetry_space_group_name_H-M "P -1"
_symmetry_group_IT_number 2
_symmetry_cell_setting 'triclinic'
loop_
_space_group_symop_operation_xyz
x,y,z
-x,-y,-z
loop_
_atom_site_type_symbol
_atom_site_label
_atom_site_fract_x
_atom_site_fract_y
_atom_site_fract_z
Si Si1 0.586988 0.818722 0.711632
Si Si2 0.758895 0.664913 0.715199
Si Si3 0.842226 0.089223 0.814749
Si Si4 0.745418 0.817077 0.273635
Si Si5 0.199719 0.575615 0.247546
Si Si6 0.404547 0.030408 0.719595
Si Si7 0.291323 0.552820 0.730100
Si Si8 0.191723 0.715981 0.798920
O O1 0.639304 0.736743 0.690473
O O2 0.287382 0.836649 0.367367
O O3 0.637337 0.822972 0.971053
O O4 0.824125 0.884758 0.852963
O O5 0.480257 0.606962 0.393695
O O6 0.970847 0.687313 0.748655
O O7 0.970096 0.633797 0.050177
O O8 0.775522 0.032205 0.579499
O O9 0.324795 0.940415 0.159863
O O10 0.770431 0.900708 0.387323
O O11 0.017371 0.772679 0.529276
O O12 0.482869 0.766557 0.130503
O O13 0.335317 0.561067 0.559973
O O14 0.000000 0.500000 0.000000
O O15 0.500000 0.000000 0.000000
O O16 0.000000 0.500000 0.500000
O O17 0.280080 0.639395 0.788866
O O18 0.500000 0.500000 0.000000
#
# Coordination Sequence:
#
# PCOD9067185 Si02
#       8
#     2   2   2   2   2   2   2   2
#     4  12  24  47  72 106 144 196 247 309 372 440
#     4  12  25  45  72 104 150 192 244 305 374 449
#     4  11  26  46  71 106 149 194 254 312 372 446
#     4  12  25  44  72 104 145 194 250 306 369 444
#     4  12  26  46  72 108 146 194 239 302 373 449
#     4  11  25  48  72 109 149 202 252 314 378 446
#     4  12  26  48  75 106 145 189 243 303 365 447
#     4  12  26  46  71 108 143 193 245 302 370 442
#
# _framework density 25.847227
#
# number of rings (size 3 to 8) (size 9 to 14) (size 15 to 20)
#    0.000    0.250    1.250    7.875    0.000    5.500 
#    0.000    0.000    0.000    0.000    0.000    0.000 
#    0.000    0.000    0.000    0.000    0.000    0.000 
#
# Total GULP energy -89772.902733 kJ/mol
# GULP energy per Si atom -5610.806421 kJ/mol
# Density = 2.578840 g / cm^3
# Si number density = 25.847227 Si / 1000 Ang^3
#
#
#
# Elastic Constant Matrix: (Units=GPa)
#
#
# Indices 1 2 3 4 5 6 
#
# 1 113.9225 38.7476 30.1122 -8.0983 -16.6195 -0.9272
# 2 38.7476 166.9562 48.0965 -28.5210 -4.5446 -31.8937
# 3 30.1122 48.0965 136.3515 -31.6565 12.0716 2.5228
# 4 -8.0983 -28.5210 -31.6565 50.2418 9.8053 6.4612
# 5 -16.6195 -4.5446 12.0716 9.8053 49.0289 3.9371
# 6 -0.9272 -31.8937 2.5228 6.4612 3.9371 46.5038
#
#
#
# Elastic Compliance Matrix: (Units=1/GPa)
#
#
# Indices 1 2 3 4 5 6 
#
# 1 0.010667 -0.002228 -0.002335 -0.001711 0.004433 -0.001326
# 2 -0.002228 0.008593 -0.001994 0.002625 -0.000445 0.005630
# 3 -0.002335 -0.001994 0.010472 0.006309 -0.004618 -0.002468
# 4 -0.001711 0.002625 0.006309 0.026694 -0.007093 -0.001684
# 5 0.004433 -0.000445 -0.004618 -0.007093 0.024498 -0.001055
# 6 -0.001326 0.005630 -0.002468 -0.001684 -0.001055 0.025796
#
#
# Mechanical properties :
#
#
# Convention : Reuss Voigt Hill
#
# Bulk Modulus (GPa) = 60.17710 72.34920 66.26315
# Shear Modulus (GPa) = 39.88053 49.17316 44.52684
#
# Velocity S-wave (km/s) = 3.93228 4.36644 4.15504
# Velocity P-wave (km/s) = 6.62944 7.31252 6.97934
#
# Compressibility (1/GPa) = 0.01661762
#
# Stress axis : x y z
#
# Youngs Moduli (GPa) = 93.74560 116.37292 95.48914
#
# Poissons Ratio (x) = 0.25928 0.22298
# Poissons Ratio (y) = 0.20886 0.19045
# Poissons Ratio (z) = 0.21891 0.23210
#
# Static dielectric constant tensor:
#      x y z
#    x 1.994220 0.076180 -0.046010 
#    y 0.076180 2.125400 -0.029080 
#    z -0.046010 -0.029080 1.960640 
# 
# From -- ./inp_files/217778.got.cif
#   From: 2010.05.17/outbox.cif.g08.bks.cpg/sg2_109_cif.got.tgz:217778.got - 2010.06.03 11:33:40.
