data_PCOD9067684
_publ_section_title
;
Structure prediction by ZEFSAII (Michael W. Deem and Ramdas Pophale) SiO2 
 PCOD9067684
Probable space group: P -1
;
_chemical_formula_sum "Si O2"
_cell_formula_units_Z 14
_cell_length_a 20.437959
_cell_length_b 21.064908
_cell_length_c 11.905059
_cell_angle_alpha 149.777069
_cell_angle_beta 159.499696
_cell_angle_gamma 19.834359
_cell_volume 602.753001
_symmetry_space_group_name_H-M "P -1"
_symmetry_group_IT_number 2
_symmetry_cell_setting 'triclinic'
loop_
_space_group_symop_operation_xyz
x,y,z
-x,-y,-z
loop_
_atom_site_type_symbol
_atom_site_label
_atom_site_fract_x
_atom_site_fract_y
_atom_site_fract_z
Si Si1 0.394376 0.913079 0.679040
Si Si2 0.554807 0.583126 0.377370
Si Si3 0.054702 0.447068 0.685325
Si Si4 0.074862 0.746327 0.692447
Si Si5 0.975227 0.068696 0.439226
Si Si6 0.662530 0.470670 0.610082
Si Si7 0.563911 0.816125 0.318209
O O1 0.622265 0.695576 0.676415
O O2 0.174531 0.038888 0.416330
O O3 0.238222 0.941877 0.584270
O O4 0.500000 0.000000 0.000000
O O5 0.796655 0.373481 0.398924
O O6 0.466659 0.576915 0.348162
O O7 0.310900 0.695495 0.066464
O O8 0.265275 0.310677 0.712843
O O9 0.000768 0.340249 0.492103
O O10 0.772049 0.658833 0.509809
O O11 0.201907 0.466933 0.039382
O O12 0.893931 0.253430 0.615508
O O13 0.726934 0.115114 0.049840
O O14 0.000000 0.000000 0.500000
O O15 0.500000 0.500000 0.500000
O O16 0.500000 0.000000 0.500000
#
# Coordination Sequence:
#
# PCOD9067684 Si02
#       7
#     2   2   2   2   2   2   2
#     4  12  28  46  72 105 144 188 241 293 357 426
#     4  11  26  47  73 101 140 190 235 292 357 423
#     4  11  26  43  75 105 140 190 237 293 356 422
#     4  11  26  47  72 102 142 188 239 292 355 427
#     4  12  26  46  72 106 144 188 236 297 359 421
#     4  12  23  45  71 103 143 180 233 294 353 420
#     4  11  26  47  71 107 147 187 241 292 355 427
#
# _framework density 23.226762999999998
#
# number of rings (size 3 to 8) (size 9 to 14) (size 15 to 20)
#    0.000    0.571    2.857    3.857   10.000    2.286 
#    0.000    0.000    0.000    0.000    0.000    0.000 
#    0.000    0.000    0.000    0.000    0.000    0.000 
#
# Total GULP energy -78329.862164 kJ/mol
# GULP energy per Si atom -5594.990155 kJ/mol
# Density = 2.317390 g / cm^3
# Si number density = 23.226763 Si / 1000 Ang^3
#
#
#
# Elastic Constant Matrix: (Units=GPa)
#
#
# Indices 1 2 3 4 5 6 
#
# 1 109.3084 24.7883 22.3006 -0.9133 -6.8237 11.4147
# 2 24.7883 123.8158 27.4746 20.5430 -14.4809 0.5426
# 3 22.3006 27.4746 85.1791 17.1082 1.5831 -16.1951
# 4 -0.9133 20.5430 17.1082 43.5238 6.1272 -5.8372
# 5 -6.8237 -14.4809 1.5831 6.1272 35.1509 -1.8733
# 6 11.4147 0.5426 -16.1951 -5.8372 -1.8733 22.2412
#
#
#
# Elastic Compliance Matrix: (Units=1/GPa)
#
#
# Indices 1 2 3 4 5 6 
#
# 1 0.011339 -0.001321 -0.004459 0.001296 0.001174 -0.008595
# 2 -0.001321 0.010282 -0.002514 -0.004877 0.004821 -0.002277
# 3 -0.004459 -0.002514 0.017074 -0.003593 -0.001312 0.013729
# 4 0.001296 -0.004877 -0.003593 0.028097 -0.006297 0.003681
# 5 0.001174 0.004821 -0.001312 -0.006297 0.031785 -0.000651
# 6 -0.008595 -0.002277 0.013729 0.003681 -0.000651 0.060337
#
#
# Mechanical properties :
#
#
# Convention : Reuss Voigt Hill
#
# Bulk Modulus (GPa) = 45.23142 51.93670 48.58406
# Shear Modulus (GPa) = 27.34167 36.43249 31.88708
#
# Velocity S-wave (km/s) = 3.43470 3.96480 3.70923
# Velocity P-wave (km/s) = 5.93681 6.58550 6.26955
#
# Compressibility (1/GPa) = 0.02210853
#
# Stress axis : x y z
#
# Youngs Moduli (GPa) = 88.18852 97.26043 58.56688
#
# Poissons Ratio (x) = 0.12846 0.26115
# Poissons Ratio (y) = 0.11648 0.14722
# Poissons Ratio (z) = 0.39324 0.24448
#
# Static dielectric constant tensor:
#      x y z
#    x 1.900270 -0.005770 -0.010970 
#    y -0.005770 1.860460 -0.028610 
#    z -0.010970 -0.028610 1.860560 
# 
# From -- ./inp_files/244603.got.cif
#   From: 2010.05.17/outbox.cif.g08.bks.cpg/sg2_123_cif.got.tgz:244603.got - 2010.06.03 11:33:40.
