data_PCOD9067662
_publ_section_title
;
Structure prediction by ZEFSAII (Michael W. Deem and Ramdas Pophale) SiO2 
 PCOD9067662
Probable space group: P -1
;
_chemical_formula_sum "Si O2"
_cell_formula_units_Z 12
_cell_length_a 9.740100
_cell_length_b 4.969961
_cell_length_c 14.327720
_cell_angle_alpha 76.487917
_cell_angle_beta 117.650658
_cell_angle_gamma 66.644333
_cell_volume 483.965173
_symmetry_space_group_name_H-M "P -1"
_symmetry_group_IT_number 2
_symmetry_cell_setting 'triclinic'
loop_
_space_group_symop_operation_xyz
x,y,z
-x,-y,-z
loop_
_atom_site_type_symbol
_atom_site_label
_atom_site_fract_x
_atom_site_fract_y
_atom_site_fract_z
Si Si1 0.411905 0.777831 0.364834
Si Si2 0.169774 0.530442 0.284811
Si Si3 0.041977 0.329791 0.428132
Si Si4 0.583246 0.524471 0.925406
Si Si5 0.144796 0.248326 0.984490
Si Si6 0.311638 0.646312 0.671046
O O1 0.500000 0.500000 0.500000
O O2 0.227009 0.788881 0.276632
O O3 0.539364 0.670506 0.321509
O O4 0.348651 0.147951 0.345601
O O5 0.113169 0.497870 0.372255
O O6 0.993939 0.627744 0.157820
O O7 0.000000 0.500000 0.500000
O O8 0.850818 0.374286 0.331737
O O9 0.205441 0.939422 0.535010
O O10 0.415248 0.707452 0.780355
O O11 0.500000 0.500000 0.000000
O O12 0.687474 0.701111 0.966907
O O13 0.742039 0.161586 0.954424
O O14 0.000000 0.500000 0.000000
#
# Coordination Sequence:
#
# PCOD9067662 Si02
#       6
#     2   2   2   2   2   2
#     4  12  24  44  69 104 137 174 225 275 342 402
#     4  12  26  45  72 100 139 176 226 280 336 406
#     4  11  26  42  69  98 139 177 222 278 349 399
#     4  12  27  46  73 101 139 182 235 281 339 407
#     4  12  26  48  72 102 138 185 231 282 341 404
#     4  11  26  44  67 101 136 178 225 282 337 406
#
# _framework density 24.795175
#
# number of rings (size 3 to 8) (size 9 to 14) (size 15 to 20)
#    0.000    0.333    1.667    6.500    9.333    0.000 
#    0.000    0.000    0.000    0.000    0.000    0.000 
#    0.000    0.000    0.000    0.000    0.000    0.000 
#
# Total GULP energy -67250.704307 kJ/mol
# GULP energy per Si atom -5604.225359 kJ/mol
# Density = 2.473874 g / cm^3
# Si number density = 24.795175 Si / 1000 Ang^3
#
#
#
# Elastic Constant Matrix: (Units=GPa)
#
#
# Indices 1 2 3 4 5 6 
#
# 1 92.8381 17.0247 27.1549 6.5059 13.8092 -8.5089
# 2 17.0247 70.5696 6.7559 12.9825 3.0004 0.1157
# 3 27.1549 6.7559 104.1615 23.0223 23.4346 -3.6319
# 4 6.5059 12.9825 23.0223 33.4916 3.3737 -1.9938
# 5 13.8092 3.0004 23.4346 3.3737 36.2392 15.3810
# 6 -8.5089 0.1157 -3.6319 -1.9938 15.3810 48.6927
#
#
#
# Elastic Compliance Matrix: (Units=1/GPa)
#
#
# Indices 1 2 3 4 5 6 
#
# 1 0.012939 -0.002855 -0.002107 0.000764 -0.004979 0.003715
# 2 -0.002855 0.015938 0.001121 -0.006430 -0.000063 -0.000697
# 3 -0.002107 0.001121 0.014109 -0.008635 -0.008949 0.003155
# 4 0.000764 -0.006430 -0.008635 0.037946 0.002128 0.000386
# 5 -0.004979 -0.000063 -0.008949 0.002128 0.041229 -0.014474
# 6 0.003715 -0.000697 0.003155 0.000386 -0.014474 0.026011
#
#
# Mechanical properties :
#
#
# Convention : Reuss Voigt Hill
#
# Bulk Modulus (GPa) = 28.32441 41.04893 34.68667
# Shear Modulus (GPa) = 29.82915 38.12693 33.97804
#
# Velocity S-wave (km/s) = 3.47222 3.92557 3.70584
# Velocity P-wave (km/s) = 5.24626 6.09410 5.68600
#
# Compressibility (1/GPa) = 0.03530524
#
# Stress axis : x y z
#
# Youngs Moduli (GPa) = 77.28675 62.74145 70.87748
#
# Poissons Ratio (x) = 0.17911 0.14935
# Poissons Ratio (y) = 0.22063 -0.07949
# Poissons Ratio (z) = 0.16285 -0.07036
#
# Static dielectric constant tensor:
#      x y z
#    x 1.913200 -0.030760 -0.003770 
#    y -0.030760 2.127670 -0.234990 
#    z -0.003770 -0.234990 2.064590 
# 
# From -- ./inp_files/28668.got.cif
#   From: 2010.05.17/outbox.cif.g08.bks.cpg/sg2_15_cif.got.tgz:28668.got - 2010.06.03 11:33:40.
