data_PCOD9067596
_publ_section_title
;
Structure prediction by ZEFSAII (Michael W. Deem and Ramdas Pophale) SiO2 
 PCOD9067596
Probable space group: P -1
;
_chemical_formula_sum "Si O2"
_cell_formula_units_Z 14
_cell_length_a 8.061489
_cell_length_b 14.771835
_cell_length_c 6.767064
_cell_angle_alpha 59.944609
_cell_angle_beta 109.541215
_cell_angle_gamma 118.051111
_cell_volume 610.367058
_symmetry_space_group_name_H-M "P -1"
_symmetry_group_IT_number 2
_symmetry_cell_setting 'triclinic'
loop_
_space_group_symop_operation_xyz
x,y,z
-x,-y,-z
loop_
_atom_site_type_symbol
_atom_site_label
_atom_site_fract_x
_atom_site_fract_y
_atom_site_fract_z
Si Si1 0.047555 0.119294 0.484670
Si Si2 0.681520 0.059269 0.638347
Si Si3 0.762593 0.579622 0.715680
Si Si4 0.819485 0.694241 0.000124
Si Si5 0.607074 0.366229 0.623985
Si Si6 0.664991 0.831796 0.088700
Si Si7 0.878106 0.306858 0.553811
O O1 0.118798 0.211117 0.246158
O O2 0.186881 0.143746 0.699235
O O3 0.848398 0.108107 0.497695
O O4 0.000000 0.000000 0.500000
O O5 0.719796 0.178632 0.626228
O O6 0.500000 0.000000 0.500000
O O7 0.696238 0.955484 0.883260
O O8 0.755559 0.587121 0.943258
O O9 0.706556 0.456642 0.733482
O O10 0.587821 0.617111 0.535180
O O11 0.969693 0.649615 0.616919
O O12 0.697515 0.744214 0.039817
O O13 0.983112 0.688542 0.213317
O O14 0.539849 0.241283 0.826287
O O15 0.752176 0.379227 0.487221
#
# Coordination Sequence:
#
# PCOD9067596 Si02
#       7
#     2   2   2   2   2   2   2
#     4  12  23  43  70  97 140 193 228 279 352 421
#     4  12  27  42  68 106 142 179 234 290 350 421
#     4  11  25  51  72 101 140 193 238 292 357 409
#     4  12  22  44  75  97 143 188 233 287 357 416
#     4  11  26  47  74 103 143 183 242 300 342 424
#     4  12  25  47  68 109 142 186 233 284 359 425
#     4  12  26  48  70 106 143 185 238 295 349 424
#
# _framework density 22.937017000000001
#
# number of rings (size 3 to 8) (size 9 to 14) (size 15 to 20)
#    0.000    0.286    7.143    1.714    6.000    1.714 
#    0.000    0.000    0.000    0.000    0.000    0.000 
#    0.000    0.000    0.000    0.000    0.000    0.000 
#
# Total GULP energy -78060.065322 kJ/mol
# GULP energy per Si atom -5575.718952 kJ/mol
# Density = 2.288481 g / cm^3
# Si number density = 22.937017 Si / 1000 Ang^3
#
#
#
# Elastic Constant Matrix: (Units=GPa)
#
#
# Indices 1 2 3 4 5 6 
#
# 1 148.5487 24.6818 23.0977 38.5944 -32.1274 -6.8054
# 2 24.6818 149.0044 20.6898 25.2964 -8.9924 2.2882
# 3 23.0977 20.6898 89.8126 15.5820 -16.3346 7.5497
# 4 38.5944 25.2964 15.5820 59.3685 -7.4857 -6.8022
# 5 -32.1274 -8.9924 -16.3346 -7.4857 26.1905 12.2742
# 6 -6.8054 2.2882 7.5497 -6.8022 12.2742 41.6020
#
#
#
# Elastic Compliance Matrix: (Units=1/GPa)
#
#
# Indices 1 2 3 4 5 6 
#
# 1 0.011042 -0.000042 0.001095 -0.006072 0.014145 -0.003556
# 2 -0.000042 0.007439 -0.000772 -0.002859 0.001801 -0.001275
# 3 0.001095 -0.000772 0.014369 -0.003371 0.012130 -0.006516
# 4 -0.006072 -0.002859 -0.003371 0.022685 -0.006593 0.005430
# 5 0.014145 0.001801 0.012130 -0.006593 0.072333 -0.022406
# 6 -0.003556 -0.001275 -0.006516 0.005430 -0.022406 0.032207
#
#
# Mechanical properties :
#
#
# Convention : Reuss Voigt Hill
#
# Bulk Modulus (GPa) = 29.92934 58.25602 44.09268
# Shear Modulus (GPa) = 29.29948 46.69195 37.99572
#
# Velocity S-wave (km/s) = 3.57793 4.51672 4.07446
# Velocity P-wave (km/s) = 5.49050 7.25634 6.43429
#
# Compressibility (1/GPa) = 0.03341203
#
# Stress axis : x y z
#
# Youngs Moduli (GPa) = 90.56029 134.42693 69.59221
#
# Poissons Ratio (x) = 0.00566 -0.07619
# Poissons Ratio (y) = 0.00381 0.05373
# Poissons Ratio (z) = -0.09915 0.10380
#
# Static dielectric constant tensor:
#      x y z
#    x 2.064010 -0.194820 -0.072430 
#    y -0.194820 2.030840 0.034210 
#    z -0.072430 0.034210 1.848890 
# 
# From -- ./inp_files/37653.got.cif
#   From: 2010.05.17/outbox.cif.g08.bks.cpg/sg2_19_cif.got.tgz:37653.got - 2010.06.03 11:33:40.
