data_PCOD9067685
_publ_section_title
;
Structure prediction by ZEFSAII (Michael W. Deem and Ramdas Pophale) SiO2 
 PCOD9067685
Probable space group: P -1
;
_chemical_formula_sum "Si O2"
_cell_formula_units_Z 15
_cell_length_a 5.055209
_cell_length_b 11.964872
_cell_length_c 17.694640
_cell_angle_alpha 138.615970
_cell_angle_beta 62.431194
_cell_angle_gamma 113.159613
_cell_volume 625.273646
_symmetry_space_group_name_H-M "P -1"
_symmetry_group_IT_number 2
_symmetry_cell_setting 'triclinic'
loop_
_space_group_symop_operation_xyz
x,y,z
-x,-y,-z
loop_
_atom_site_type_symbol
_atom_site_label
_atom_site_fract_x
_atom_site_fract_y
_atom_site_fract_z
Si Si1 0.000000 0.500000 0.500000
Si Si2 0.110826 0.462936 0.328194
Si Si3 0.087305 0.640462 0.270679
Si Si4 0.453285 0.749958 0.670890
Si Si5 0.337772 0.126231 0.639360
Si Si6 0.840116 0.972217 0.225361
Si Si7 0.402608 0.138429 0.140725
Si Si8 0.165927 0.420802 0.008523
O O1 0.750694 0.429404 0.566300
O O2 0.753966 0.658145 0.589161
O O3 0.004818 0.565057 0.324992
O O4 0.304183 0.309927 0.202223
O O5 0.837827 0.380350 0.378737
O O6 0.420232 0.731857 0.284616
O O7 0.886771 0.779632 0.335270
O O8 0.053447 0.487804 0.137253
O O9 0.362171 0.801074 0.794695
O O10 0.428972 0.916978 0.709460
O O11 0.166800 0.037787 0.688483
O O12 0.500000 0.000000 0.500000
O O13 0.827228 0.779720 0.100260
O O14 0.130764 0.056969 0.186849
O O15 0.500000 0.000000 0.000000
O O16 0.500000 0.500000 0.000000
O O17 0.000000 0.500000 0.000000
#
# Coordination Sequence:
#
# PCOD9067685 Si02
#       8
#     1   2   2   2   2   2   2   2
#     4   8  20  48  64 100 136 192 248 300 378 440
#     4   9  24  44  69 108 141 188 254 304 382 441
#     4  12  26  48  76 110 149 201 252 322 381 453
#     4   9  23  44  71 103 143 193 245 311 378 450
#     4  12  29  50  74 112 149 202 256 312 385 457
#     4  11  26  46  71 107 150 193 255 308 390 446
#     4  11  26  43  75 111 147 199 245 320 387 462
#     4  12  25  46  73 106 153 200 259 309 377 463
#
# _framework density 23.989495000000002
#
# number of rings (size 3 to 8) (size 9 to 14) (size 15 to 20)
#    0.800    0.533    2.667    0.400   11.200    1.600 
#    2.400    0.000    0.000    0.000    0.000    0.000 
#    0.000    0.000    0.000    0.000    0.000    0.000 
#
# Total GULP energy -83742.756342 kJ/mol
# GULP energy per Si atom -5582.850423 kJ/mol
# Density = 2.393489 g / cm^3
# Si number density = 23.989495 Si / 1000 Ang^3
#
#
#
# Elastic Constant Matrix: (Units=GPa)
#
#
# Indices 1 2 3 4 5 6 
#
# 1 141.0426 60.9654 20.2632 0.2016 -1.7411 -31.1708
# 2 60.9654 135.4881 47.3635 -7.8712 -8.6128 -48.4469
# 3 20.2632 47.3635 163.0243 -15.2193 5.9651 -27.4797
# 4 0.2016 -7.8712 -15.2193 42.9653 -3.8248 5.5549
# 5 -1.7411 -8.6128 5.9651 -3.8248 37.0748 6.2486
# 6 -31.1708 -48.4469 -27.4797 5.5549 6.2486 60.0602
#
#
#
# Elastic Compliance Matrix: (Units=1/GPa)
#
#
# Indices 1 2 3 4 5 6 
#
# 1 0.009030 -0.003472 0.000191 -0.000967 -0.000876 0.002154
# 2 -0.003472 0.012275 -0.001959 0.000847 0.001924 0.006925
# 3 0.000191 -0.001959 0.007221 0.001807 -0.001731 0.001836
# 4 -0.000967 0.000847 0.001807 0.024508 0.002648 -0.001534
# 5 -0.000876 0.001924 -0.001731 0.002648 0.028418 -0.002896
# 6 0.002154 0.006925 0.001836 -0.001534 -0.002896 0.024637
#
#
# Mechanical properties :
#
#
# Convention : Reuss Voigt Hill
#
# Bulk Modulus (GPa) = 55.40935 77.41548 66.41241
# Shear Modulus (GPa) = 40.78827 48.75093 44.76960
#
# Velocity S-wave (km/s) = 4.12789 4.51286 4.32466
# Velocity P-wave (km/s) = 6.77250 7.71331 7.25817
#
# Compressibility (1/GPa) = 0.01804750
#
# Stress axis : x y z
#
# Youngs Moduli (GPa) = 110.74430 81.46362 138.48767
#
# Poissons Ratio (x) = 0.28280 -0.02646
# Poissons Ratio (y) = 0.38445 0.27128
# Poissons Ratio (z) = -0.02116 0.15957
#
# Static dielectric constant tensor:
#      x y z
#    x 2.040650 0.077430 0.103350 
#    y 0.077430 1.936700 -0.009300 
#    z 0.103350 -0.009300 2.010100 
# 
# From -- ./inp_files/542073.got.cif
#   From: 2010.05.17/outbox.cif.g08.bks.cpg/sg2_272_cif.got.tgz:542073.got - 2010.06.03 11:33:40.
