data_PCOD9067767
_publ_section_title
;
Structure prediction by ZEFSAII (Michael W. Deem and Ramdas Pophale) SiO2 
 PCOD9067767
Probable space group: P -1
;
_chemical_formula_sum "Si O2"
_cell_formula_units_Z 16
_cell_length_a 9.441346
_cell_length_b 8.760549
_cell_length_c 15.394231
_cell_angle_alpha 107.449627
_cell_angle_beta 132.333701
_cell_angle_gamma 101.794556
_cell_volume 733.889139
_symmetry_space_group_name_H-M "P -1"
_symmetry_group_IT_number 2
_symmetry_cell_setting 'triclinic'
loop_
_space_group_symop_operation_xyz
x,y,z
-x,-y,-z
loop_
_atom_site_type_symbol
_atom_site_label
_atom_site_fract_x
_atom_site_fract_y
_atom_site_fract_z
Si Si1 0.058622 0.229588 0.801058
Si Si2 0.354926 0.013707 0.280902
Si Si3 0.643378 0.462236 0.484537
Si Si4 0.800440 0.042859 0.487352
Si Si5 0.788971 0.670074 0.396439
Si Si6 0.492871 0.290812 0.086492
Si Si7 0.845085 0.068173 0.989056
Si Si8 0.944510 0.412655 0.196644
O O1 0.043768 0.414897 0.820933
O O2 0.977373 0.125327 0.656059
O O3 0.311093 0.291118 0.946979
O O4 0.867787 0.077850 0.765371
O O5 0.468653 0.238725 0.345741
O O6 0.558569 0.008419 0.407889
O O7 0.279243 0.905763 0.139199
O O8 0.500000 0.500000 0.500000
O O9 0.736581 0.597435 0.461243
O O10 0.861032 0.493310 0.632160
O O11 0.937891 0.209627 0.498712
O O12 0.744248 0.837853 0.397419
O O13 0.631523 0.486706 0.236439
O O14 0.341516 0.103342 0.053604
O O15 0.688512 0.289207 0.113529
O O16 0.982197 0.271819 0.131704
O O17 0.000000 0.000000 0.000000
#
# Coordination Sequence:
#
# PCOD9067767 Si02
#       8
#     2   2   2   2   2   2   2   2
#     4  12  26  46  72 104 150 186 240 297 359 423
#     4  12  25  45  71 100 144 187 240 298 354 427
#     4  12  26  46  74 103 142 187 242 299 355 424
#     4  11  26  45  71 106 140 187 239 296 360 422
#     4  11  26  45  74 102 142 187 239 296 358 422
#     4  12  26  49  73 104 147 187 240 301 351 434
#     4  12  27  49  69 108 144 188 241 293 362 428
#     4  12  29  46  74 107 141 195 240 291 365 422
#
# _framework density 21.801658
#
# number of rings (size 3 to 8) (size 9 to 14) (size 15 to 20)
#    0.000    0.250    5.000    2.625    7.000    2.500 
#    0.000    0.000    0.000    0.000    0.000    0.000 
#    0.000    0.000    0.000    0.000    0.000    0.000 
#
# Total GULP energy -89559.916407 kJ/mol
# GULP energy per Si atom -5597.494775 kJ/mol
# Density = 2.175204 g / cm^3
# Si number density = 21.801658 Si / 1000 Ang^3
#
#
#
# Elastic Constant Matrix: (Units=GPa)
#
#
# Indices 1 2 3 4 5 6 
#
# 1 95.7635 32.7989 30.0434 -6.0665 8.0350 2.5824
# 2 32.7989 65.7098 14.9873 6.3220 -3.3984 16.0984
# 3 30.0434 14.9873 86.8328 -9.6054 -2.0696 -1.6228
# 4 -6.0665 6.3220 -9.6054 39.8987 -8.9113 -4.5350
# 5 8.0350 -3.3984 -2.0696 -8.9113 44.6692 4.1662
# 6 2.5824 16.0984 -1.6228 -4.5350 4.1662 45.8129
#
#
#
# Elastic Compliance Matrix: (Units=1/GPa)
#
#
# Indices 1 2 3 4 5 6 
#
# 1 0.014356 -0.007226 -0.003530 0.002026 -0.003086 0.002086
# 2 -0.007226 0.021919 -0.001971 -0.005399 0.002557 -0.008132
# 3 -0.003530 -0.001971 0.013545 0.003591 0.001682 0.001574
# 4 0.002026 -0.005399 0.003591 0.028632 0.004701 0.004317
# 5 -0.003086 0.002557 0.001682 0.004701 0.024378 -0.002417
# 6 0.002086 -0.008132 0.001574 0.004317 -0.002417 0.025271
#
#
# Mechanical properties :
#
#
# Convention : Reuss Voigt Hill
#
# Bulk Modulus (GPa) = 41.04377 44.88500 42.96438
# Shear Modulus (GPa) = 30.92591 37.44125 34.18358
#
# Velocity S-wave (km/s) = 3.77040 4.14860 3.96401
# Velocity P-wave (km/s) = 6.14991 6.60154 6.37973
#
# Compressibility (1/GPa) = 0.02436424
#
# Stress axis : x y z
#
# Youngs Moduli (GPa) = 69.65798 45.62270 73.82888
#
# Poissons Ratio (x) = 0.32967 0.26064
# Poissons Ratio (y) = 0.50335 0.14554
# Poissons Ratio (z) = 0.24591 0.08994
#
# Static dielectric constant tensor:
#      x y z
#    x 1.797840 -0.011430 -0.009980 
#    y -0.011430 1.781600 -0.013740 
#    z -0.009980 -0.013740 1.784440 
# 
# From -- ./inp_files/184315.got.cif
#   From: 2010.05.17/outbox.cif.g08.bks.cpg/sg2_93_cif.got.tgz:184315.got - 2010.06.03 11:33:40.
