data_PCOD9067083
_publ_section_title
;
Structure prediction by ZEFSAII (Michael W. Deem and Ramdas Pophale) SiO2 
 PCOD9067083
Probable space group: P -1
;
_chemical_formula_sum "Si O2"
_cell_formula_units_Z 11
_cell_length_a 12.524105
_cell_length_b 7.958319
_cell_length_c 9.227128
_cell_angle_alpha 48.336481
_cell_angle_beta 37.359015
_cell_angle_gamma 56.945509
_cell_volume 416.614367
_symmetry_space_group_name_H-M "P -1"
_symmetry_group_IT_number 2
_symmetry_cell_setting 'triclinic'
loop_
_space_group_symop_operation_xyz
x,y,z
-x,-y,-z
loop_
_atom_site_type_symbol
_atom_site_label
_atom_site_fract_x
_atom_site_fract_y
_atom_site_fract_z
Si Si1 0.479231 0.328134 0.772552
Si Si2 0.629235 0.179768 0.413521
Si Si3 0.080915 0.313228 0.130581
Si Si4 0.029672 0.813086 0.372119
Si Si5 0.000000 0.000000 0.000000
Si Si6 0.555302 0.246379 0.052471
O O1 0.631443 0.249215 0.542723
O O2 0.475588 0.595494 0.658823
O O3 0.293279 0.294617 0.912215
O O4 0.493410 0.203998 0.979520
O O5 0.525486 0.949920 0.653338
O O6 0.817021 0.145120 0.154863
O O7 0.037889 0.331863 0.337865
O O8 0.013213 0.075189 0.286897
O O9 0.000000 0.500000 0.000000
O O10 0.952871 0.820886 0.288711
O O11 0.236110 0.765963 0.162808
O O12 0.500000 0.500000 0.000000
#
# Coordination Sequence:
#
# PCOD9067083 Si02
#       6
#     2   2   2   2   1   2
#     4  11  25  47  78 106 149 202 253 315 376 451
#     4  11  26  47  74 106 150 202 248 310 376 454
#     4  11  25  47  79 111 144 197 255 312 378 451
#     4  11  27  45  73 112 152 195 251 310 376 457
#     4  12  26  48  74 108 162 198 244 322 378 444
#     4  12  27  46  75 112 152 197 252 316 383 450
#
# _framework density 26.403313000000001
#
# number of rings (size 3 to 8) (size 9 to 14) (size 15 to 20)
#    0.000    0.727    1.818    3.818   10.182    5.818 
#    0.000    6.364    0.000    0.000    0.000    0.000 
#    0.000    0.000    0.000    0.000    0.000    0.000 
#
# Total GULP energy -61342.252963 kJ/mol
# GULP energy per Si atom -5576.568451 kJ/mol
# Density = 2.634322 g / cm^3
# Si number density = 26.403313 Si / 1000 Ang^3
#
#
#
# Elastic Constant Matrix: (Units=GPa)
#
#
# Indices 1 2 3 4 5 6 
#
# 1 75.7775 17.8358 36.4361 0.3190 19.3631 -34.3742
# 2 17.8358 149.0975 55.9091 8.0331 0.1416 -6.3584
# 3 36.4361 55.9091 182.1118 15.0109 24.7361 -19.4252
# 4 0.3190 8.0331 15.0109 57.2051 -13.9231 -2.4763
# 5 19.3631 0.1416 24.7361 -13.9231 54.9497 -9.5068
# 6 -34.3742 -6.3584 -19.4252 -2.4763 -9.5068 46.9920
#
#
#
# Elastic Compliance Matrix: (Units=1/GPa)
#
#
# Indices 1 2 3 4 5 6 
#
# 1 0.022005 -0.001318 -0.001887 0.000101 -0.004410 0.014251
# 2 -0.001318 0.007725 -0.002345 -0.000160 0.001352 -0.000623
# 3 -0.001887 -0.002345 0.007255 -0.002289 -0.003078 0.000558
# 4 0.000101 -0.000160 -0.002289 0.019679 0.006224 0.001402
# 5 -0.004410 0.001352 -0.003078 0.006224 0.022821 0.000629
# 6 0.014251 -0.000623 0.000558 0.001402 0.000629 0.032052
#
#
# Mechanical properties :
#
#
# Convention : Reuss Voigt Hill
#
# Bulk Modulus (GPa) = 38.63282 69.70543 54.16912
# Shear Modulus (GPa) = 38.09075 51.61640 44.85358
#
# Velocity S-wave (km/s) = 3.80234 4.42625 4.12610
# Velocity P-wave (km/s) = 5.82586 7.25119 6.57725
#
# Compressibility (1/GPa) = 0.02588473
#
# Stress axis : x y z
#
# Youngs Moduli (GPa) = 45.44340 129.45515 137.83922
#
# Poissons Ratio (x) = 0.17065 0.26013
# Poissons Ratio (y) = 0.05990 0.32318
# Poissons Ratio (z) = 0.08576 0.30353
#
# Static dielectric constant tensor:
#      x y z
#    x 2.126240 0.097810 0.058410 
#    y 0.097810 2.094010 0.008870 
#    z 0.058410 0.008870 2.049160 
# 
# From -- ./inp_files/293820.got.cif
#   From: 2010.05.17/outbox.cif.g08.bks.cpg/sg2_147_cif.got.tgz:293820.got - 2010.06.03 11:33:40.
