data_PCOD9067088
_publ_section_title
;
Structure prediction by ZEFSAII (Michael W. Deem and Ramdas Pophale) SiO2 
 PCOD9067088
Probable space group: P -1
;
_chemical_formula_sum "Si O2"
_cell_formula_units_Z 15
_cell_length_a 9.532859
_cell_length_b 8.685269
_cell_length_c 11.566509
_cell_angle_alpha 82.243005
_cell_angle_beta 100.559946
_cell_angle_gamma 44.373892
_cell_volume 607.116994
_symmetry_space_group_name_H-M "P -1"
_symmetry_group_IT_number 2
_symmetry_cell_setting 'triclinic'
loop_
_space_group_symop_operation_xyz
x,y,z
-x,-y,-z
loop_
_atom_site_type_symbol
_atom_site_label
_atom_site_fract_x
_atom_site_fract_y
_atom_site_fract_z
Si Si1 0.620206 0.084444 0.771047
Si Si2 0.799323 0.839187 0.591755
Si Si3 0.374730 0.727918 0.880384
Si Si4 0.500000 0.500000 0.500000
Si Si5 0.252681 0.633995 0.672874
Si Si6 0.846880 0.439602 0.692465
Si Si7 0.333737 0.029088 0.700077
Si Si8 0.929220 0.882978 0.028573
O O1 0.481468 0.351146 0.755416
O O2 0.455841 0.078353 0.762058
O O3 0.684068 0.043187 0.649881
O O4 0.840691 0.881422 0.898311
O O5 0.798051 0.663593 0.654966
O O6 0.677945 0.946718 0.441281
O O7 0.048324 0.688247 0.624356
O O8 0.209942 0.767784 0.769005
O O9 0.463283 0.772407 0.792588
O O10 0.279806 0.923743 0.940301
O O11 0.500000 0.500000 0.000000
O O12 0.308598 0.675027 0.558477
O O13 0.668594 0.477558 0.600478
O O14 0.081509 0.228442 0.682949
O O15 0.899300 0.343090 0.841151
O O16 0.000000 0.000000 0.000000
#
# Coordination Sequence:
#
# PCOD9067088 Si02
#       8
#     2   2   2   1   2   2   2   2
#     4  12  26  45  79 109 151 205 255 309 388 457
#     4  12  26  48  75 113 155 197 257 322 378 455
#     4  11  26  46  72 105 151 196 248 314 379 447
#     4  12  26  44  78 108 148 206 242 310 396 434
#     4  12  26  47  76 109 153 202 254 316 386 454
#     4  11  25  47  78 109 156 200 254 321 377 454
#     4  11  25  48  75 111 150 199 259 313 383 463
#     4  11  25  48  72 111 151 202 261 309 378 463
#
# _framework density 24.706931999999998
#
# number of rings (size 3 to 8) (size 9 to 14) (size 15 to 20)
#    0.000    0.533    4.000    3.200    3.733    5.333 
#    0.000    0.000    0.000    0.000    0.000    0.000 
#    0.000    0.000    0.000    0.000    0.000    0.000 
#
# Total GULP energy -83702.127663 kJ/mol
# GULP energy per Si atom -5580.141844 kJ/mol
# Density = 2.465070 g / cm^3
# Si number density = 24.706932 Si / 1000 Ang^3
#
#
#
# Elastic Constant Matrix: (Units=GPa)
#
#
# Indices 1 2 3 4 5 6 
#
# 1 152.6450 0.5401 51.9713 -15.4921 17.9703 0.5644
# 2 0.5401 44.1821 11.5851 -10.4732 -3.6713 -18.2807
# 3 51.9713 11.5851 155.0132 -0.8784 -7.9945 14.7468
# 4 -15.4921 -10.4732 -0.8784 31.6634 16.0121 1.7068
# 5 17.9703 -3.6713 -7.9945 16.0121 43.3905 -8.6186
# 6 0.5644 -18.2807 14.7468 1.7068 -8.6186 41.1209
#
#
#
# Elastic Compliance Matrix: (Units=1/GPa)
#
#
# Indices 1 2 3 4 5 6 
#
# 1 0.009769 0.002645 -0.003865 0.009572 -0.007996 0.000355
# 2 0.002645 0.033121 -0.004822 0.011370 -0.000219 0.015899
# 3 -0.003865 -0.004822 0.008674 -0.004927 0.003774 -0.004206
# 4 0.009572 0.011370 -0.004927 0.051522 -0.022976 -0.000264
# 5 -0.007996 -0.000219 0.003774 -0.022976 0.036976 0.007362
# 6 0.000355 0.015899 -0.004206 -0.000264 0.007362 0.034444
#
#
# Mechanical properties :
#
#
# Convention : Reuss Voigt Hill
#
# Bulk Modulus (GPa) = 25.32814 53.33701 39.33258
# Shear Modulus (GPa) = 25.03137 42.41790 33.72463
#
# Velocity S-wave (km/s) = 3.18643 4.14797 3.69858
# Velocity P-wave (km/s) = 4.87970 6.67650 5.84752
#
# Compressibility (1/GPa) = 0.03948177
#
# Stress axis : x y z
#
# Youngs Moduli (GPa) = 102.36255 30.19241 115.28707
#
# Poissons Ratio (x) = -0.07987 0.44557
# Poissons Ratio (y) = -0.27079 0.55587
# Poissons Ratio (z) = 0.39562 0.14558
#
# Static dielectric constant tensor:
#      x y z
#    x 2.114230 -0.130640 -0.126770 
#    y -0.130640 2.194460 -0.000440 
#    z -0.126770 -0.000440 2.016900 
# 
# From -- ./inp_files/378807.got.cif
#   From: 2010.05.17/outbox.cif.g08.bks.cpg/sg2_190_cif.got.tgz:378807.got - 2010.06.03 11:33:40.
