data_PCOD9067151
_publ_section_title
;
Structure prediction by ZEFSAII (Michael W. Deem and Ramdas Pophale) SiO2 
 PCOD9067151
Probable space group: P -1
;
_chemical_formula_sum "Si O2"
_cell_formula_units_Z 10
_cell_length_a 14.904153
_cell_length_b 11.374777
_cell_length_c 15.869922
_cell_angle_alpha 151.103266
_cell_angle_beta 17.719521
_cell_angle_gamma 152.636705
_cell_volume 367.900098
_symmetry_space_group_name_H-M "P -1"
_symmetry_group_IT_number 2
_symmetry_cell_setting 'triclinic'
loop_
_space_group_symop_operation_xyz
x,y,z
-x,-y,-z
loop_
_atom_site_type_symbol
_atom_site_label
_atom_site_fract_x
_atom_site_fract_y
_atom_site_fract_z
Si Si1 0.968346 0.946167 0.200861
Si Si2 0.553435 0.245399 0.758369
Si Si3 0.801234 0.276528 0.803113
Si Si4 0.399222 0.592438 0.371064
Si Si5 0.826143 0.739647 0.375247
O O1 0.659707 0.762853 0.311262
O O2 0.992842 0.810041 0.179971
O O3 0.877172 0.201145 0.462135
O O4 0.269471 0.018523 0.916825
O O5 0.543377 0.257692 0.674351
O O6 0.500000 0.500000 0.000000
O O7 0.048783 0.501260 0.664734
O O8 0.956194 0.310228 0.778211
O O9 0.760630 0.993165 0.627001
O O10 0.480306 0.331089 0.125034
O O11 0.500000 0.500000 0.500000
#
# Coordination Sequence:
#
# PCOD9067151 Si02
#       5
#     2   2   2   2   2
#     4  12  25  43  70 102 135 185 228 281 345 409
#     4  12  25  44  69 101 139 180 229 284 344 411
#     4  11  26  46  72 104 138 184 227 287 342 410
#     4  12  24  47  70 103 140 177 234 284 345 411
#     4  11  25  48  71 103 141 183 234 282 343 408
#
# _framework density 27.181294000000001
#
# number of rings (size 3 to 8) (size 9 to 14) (size 15 to 20)
#    0.000    0.400    2.000    6.600    0.000    5.600 
#    0.000    0.000    0.000    0.000    0.000    0.000 
#    0.000    0.000    0.000    0.000    0.000    0.000 
#
# Total GULP energy -56253.180437 kJ/mol
# GULP energy per Si atom -5625.318044 kJ/mol
# Density = 2.711943 g / cm^3
# Si number density = 27.181294 Si / 1000 Ang^3
#
#
#
# Elastic Constant Matrix: (Units=GPa)
#
#
# Indices 1 2 3 4 5 6 
#
# 1 223.7361 61.3569 36.9777 -17.6178 30.4039 -17.7759
# 2 61.3569 124.9986 39.4070 -19.2193 25.3244 5.9621
# 3 36.9777 39.4070 133.0103 -6.3285 -3.7632 -7.7006
# 4 -17.6178 -19.2193 -6.3285 45.1551 -1.6168 0.3585
# 5 30.4039 25.3244 -3.7632 -1.6168 45.6558 -0.7209
# 6 -17.7759 5.9621 -7.7006 0.3585 -0.7209 44.0741
#
#
#
# Elastic Compliance Matrix: (Units=1/GPa)
#
#
# Indices 1 2 3 4 5 6 
#
# 1 0.005816 -0.001922 -0.000931 0.001201 -0.002803 0.002387
# 2 -0.001922 0.011712 -0.003090 0.003633 -0.005390 -0.003017
# 3 -0.000931 -0.003090 0.008859 -0.000340 0.003078 0.001643
# 4 0.001201 0.003633 -0.000340 0.024044 -0.001996 -0.000295
# 5 -0.002803 -0.005390 0.003078 -0.001996 0.026952 0.000593
# 6 0.002387 -0.003017 0.001643 -0.000295 0.000593 0.024359
#
#
# Mechanical properties :
#
#
# Convention : Reuss Voigt Hill
#
# Bulk Modulus (GPa) = 68.96725 84.13649 76.55187
# Shear Modulus (GPa) = 42.20746 49.91058 46.05902
#
# Velocity S-wave (km/s) = 3.94485 4.28975 4.12091
# Velocity P-wave (km/s) = 6.79538 7.45366 7.13212
#
# Compressibility (1/GPa) = 0.01449964
#
# Stress axis : x y z
#
# Youngs Moduli (GPa) = 171.94377 85.37960 112.88459
#
# Poissons Ratio (x) = 0.16414 0.10512
# Poissons Ratio (y) = 0.33056 0.34880
# Poissons Ratio (z) = 0.16012 0.26381
#
# Static dielectric constant tensor:
#      x y z
#    x 2.053550 0.017610 0.034740 
#    y 0.017610 2.177710 0.110920 
#    z 0.034740 0.110920 2.059430 
# 
# From -- ./inp_files/18655.got.cif
#   From: 2010.05.17/outbox.cif.g08.bks.cpg/sg2_10_cif.got.tgz:18655.got - 2010.06.03 11:33:40.
