data_PCOD9067456
_publ_section_title
;
Structure prediction by ZEFSAII (Michael W. Deem and Ramdas Pophale) SiO2 
 PCOD9067456
Probable space group: P -1
;
_chemical_formula_sum "Si O2"
_cell_formula_units_Z 12
_cell_length_a 6.794233
_cell_length_b 7.690171
_cell_length_c 9.507667
_cell_angle_alpha 67.088949
_cell_angle_beta 102.889999
_cell_angle_gamma 78.164882
_cell_volume 421.808764
_symmetry_space_group_name_H-M "P -1"
_symmetry_group_IT_number 2
_symmetry_cell_setting 'triclinic'
loop_
_space_group_symop_operation_xyz
x,y,z
-x,-y,-z
loop_
_atom_site_type_symbol
_atom_site_label
_atom_site_fract_x
_atom_site_fract_y
_atom_site_fract_z
Si Si1 0.907009 0.029361 0.608984
Si Si2 0.433800 0.550934 0.192875
Si Si3 0.221792 0.523674 0.482283
Si Si4 0.471885 0.194804 0.106536
Si Si5 0.634398 0.897086 0.450684
Si Si6 0.999540 0.192263 0.027449
O O1 0.834101 0.239940 0.618424
O O2 0.641748 0.019883 0.565181
O O3 0.105826 0.079041 0.522864
O O4 0.022939 0.856847 0.795045
O O5 0.593380 0.529753 0.353315
O O6 0.510910 0.345804 0.182087
O O7 0.452976 0.738261 0.046196
O O8 0.177919 0.619497 0.127750
O O9 0.311373 0.339252 0.446899
O O10 0.000000 0.500000 0.500000
O O11 0.224445 0.226875 0.041703
O O12 0.581802 0.978169 0.257453
O O13 0.000000 0.000000 0.000000
#
# Coordination Sequence:
#
# PCOD9067456 Si02
#       6
#     2   2   2   2   2   2
#     4  12  26  50  78 112 155 203 265 321 393 466
#     4  11  27  48  77 113 156 203 262 319 396 478
#     4  12  28  47  80 112 150 213 261 319 398 478
#     4  11  25  49  78 111 155 208 255 325 396 466
#     4  12  25  47  75 109 154 196 257 330 382 462
#     4  12  28  48  77 115 158 206 261 326 394 475
#
# _framework density 28.448912
#
# number of rings (size 3 to 8) (size 9 to 14) (size 15 to 20)
#    0.000    0.333    5.000    2.500    4.667    3.333 
#    0.000    0.000    0.000    0.000    0.000    0.000 
#    0.000    0.000    0.000    0.000    0.000    0.000 
#
# Total GULP energy -67203.851134 kJ/mol
# GULP energy per Si atom -5600.320928 kJ/mol
# Density = 2.838416 g / cm^3
# Si number density = 28.448912 Si / 1000 Ang^3
#
#
#
# Elastic Constant Matrix: (Units=GPa)
#
#
# Indices 1 2 3 4 5 6 
#
# 1 148.7423 52.4332 43.1806 17.0619 30.2064 22.3615
# 2 52.4332 155.1376 43.3600 4.1385 28.4800 11.2761
# 3 43.1806 43.3600 191.5105 -6.0381 32.8693 5.6242
# 4 17.0619 4.1385 -6.0381 42.3702 -10.9653 4.2051
# 5 30.2064 28.4800 32.8693 -10.9653 41.0122 -1.9741
# 6 22.3615 11.2761 5.6242 4.2051 -1.9741 64.6702
#
#
#
# Elastic Compliance Matrix: (Units=1/GPa)
#
#
# Indices 1 2 3 4 5 6 
#
# 1 0.010072 -0.001454 -0.000750 -0.005653 -0.007465 -0.003024
# 2 -0.001454 0.008040 -0.000772 -0.001334 -0.004293 -0.000876
# 3 -0.000750 -0.000772 0.006244 0.000300 -0.003849 -0.000286
# 4 -0.005653 -0.001334 0.000300 0.029275 0.012708 0.000645
# 5 -0.007465 -0.004293 -0.003849 0.012708 0.039539 0.004045
# 6 -0.003024 -0.000876 -0.000286 0.000645 0.004045 0.016768
#
#
# Mechanical properties :
#
#
# Convention : Reuss Voigt Hill
#
# Bulk Modulus (GPa) = 54.33347 85.92643 70.12995
# Shear Modulus (GPa) = 40.97480 53.37162 47.17321
#
# Velocity S-wave (km/s) = 3.79924 4.33604 4.07648
# Velocity P-wave (km/s) = 6.19562 7.43893 6.84556
#
# Compressibility (1/GPa) = 0.01840486
#
# Stress axis : x y z
#
# Youngs Moduli (GPa) = 99.28349 124.37251 160.15044
#
# Poissons Ratio (x) = 0.18078 0.12013
# Poissons Ratio (y) = 0.14431 0.12367
# Poissons Ratio (z) = 0.07448 0.09604
#
# Static dielectric constant tensor:
#      x y z
#    x 2.612270 -0.070240 -0.056630 
#    y -0.070240 2.109180 0.063550 
#    z -0.056630 0.063550 2.076370 
# 
# From -- ./inp_files/46738.got.cif
#   From: 2010.05.17/outbox.cif.g08.bks.cpg/sg2_24_cif.got.tgz:46738.got - 2010.06.03 11:33:40.
