data_PCOD9067455
_publ_section_title
;
Structure prediction by ZEFSAII (Michael W. Deem and Ramdas Pophale) SiO2 
 PCOD9067455
Probable space group: P -1
;
_chemical_formula_sum "Si O2"
_cell_formula_units_Z 11
_cell_length_a 6.356160
_cell_length_b 14.239756
_cell_length_c 4.871073
_cell_angle_alpha 75.985278
_cell_angle_beta 83.052587
_cell_angle_gamma 65.133005
_cell_volume 388.007568
_symmetry_space_group_name_H-M "P -1"
_symmetry_group_IT_number 2
_symmetry_cell_setting 'triclinic'
loop_
_space_group_symop_operation_xyz
x,y,z
-x,-y,-z
loop_
_atom_site_type_symbol
_atom_site_label
_atom_site_fract_x
_atom_site_fract_y
_atom_site_fract_z
Si Si1 0.710749 0.308465 0.272658
Si Si2 0.500000 0.500000 0.000000
Si Si3 0.255554 0.423130 0.606943
Si Si4 0.418714 0.886765 0.658886
Si Si5 0.791713 0.976733 0.918560
Si Si6 0.867869 0.768033 0.322503
O O1 0.734582 0.382554 0.980742
O O2 0.664736 0.208699 0.255990
O O3 0.458533 0.402874 0.353989
O O4 0.900199 0.279119 0.498179
O O5 0.661182 0.534400 0.175331
O O6 0.237542 0.311214 0.726660
O O7 0.000000 0.500000 0.500000
O O8 0.412113 0.944060 0.905560
O O9 0.670569 0.836303 0.522765
O O10 0.258839 0.975565 0.409396
O O11 0.875415 0.852106 0.041321
O O12 0.000000 0.000000 0.000000
#
# Coordination Sequence:
#
# PCOD9067455 Si02
#       6
#     2   1   2   2   2   2
#     4  11  26  49  74 115 155 207 271 331 397 483
#     4  12  26  48  80 106 156 208 266 332 410 464
#     4  11  26  52  73 115 158 204 273 335 404 482
#     4  11  27  50  75 117 160 215 266 328 407 484
#     4  12  25  50  79 116 164 210 267 334 403 482
#     4  11  25  49  78 110 163 211 266 334 399 482
#
# _framework density 28.349965000000001
#
# number of rings (size 3 to 8) (size 9 to 14) (size 15 to 20)
#    0.000    0.727    3.636    2.182    5.091    0.727 
#    6.545    0.000    0.000    0.000    0.000    0.000 
#    0.000    0.000    0.000    0.000    0.000    0.000 
#
# Total GULP energy -61653.585710 kJ/mol
# GULP energy per Si atom -5604.871428 kJ/mol
# Density = 2.828544 g / cm^3
# Si number density = 28.349965 Si / 1000 Ang^3
#
#
#
# Elastic Constant Matrix: (Units=GPa)
#
#
# Indices 1 2 3 4 5 6 
#
# 1 141.5902 72.2433 76.9433 3.4808 29.4174 -2.8384
# 2 72.2433 249.9891 87.4671 -19.8873 29.4224 69.3144
# 3 76.9433 87.4671 164.4639 6.6242 46.4712 8.8521
# 4 3.4808 -19.8873 6.6242 64.2988 -3.0088 8.4540
# 5 29.4174 29.4224 46.4712 -3.0088 68.3402 5.0239
# 6 -2.8384 69.3144 8.8521 8.4540 5.0239 72.5457
#
#
#
# Elastic Compliance Matrix: (Units=1/GPa)
#
#
# Indices 1 2 3 4 5 6 
#
# 1 0.010802 -0.003154 -0.003075 -0.001862 -0.001587 0.004139
# 2 -0.003154 0.008575 -0.002933 0.004263 0.000472 -0.008488
# 3 -0.003075 -0.002933 0.010401 -0.002298 -0.004735 0.002008
# 4 -0.001862 0.004263 -0.002298 0.018093 0.001773 -0.006097
# 5 -0.001587 0.000472 -0.004735 0.001773 0.018515 -0.001424
# 6 0.004139 -0.008488 0.002008 -0.006097 -0.001424 0.022621
#
#
# Mechanical properties :
#
#
# Convention : Reuss Voigt Hill
#
# Bulk Modulus (GPa) = 87.31553 114.37230 100.84391
# Shear Modulus (GPa) = 44.98427 62.32956 53.65692
#
# Velocity S-wave (km/s) = 3.98772 4.69398 4.35519
# Velocity P-wave (km/s) = 7.21586 8.35515 7.80632
#
# Compressibility (1/GPa) = 0.01145272
#
# Stress axis : x y z
#
# Youngs Moduli (GPa) = 92.57794 116.61741 96.14076
#
# Poissons Ratio (x) = 0.36787 0.29566
# Poissons Ratio (y) = 0.29203 0.28198
# Poissons Ratio (z) = 0.28471 0.34203
#
# Static dielectric constant tensor:
#      x y z
#    x 2.552260 -0.006760 -0.444030 
#    y -0.006760 2.376870 -0.392710 
#    z -0.444030 -0.392710 2.914340 
# 
# From -- ./inp_files/3325.got.cif
#   From: 2010.05.17/outbox.cif.g08.bks.cpg/sg2_2_cif.got.tgz:3325.got - 2010.06.03 11:33:40.
