data_PCOD9067183
_publ_section_title
;
Structure prediction by ZEFSAII (Michael W. Deem and Ramdas Pophale) SiO2 
 PCOD9067183
Probable space group: P -1
;
_chemical_formula_sum "Si O2"
_cell_formula_units_Z 15
_cell_length_a 6.694412
_cell_length_b 16.308851
_cell_length_c 7.743154
_cell_angle_alpha 130.406878
_cell_angle_beta 104.593893
_cell_angle_gamma 64.599841
_cell_volume 581.081695
_symmetry_space_group_name_H-M "P -1"
_symmetry_group_IT_number 2
_symmetry_cell_setting 'triclinic'
loop_
_space_group_symop_operation_xyz
x,y,z
-x,-y,-z
loop_
_atom_site_type_symbol
_atom_site_label
_atom_site_fract_x
_atom_site_fract_y
_atom_site_fract_z
Si Si1 0.296013 0.292455 0.865314
Si Si2 0.098179 0.269341 0.272510
Si Si3 0.622917 0.922548 0.196304
Si Si4 0.400433 0.589515 0.755404
Si Si5 0.413620 0.376533 0.643800
Si Si6 0.000000 0.000000 0.500000
Si Si7 0.875405 0.001602 0.797056
Si Si8 0.072240 0.755603 0.424890
O O1 0.371380 0.159547 0.751539
O O2 0.362040 0.332574 0.754732
O O3 0.031171 0.316587 0.819519
O O4 0.422572 0.348177 0.098032
O O5 0.235046 0.354024 0.447791
O O6 0.852641 0.332456 0.230740
O O7 0.051696 0.230372 0.399799
O O8 0.254721 0.165106 0.049326
O O9 0.752018 0.004069 0.384308
O O10 0.367484 0.987227 0.189642
O O11 0.500000 0.500000 0.500000
O O12 0.396330 0.507743 0.803179
O O13 0.669842 0.299850 0.560227
O O14 0.117955 0.909519 0.227083
O O15 0.001453 0.891246 0.540443
O O16 0.000000 0.000000 0.000000
#
# Coordination Sequence:
#
# PCOD9067183 Si02
#       8
#     2   2   2   2   2   1   2   2
#     4  11  28  45  74 106 154 191 250 302 377 446
#     4  11  26  47  78 105 150 195 248 312 377 444
#     4  12  28  49  73 114 149 201 248 313 372 451
#     4  12  25  48  77 108 143 196 250 311 373 447
#     4  11  25  49  73 109 151 194 247 307 375 447
#     4  12  28  48  80 106 158 198 260 302 378 446
#     4  12  28  47  78 113 154 199 256 308 377 453
#     4  11  25  48  72 109 147 201 242 308 375 444
#
# _framework density 25.813925999999999
#
# number of rings (size 3 to 8) (size 9 to 14) (size 15 to 20)
#    0.000    0.533    2.667    3.600    7.467    3.733 
#    0.000    0.000    0.000    0.000    0.000    0.000 
#    0.000    0.000    0.000    0.000    0.000    0.000 
#
# Total GULP energy -83772.958240 kJ/mol
# GULP energy per Si atom -5584.863883 kJ/mol
# Density = 2.575517 g / cm^3
# Si number density = 25.813926 Si / 1000 Ang^3
#
#
#
# Elastic Constant Matrix: (Units=GPa)
#
#
# Indices 1 2 3 4 5 6 
#
# 1 197.4397 65.7315 97.7582 -5.8223 33.2442 -18.5098
# 2 65.7315 103.0373 33.4961 -9.3044 11.9924 -11.3225
# 3 97.7582 33.4961 131.6523 -19.8060 37.0508 -31.7285
# 4 -5.8223 -9.3044 -19.8060 41.0803 4.9451 3.2611
# 5 33.2442 11.9924 37.0508 4.9451 66.1810 -1.0870
# 6 -18.5098 -11.3225 -31.7285 3.2611 -1.0870 54.0976
#
#
#
# Elastic Compliance Matrix: (Units=1/GPa)
#
#
# Indices 1 2 3 4 5 6 
#
# 1 0.009698 -0.004366 -0.006838 -0.002789 -0.000068 -0.001439
# 2 -0.004366 0.012670 0.001063 0.002742 -0.000876 0.001598
# 3 -0.006838 0.001063 0.017326 0.007868 -0.006923 0.007431
# 4 -0.002789 0.002742 0.007868 0.028849 -0.005618 0.002383
# 5 -0.000068 -0.000876 -0.006923 -0.005618 0.019540 -0.003536
# 6 -0.001439 0.001598 0.007431 0.002383 -0.003536 0.022471
#
#
# Mechanical properties :
#
#
# Convention : Reuss Voigt Hill
#
# Bulk Modulus (GPa) = 51.51510 91.78898 71.65204
# Shear Modulus (GPa) = 36.41439 47.94801 42.18120
#
# Velocity S-wave (km/s) = 3.75994 4.31449 4.04672
# Velocity P-wave (km/s) = 6.23291 7.77527 7.04642
#
# Compressibility (1/GPa) = 0.01941178
#
# Stress axis : x y z
#
# Youngs Moduli (GPa) = 103.11090 78.92480 57.71675
#
# Poissons Ratio (x) = 0.34459 0.39467
# Poissons Ratio (y) = 0.45019 -0.06133
# Poissons Ratio (z) = 0.70507 -0.08387
#
# Static dielectric constant tensor:
#      x y z
#    x 2.276740 0.385300 0.022890 
#    y 0.385300 2.628920 0.022910 
#    z 0.022890 0.022910 2.105340 
# 
# From -- ./inp_files/139631.got.cif
#   From: 2010.05.17/outbox.cif.g08.bks.cpg/sg2_70_cif.got.tgz:139631.got - 2010.06.03 11:33:40.
