data_PCOD9067874
_publ_section_title
;
Structure prediction by ZEFSAII (Michael W. Deem and Ramdas Pophale) SiO2 
 PCOD9067874
Probable space group: P -1
;
_chemical_formula_sum "Si O2"
_cell_formula_units_Z 14
_cell_length_a 12.264146
_cell_length_b 9.402129
_cell_length_c 14.309866
_cell_angle_alpha 63.675014
_cell_angle_beta 30.476230
_cell_angle_gamma 52.314212
_cell_volume 647.826607
_symmetry_space_group_name_H-M "P -1"
_symmetry_group_IT_number 2
_symmetry_cell_setting 'triclinic'
loop_
_space_group_symop_operation_xyz
x,y,z
-x,-y,-z
loop_
_atom_site_type_symbol
_atom_site_label
_atom_site_fract_x
_atom_site_fract_y
_atom_site_fract_z
Si Si1 0.365618 0.315326 0.738329
Si Si2 0.456195 0.837557 0.546084
Si Si3 0.228242 0.802787 0.367070
Si Si4 0.811404 0.542363 0.506033
Si Si5 0.367136 0.401148 0.176729
Si Si6 0.352044 0.935654 0.061120
Si Si7 0.055045 0.745981 0.853235
O O1 0.526908 0.192718 0.568660
O O2 0.535206 0.256344 0.723294
O O3 0.250849 0.534050 0.742116
O O4 0.138806 0.276991 0.931854
O O5 0.683236 0.660207 0.476271
O O6 0.206437 0.836008 0.760166
O O7 0.500000 0.000000 0.500000
O O8 0.138267 0.659351 0.489850
O O9 0.290315 0.812220 0.210724
O O10 0.000000 0.000000 0.500000
O O11 0.626636 0.617004 0.710197
O O12 0.072825 0.527282 0.337700
O O13 0.500000 0.500000 0.000000
O O14 0.482766 0.198976 0.104717
O O15 0.111471 0.115484 0.146233
O O16 0.500000 0.000000 0.000000
#
# Coordination Sequence:
#
# PCOD9067874 Si02
#       7
#     2   2   2   2   2   2   2
#     4  11  26  48  73 102 142 190 239 295 354 430
#     4  12  29  45  71 102 146 193 238 288 363 421
#     4  12  24  44  76 108 141 184 241 298 362 422
#     4  11  27  47  70 104 144 190 233 302 358 422
#     4  11  26  46  71 101 142 181 239 288 355 430
#     4  12  25  43  75 107 138 183 238 298 355 418
#     4  11  26  47  72 104 143 184 246 294 351 429
#
# _framework density 21.610721000000002
#
# number of rings (size 3 to 8) (size 9 to 14) (size 15 to 20)
#    0.000    0.571    4.286    2.143    8.000    2.857 
#    0.000    0.000    0.000    0.000    0.000    0.000 
#    0.000    0.000    0.000    0.000    0.000    0.000 
#
# Total GULP energy -78279.519311 kJ/mol
# GULP energy per Si atom -5591.394237 kJ/mol
# Density = 2.156153 g / cm^3
# Si number density = 21.610721 Si / 1000 Ang^3
#
#
#
# Elastic Constant Matrix: (Units=GPa)
#
#
# Indices 1 2 3 4 5 6 
#
# 1 70.3604 43.9276 18.7401 5.0938 -5.6528 -2.4880
# 2 43.9276 133.7950 29.5470 -4.6730 -6.7923 2.2399
# 3 18.7401 29.5470 97.0452 -12.9713 -11.4096 14.2105
# 4 5.0938 -4.6730 -12.9713 41.3096 10.8899 -4.9473
# 5 -5.6528 -6.7923 -11.4096 10.8899 40.4877 1.0471
# 6 -2.4880 2.2399 14.2105 -4.9473 1.0471 44.1977
#
#
#
# Elastic Compliance Matrix: (Units=1/GPa)
#
#
# Indices 1 2 3 4 5 6 
#
# 1 0.018982 -0.005755 -0.002462 -0.004109 0.002054 0.001643
# 2 -0.005755 0.009781 -0.001673 0.001266 0.000029 -0.000141
# 3 -0.002462 -0.001673 0.012504 0.003010 0.002188 -0.003789
# 4 -0.004109 0.001266 0.003010 0.027910 -0.007072 0.002028
# 5 0.002054 0.000029 0.002188 -0.007072 0.027562 -0.002034
# 6 0.001643 -0.000141 -0.003789 0.002028 -0.002034 0.024219
#
#
# Mechanical properties :
#
#
# Convention : Reuss Voigt Hill
#
# Bulk Modulus (GPa) = 46.54166 53.95887 50.25026
# Shear Modulus (GPa) = 33.80660 39.13137 36.46899
#
# Velocity S-wave (km/s) = 3.95947 4.25989 4.11243
# Velocity P-wave (km/s) = 6.51815 7.01558 6.77144
#
# Compressibility (1/GPa) = 0.02148613
#
# Stress axis : x y z
#
# Youngs Moduli (GPa) = 52.68165 102.23580 79.97650
#
# Poissons Ratio (x) = 0.58840 0.19687
# Poissons Ratio (y) = 0.30320 0.13384
# Poissons Ratio (z) = 0.12968 0.17109
#
# Static dielectric constant tensor:
#      x y z
#    x 1.829710 -0.000350 -0.010940 
#    y -0.000350 1.754010 -0.044310 
#    z -0.010940 -0.044310 1.870880 
# 
# From -- ./inp_files/515161.got.cif
#   From: 2010.05.17/outbox.cif.g08.bks.cpg/sg2_258_cif.got.tgz:515161.got - 2010.06.03 11:33:40.
