data_PCOD9067598
_publ_section_title
;
Structure prediction by ZEFSAII (Michael W. Deem and Ramdas Pophale) SiO2 
 PCOD9067598
Probable space group: P -1
;
_chemical_formula_sum "Si O2"
_cell_formula_units_Z 10
_cell_length_a 7.482190
_cell_length_b 15.642074
_cell_length_c 5.047623
_cell_angle_alpha 107.895798
_cell_angle_beta 59.413876
_cell_angle_gamma 132.745233
_cell_volume 372.800265
_symmetry_space_group_name_H-M "P -1"
_symmetry_group_IT_number 2
_symmetry_cell_setting 'triclinic'
loop_
_space_group_symop_operation_xyz
x,y,z
-x,-y,-z
loop_
_atom_site_type_symbol
_atom_site_label
_atom_site_fract_x
_atom_site_fract_y
_atom_site_fract_z
Si Si1 0.242535 0.538683 0.048157
Si Si2 0.239162 0.976913 0.806325
Si Si3 0.884493 0.321527 0.419568
Si Si4 0.826803 0.745205 0.633736
Si Si5 0.655034 0.879147 0.619625
O O1 0.149949 0.422552 0.152121
O O2 0.246024 0.621500 0.332356
O O3 0.533641 0.621299 0.777445
O O4 0.000000 0.500000 0.000000
O O5 0.682145 0.958429 0.911870
O O6 0.986240 0.839468 0.844356
O O7 0.500000 0.000000 0.500000
O O8 0.201723 0.045110 0.680558
O O9 0.971635 0.284032 0.567009
O O10 0.657619 0.216114 0.308329
O O11 0.770968 0.813770 0.550029
#
# Coordination Sequence:
#
# PCOD9067598 Si02
#       5
#     2   2   2   2   2
#     4  11  25  51  72 111 151 195 262 318 368 457
#     4  12  27  49  78 112 158 200 250 313 382 454
#     4  11  26  49  77 107 155 198 255 317 378 450
#     4  12  26  47  80 108 150 207 246 312 392 441
#     4  12  26  52  74 115 155 196 255 314 372 464
#
# _framework density 26.824013000000001
#
# number of rings (size 3 to 8) (size 9 to 14) (size 15 to 20)
#    0.000    0.400    4.000    3.600    0.000    2.400 
#    7.200    0.000    0.000    0.000    0.000    0.000 
#    0.000    0.000    0.000    0.000    0.000    0.000 
#
# Total GULP energy -56001.715738 kJ/mol
# GULP energy per Si atom -5600.171574 kJ/mol
# Density = 2.676296 g / cm^3
# Si number density = 26.824013 Si / 1000 Ang^3
#
#
#
# Elastic Constant Matrix: (Units=GPa)
#
#
# Indices 1 2 3 4 5 6 
#
# 1 167.7775 47.9268 7.6322 -9.1565 13.8316 7.1482
# 2 47.9268 129.9651 33.4295 -10.0937 3.2887 34.3134
# 3 7.6322 33.4295 88.8591 10.7239 20.7077 20.7099
# 4 -9.1565 -10.0937 10.7239 36.3042 7.8674 4.4072
# 5 13.8316 3.2887 20.7077 7.8674 30.1261 -10.7176
# 6 7.1482 34.3134 20.7099 4.4072 -10.7176 60.6188
#
#
#
# Elastic Compliance Matrix: (Units=1/GPa)
#
#
# Indices 1 2 3 4 5 6 
#
# 1 0.007142 -0.002503 0.001431 0.001828 -0.004785 -0.000893
# 2 -0.002503 0.011204 -0.002961 0.004276 -0.001128 -0.005546
# 3 0.001431 -0.002961 0.017359 -0.001672 -0.014256 -0.006822
# 4 0.001828 0.004276 -0.001672 0.032852 -0.011013 -0.006400
# 5 -0.004785 -0.001128 -0.014256 -0.011013 0.054033 0.016427
# 6 -0.000893 -0.005546 -0.006822 -0.006400 0.016427 0.025441
#
#
# Mechanical properties :
#
#
# Convention : Reuss Voigt Hill
#
# Bulk Modulus (GPa) = 36.18062 62.73096 49.45579
# Shear Modulus (GPa) = 30.24613 45.25070 37.74842
#
# Velocity S-wave (km/s) = 3.36158 4.11170 3.75542
# Velocity P-wave (km/s) = 5.34644 6.78073 6.10585
#
# Compressibility (1/GPa) = 0.02763911
#
# Stress axis : x y z
#
# Youngs Moduli (GPa) = 140.00751 89.25583 57.60807
#
# Poissons Ratio (x) = 0.22342 -0.08242
# Poissons Ratio (y) = 0.35045 0.17055
# Poissons Ratio (z) = -0.20031 0.26424
#
# Static dielectric constant tensor:
#      x y z
#    x 2.152430 -0.064510 -0.053390 
#    y -0.064510 2.137760 -0.010260 
#    z -0.053390 -0.010260 2.163960 
# 
# From -- ./inp_files/2683.got.cif
#   From: 2010.05.17/outbox.cif.g08.bks.cpg/sg2_2_cif.got.tgz:2683.got - 2010.06.03 11:33:40.
