data_PCOD9067504
_publ_section_title
;
Structure prediction by ZEFSAII (Michael W. Deem and Ramdas Pophale) SiO2 
 PCOD9067504
Probable space group: P -1
;
_chemical_formula_sum "Si O2"
_cell_formula_units_Z 16
_cell_length_a 22.662937
_cell_length_b 13.492311
_cell_length_c 11.910593
_cell_angle_alpha 53.825459
_cell_angle_beta 28.575547
_cell_angle_gamma 34.039752
_cell_volume 836.799626
_symmetry_space_group_name_H-M "P -1"
_symmetry_group_IT_number 2
_symmetry_cell_setting 'triclinic'
loop_
_space_group_symop_operation_xyz
x,y,z
-x,-y,-z
loop_
_atom_site_type_symbol
_atom_site_label
_atom_site_fract_x
_atom_site_fract_y
_atom_site_fract_z
Si Si1 0.930493 0.990469 0.509673
Si Si2 0.205294 0.592272 0.176424
Si Si3 0.475657 0.838684 0.956428
Si Si4 0.165635 0.298508 0.522373
Si Si5 0.814008 0.724682 0.754210
Si Si6 0.087297 0.876398 0.778568
Si Si7 0.740076 0.063344 0.375961
Si Si8 0.342239 0.512483 0.750514
O O1 0.727216 0.066865 0.819484
O O2 0.875946 0.130057 0.408391
O O3 0.000000 0.000000 0.500000
O O4 0.126085 0.761852 0.279086
O O5 0.007556 0.662271 0.465624
O O6 0.415326 0.356311 0.022147
O O7 0.232004 0.601854 0.994977
O O8 0.370717 0.045104 0.045821
O O9 0.687008 0.734053 0.624139
O O10 0.229965 0.276720 0.299436
O O11 0.921477 0.530086 0.776845
O O12 0.202167 0.125360 0.591808
O O13 0.173311 0.928169 0.667233
O O14 0.198227 0.667981 0.784735
O O15 0.850290 0.042607 0.100827
O O16 0.493168 0.276061 0.644183
O O17 0.500000 0.500000 0.500000
#
# Coordination Sequence:
#
# PCOD9067504 Si02
#       8
#     2   2   2   2   2   2   2   2
#     4  11  23  38  55  74 100 137 180 221 257 296
#     4  10  19  33  52  78 107 135 169 210 259 311
#     4  10  20  34  50  73 106 137 172 215 255 302
#     4  10  18  28  48  77 107 139 168 202 255 312
#     4   9  18  29  45  75 111 140 166 200 250 314
#     4  10  20  34  50  75 108 138 169 208 254 307
#     4  10  19  32  53  80 110 137 163 203 257 318
#     4  10  18  29  50  76 107 138 165 203 255 312
#
# _framework density 19.120467999999999
#
# number of rings (size 3 to 8) (size 9 to 14) (size 15 to 20)
#    0.000    2.000    0.000    7.125    0.000    3.500 
#    0.000    0.000    0.000    0.750    0.000    8.750 
#    0.000    0.000    0.000    0.000    0.000    0.000 
#
# Total GULP energy -89072.002278 kJ/mol
# GULP energy per Si atom -5567.000142 kJ/mol
# Density = 1.907695 g / cm^3
# Si number density = 19.120468 Si / 1000 Ang^3
#
#
#
# Elastic Constant Matrix: (Units=GPa)
#
#
# Indices 1 2 3 4 5 6 
#
# 1 88.8211 35.0317 35.2001 -4.6194 -5.8042 4.8334
# 2 35.0317 148.4364 34.4128 18.1427 -2.7503 -6.8224
# 3 35.2001 34.4128 86.3154 12.7357 -16.4613 -2.4023
# 4 -4.6194 18.1427 12.7357 34.1327 -5.2498 -2.8431
# 5 -5.8042 -2.7503 -16.4613 -5.2498 22.0284 -0.1026
# 6 4.8334 -6.8224 -2.4023 -2.8431 -0.1026 10.8126
#
#
#
# Elastic Compliance Matrix: (Units=1/GPa)
#
#
# Indices 1 2 3 4 5 6 
#
# 1 0.015827 -0.003415 -0.006072 0.005537 0.000484 -0.009118
# 2 -0.003415 0.008670 -0.001670 -0.004309 -0.002067 0.005473
# 3 -0.006072 -0.001670 0.017459 -0.004511 0.010184 0.004450
# 4 0.005537 -0.004309 -0.004511 0.035196 0.005952 0.003114
# 5 0.000484 -0.002067 0.010184 0.005952 0.054307 0.002823
# 6 -0.009118 0.005473 0.004450 0.003114 0.002823 0.101849
#
#
# Mechanical properties :
#
#
# Convention : Reuss Voigt Hill
#
# Bulk Modulus (GPa) = 50.90725 59.20689 55.05707
# Shear Modulus (GPa) = 19.07174 27.98997 23.53085
#
# Velocity S-wave (km/s) = 3.16167 3.83021 3.51189
# Velocity P-wave (km/s) = 6.32539 7.11288 6.73066
#
# Compressibility (1/GPa) = 0.01964357
#
# Stress axis : x y z
#
# Youngs Moduli (GPa) = 63.18175 115.34161 57.27704
#
# Poissons Ratio (x) = 0.39385 0.34777
# Poissons Ratio (y) = 0.21574 0.09566
# Poissons Ratio (z) = 0.38362 0.19263
#
# Static dielectric constant tensor:
#      x y z
#    x 1.636400 -0.009410 -0.042620 
#    y -0.009410 1.828950 0.036720 
#    z -0.042620 0.036720 1.743660 
# 
# From -- ./inp_files/471161.got.cif
#   From: 2010.05.17/outbox.cif.g08.bks.cpg/sg2_236_cif.got.tgz:471161.got - 2010.06.03 11:33:40.
