data_PCOD9067020
_publ_section_title
;
Structure prediction by ZEFSAII (Michael W. Deem and Ramdas Pophale) SiO2 
 PCOD9067020
Probable space group: P -1
;
_chemical_formula_sum "Si O2"
_cell_formula_units_Z 13
_cell_length_a 8.835965
_cell_length_b 11.299120
_cell_length_c 8.565582
_cell_angle_alpha 57.469244
_cell_angle_beta 52.854714
_cell_angle_gamma 87.809535
_cell_volume 519.876144
_symmetry_space_group_name_H-M "P -1"
_symmetry_group_IT_number 2
_symmetry_cell_setting 'triclinic'
loop_
_space_group_symop_operation_xyz
x,y,z
-x,-y,-z
loop_
_atom_site_type_symbol
_atom_site_label
_atom_site_fract_x
_atom_site_fract_y
_atom_site_fract_z
Si Si1 0.510253 0.348355 0.404616
Si Si2 0.290860 0.832537 0.053486
Si Si3 0.661596 0.143400 0.630129
Si Si4 0.092672 0.302669 0.826963
Si Si5 0.476064 0.330258 0.100460
Si Si6 0.000000 0.500000 0.000000
Si Si7 0.923745 0.831964 0.747346
O O1 0.537334 0.244206 0.599753
O O2 0.321836 0.389942 0.543799
O O3 0.445641 0.256637 0.345226
O O4 0.750451 0.470045 0.145909
O O5 0.332660 0.683695 0.095720
O O6 0.512337 0.977345 0.767753
O O7 0.285665 0.863617 0.217864
O O8 0.081669 0.804582 0.111884
O O9 0.891209 0.227069 0.349480
O O10 0.108252 0.188472 0.034026
O O11 0.014889 0.420773 0.874474
O O12 0.282951 0.258164 0.156419
O O13 0.500000 0.500000 0.000000
O O14 0.000000 0.000000 0.500000
#
# Coordination Sequence:
#
# PCOD9067020 Si02
#       7
#     2   2   2   2   2   1   2
#     4  12  27  48  78 106 151 199 248 314 375 448
#     4  11  25  47  75 111 150 196 250 315 374 450
#     4  11  25  47  75 111 150 194 257 315 372 446
#     4  12  27  48  76 110 150 199 250 308 381 447
#     4  12  26  47  73 111 150 200 253 310 378 452
#     4  12  24  50  72 106 148 194 250 302 374 452
#     4  12  25  45  75 111 154 197 253 312 374 448
#
# _framework density 25.005953999999999
#
# number of rings (size 3 to 8) (size 9 to 14) (size 15 to 20)
#    0.000    0.308    4.615    3.231    4.308    3.077 
#    0.000    2.308    0.000    0.000    0.000    0.000 
#    0.000    0.000    0.000    0.000    0.000    0.000 
#
# Total GULP energy -72484.021337 kJ/mol
# GULP energy per Si atom -5575.693949 kJ/mol
# Density = 2.494904 g / cm^3
# Si number density = 25.005954 Si / 1000 Ang^3
#
#
#
# Elastic Constant Matrix: (Units=GPa)
#
#
# Indices 1 2 3 4 5 6 
#
# 1 188.7591 53.4211 66.6096 -10.2402 -28.8074 51.1324
# 2 53.4211 78.9895 34.3382 6.2315 -15.0206 19.6090
# 3 66.6096 34.3382 115.2367 26.7466 -38.9622 9.9740
# 4 -10.2402 6.2315 26.7466 26.7219 -7.8398 -0.6172
# 5 -28.8074 -15.0206 -38.9622 -7.8398 44.3137 2.5267
# 6 51.1324 19.6090 9.9740 -0.6172 2.5267 41.1612
#
#
#
# Elastic Compliance Matrix: (Units=1/GPa)
#
#
# Indices 1 2 3 4 5 6 
#
# 1 0.014718 -0.002936 -0.008356 0.015772 0.004867 -0.014922
# 2 -0.002936 0.017044 -0.001579 -0.002973 0.002198 -0.004270
# 3 -0.008356 -0.001579 0.021588 -0.021719 0.008884 0.005031
# 4 0.015772 -0.002973 -0.021719 0.066377 0.002581 -0.012077
# 5 0.004867 0.002198 0.008884 0.002581 0.035392 -0.011379
# 6 -0.014922 -0.004270 0.005031 -0.012077 -0.011379 0.044164
#
#
# Mechanical properties :
#
#
# Convention : Reuss Voigt Hill
#
# Bulk Modulus (GPa) = 36.22173 76.85810 56.53992
# Shear Modulus (GPa) = 21.34674 37.68047 29.51361
#
# Velocity S-wave (km/s) = 2.92493 3.88604 3.43922
# Velocity P-wave (km/s) = 5.09152 7.13707 6.19925
#
# Compressibility (1/GPa) = 0.02760774
#
# Stress axis : x y z
#
# Youngs Moduli (GPa) = 67.94441 58.67060 46.32258
#
# Poissons Ratio (x) = 0.17223 0.38708
# Poissons Ratio (y) = 0.19946 0.07316
# Poissons Ratio (z) = 0.56775 0.09266
#
# Static dielectric constant tensor:
#      x y z
#    x 1.957270 0.020830 0.073280 
#    y 0.020830 1.930630 -0.025410 
#    z 0.073280 -0.025410 2.058560 
# 
# From -- ./inp_files/175855.got.cif
#   From: 2010.05.17/outbox.cif.g08.bks.cpg/sg2_88_cif.got.tgz:175855.got - 2010.06.03 11:33:40.
