data_PCOD9067646
_publ_section_title
;
Structure prediction by ZEFSAII (Michael W. Deem and Ramdas Pophale) SiO2 
 PCOD9067646
Probable space group: P -1
;
_chemical_formula_sum "Si O2"
_cell_formula_units_Z 8
_cell_length_a 10.279938
_cell_length_b 9.906225
_cell_length_c 6.925849
_cell_angle_alpha 45.642009
_cell_angle_beta 114.181999
_cell_angle_gamma 141.169908
_cell_volume 301.511375
_symmetry_space_group_name_H-M "P -1"
_symmetry_group_IT_number 2
_symmetry_cell_setting 'triclinic'
loop_
_space_group_symop_operation_xyz
x,y,z
-x,-y,-z
loop_
_atom_site_type_symbol
_atom_site_label
_atom_site_fract_x
_atom_site_fract_y
_atom_site_fract_z
Si Si1 0.865875 0.040359 0.465343
Si Si2 0.634123 0.808611 0.185697
Si Si3 0.962386 0.686002 0.314406
Si Si4 0.462384 0.738770 0.761649
O O1 0.749997 0.024961 0.225044
O O2 0.652715 0.809832 0.702018
O O3 0.000000 0.000000 0.500000
O O4 0.032947 0.288486 0.477242
O O5 0.500000 0.500000 0.500000
O O6 0.847284 0.004405 0.983756
O O7 0.467053 0.722604 0.011682
O O8 0.750003 0.518498 0.231494
O O9 0.000000 0.500000 0.500000
O O10 0.500000 0.000000 0.500000
#
# Coordination Sequence:
#
# PCOD9067646 Si02
#       4
#     2   2   2   2
#     4  11  28  49  76 122 163 210 266 332 407 482
#     4  11  28  49  76 122 163 210 266 332 407 482
#     4  11  25  52  80 117 163 210 264 338 403 477
#     4  11  25  52  80 117 163 210 264 338 403 477
#
# _framework density 26.532996000000001
#
# number of rings (size 3 to 8) (size 9 to 14) (size 15 to 20)
#    0.000    1.000    5.000    0.000    7.000   10.000 
#    0.000    0.000    0.000    0.000    0.000    0.000 
#    0.000    0.000    0.000    0.000    0.000    0.000 
#
# Total GULP energy -44662.804676 kJ/mol
# GULP energy per Si atom -5582.850585 kJ/mol
# Density = 2.647261 g / cm^3
# Si number density = 26.532996 Si / 1000 Ang^3
#
#
#
# Elastic Constant Matrix: (Units=GPa)
#
#
# Indices 1 2 3 4 5 6 
#
# 1 146.4107 70.4553 48.8535 5.2028 -6.9810 -3.6694
# 2 70.4553 229.3362 107.5460 69.5389 -2.1321 3.9551
# 3 48.8535 107.5460 225.3149 53.5461 2.2004 -10.2954
# 4 5.2028 69.5389 53.5461 96.8901 -0.4703 -11.3920
# 5 -6.9810 -2.1321 2.2004 -0.4703 39.7534 5.6585
# 6 -3.6694 3.9551 -10.2954 -11.3920 5.6585 64.3799
#
#
#
# Elastic Compliance Matrix: (Units=1/GPa)
#
#
# Indices 1 2 3 4 5 6 
#
# 1 0.008528 -0.002822 -0.001007 0.002222 0.001318 0.000776
# 2 -0.002822 0.007525 -0.002032 -0.004329 0.000216 -0.001733
# 3 -0.001007 -0.002032 0.006089 -0.001763 -0.000757 0.000796
# 4 0.002222 -0.004329 -0.001763 0.014599 0.000045 0.002690
# 5 0.001318 0.000216 -0.000757 0.000045 0.025770 -0.002316
# 6 0.000776 -0.001733 0.000796 0.002690 -0.002316 0.016490
#
#
# Mechanical properties :
#
#
# Convention : Reuss Voigt Hill
#
# Bulk Modulus (GPa) = 95.98854 117.19682 106.59268
# Shear Modulus (GPa) = 53.07946 65.15183 59.11564
#
# Velocity S-wave (km/s) = 4.47756 4.96068 4.72530
# Velocity P-wave (km/s) = 7.93643 8.77936 8.36852
#
# Compressibility (1/GPa) = 0.01041791
#
# Stress axis : x y z
#
# Youngs Moduli (GPa) = 117.26512 132.89038 164.21965
#
# Poissons Ratio (x) = 0.37506 0.16543
# Poissons Ratio (y) = 0.33096 0.33377
# Poissons Ratio (z) = 0.11813 0.27009
#
# Static dielectric constant tensor:
#      x y z
#    x 2.034000 -0.133210 0.045110 
#    y -0.133210 1.968660 -0.018890 
#    z 0.045110 -0.018890 2.105310 
# 
# From -- ./inp_files/16674.got.cif
#   From: 2010.05.17/outbox.cif.g08.bks.cpg/sg2_9_cif.got.tgz:16674.got - 2010.06.03 11:33:40.
