data_PCOD9067667
_publ_section_title
;
Structure prediction by ZEFSAII (Michael W. Deem and Ramdas Pophale) SiO2 
 PCOD9067667
Probable space group: P -1
;
_chemical_formula_sum "Si O2"
_cell_formula_units_Z 16
_cell_length_a 18.185356
_cell_length_b 4.806281
_cell_length_c 9.811454
_cell_angle_alpha 115.657524
_cell_angle_beta 60.202058
_cell_angle_gamma 122.718373
_cell_volume 610.026062
_symmetry_space_group_name_H-M "P -1"
_symmetry_group_IT_number 2
_symmetry_cell_setting 'triclinic'
loop_
_space_group_symop_operation_xyz
x,y,z
-x,-y,-z
loop_
_atom_site_type_symbol
_atom_site_label
_atom_site_fract_x
_atom_site_fract_y
_atom_site_fract_z
Si Si1 0.387450 0.484019 0.277531
Si Si2 0.880178 0.910567 0.744156
Si Si3 0.176345 0.018490 0.754009
Si Si4 0.583802 0.582135 0.192052
Si Si5 0.303575 0.714241 0.164505
Si Si6 0.933240 0.120105 0.441637
Si Si7 0.369151 0.640347 0.643526
Si Si8 0.897451 0.457681 0.046193
O O1 0.491603 0.509999 0.174166
O O2 0.357426 0.713205 0.254961
O O3 0.380974 0.581062 0.461258
O O4 0.320460 0.101057 0.212728
O O5 0.803991 0.545148 0.779349
O O6 0.988050 0.003601 0.702816
O O7 0.881953 0.932118 0.583981
O O8 0.859069 0.193621 0.902266
O O9 0.276741 0.320684 0.709538
O O10 0.112771 0.201348 0.909189
O O11 0.135398 0.889542 0.616171
O O12 0.164620 0.712266 0.798844
O O13 0.557886 0.390891 0.321338
O O14 0.628559 0.988308 0.258434
O O15 0.648807 0.432829 0.023728
O O16 0.000000 0.500000 0.500000
O O17 0.000000 0.500000 0.000000
#
# Coordination Sequence:
#
# PCOD9067667 Si02
#       8
#     2   2   2   2   2   2   2   2
#     4  12  26  47  73 104 140 181 227 285 352 415
#     4  11  26  43  67  99 139 179 233 276 340 397
#     4  12  26  44  70  99 140 176 237 275 337 398
#     4  12  25  49  72 104 140 181 227 284 354 415
#     4  12  26  44  72 106 138 183 230 287 338 413
#     4  11  26  44  67  96 139 187 222 283 335 403
#     4  12  25  44  72 106 137 184 227 289 337 415
#     4  12  25  46  67  99 130 189 229 280 333 396
#
# _framework density 26.228387000000001
#
# number of rings (size 3 to 8) (size 9 to 14) (size 15 to 20)
#    0.000    0.250    1.250    7.875    7.000    0.000 
#    0.000    0.000    0.000    0.000    0.000    0.000 
#    0.000    0.000    0.000    0.000    0.000    0.000 
#
# Total GULP energy -89826.042849 kJ/mol
# GULP energy per Si atom -5614.127678 kJ/mol
# Density = 2.616869 g / cm^3
# Si number density = 26.228387 Si / 1000 Ang^3
#
#
#
# Elastic Constant Matrix: (Units=GPa)
#
#
# Indices 1 2 3 4 5 6 
#
# 1 80.6749 3.5569 11.4778 -3.9991 17.1692 0.3907
# 2 3.5569 107.8893 23.4859 17.3503 -0.9697 3.5176
# 3 11.4778 23.4859 116.3842 -4.1454 20.4520 12.3058
# 4 -3.9991 17.3503 -4.1454 37.6610 2.9493 6.3241
# 5 17.1692 -0.9697 20.4520 2.9493 41.9509 -4.5897
# 6 0.3907 3.5176 12.3058 6.3241 -4.5897 43.2400
#
#
#
# Elastic Compliance Matrix: (Units=1/GPa)
#
#
# Indices 1 2 3 4 5 6 
#
# 1 0.013837 -0.000902 0.000081 0.002548 -0.006021 -0.001087
# 2 -0.000902 0.010839 -0.002862 -0.005780 0.002537 0.001055
# 3 0.000081 -0.002862 0.010780 0.003661 -0.006051 -0.004014
# 4 0.002548 -0.005780 0.003661 0.031315 -0.005796 -0.005790
# 5 -0.006021 0.002537 -0.006051 -0.005796 0.030335 0.005638
# 6 -0.001087 0.001055 -0.004014 -0.005790 0.005638 0.025638
#
#
# Mechanical properties :
#
#
# Convention : Reuss Voigt Hill
#
# Bulk Modulus (GPa) = 35.59908 42.44330 39.02119
# Shear Modulus (GPa) = 35.84915 42.33223 39.09069
#
# Velocity S-wave (km/s) = 3.70105 4.02180 3.86475
# Velocity P-wave (km/s) = 5.64498 6.14686 5.90126
#
# Compressibility (1/GPa) = 0.02809062
#
# Stress axis : x y z
#
# Youngs Moduli (GPa) = 72.27173 92.25600 92.76555
#
# Poissons Ratio (x) = 0.08324 -0.00754
# Poissons Ratio (y) = 0.06521 0.26546
# Poissons Ratio (z) = -0.00587 0.26400
#
# Static dielectric constant tensor:
#      x y z
#    x 2.090900 0.019560 -0.050420 
#    y 0.019560 1.979300 -0.002600 
#    z -0.050420 -0.002600 2.073570 
# 
# From -- ./inp_files/38131.got.cif
#   From: 2010.05.17/outbox.cif.g08.bks.cpg/sg2_20_cif.got.tgz:38131.got - 2010.06.03 11:33:40.
