data_PCOD9067707
_publ_section_title
;
Structure prediction by ZEFSAII (Michael W. Deem and Ramdas Pophale) SiO2 
 PCOD9067707
Probable space group: P -1
;
_chemical_formula_sum "Si O2"
_cell_formula_units_Z 16
_cell_length_a 5.299605
_cell_length_b 15.353921
_cell_length_c 9.807372
_cell_angle_alpha 94.508872
_cell_angle_beta 73.015035
_cell_angle_gamma 92.202966
_cell_volume 760.752221
_symmetry_space_group_name_H-M "P -1"
_symmetry_group_IT_number 2
_symmetry_cell_setting 'triclinic'
loop_
_space_group_symop_operation_xyz
x,y,z
-x,-y,-z
loop_
_atom_site_type_symbol
_atom_site_label
_atom_site_fract_x
_atom_site_fract_y
_atom_site_fract_z
Si Si1 0.271256 0.725509 0.523465
Si Si2 0.544527 0.879022 0.114425
Si Si3 0.270095 0.041779 0.629546
Si Si4 0.208981 0.530412 0.585172
Si Si5 0.805950 0.953885 0.832461
Si Si6 0.760197 0.836748 0.582174
Si Si7 0.066377 0.428131 0.868954
Si Si8 0.416473 0.686029 0.179695
O O1 0.226230 0.634921 0.598754
O O2 0.518589 0.780641 0.550947
O O3 0.329636 0.703572 0.352598
O O4 0.000672 0.777565 0.581636
O O5 0.624547 0.896672 0.259601
O O6 0.460011 0.778653 0.108932
O O7 0.321055 0.950259 0.125769
O O8 0.775719 0.905751 0.975099
O O9 0.123692 0.100107 0.547899
O O10 0.500000 0.000000 0.500000
O O11 0.091995 0.970440 0.725369
O O12 0.500000 0.500000 0.500000
O O13 0.133060 0.482683 0.729756
O O14 0.000000 0.500000 0.500000
O O15 0.664868 0.894951 0.731511
O O16 0.315067 0.369023 0.863374
O O17 0.814630 0.367342 0.865892
O O18 0.000000 0.500000 0.000000
#
# Coordination Sequence:
#
# PCOD9067707 Si02
#       8
#     2   2   2   2   2   2   2   2
#     4  12  24  42  72 107 138 178 240 294 340 415
#     4  11  26  44  71  98 144 190 235 292 352 415
#     4  12  23  43  69 100 138 196 243 290 342 415
#     4  12  23  44  72 102 136 177 227 288 350 418
#     4  11  26  45  64 103 145 190 235 289 358 413
#     4  12  25  41  70 102 144 183 238 290 342 407
#     4  12  27  48  74 103 143 180 228 288 363 429
#     4  12  25  46  73 107 135 184 237 287 348 425
#
# _framework density 21.031814000000001
#
# number of rings (size 3 to 8) (size 9 to 14) (size 15 to 20)
#    0.000    0.250    5.000    4.125    1.750    2.000 
#    0.000    0.000    0.000    0.000    0.000    0.000 
#    0.000    0.000    0.000    0.000    0.000    0.000 
#
# Total GULP energy -89569.391872 kJ/mol
# GULP energy per Si atom -5598.086992 kJ/mol
# Density = 2.098394 g / cm^3
# Si number density = 21.031814 Si / 1000 Ang^3
#
#
#
# Elastic Constant Matrix: (Units=GPa)
#
#
# Indices 1 2 3 4 5 6 
#
# 1 142.6737 75.6580 48.1644 3.8564 -7.6492 5.3378
# 2 75.6580 186.9833 73.8942 -12.0258 -7.2602 1.2076
# 3 48.1644 73.8942 129.0145 -6.9691 -8.0500 6.7080
# 4 3.8564 -12.0258 -6.9691 33.2625 6.4259 9.0971
# 5 -7.6492 -7.2602 -8.0500 6.4259 19.2503 1.6628
# 6 5.3378 1.2076 6.7080 9.0971 1.6628 42.9552
#
#
#
# Elastic Compliance Matrix: (Units=1/GPa)
#
#
# Indices 1 2 3 4 5 6 
#
# 1 0.009573 -0.003307 -0.001651 -0.003141 0.002940 -0.000287
# 2 -0.003307 0.008154 -0.003332 0.002697 -0.000546 0.000152
# 3 -0.001651 -0.003332 0.010571 0.001233 0.002243 -0.001700
# 4 -0.003141 0.002697 0.001233 0.035711 -0.011030 -0.007014
# 5 0.002940 -0.000546 0.002243 -0.011030 0.057580 -0.000593
# 6 -0.000287 0.000152 -0.001700 -0.007014 -0.000593 0.025085
#
#
# Mechanical properties :
#
#
# Convention : Reuss Voigt Hill
#
# Bulk Modulus (GPa) = 85.33884 94.90052 90.11968
# Shear Modulus (GPa) = 29.91118 36.49060 33.20089
#
# Velocity S-wave (km/s) = 3.77528 4.16987 3.97747
# Velocity P-wave (km/s) = 7.72450 8.27068 8.00225
#
# Compressibility (1/GPa) = 0.01171799
#
# Stress axis : x y z
#
# Youngs Moduli (GPa) = 104.45661 122.63425 94.59951
#
# Poissons Ratio (x) = 0.40557 0.15619
# Poissons Ratio (y) = 0.34545 0.31521
# Poissons Ratio (z) = 0.17247 0.40863
#
# Static dielectric constant tensor:
#      x y z
#    x 1.786840 0.016250 0.001180 
#    y 0.016250 1.796170 0.015000 
#    z 0.001180 0.015000 1.728680 
# 
# From -- ./inp_files/39487.got.cif
#   From: 2010.05.17/outbox.cif.g08.bks.cpg/sg2_20_cif.got.tgz:39487.got - 2010.06.03 11:33:40.
