data_PCOD9067969
_publ_section_title
;
Structure prediction by ZEFSAII (Michael W. Deem and Ramdas Pophale) SiO2 
 PCOD9067969
Probable space group: P -1
;
_chemical_formula_sum "Si O2"
_cell_formula_units_Z 14
_cell_length_a 14.752707
_cell_length_b 8.527682
_cell_length_c 6.563684
_cell_angle_alpha 77.351648
_cell_angle_beta 41.877700
_cell_angle_gamma 76.179612
_cell_volume 534.190171
_symmetry_space_group_name_H-M "P -1"
_symmetry_group_IT_number 2
_symmetry_cell_setting 'triclinic'
loop_
_space_group_symop_operation_xyz
x,y,z
-x,-y,-z
loop_
_atom_site_type_symbol
_atom_site_label
_atom_site_fract_x
_atom_site_fract_y
_atom_site_fract_z
Si Si1 0.655143 0.666161 0.364986
Si Si2 0.833341 0.436429 0.412025
Si Si3 0.592086 0.552360 0.069688
Si Si4 0.494836 0.864497 0.876498
Si Si5 0.977478 0.752045 0.591007
Si Si6 0.085634 0.834178 0.978160
Si Si7 0.782546 0.043050 0.919435
O O1 0.781249 0.589183 0.314415
O O2 0.663437 0.630836 0.120064
O O3 0.599467 0.836238 0.517182
O O4 0.711321 0.445316 0.778114
O O5 0.472905 0.442935 0.351661
O O6 0.968633 0.410364 0.334477
O O7 0.858151 0.291480 0.249522
O O8 0.525081 0.699685 0.001950
O O9 0.350769 0.908776 0.997323
O O10 0.500000 0.000000 0.000000
O O11 0.095953 0.867864 0.412266
O O12 0.989745 0.753819 0.325816
O O13 0.838821 0.853308 0.870088
O O14 0.212734 0.885123 0.882517
O O15 0.000000 0.000000 0.000000
#
# Coordination Sequence:
#
# PCOD9067969 Si02
#       7
#     2   2   2   2   2   2   2
#     4  10  22  37  59  85 111 154 209 247 286 337
#     4  11  17  31  52  83 115 140 180 242 307 349
#     4  10  22  37  59  84 113 158 201 247 291 337
#     4  11  23  40  59  84 125 162 191 236 294 361
#     4   9  17  30  52  81 116 144 185 248 296 337
#     4  10  18  28  49  84 120 146 180 241 309 344
#     4   9  18  33  49  82 119 148 190 234 294 348
#
# _framework density 26.207895000000001
#
# number of rings (size 3 to 8) (size 9 to 14) (size 15 to 20)
#    0.857    1.143    1.429    4.286    4.000    0.571 
#    0.000    0.000    0.000    3.429    0.000    6.000 
#    0.000    0.000    0.000    0.000    0.000    0.000 
#
# Total GULP energy -78275.009629 kJ/mol
# GULP energy per Si atom -5591.072116 kJ/mol
# Density = 2.614824 g / cm^3
# Si number density = 26.207895 Si / 1000 Ang^3
#
#
#
# Elastic Constant Matrix: (Units=GPa)
#
#
# Indices 1 2 3 4 5 6 
#
# 1 80.2299 67.3793 58.2149 10.0001 41.8382 -20.4218
# 2 67.3793 152.0316 53.2754 46.8079 18.5819 -17.7603
# 3 58.2149 53.2754 130.9890 44.3049 25.5055 -5.5496
# 4 10.0001 46.8079 44.3049 43.4888 3.2428 0.6326
# 5 41.8382 18.5819 25.5055 3.2428 52.9714 8.2319
# 6 -20.4218 -17.7603 -5.5496 0.6326 8.2319 60.3631
#
#
#
# Elastic Compliance Matrix: (Units=1/GPa)
#
#
# Indices 1 2 3 4 5 6 
#
# 1 0.108055 -0.044330 -0.040426 0.068034 -0.058704 0.027090
# 2 -0.044330 0.029323 0.017203 -0.040282 0.020012 -0.007095
# 3 -0.040426 0.017203 0.028504 -0.039323 0.015780 -0.007735
# 4 0.068034 -0.040282 -0.039323 0.092701 -0.027960 0.010391
# 5 -0.058704 0.020012 0.015780 -0.027960 0.055412 -0.019786
# 6 0.027090 -0.007095 -0.007735 0.010391 -0.019786 0.025522
#
#
# Mechanical properties :
#
#
# Convention : Reuss Voigt Hill
#
# Bulk Modulus (GPa) = 32.49260 80.10995 56.30127
# Shear Modulus (GPa) = 10.31177 43.65675 26.98426
#
# Velocity S-wave (km/s) = 1.98574 4.08583 3.21226
# Velocity P-wave (km/s) = 4.20505 7.27270 5.94031
#
# Compressibility (1/GPa) = 0.03077624
#
# Stress axis : x y z
#
# Youngs Moduli (GPa) = 9.25456 34.10241 35.08277
#
# Poissons Ratio (x) = 1.51175 1.41825
# Poissons Ratio (y) = 0.41025 -0.60351
# Poissons Ratio (z) = 0.37412 -0.58665
#
# Static dielectric constant tensor:
#      x y z
#    x 2.049770 0.061810 -0.023410 
#    y 0.061810 2.114010 -0.109650 
#    z -0.023410 -0.109650 2.166680 
# 
# From -- ./inp_files/93311.got.cif
#   From: 2010.05.17/outbox.cif.g08.bks.cpg/sg2_47_cif.got.tgz:93311.got - 2010.06.03 11:33:40.
