data_PCOD9067599
_publ_section_title
;
Structure prediction by ZEFSAII (Michael W. Deem and Ramdas Pophale) SiO2 
 PCOD9067599
Probable space group: P -1
;
_chemical_formula_sum "Si O2"
_cell_formula_units_Z 16
_cell_length_a 16.119532
_cell_length_b 9.896751
_cell_length_c 8.285628
_cell_angle_alpha 105.926117
_cell_angle_beta 79.705342
_cell_angle_gamma 43.605125
_cell_volume 720.862356
_symmetry_space_group_name_H-M "P -1"
_symmetry_group_IT_number 2
_symmetry_cell_setting 'triclinic'
loop_
_space_group_symop_operation_xyz
x,y,z
-x,-y,-z
loop_
_atom_site_type_symbol
_atom_site_label
_atom_site_fract_x
_atom_site_fract_y
_atom_site_fract_z
Si Si1 0.166304 0.570602 0.103067
Si Si2 0.627739 0.483222 0.602682
Si Si3 0.097989 0.932095 0.088870
Si Si4 0.831785 0.711682 0.174223
Si Si5 0.687834 0.174381 0.207112
Si Si6 0.644034 0.760844 0.776738
Si Si7 0.160546 0.266976 0.448219
Si Si8 0.881097 0.989228 0.548910
O O1 0.196649 0.665167 0.016560
O O2 0.254083 0.448082 0.194707
O O3 0.997357 0.801790 0.302210
O O4 0.212893 0.368989 0.925966
O O5 0.657486 0.350343 0.388990
O O6 0.463283 0.664353 0.772426
O O7 0.625644 0.653905 0.627111
O O8 0.751985 0.260117 0.610316
O O9 0.041366 0.053849 0.329216
O O10 0.183908 0.948374 0.995187
O O11 0.000000 0.000000 0.000000
O O12 0.832384 0.690389 0.357167
O O13 0.742107 0.968494 0.227373
O O14 0.000000 0.500000 0.000000
O O15 0.724644 0.791492 0.701325
O O16 0.500000 0.000000 0.000000
O O17 0.187393 0.064732 0.388274
O O18 0.000000 0.500000 0.500000
#
# Coordination Sequence:
#
# PCOD9067599 Si02
#       8
#     2   2   2   2   2   2   2   2
#     4  12  26  44  71 107 147 188 242 311 359 436
#     4  11  25  51  72  97 152 193 241 306 368 440
#     4  12  28  41  75 111 144 186 247 303 372 431
#     4  12  23  46  70 108 151 186 250 306 364 436
#     4  11  27  47  72 107 145 196 241 304 372 438
#     4  12  28  49  72 106 150 195 246 304 374 443
#     4  12  27  44  77 108 144 199 247 303 373 436
#     4  12  25  48  74 107 147 194 251 301 369 440
#
# _framework density 22.195637000000001
#
# number of rings (size 3 to 8) (size 9 to 14) (size 15 to 20)
#    0.000    0.250    5.000    2.625   10.500    1.500 
#    0.000    1.250    0.000    0.000    0.000    0.000 
#    0.000    0.000    0.000    0.000    0.000    0.000 
#
# Total GULP energy -89389.734400 kJ/mol
# GULP energy per Si atom -5586.858400 kJ/mol
# Density = 2.214512 g / cm^3
# Si number density = 22.195637 Si / 1000 Ang^3
#
#
#
# Elastic Constant Matrix: (Units=GPa)
#
#
# Indices 1 2 3 4 5 6 
#
# 1 111.6705 39.1254 42.7675 7.2608 2.4810 17.7346
# 2 39.1254 95.1375 35.5635 3.3262 -21.5117 9.9408
# 3 42.7675 35.5635 82.8102 1.5372 5.0263 -2.3915
# 4 7.2608 3.3262 1.5372 36.8617 2.9023 6.6229
# 5 2.4810 -21.5117 5.0263 2.9023 48.9312 5.7087
# 6 17.7346 9.9408 -2.3915 6.6229 5.7087 45.5431
#
#
#
# Elastic Compliance Matrix: (Units=1/GPa)
#
#
# Indices 1 2 3 4 5 6 
#
# 1 0.012855 -0.002939 -0.005432 -0.001191 -0.000805 -0.004376
# 2 -0.002939 0.016308 -0.006091 -0.000637 0.008413 -0.003697
# 3 -0.005432 -0.006091 0.017927 0.000366 -0.004842 0.004940
# 4 -0.001191 -0.000637 0.000366 0.028115 -0.001543 -0.003273
# 5 -0.000805 0.008413 -0.004842 -0.001543 0.025317 -0.004726
# 6 -0.004376 -0.003697 0.004940 -0.003273 -0.004726 0.025796
#
#
# Mechanical properties :
#
#
# Convention : Reuss Voigt Hill
#
# Bulk Modulus (GPa) = 55.05179 58.28123 56.66651
# Shear Modulus (GPa) = 30.99867 37.74465 34.37166
#
# Velocity S-wave (km/s) = 3.74118 4.12824 3.93947
# Velocity P-wave (km/s) = 6.59687 7.00272 6.80282
#
# Compressibility (1/GPa) = 0.01816471
#
# Stress axis : x y z
#
# Youngs Moduli (GPa) = 77.78830 61.32101 55.78208
#
# Poissons Ratio (x) = 0.18024 0.30302
# Poissons Ratio (y) = 0.22865 0.33977
# Poissons Ratio (z) = 0.42257 0.37351
#
# Static dielectric constant tensor:
#      x y z
#    x 1.861990 -0.003550 0.046400 
#    y -0.003550 1.757600 0.015570 
#    z 0.046400 0.015570 1.904980 
# 
# From -- ./inp_files/299186.got.cif
#   From: 2010.05.17/outbox.cif.g08.bks.cpg/sg2_150_cif.got.tgz:299186.got - 2010.06.03 11:33:40.
