data_PCOD9067910
_publ_section_title
;
Structure prediction by ZEFSAII (Michael W. Deem and Ramdas Pophale) SiO2 
 PCOD9067910
Probable space group: P -1
;
_chemical_formula_sum "Si O2"
_cell_formula_units_Z 16
_cell_length_a 21.357384
_cell_length_b 12.741871
_cell_length_c 9.754259
_cell_angle_alpha 139.478986
_cell_angle_beta 147.356232
_cell_angle_gamma 26.395153
_cell_volume 636.349558
_symmetry_space_group_name_H-M "P -1"
_symmetry_group_IT_number 2
_symmetry_cell_setting 'triclinic'
loop_
_space_group_symop_operation_xyz
x,y,z
-x,-y,-z
loop_
_atom_site_type_symbol
_atom_site_label
_atom_site_fract_x
_atom_site_fract_y
_atom_site_fract_z
Si Si1 0.137597 0.240031 0.847379
Si Si2 0.179706 0.334318 0.740261
Si Si3 0.747186 0.723780 0.643948
Si Si4 0.801011 0.186081 0.842010
Si Si5 0.359371 0.507343 0.892913
Si Si6 0.638931 0.033031 0.504636
Si Si7 0.248765 0.794541 0.714532
Si Si8 0.724367 0.449911 0.711605
O O1 0.200532 0.184330 0.752808
O O2 0.945819 0.499643 0.751347
O O3 0.141757 0.059374 0.741951
O O4 0.252750 0.232430 0.152464
O O5 0.000000 0.500000 0.500000
O O6 0.322473 0.156734 0.713226
O O7 0.182648 0.502736 0.988633
O O8 0.654106 0.654976 0.360290
O O9 0.675073 0.940522 0.633188
O O10 0.760662 0.052553 0.697067
O O11 0.710963 0.315907 0.660775
O O12 0.731260 0.385533 0.022068
O O13 0.000000 0.000000 0.000000
O O14 0.260591 0.727263 0.825586
O O15 0.554926 0.363142 0.119449
O O16 0.454558 0.292967 0.403342
O O17 0.191212 0.705209 0.423490
#
# Coordination Sequence:
#
# PCOD9067910 Si02
#       8
#     2   2   2   2   2   2   2   2
#     4  11  26  46  73 105 145 196 243 307 366 442
#     4  12  25  46  71 108 150 190 245 300 373 441
#     4  11  26  47  74 107 148 192 248 305 370 441
#     4  12  27  46  74 107 152 196 245 304 368 442
#     4  11  26  48  72 110 144 197 243 307 376 430
#     4  12  25  47  73 108 151 191 247 307 372 440
#     4  11  26  49  75 106 152 187 254 305 366 449
#     4  12  27  46  74 112 145 200 242 308 373 439
#
# _framework density 25.143412000000001
#
# number of rings (size 3 to 8) (size 9 to 14) (size 15 to 20)
#    0.000    0.500    2.500    4.500    8.750    1.000 
#    0.000    0.000    0.000    0.000    0.000    0.000 
#    0.000    0.000    0.000    0.000    0.000    0.000 
#
# Total GULP energy -89812.763605 kJ/mol
# GULP energy per Si atom -5613.297725 kJ/mol
# Density = 2.508618 g / cm^3
# Si number density = 25.143412 Si / 1000 Ang^3
#
#
#
# Elastic Constant Matrix: (Units=GPa)
#
#
# Indices 1 2 3 4 5 6 
#
# 1 86.4177 24.7591 21.2929 -22.9120 -19.1028 15.5656
# 2 24.7591 106.1418 31.0769 -16.4108 -7.2838 22.2009
# 3 21.2929 31.0769 127.8675 4.3115 -6.5828 7.2257
# 4 -22.9120 -16.4108 4.3115 43.1471 9.3607 -5.5174
# 5 -19.1028 -7.2838 -6.5828 9.3607 48.5115 1.0032
# 6 15.5656 22.2009 7.2257 -5.5174 1.0032 45.5591
#
#
#
# Elastic Compliance Matrix: (Units=1/GPa)
#
#
# Indices 1 2 3 4 5 6 
#
# 1 0.015900 -0.000868 -0.002209 0.006835 0.004594 -0.003933
# 2 -0.000868 0.011962 -0.002595 0.003640 0.000497 -0.004691
# 3 -0.002209 -0.002595 0.008942 -0.003148 0.000557 0.000207
# 4 0.006835 0.003640 -0.003148 0.029111 -0.002806 -0.000023
# 5 0.004594 0.000497 0.000557 -0.002806 0.023171 -0.002750
# 6 -0.003933 -0.004691 0.000207 -0.000023 -0.002750 0.025604
#
#
# Mechanical properties :
#
#
# Convention : Reuss Voigt Hill
#
# Bulk Modulus (GPa) = 39.27446 52.74276 46.00861
# Shear Modulus (GPa) = 37.16933 43.66343 40.41638
#
# Velocity S-wave (km/s) = 3.84903 4.17174 4.01363
# Velocity P-wave (km/s) = 5.95042 6.65033 6.31009
#
# Compressibility (1/GPa) = 0.02546184
#
# Stress axis : x y z
#
# Youngs Moduli (GPa) = 62.89142 83.60096 111.83050
#
# Poissons Ratio (x) = 0.07255 0.24699
# Poissons Ratio (y) = 0.05458 0.29017
# Poissons Ratio (z) = 0.13890 0.21692
#
# Static dielectric constant tensor:
#      x y z
#    x 1.960020 0.014200 0.037870 
#    y 0.014200 1.958020 0.043770 
#    z 0.037870 0.043770 1.978640 
# 
# From -- ./inp_files/346395.got.cif
#   From: 2010.05.17/outbox.cif.g08.bks.cpg/sg2_174_cif.got.tgz:346395.got - 2010.06.03 11:33:40.
