data_PCOD9067135
_publ_section_title
;
Structure prediction by ZEFSAII (Michael W. Deem and Ramdas Pophale) SiO2 
 PCOD9067135
Probable space group: P -1
;
_chemical_formula_sum "Si O2"
_cell_formula_units_Z 14
_cell_length_a 11.358170
_cell_length_b 5.169471
_cell_length_c 14.762703
_cell_angle_alpha 112.518289
_cell_angle_beta 112.961867
_cell_angle_gamma 52.038138
_cell_volume 616.925787
_symmetry_space_group_name_H-M "P -1"
_symmetry_group_IT_number 2
_symmetry_cell_setting 'triclinic'
loop_
_space_group_symop_operation_xyz
x,y,z
-x,-y,-z
loop_
_atom_site_type_symbol
_atom_site_label
_atom_site_fract_x
_atom_site_fract_y
_atom_site_fract_z
Si Si1 0.174968 0.357909 0.867080
Si Si2 0.826478 0.630341 0.530716
Si Si3 0.826229 0.733483 0.837993
Si Si4 0.137428 0.218650 0.632112
Si Si5 0.577791 0.509870 0.432435
Si Si6 0.323011 0.788834 0.974877
Si Si7 0.264866 0.787697 0.294166
O O1 0.160719 0.321354 0.750685
O O2 0.007439 0.509088 0.879396
O O3 0.230551 0.608551 0.930194
O O4 0.286885 0.999733 0.899920
O O5 0.857275 0.581401 0.426324
O O6 0.659471 0.704029 0.503821
O O7 0.963375 0.317952 0.584372
O O8 0.815600 0.955691 0.611865
O O9 0.768680 0.500012 0.756106
O O10 0.733740 0.940146 0.925788
O O11 0.798714 0.992880 0.785800
O O12 0.276631 0.845798 0.603281
O O13 0.500000 0.500000 0.500000
O O14 0.444847 0.639456 0.336317
O O15 0.500000 0.500000 0.000000
#
# Coordination Sequence:
#
# PCOD9067135 Si02
#       7
#     2   2   2   2   2   2   2
#     4  12  27  50  79 108 147 198 247 300 381 448
#     4  11  25  48  69 109 155 200 252 303 361 448
#     4  12  27  50  78 106 147 196 248 308 371 451
#     4  11  27  43  75 105 152 199 252 299 370 441
#     4  12  26  43  71 106 156 203 245 307 368 432
#     4  12  29  51  79 112 147 183 249 319 381 441
#     4  12  26  44  76 109 147 195 250 297 372 436
#
# _framework density 22.693166999999999
#
# number of rings (size 3 to 8) (size 9 to 14) (size 15 to 20)
#    0.000    0.286    2.857    4.714    8.000    1.143 
#    0.000    0.000    0.000    0.000    0.000    0.000 
#    0.000    0.000    0.000    0.000    0.000    0.000 
#
# Total GULP energy -78388.719733 kJ/mol
# GULP energy per Si atom -5599.194267 kJ/mol
# Density = 2.264152 g / cm^3
# Si number density = 22.693167 Si / 1000 Ang^3
#
#
#
# Elastic Constant Matrix: (Units=GPa)
#
#
# Indices 1 2 3 4 5 6 
#
# 1 96.5691 23.8628 52.8035 13.0492 10.9268 -9.6080
# 2 23.8628 116.7922 45.5896 -4.1161 8.6092 -28.6062
# 3 52.8035 45.5896 116.7431 10.4876 -5.2218 -17.8114
# 4 13.0492 -4.1161 10.4876 50.1122 3.8830 -0.7661
# 5 10.9268 8.6092 -5.2218 3.8830 41.8068 -1.7493
# 6 -9.6080 -28.6062 -17.8114 -0.7661 -1.7493 46.2286
#
#
#
# Elastic Compliance Matrix: (Units=1/GPa)
#
#
# Indices 1 2 3 4 5 6 
#
# 1 0.014830 -0.000129 -0.006628 -0.002135 -0.004469 0.000244
# 2 -0.000129 0.011835 -0.004020 0.002156 -0.002868 0.005675
# 3 -0.006628 -0.004020 0.013737 -0.001804 0.004509 0.001568
# 4 -0.002135 0.002156 -0.001804 0.021233 -0.002064 0.000469
# 5 -0.004469 -0.002868 0.004509 -0.002064 0.026433 0.000000
# 6 0.000244 0.005675 0.001568 0.000469 0.000000 0.025806
#
#
# Mechanical properties :
#
#
# Convention : Reuss Voigt Hill
#
# Bulk Modulus (GPa) = 53.05484 63.84623 58.45053
# Shear Modulus (GPa) = 35.28348 41.48609 38.38479
#
# Velocity S-wave (km/s) = 3.94738 4.28030 4.11721
# Velocity P-wave (km/s) = 6.64874 7.25422 6.95807
#
# Compressibility (1/GPa) = 0.01884842
#
# Stress axis : x y z
#
# Youngs Moduli (GPa) = 67.43191 84.49496 72.79858
#
# Poissons Ratio (x) = 0.01088 0.48252
# Poissons Ratio (y) = 0.00868 0.29262
# Poissons Ratio (z) = 0.44695 0.33964
#
# Static dielectric constant tensor:
#      x y z
#    x 1.860310 -0.002930 0.017100 
#    y -0.002930 1.886400 -0.018500 
#    z 0.017100 -0.018500 1.836170 
# 
# From -- ./inp_files/510590.got.cif
#   From: 2010.05.17/outbox.cif.g08.bks.cpg/sg2_256_cif.got.tgz:510590.got - 2010.06.03 11:33:40.
