data_PCOD9067943
_publ_section_title
;
Structure prediction by ZEFSAII (Michael W. Deem and Ramdas Pophale) SiO2 
 PCOD9067943
Probable space group: P -1
;
_chemical_formula_sum "Si O2"
_cell_formula_units_Z 11
_cell_length_a 11.513951
_cell_length_b 8.436320
_cell_length_c 6.058393
_cell_angle_alpha 55.499085
_cell_angle_beta 66.520396
_cell_angle_gamma 57.317429
_cell_volume 404.544566
_symmetry_space_group_name_H-M "P -1"
_symmetry_group_IT_number 2
_symmetry_cell_setting 'triclinic'
loop_
_space_group_symop_operation_xyz
x,y,z
-x,-y,-z
loop_
_atom_site_type_symbol
_atom_site_label
_atom_site_fract_x
_atom_site_fract_y
_atom_site_fract_z
Si Si1 0.907927 0.229345 0.999468
Si Si2 0.079520 0.157854 0.322089
Si Si3 0.656057 0.874825 0.074233
Si Si4 0.649767 0.187981 0.170673
Si Si5 0.602014 0.529923 0.575998
Si Si6 0.000000 0.500000 0.500000
O O1 0.773102 0.202674 0.210299
O O2 0.868984 0.437866 0.717809
O O3 0.009106 0.278021 0.052869
O O4 0.000000 0.000000 0.000000
O O5 0.047935 0.300794 0.447034
O O6 0.240821 0.085434 0.202705
O O7 0.000000 0.000000 0.500000
O O8 0.688270 0.631065 0.290134
O O9 0.500000 0.000000 0.000000
O O10 0.675085 0.965006 0.225551
O O11 0.659540 0.317853 0.843118
O O12 0.501579 0.295039 0.313393
O O13 0.500000 0.500000 0.500000
#
# Coordination Sequence:
#
# PCOD9067943 Si02
#       6
#     2   2   2   2   2   1
#     4  12  26  48  77 112 151 204 259 327 387 468
#     4  12  28  53  78 117 159 206 268 324 397 470
#     4  12  26  48  78 113 153 203 258 327 390 457
#     4  11  26  48  75 109 155 202 254 319 393 461
#     4  11  26  46  74 113 151 201 255 315 388 473
#     4  12  28  48  80 108 154 208 260 320 392 462
#
# _framework density 27.191071999999998
#
# number of rings (size 3 to 8) (size 9 to 14) (size 15 to 20)
#    0.000    0.364    5.455    1.091    7.636    1.455 
#    0.000    0.000    0.000    0.000    0.000    0.000 
#    0.000    0.000    0.000    0.000    0.000    0.000 
#
# Total GULP energy -61290.240683 kJ/mol
# GULP energy per Si atom -5571.840062 kJ/mol
# Density = 2.712918 g / cm^3
# Si number density = 27.191072 Si / 1000 Ang^3
#
#
#
# Elastic Constant Matrix: (Units=GPa)
#
#
# Indices 1 2 3 4 5 6 
#
# 1 142.6913 30.3397 40.6048 -4.0090 -26.9365 12.9817
# 2 30.3397 150.4465 28.7599 13.2153 -21.6363 47.9154
# 3 40.6048 28.7599 98.1767 -27.7463 -40.0852 10.1092
# 4 -4.0090 13.2153 -27.7463 49.0751 6.5961 -3.8398
# 5 -26.9365 -21.6363 -40.0852 6.5961 62.2760 -5.4000
# 6 12.9817 47.9154 10.1092 -3.8398 -5.4000 47.3979
#
#
#
# Elastic Compliance Matrix: (Units=1/GPa)
#
#
# Indices 1 2 3 4 5 6 
#
# 1 0.008286 -0.000439 -0.002832 -0.001113 0.001629 -0.001126
# 2 -0.000439 0.011712 -0.003193 -0.006084 0.001483 -0.011363
# 3 -0.002832 -0.003193 0.018477 0.010058 0.008655 0.001864
# 4 -0.001113 -0.006084 0.010058 0.027936 0.001505 0.006745
# 5 0.001629 0.001483 0.008655 0.001505 0.022594 -0.001095
# 6 -0.001126 -0.011363 0.001864 0.006745 -0.001095 0.032918
#
#
# Mechanical properties :
#
#
# Convention : Reuss Voigt Hill
#
# Bulk Modulus (GPa) = 39.14384 65.63591 52.38987
# Shear Modulus (GPa) = 34.87552 51.19047 43.03300
#
# Velocity S-wave (km/s) = 3.58524 4.34362 3.98253
# Velocity P-wave (km/s) = 5.61833 7.02476 6.36054
#
# Compressibility (1/GPa) = 0.02554680
#
# Stress axis : x y z
#
# Youngs Moduli (GPa) = 120.68513 85.37888 54.12211
#
# Poissons Ratio (x) = 0.03747 0.15327
# Poissons Ratio (y) = 0.05296 0.17283
# Poissons Ratio (z) = 0.34178 0.27265
#
# Static dielectric constant tensor:
#      x y z
#    x 2.408570 -0.084090 0.459790 
#    y -0.084090 2.048810 -0.074460 
#    z 0.459790 -0.074460 2.969270 
# 
# From -- ./inp_files/58143.got.cif
#   From: 2010.05.17/outbox.cif.g08.bks.cpg/sg2_30_cif.got.tgz:58143.got - 2010.06.03 11:33:40.
