data_PCOD9067822
_publ_section_title
;
Structure prediction by ZEFSAII (Michael W. Deem and Ramdas Pophale) SiO2 
 PCOD9067822
Probable space group: P -1
;
_chemical_formula_sum "Si O2"
_cell_formula_units_Z 15
_cell_length_a 11.559349
_cell_length_b 11.818450
_cell_length_c 6.627603
_cell_angle_alpha 113.771074
_cell_angle_beta 51.458127
_cell_angle_gamma 120.598582
_cell_volume 604.582598
_symmetry_space_group_name_H-M "P -1"
_symmetry_group_IT_number 2
_symmetry_cell_setting 'triclinic'
loop_
_space_group_symop_operation_xyz
x,y,z
-x,-y,-z
loop_
_atom_site_type_symbol
_atom_site_label
_atom_site_fract_x
_atom_site_fract_y
_atom_site_fract_z
Si Si1 0.177508 0.522630 0.238980
Si Si2 0.437473 0.118694 0.781520
Si Si3 0.605639 0.700875 0.713443
Si Si4 0.500000 0.500000 0.000000
Si Si5 0.090302 0.322278 0.833202
Si Si6 0.892232 0.087396 0.177964
Si Si7 0.443152 0.869513 0.757088
Si Si8 0.837573 0.233262 0.725418
O O1 0.245430 0.679905 0.240270
O O2 0.000000 0.500000 0.500000
O O3 0.307015 0.484182 0.197023
O O4 0.152991 0.450198 0.997495
O O5 0.553442 0.177006 0.510554
O O6 0.278914 0.009711 0.781930
O O7 0.507726 0.030227 0.781908
O O8 0.383909 0.226478 0.027694
O O9 0.513924 0.551402 0.782319
O O10 0.765628 0.714471 0.436497
O O11 0.529435 0.785677 0.721055
O O12 0.990063 0.328182 0.749602
O O13 0.978831 0.209625 0.023875
O O14 0.882149 0.143107 0.451506
O O15 0.000000 0.000000 0.000000
O O16 0.278036 0.841088 0.024843
#
# Coordination Sequence:
#
# PCOD9067822 Si02
#       8
#     2   2   2   1   2   2   2   2
#     4  12  27  54  82 115 160 211 272 333 402 477
#     4  11  27  45  77 111 160 206 263 329 401 485
#     4  12  28  49  76 113 163 204 266 335 400 481
#     4  12  30  50  82 120 156 212 274 336 396 482
#     4  12  28  49  79 113 152 215 263 325 408 476
#     4  12  27  45  75 118 156 202 263 326 403 487
#     4  11  26  45  74 112 150 211 262 323 406 478
#     4  12  26  50  79 111 158 208 267 331 403 481
#
# _framework density 24.810506
#
# number of rings (size 3 to 8) (size 9 to 14) (size 15 to 20)
#    0.000    0.267    4.000    3.200   11.200    3.733 
#    0.000    0.000    0.000    0.000    0.000    0.000 
#    0.000    0.000    0.000    0.000    0.000    0.000 
#
# Total GULP energy -83681.347011 kJ/mol
# GULP energy per Si atom -5578.756467 kJ/mol
# Density = 2.475404 g / cm^3
# Si number density = 24.810506 Si / 1000 Ang^3
#
#
#
# Elastic Constant Matrix: (Units=GPa)
#
#
# Indices 1 2 3 4 5 6 
#
# 1 141.7025 22.0357 63.0842 14.4369 -9.1637 -15.4822
# 2 22.0357 30.4529 35.4336 -4.9430 0.5887 -14.4080
# 3 63.0842 35.4336 228.9392 2.5579 -13.1109 2.3147
# 4 14.4369 -4.9430 2.5579 56.4376 -0.6693 1.9011
# 5 -9.1637 0.5887 -13.1109 -0.6693 36.9881 1.5758
# 6 -15.4822 -14.4080 2.3147 1.9011 1.5758 41.8985
#
#
#
# Elastic Compliance Matrix: (Units=1/GPa)
#
#
# Indices 1 2 3 4 5 6 
#
# 1 0.009070 -0.003896 -0.001801 -0.002635 0.001530 0.002173
# 2 -0.003896 0.054043 -0.007829 0.005432 -0.005249 0.017528
# 3 -0.001801 -0.007829 0.006235 -0.000357 0.002042 -0.003763
# 4 -0.002635 0.005432 -0.000357 0.018876 -0.000527 0.000078
# 5 0.001530 -0.005249 0.002042 -0.000527 0.028315 -0.002393
# 6 0.002173 0.017528 -0.003763 0.000078 -0.002393 0.030992
#
#
# Mechanical properties :
#
#
# Convention : Reuss Voigt Hill
#
# Bulk Modulus (GPa) = 23.64395 71.35572 47.49984
# Shear Modulus (GPa) = 26.49980 45.76758 36.13369
#
# Velocity S-wave (km/s) = 3.27171 4.29964 3.82040
# Velocity P-wave (km/s) = 4.88084 7.31245 6.21669
#
# Compressibility (1/GPa) = 0.04229412
#
# Stress axis : x y z
#
# Youngs Moduli (GPa) = 110.25955 18.50390 160.38583
#
# Poissons Ratio (x) = 0.07210 0.28885
# Poissons Ratio (y) = 0.42961 1.25570
# Poissons Ratio (z) = 0.19857 0.14487
#
# Static dielectric constant tensor:
#      x y z
#    x 2.042330 -0.015660 -0.035810 
#    y -0.015660 2.276520 0.136090 
#    z -0.035810 0.136090 2.094390 
# 
# From -- ./inp_files/71596.got.cif
#   From: 2010.05.17/outbox.cif.g08.bks.cpg/sg2_36_cif.got.tgz:71596.got - 2010.06.03 11:33:40.
