data_PCOD9067156
_publ_section_title
;
Structure prediction by ZEFSAII (Michael W. Deem and Ramdas Pophale) SiO2 
 PCOD9067156
Probable space group: P -1
;
_chemical_formula_sum "Si O2"
_cell_formula_units_Z 12
_cell_length_a 17.138411
_cell_length_b 7.291008
_cell_length_c 5.013648
_cell_angle_alpha 98.336614
_cell_angle_beta 56.568375
_cell_angle_gamma 114.887603
_cell_volume 471.145359
_symmetry_space_group_name_H-M "P -1"
_symmetry_group_IT_number 2
_symmetry_cell_setting 'triclinic'
loop_
_space_group_symop_operation_xyz
x,y,z
-x,-y,-z
loop_
_atom_site_type_symbol
_atom_site_label
_atom_site_fract_x
_atom_site_fract_y
_atom_site_fract_z
Si Si1 0.286034 0.274603 0.061745
Si Si2 0.752875 0.509846 0.290157
Si Si3 0.457475 0.258189 0.049082
Si Si4 0.598568 0.079031 0.529064
Si Si5 0.922019 0.093700 0.760943
Si Si6 0.995198 0.667610 0.839525
O O1 0.310175 0.427668 0.800681
O O2 0.260600 0.390084 0.384678
O O3 0.373496 0.201864 0.964447
O O4 0.189293 0.074345 0.120917
O O5 0.707562 0.263642 0.298911
O O6 0.874330 0.611730 0.020258
O O7 0.396251 0.112502 0.373824
O O8 0.500000 0.500000 0.000000
O O9 0.555319 0.204600 0.836706
O O10 0.500000 0.000000 0.500000
O O11 0.943257 0.140470 0.042716
O O12 0.948850 0.282095 0.542110
O O13 0.000000 0.000000 0.500000
O O14 0.000000 0.500000 0.000000
#
# Coordination Sequence:
#
# PCOD9067156 Si02
#       6
#     2   2   2   2   2   2
#     4  12  26  43  77 101 139 191 240 292 353 428
#     4  12  25  46  70 105 142 186 238 292 360 420
#     4  11  25  48  71 104 140 189 237 291 365 422
#     4  11  27  45  73 105 146 182 240 302 351 434
#     4  12  23  46  69 102 138 186 242 281 349 423
#     4  12  26  44  69 103 148 187 231 298 351 416
#
# _framework density 25.469847999999999
#
# number of rings (size 3 to 8) (size 9 to 14) (size 15 to 20)
#    0.000    0.333    5.000    3.000    7.000    2.667 
#    0.000    0.000    0.000    0.000    0.000    0.000 
#    0.000    0.000    0.000    0.000    0.000    0.000 
#
# Total GULP energy -67084.689913 kJ/mol
# GULP energy per Si atom -5590.390826 kJ/mol
# Density = 2.541188 g / cm^3
# Si number density = 25.469848 Si / 1000 Ang^3
#
#
#
# Elastic Constant Matrix: (Units=GPa)
#
#
# Indices 1 2 3 4 5 6 
#
# 1 141.2291 38.3636 26.9004 -20.1563 14.7718 14.1772
# 2 38.3636 123.9910 36.1531 -45.5576 16.3890 1.2346
# 3 26.9004 36.1531 86.0626 -15.1066 25.8544 11.3322
# 4 -20.1563 -45.5576 -15.1066 45.5912 -2.7306 -2.3060
# 5 14.7718 16.3890 25.8544 -2.7306 54.6510 -12.2624
# 6 14.1772 1.2346 11.3322 -2.3060 -12.2624 63.7738
#
#
#
# Elastic Compliance Matrix: (Units=1/GPa)
#
#
# Indices 1 2 3 4 5 6 
#
# 1 0.008257 -0.001398 -0.000918 0.001750 -0.001720 -0.001913
# 2 -0.001398 0.014153 -0.002883 0.012499 -0.001728 0.000669
# 3 -0.000918 -0.002883 0.016081 0.001404 -0.007312 -0.003953
# 4 0.001750 0.012499 0.001404 0.035463 -0.003159 -0.000206
# 5 -0.001720 -0.001728 -0.007312 -0.003159 0.023976 0.006211
# 6 -0.001913 0.000669 -0.003953 -0.000206 0.006211 0.017982
#
#
# Mechanical properties :
#
#
# Convention : Reuss Voigt Hill
#
# Bulk Modulus (GPa) = 35.59696 61.56856 48.58276
# Shear Modulus (GPa) = 36.85332 49.46090 43.15711
#
# Velocity S-wave (km/s) = 3.80799 4.41152 4.12082
# Velocity P-wave (km/s) = 5.77415 7.08338 6.46201
#
# Compressibility (1/GPa) = 0.02809229
#
# Stress axis : x y z
#
# Youngs Moduli (GPa) = 121.11097 70.65884 62.18545
#
# Poissons Ratio (x) = 0.09876 0.05708
# Poissons Ratio (y) = 0.16928 0.17930
# Poissons Ratio (z) = 0.11117 0.20373
#
# Static dielectric constant tensor:
#      x y z
#    x 1.805990 -0.106050 0.029420 
#    y -0.106050 2.131870 0.086470 
#    z 0.029420 0.086470 2.162040 
# 
# From -- ./inp_files/102837.got.cif
#   From: 2010.05.17/outbox.cif.g08.bks.cpg/sg2_52_cif.got.tgz:102837.got - 2010.06.03 11:33:40.
