data_PCOD9067958
_publ_section_title
;
Structure prediction by ZEFSAII (Michael W. Deem and Ramdas Pophale) SiO2 
 PCOD9067958
Probable space group: P -1
;
_chemical_formula_sum "Si O2"
_cell_formula_units_Z 13
_cell_length_a 8.913479
_cell_length_b 9.238437
_cell_length_c 9.274825
_cell_angle_alpha 126.419188
_cell_angle_beta 66.068949
_cell_angle_gamma 96.009551
_cell_volume 552.047969
_symmetry_space_group_name_H-M "P -1"
_symmetry_group_IT_number 2
_symmetry_cell_setting 'triclinic'
loop_
_space_group_symop_operation_xyz
x,y,z
-x,-y,-z
loop_
_atom_site_type_symbol
_atom_site_label
_atom_site_fract_x
_atom_site_fract_y
_atom_site_fract_z
Si Si1 0.602150 0.293517 0.364197
Si Si2 0.571321 0.254890 0.951233
Si Si3 0.912940 0.006974 0.697094
Si Si4 0.500000 0.000000 0.000000
Si Si5 0.981234 0.321103 0.314322
Si Si6 0.077957 0.317912 0.949629
Si Si7 0.438910 0.331543 0.740564
O O1 0.500000 0.500000 0.500000
O O2 0.793610 0.306023 0.328106
O O3 0.527110 0.240099 0.512229
O O4 0.571812 0.148346 0.170563
O O5 0.555374 0.290042 0.809596
O O6 0.710379 0.067603 0.807466
O O7 0.601876 0.444784 0.118677
O O8 0.418738 0.180303 0.037391
O O9 0.959780 0.836225 0.683243
O O10 0.000000 0.000000 0.500000
O O11 0.973756 0.169982 0.851887
O O12 0.000000 0.500000 0.500000
O O13 0.070182 0.332801 0.132938
O O14 0.267809 0.264904 0.794708
O O15 0.000000 0.500000 0.000000
#
# Coordination Sequence:
#
# PCOD9067958 Si02
#       7
#     2   2   2   1   2   2   2
#     4  12  27  52  77 116 153 207 259 327 391 466
#     4  11  26  46  75 111 152 204 253 327 386 475
#     4  12  27  48  74 111 156 202 265 320 397 474
#     4  12  28  46  82 110 158 198 268 316 388 468
#     4  12  30  50  79 111 156 211 264 326 398 473
#     4  12  25  48  73 112 152 203 254 323 393 469
#     4  11  26  47  78 112 154 199 262 317 405 463
#
# _framework density 23.548680000000001
#
# number of rings (size 3 to 8) (size 9 to 14) (size 15 to 20)
#    0.000    0.308    3.077    4.154   12.923    0.615 
#    0.000    0.000    0.000    0.000    0.000    0.000 
#    0.000    0.000    0.000    0.000    0.000    0.000 
#
# Total GULP energy -72518.174163 kJ/mol
# GULP energy per Si atom -5578.321089 kJ/mol
# Density = 2.349508 g / cm^3
# Si number density = 23.548680 Si / 1000 Ang^3
#
#
#
# Elastic Constant Matrix: (Units=GPa)
#
#
# Indices 1 2 3 4 5 6 
#
# 1 112.8556 34.1418 40.2567 15.4955 10.6233 -7.5925
# 2 34.1418 158.3539 42.7721 13.1582 13.6325 -24.8535
# 3 40.2567 42.7721 118.1714 -17.5440 36.7933 -8.3483
# 4 15.4955 13.1582 -17.5440 59.8008 9.2965 2.8482
# 5 10.6233 13.6325 36.7933 9.2965 40.6946 4.9290
# 6 -7.5925 -24.8535 -8.3483 2.8482 4.9290 41.9033
#
#
#
# Elastic Compliance Matrix: (Units=1/GPa)
#
#
# Indices 1 2 3 4 5 6 
#
# 1 0.011369 -0.000835 -0.005191 -0.004781 0.003037 0.000498
# 2 -0.000835 0.008123 -0.002758 -0.002594 0.000064 0.004286
# 3 -0.005191 -0.002758 0.017935 0.009658 -0.016418 0.002272
# 4 -0.004781 -0.002594 0.009658 0.023238 -0.011842 -0.000667
# 5 0.003037 0.000064 -0.016418 -0.011842 0.042136 -0.006834
# 6 0.000498 0.004286 0.002272 -0.000667 -0.006834 0.027799
#
#
# Mechanical properties :
#
#
# Convention : Reuss Voigt Hill
#
# Bulk Modulus (GPa) = 50.35451 69.30247 59.82849
# Shear Modulus (GPa) = 32.30251 46.62710 39.46480
#
# Velocity S-wave (km/s) = 3.70771 4.45458 4.09819
# Velocity P-wave (km/s) = 6.30548 7.48004 6.91774
#
# Compressibility (1/GPa) = 0.01985919
#
# Stress axis : x y z
#
# Youngs Moduli (GPa) = 87.95607 123.11380 55.75716
#
# Poissons Ratio (x) = 0.10282 0.28944
# Poissons Ratio (y) = 0.07346 0.15376
# Poissons Ratio (z) = 0.45658 0.33950
#
# Static dielectric constant tensor:
#      x y z
#    x 1.764920 -0.090920 -0.006350 
#    y -0.090920 1.937110 -0.098350 
#    z -0.006350 -0.098350 1.882680 
# 
# From -- ./inp_files/156218.got.cif
#   From: 2010.05.17/outbox.cif.g08.bks.cpg/sg2_79_cif.got.tgz:156218.got - 2010.06.03 11:33:40.
