data_PCOD9067704
_publ_section_title
;
Structure prediction by ZEFSAII (Michael W. Deem and Ramdas Pophale) SiO2 
 PCOD9067704
Probable space group: P -1
;
_chemical_formula_sum "Si O2"
_cell_formula_units_Z 12
_cell_length_a 14.442294
_cell_length_b 9.117583
_cell_length_c 13.810254
_cell_angle_alpha 56.666249
_cell_angle_beta 21.034135
_cell_angle_gamma 54.594506
_cell_volume 531.767115
_symmetry_space_group_name_H-M "P -1"
_symmetry_group_IT_number 2
_symmetry_cell_setting 'triclinic'
loop_
_space_group_symop_operation_xyz
x,y,z
-x,-y,-z
loop_
_atom_site_type_symbol
_atom_site_label
_atom_site_fract_x
_atom_site_fract_y
_atom_site_fract_z
Si Si1 0.986863 0.289825 0.309408
Si Si2 0.551047 0.060584 0.818587
Si Si3 0.743207 0.565815 0.290095
Si Si4 0.431538 0.780483 0.899520
Si Si5 0.253873 0.028984 0.802529
Si Si6 0.830448 0.417123 0.621280
O O1 0.806694 0.144108 0.537431
O O2 0.816848 0.460300 0.356985
O O3 0.997045 0.347284 0.389855
O O4 0.276933 0.208656 0.012403
O O5 0.595002 0.908341 0.748042
O O6 0.500000 0.000000 0.000000
O O7 0.500000 0.500000 0.500000
O O8 0.735383 0.775257 0.237202
O O9 0.000000 0.500000 0.000000
O O10 0.585952 0.586393 0.778845
O O11 0.287123 0.891876 0.910114
O O12 0.264281 0.735993 0.170414
O O13 0.500000 0.000000 0.500000
O O14 0.000000 0.000000 0.000000
O O15 0.000000 0.500000 0.500000
#
# Coordination Sequence:
#
# PCOD9067704 Si02
#       6
#     2   2   2   2   2   2
#     4  12  26  45  75 101 144 179 235 287 347 419
#     4  12  25  46  70 108 137 181 229 286 353 414
#     4  12  26  49  72 106 141 192 237 289 350 417
#     4  11  26  45  71 102 143 180 234 289 350 418
#     4  12  28  48  73 106 142 190 240 290 349 420
#     4  11  26  44  71 104 139 185 226 291 358 411
#
# _framework density 22.566268000000001
#
# number of rings (size 3 to 8) (size 9 to 14) (size 15 to 20)
#    0.000    0.333    1.667    6.500    9.333    0.000 
#    0.000    0.000    0.000    0.000    0.000    0.000 
#    0.000    0.000    0.000    0.000    0.000    0.000 
#
# Total GULP energy -67131.944438 kJ/mol
# GULP energy per Si atom -5594.328703 kJ/mol
# Density = 2.251491 g / cm^3
# Si number density = 22.566268 Si / 1000 Ang^3
#
#
#
# Elastic Constant Matrix: (Units=GPa)
#
#
# Indices 1 2 3 4 5 6 
#
# 1 138.2437 58.8299 35.9467 -11.1004 -12.0097 -5.3753
# 2 58.8299 130.6120 41.7498 -4.6797 -0.5184 -6.1867
# 3 35.9467 41.7498 98.5398 10.2826 -22.6139 25.2209
# 4 -11.1004 -4.6797 10.2826 35.9544 11.3680 2.3578
# 5 -12.0097 -0.5184 -22.6139 11.3680 43.3517 2.3458
# 6 -5.3753 -6.1867 25.2209 2.3578 2.3458 51.3469
#
#
#
# Elastic Compliance Matrix: (Units=1/GPa)
#
#
# Indices 1 2 3 4 5 6 
#
# 1 0.009731 -0.003214 -0.002999 0.003275 0.000129 0.001948
# 2 -0.003214 0.011449 -0.006359 0.003706 -0.005272 0.004237
# 3 -0.002999 -0.006359 0.021284 -0.011449 0.013828 -0.011641
# 4 0.003275 0.003706 -0.011449 0.036972 -0.015008 0.005401
# 5 0.000129 -0.005272 0.013828 -0.015008 0.034638 -0.008307
# 6 0.001948 0.004237 -0.011641 0.005401 -0.008307 0.026039
#
#
# Mechanical properties :
#
#
# Convention : Reuss Voigt Hill
#
# Bulk Modulus (GPa) = 57.73871 71.16092 64.44982
# Shear Modulus (GPa) = 29.23437 41.52187 35.37812
#
# Velocity S-wave (km/s) = 3.60320 4.29417 3.96377
# Velocity P-wave (km/s) = 6.55382 7.49595 7.04066
#
# Compressibility (1/GPa) = 0.01731940
#
# Stress axis : x y z
#
# Youngs Moduli (GPa) = 102.76257 87.34082 46.98385
#
# Poissons Ratio (x) = 0.28075 0.14089
# Poissons Ratio (y) = 0.33032 0.29879
# Poissons Ratio (z) = 0.30816 0.55543
#
# Static dielectric constant tensor:
#      x y z
#    x 1.812260 -0.053090 -0.051930 
#    y -0.053090 2.246400 -0.259880 
#    z -0.051930 -0.259880 2.033770 
# 
# From -- ./inp_files/37758.got.cif
#   From: 2010.05.17/outbox.cif.g08.bks.cpg/sg2_19_cif.got.tgz:37758.got - 2010.06.03 11:33:40.
