data_PCOD9067214
_publ_section_title
;
Structure prediction by ZEFSAII (Michael W. Deem and Ramdas Pophale) SiO2 
 PCOD9067214
Probable space group: P -1
;
_chemical_formula_sum "Si O2"
_cell_formula_units_Z 14
_cell_length_a 9.151708
_cell_length_b 10.524932
_cell_length_c 6.950800
_cell_angle_alpha 95.831050
_cell_angle_beta 92.271913
_cell_angle_gamma 72.570932
_cell_volume 635.435522
_symmetry_space_group_name_H-M "P -1"
_symmetry_group_IT_number 2
_symmetry_cell_setting 'triclinic'
loop_
_space_group_symop_operation_xyz
x,y,z
-x,-y,-z
loop_
_atom_site_type_symbol
_atom_site_label
_atom_site_fract_x
_atom_site_fract_y
_atom_site_fract_z
Si Si1 0.887910 0.415307 0.702631
Si Si2 0.866017 0.139106 0.552819
Si Si3 0.166005 0.990974 0.108969
Si Si4 0.329527 0.570980 0.938148
Si Si5 0.365902 0.837478 0.791525
Si Si6 0.632054 0.881116 0.599448
Si Si7 0.214633 0.389736 0.624343
O O1 0.900856 0.279494 0.560407
O O2 0.825748 0.541347 0.576885
O O3 0.063614 0.404342 0.745551
O O4 0.786578 0.422549 0.888742
O O5 0.815835 0.132955 0.767617
O O6 0.729088 0.141197 0.406153
O O7 0.000000 0.000000 0.500000
O O8 0.224917 0.086522 0.276759
O O9 0.288338 0.962983 0.941794
O O10 0.000000 0.000000 0.000000
O O11 0.330977 0.712466 0.872231
O O12 0.301707 0.477423 0.752980
O O13 0.500000 0.500000 0.000000
O O14 0.538451 0.825940 0.747050
O O15 0.697613 0.764602 0.430417
O O16 0.500000 0.000000 0.500000
#
# Coordination Sequence:
#
# PCOD9067214 Si02
#       7
#     2   2   2   2   2   2   2
#     4  11  25  48  74 105 148 191 256 303 368 448
#     4  12  23  44  74 110 146 197 242 311 374 443
#     4  12  26  47  75 108 147 197 252 307 373 450
#     4  12  27  46  75 109 146 195 252 307 376 448
#     4  12  26  46  74 104 153 194 245 308 381 444
#     4  12  28  49  75 111 156 195 248 315 385 446
#     4  11  27  49  75 105 148 197 247 312 377 440
#
# _framework density 22.032131
#
# number of rings (size 3 to 8) (size 9 to 14) (size 15 to 20)
#    0.000    0.286    5.714    2.571    4.000    1.143 
#    7.714    0.000    0.000    0.000    0.000    0.000 
#    0.000    0.000    0.000    0.000    0.000    0.000 
#
# Total GULP energy -78102.009509 kJ/mol
# GULP energy per Si atom -5578.714965 kJ/mol
# Density = 2.198199 g / cm^3
# Si number density = 22.032131 Si / 1000 Ang^3
#
#
#
# Elastic Constant Matrix: (Units=GPa)
#
#
# Indices 1 2 3 4 5 6 
#
# 1 128.5137 41.4674 47.2316 0.5655 -14.1039 7.9687
# 2 41.4674 104.5446 31.1960 9.9208 5.1702 -6.5106
# 3 47.2316 31.1960 99.0645 -0.9105 -10.2290 -6.9072
# 4 0.5655 9.9208 -0.9105 38.5098 9.8605 2.0375
# 5 -14.1039 5.1702 -10.2290 9.8605 30.9583 3.4764
# 6 7.9687 -6.5106 -6.9072 2.0375 3.4764 32.3291
#
#
#
# Elastic Compliance Matrix: (Units=1/GPa)
#
#
# Indices 1 2 3 4 5 6 
#
# 1 0.011379 -0.003844 -0.004032 -0.000330 0.005157 -0.004974
# 2 -0.003844 0.012424 -0.002291 -0.002298 -0.004251 0.003562
# 3 -0.004032 -0.002291 0.013214 0.000155 0.002517 0.003075
# 4 -0.000330 -0.002298 0.000155 0.028880 -0.008776 -0.001225
# 5 0.005157 -0.004251 0.002517 -0.008776 0.039582 -0.005293
# 6 -0.004974 0.003562 0.003075 -0.001225 -0.005293 0.034179
#
#
# Mechanical properties :
#
#
# Convention : Reuss Voigt Hill
#
# Bulk Modulus (GPa) = 59.94362 63.54587 61.74474
# Shear Modulus (GPa) = 30.20149 34.50796 32.35472
#
# Velocity S-wave (km/s) = 3.70644 3.96189 3.83629
# Velocity P-wave (km/s) = 6.75154 7.05930 6.90714
#
# Compressibility (1/GPa) = 0.01668234
#
# Stress axis : x y z
#
# Youngs Moduli (GPa) = 87.87766 80.49004 75.67588
#
# Poissons Ratio (x) = 0.30940 0.30515
# Poissons Ratio (y) = 0.33780 0.17340
# Poissons Ratio (z) = 0.35435 0.18443
#
# Static dielectric constant tensor:
#      x y z
#    x 1.837390 0.016930 -0.016620 
#    y 0.016930 1.831710 -0.012960 
#    z -0.016620 -0.012960 1.814260 
# 
# From -- ./inp_files/28269.got.cif
#   From: 2010.05.17/outbox.cif.g08.bks.cpg/sg2_15_cif.got.tgz:28269.got - 2010.06.03 11:33:40.
