data_PCOD9067357
_publ_section_title
;
Structure prediction by ZEFSAII (Michael W. Deem and Ramdas Pophale) SiO2 
 PCOD9067357
Probable space group: P -1
;
_chemical_formula_sum "Si O2"
_cell_formula_units_Z 16
_cell_length_a 5.123493
_cell_length_b 17.315218
_cell_length_c 7.888436
_cell_angle_alpha 110.955890
_cell_angle_beta 100.842684
_cell_angle_gamma 84.649645
_cell_volume 641.604629
_symmetry_space_group_name_H-M "P -1"
_symmetry_group_IT_number 2
_symmetry_cell_setting 'triclinic'
loop_
_space_group_symop_operation_xyz
x,y,z
-x,-y,-z
loop_
_atom_site_type_symbol
_atom_site_label
_atom_site_fract_x
_atom_site_fract_y
_atom_site_fract_z
Si Si1 0.647908 0.482362 0.765427
Si Si2 0.909241 0.643135 0.926035
Si Si3 0.278970 0.956065 0.050927
Si Si4 0.819224 0.978275 0.550658
Si Si5 0.319089 0.793028 0.733527
Si Si6 0.264751 0.194061 0.479302
Si Si7 0.527052 0.327211 0.846045
Si Si8 0.232596 0.609072 0.631262
O O1 0.535082 0.419150 0.837923
O O2 0.408270 0.541187 0.705101
O O3 0.782771 0.428485 0.587273
O O4 0.861663 0.548452 0.899104
O O5 0.666029 0.685739 0.028787
O O6 0.171324 0.684368 0.063847
O O7 0.964573 0.631689 0.722293
O O8 0.275091 0.858788 0.929975
O O9 0.146607 0.974509 0.586591
O O10 0.500000 0.000000 0.000000
O O11 0.294798 0.972237 0.267297
O O12 0.719291 0.887239 0.466724
O O13 0.000000 0.000000 0.000000
O O14 0.571927 0.823226 0.684892
O O15 0.370053 0.696792 0.704398
O O16 0.044478 0.791497 0.591081
O O17 0.412988 0.268396 0.643440
#
# Coordination Sequence:
#
# PCOD9067357 Si02
#       8
#     2   2   2   2   2   2   2   2
#     4  11  25  49  71 103 147 194 250 299 369 427
#     4  12  26  47  69 105 141 186 251 299 363 429
#     4  12  23  47  78 108 141 192 241 291 356 445
#     4  12  26  46  77 112 151 185 233 301 374 432
#     4  12  25  47  77 105 146 189 251 298 354 436
#     4  12  26  48  74 108 146 192 242 295 368 445
#     4  12  27  45  75 100 147 196 237 299 367 437
#     4  11  27  44  74 106 145 190 247 307 361 413
#
# _framework density 24.937474000000002
#
# number of rings (size 3 to 8) (size 9 to 14) (size 15 to 20)
#    0.000    0.250    5.000    3.375    3.500    2.000 
#    0.000    0.000    0.000    0.000    0.000    0.000 
#    0.000    0.000    0.000    0.000    0.000    0.000 
#
# Total GULP energy -89380.248733 kJ/mol
# GULP energy per Si atom -5586.265546 kJ/mol
# Density = 2.488072 g / cm^3
# Si number density = 24.937474 Si / 1000 Ang^3
#
#
#
# Elastic Constant Matrix: (Units=GPa)
#
#
# Indices 1 2 3 4 5 6 
#
# 1 150.7661 14.1912 16.5808 -19.7508 -6.6397 18.5555
# 2 14.1912 69.8551 -2.1524 14.1062 4.7454 18.3875
# 3 16.5808 -2.1524 50.9197 16.5748 -6.2950 1.5738
# 4 -19.7508 14.1062 16.5748 42.0560 11.5458 2.6802
# 5 -6.6397 4.7454 -6.2950 11.5458 38.2886 -3.4009
# 6 18.5555 18.3875 1.5738 2.6802 -3.4009 39.4038
#
#
#
# Elastic Compliance Matrix: (Units=1/GPa)
#
#
# Indices 1 2 3 4 5 6 
#
# 1 0.008903 -0.002570 -0.005734 0.008020 -0.001807 -0.003466
# 2 -0.002570 0.018635 0.004751 -0.008902 0.000083 -0.007063
# 3 -0.005734 0.004751 0.028606 -0.018025 0.008672 0.001315
# 4 0.008020 -0.008902 -0.018025 0.041446 -0.013222 -0.002863
# 5 -0.001807 0.000083 0.008672 -0.013222 0.031570 0.004090
# 6 -0.003466 -0.007063 0.001315 -0.002863 0.004090 0.030801
#
#
# Mechanical properties :
#
#
# Convention : Reuss Voigt Hill
#
# Bulk Modulus (GPa) = 20.39290 36.53111 28.46200
# Shear Modulus (GPa) = 27.26081 40.14442 33.70261
#
# Velocity S-wave (km/s) = 3.30989 4.01659 3.68024
# Velocity P-wave (km/s) = 4.77520 6.01594 5.43112
#
# Compressibility (1/GPa) = 0.04903669
#
# Stress axis : x y z
#
# Youngs Moduli (GPa) = 112.32232 53.66254 34.95816
#
# Poissons Ratio (x) = 0.13791 0.20047
# Poissons Ratio (y) = 0.28866 -0.16608
# Poissons Ratio (z) = 0.64411 -0.25495
#
# Static dielectric constant tensor:
#      x y z
#    x 2.002180 -0.067830 0.029340 
#    y -0.067830 1.949480 -0.051280 
#    z 0.029340 -0.051280 2.001400 
# 
# From -- ./inp_files/140294.got.cif
#   From: 2010.05.17/outbox.cif.g08.bks.cpg/sg2_71_cif.got.tgz:140294.got - 2010.06.03 11:33:40.
