data_PCOD9067572
_publ_section_title
;
Structure prediction by ZEFSAII (Michael W. Deem and Ramdas Pophale) SiO2 
 PCOD9067572
Probable space group: P -1
;
_chemical_formula_sum "Si O2"
_cell_formula_units_Z 12
_cell_length_a 7.751601
_cell_length_b 10.442233
_cell_length_c 8.698659
_cell_angle_alpha 134.849297
_cell_angle_beta 108.530616
_cell_angle_gamma 88.846778
_cell_volume 450.980462
_symmetry_space_group_name_H-M "P -1"
_symmetry_group_IT_number 2
_symmetry_cell_setting 'triclinic'
loop_
_space_group_symop_operation_xyz
x,y,z
-x,-y,-z
loop_
_atom_site_type_symbol
_atom_site_label
_atom_site_fract_x
_atom_site_fract_y
_atom_site_fract_z
Si Si1 0.918595 0.363106 0.586247
Si Si2 0.126093 0.121086 0.273087
Si Si3 0.737257 0.382217 0.969810
Si Si4 0.376031 0.324925 0.007040
Si Si5 0.514737 0.801649 0.761916
Si Si6 0.210302 0.940741 0.444054
O O1 0.701539 0.324143 0.439107
O O2 0.902566 0.222140 0.608270
O O3 0.040287 0.291526 0.431752
O O4 0.053454 0.565287 0.852512
O O5 0.346270 0.170144 0.321866
O O6 0.104631 0.001763 0.323153
O O7 0.000000 0.000000 0.000000
O O8 0.728116 0.528669 0.957718
O O9 0.665331 0.173480 0.704012
O O10 0.593449 0.407676 0.080186
O O11 0.383941 0.289437 0.158066
O O12 0.297599 0.125841 0.727254
O O13 0.500000 0.000000 0.000000
#
# Coordination Sequence:
#
# PCOD9067572 Si02
#       6
#     2   2   2   2   2   2
#     4  12  27  49  76 117 157 200 263 317 390 463
#     4  12  26  46  81 115 154 204 259 318 392 457
#     4  11  27  47  78 118 149 209 264 316 389 461
#     4  11  25  50  80 110 159 202 266 318 383 473
#     4  12  25  47  80 118 151 207 260 318 392 462
#     4  12  25  49  82 106 156 210 257 318 384 470
#
# _framework density 26.608692000000001
#
# number of rings (size 3 to 8) (size 9 to 14) (size 15 to 20)
#    0.000    0.333    5.000    2.500    4.667    0.667 
#    0.000    1.667    0.000    0.000    0.000    0.000 
#    0.000    0.000    0.000    0.000    0.000    0.000 
#
# Total GULP energy -67297.708589 kJ/mol
# GULP energy per Si atom -5608.142382 kJ/mol
# Density = 2.654813 g / cm^3
# Si number density = 26.608692 Si / 1000 Ang^3
#
#
#
# Elastic Constant Matrix: (Units=GPa)
#
#
# Indices 1 2 3 4 5 6 
#
# 1 139.8169 -12.2058 57.3833 4.8376 -0.3920 -3.2113
# 2 -12.2058 81.5733 52.6285 -14.2989 5.5172 -12.9920
# 3 57.3833 52.6285 182.6211 0.1788 25.9269 -16.9123
# 4 4.8376 -14.2989 0.1788 45.7218 -4.8259 -10.5516
# 5 -0.3920 5.5172 25.9269 -4.8259 56.2077 -3.0131
# 6 -3.2113 -12.9920 -16.9123 -10.5516 -3.0131 28.6732
#
#
#
# Elastic Compliance Matrix: (Units=1/GPa)
#
#
# Indices 1 2 3 4 5 6 
#
# 1 0.009319 0.004373 -0.004353 0.000801 0.001763 0.000938
# 2 0.004373 0.019827 -0.006609 0.008030 0.002292 0.008771
# 3 -0.004353 -0.006609 0.009382 -0.001819 -0.003813 0.000982
# 4 0.000801 0.008030 -0.001819 0.027675 0.003139 0.013169
# 5 0.001763 0.002292 -0.003813 0.003139 0.019725 0.002215
# 6 0.000938 0.008771 0.000982 0.013169 0.002215 0.044613
#
#
# Mechanical properties :
#
#
# Convention : Reuss Voigt Hill
#
# Bulk Modulus (GPa) = 39.44596 66.62482 53.03539
# Shear Modulus (GPa) = 32.85820 46.53425 39.69623
#
# Velocity S-wave (km/s) = 3.51788 4.18645 3.86664
# Velocity P-wave (km/s) = 5.59976 6.96143 6.31739
#
# Compressibility (1/GPa) = 0.02535114
#
# Stress axis : x y z
#
# Youngs Moduli (GPa) = 107.30527 50.43738 106.58532
#
# Poissons Ratio (x) = -0.22058 0.46394
# Poissons Ratio (y) = -0.46928 0.70442
# Poissons Ratio (z) = 0.46707 0.33334
#
# Static dielectric constant tensor:
#      x y z
#    x 2.115370 0.001280 -0.004230 
#    y 0.001280 2.055450 0.017760 
#    z -0.004230 0.017760 2.032090 
# 
# From -- ./inp_files/191159.got.cif
#   From: 2010.05.17/outbox.cif.g08.bks.cpg/sg2_96_cif.got.tgz:191159.got - 2010.06.03 11:33:40.
