data_PCOD9067071
_publ_section_title
;
Structure prediction by ZEFSAII (Michael W. Deem and Ramdas Pophale) SiO2 
 PCOD9067071
Probable space group: P -1
;
_chemical_formula_sum "Si O2"
_cell_formula_units_Z 14
_cell_length_a 15.832954
_cell_length_b 12.091782
_cell_length_c 8.954064
_cell_angle_alpha 60.204744
_cell_angle_beta 129.550866
_cell_angle_gamma 153.898062
_cell_volume 567.185962
_symmetry_space_group_name_H-M "P -1"
_symmetry_group_IT_number 2
_symmetry_cell_setting 'triclinic'
loop_
_space_group_symop_operation_xyz
x,y,z
-x,-y,-z
loop_
_atom_site_type_symbol
_atom_site_label
_atom_site_fract_x
_atom_site_fract_y
_atom_site_fract_z
Si Si1 0.155873 0.147344 0.722479
Si Si2 0.583270 0.904251 0.254462
Si Si3 0.041600 0.292187 0.656471
Si Si4 0.523897 0.159464 0.339236
Si Si5 0.564272 0.513909 0.729265
Si Si6 0.249836 0.768970 0.046569
Si Si7 0.188480 0.028446 0.130545
O O1 0.391908 0.368520 0.764889
O O2 0.130910 0.251358 0.716047
O O3 0.124026 0.005952 0.905979
O O4 0.000000 0.000000 0.500000
O O5 0.459137 0.661517 0.197760
O O6 0.394227 0.786670 0.211626
O O7 0.792670 0.061538 0.473415
O O8 0.706456 0.132204 0.134759
O O9 0.223605 0.572905 0.610794
O O10 0.005892 0.248038 0.823013
O O11 0.411789 0.166743 0.290702
O O12 0.500000 0.000000 0.500000
O O13 0.368332 0.992177 0.132694
O O14 0.500000 0.500000 0.500000
O O15 0.768189 0.803708 0.827008
O O16 0.000000 0.500000 0.000000
#
# Coordination Sequence:
#
# PCOD9067071 Si02
#       7
#     2   2   2   2   2   2   2
#     4  12  25  48  76 117 162 209 261 330 406 477
#     4  11  25  47  77 112 154 202 269 315 396 473
#     4  12  26  48  80 115 161 209 261 329 404 475
#     4  12  28  49  79 111 161 209 272 329 396 473
#     4  12  24  46  78 115 158 207 256 328 398 477
#     4  11  27  51  75 108 150 210 262 330 388 466
#     4  12  27  49  76 121 161 209 267 327 404 483
#
# _framework density 24.683261999999999
#
# number of rings (size 3 to 8) (size 9 to 14) (size 15 to 20)
#    0.000    0.286    4.286    3.429    2.000    5.714 
#    5.143    0.000    0.000    0.000    0.000    0.000 
#    0.000    0.000    0.000    0.000    0.000    0.000 
#
# Total GULP energy -78319.132268 kJ/mol
# GULP energy per Si atom -5594.223733 kJ/mol
# Density = 2.462708 g / cm^3
# Si number density = 24.683262 Si / 1000 Ang^3
#
#
#
# Elastic Constant Matrix: (Units=GPa)
#
#
# Indices 1 2 3 4 5 6 
#
# 1 136.0156 60.2419 33.2037 -5.0004 17.2814 22.9209
# 2 60.2419 160.0089 46.1847 -6.6409 12.3979 32.2446
# 3 33.2037 46.1847 122.3852 -14.9207 0.7776 12.8762
# 4 -5.0004 -6.6409 -14.9207 46.3854 5.8154 -4.4053
# 5 17.2814 12.3979 0.7776 5.8154 37.3718 -7.1811
# 6 22.9209 32.2446 12.8762 -4.4053 -7.1811 45.2177
#
#
#
# Elastic Compliance Matrix: (Units=1/GPa)
#
#
# Indices 1 2 3 4 5 6 
#
# 1 0.009896 -0.002197 -0.001367 0.000536 -0.004622 -0.003742
# 2 -0.002197 0.008980 -0.002210 0.000221 -0.002932 -0.005105
# 3 -0.001367 -0.002210 0.009695 0.002550 0.000743 -0.000125
# 4 0.000536 0.000221 0.002550 0.022997 -0.003862 0.000472
# 5 -0.004622 -0.002932 0.000743 -0.003862 0.032175 0.008956
# 6 -0.003742 -0.005105 -0.000125 0.000472 0.008956 0.029156
#
#
# Mechanical properties :
#
#
# Convention : Reuss Voigt Hill
#
# Bulk Modulus (GPa) = 58.74458 77.51894 68.13176
# Shear Modulus (GPa) = 38.42546 44.38029 41.40287
#
# Velocity S-wave (km/s) = 3.94984 4.24487 4.10001
# Velocity P-wave (km/s) = 6.68226 7.44976 7.07642
#
# Compressibility (1/GPa) = 0.01702285
#
# Stress axis : x y z
#
# Youngs Moduli (GPa) = 101.04663 111.36280 103.14316
#
# Poissons Ratio (x) = 0.24463 0.14105
# Poissons Ratio (y) = 0.22197 0.22796
# Poissons Ratio (z) = 0.13818 0.24612
#
# Static dielectric constant tensor:
#      x y z
#    x 2.405370 0.065520 -0.377250 
#    y 0.065520 2.177770 -0.020130 
#    z -0.377250 -0.020130 2.338770 
# 
# From -- ./inp_files/306807.got.cif
#   From: 2010.05.17/outbox.cif.g08.bks.cpg/sg2_154_cif.got.tgz:306807.got - 2010.06.03 11:33:40.
