data_PCOD9067736
_publ_section_title
;
Structure prediction by ZEFSAII (Michael W. Deem and Ramdas Pophale) SiO2 
 PCOD9067736
Probable space group: P -1
;
_chemical_formula_sum "Si O2"
_cell_formula_units_Z 14
_cell_length_a 10.439616
_cell_length_b 15.122248
_cell_length_c 5.014784
_cell_angle_alpha 120.121370
_cell_angle_beta 93.819247
_cell_angle_gamma 63.528398
_cell_volume 600.236998
_symmetry_space_group_name_H-M "P -1"
_symmetry_group_IT_number 2
_symmetry_cell_setting 'triclinic'
loop_
_space_group_symop_operation_xyz
x,y,z
-x,-y,-z
loop_
_atom_site_type_symbol
_atom_site_label
_atom_site_fract_x
_atom_site_fract_y
_atom_site_fract_z
Si Si1 0.208006 0.993042 0.867273
Si Si2 0.861113 0.328171 0.894460
Si Si3 0.581623 0.686534 0.952120
Si Si4 0.578595 0.562115 0.258676
Si Si5 0.391600 0.955554 0.310979
Si Si6 0.928970 0.584244 0.864833
Si Si7 0.126175 0.810168 0.826455
O O1 0.274414 0.973276 0.552437
O O2 0.202636 0.880562 0.819843
O O3 0.306891 0.018567 0.126670
O O4 0.042456 0.095618 0.008337
O O5 0.859293 0.285143 0.532438
O O6 0.746430 0.462974 0.120742
O O7 0.819555 0.254201 0.982191
O O8 0.017306 0.318695 0.969318
O O9 0.548883 0.669103 0.225245
O O10 0.490287 0.819371 0.060988
O O11 0.543910 0.608525 0.624544
O O12 0.755168 0.640923 0.901668
O O13 0.500000 0.500000 0.000000
O O14 0.500000 0.000000 0.500000
O O15 0.000000 0.500000 0.500000
O O16 0.000000 0.500000 0.000000
#
# Coordination Sequence:
#
# PCOD9067736 Si02
#       7
#     2   2   2   2   2   2   2
#     4  11  26  50  69 102 140 178 243 291 354 406
#     4  12  24  43  73 104 136 180 234 284 355 416
#     4  12  26  47  70 103 140 192 226 292 352 409
#     4  12  27  45  70 106 145 182 234 278 354 435
#     4  12  28  48  73 102 142 188 238 287 352 423
#     4  12  23  45  67  98 141 177 230 283 341 417
#     4  11  26  44  76 101 134 184 231 301 346 409
#
# _framework density 23.324117999999999
#
# number of rings (size 3 to 8) (size 9 to 14) (size 15 to 20)
#    0.000    0.286    2.857    5.143   10.000    2.286 
#    0.000    0.000    0.000    0.000    0.000    0.000 
#    0.000    0.000    0.000    0.000    0.000    0.000 
#
# Total GULP energy -78455.635808 kJ/mol
# GULP energy per Si atom -5603.973986 kJ/mol
# Density = 2.327103 g / cm^3
# Si number density = 23.324118 Si / 1000 Ang^3
#
#
#
# Elastic Constant Matrix: (Units=GPa)
#
#
# Indices 1 2 3 4 5 6 
#
# 1 51.3699 2.1686 15.6223 4.8245 6.6515 -12.9335
# 2 2.1686 60.9251 18.6916 -5.6557 -10.6182 -7.1265
# 3 15.6223 18.6916 119.8155 -12.7707 -6.5287 -11.8966
# 4 4.8245 -5.6557 -12.7707 40.4750 3.4349 1.5861
# 5 6.6515 -10.6182 -6.5287 3.4349 37.5536 -0.3307
# 6 -12.9335 -7.1265 -11.8966 1.5861 -0.3307 34.1934
#
#
#
# Elastic Compliance Matrix: (Units=1/GPa)
#
#
# Indices 1 2 3 4 5 6 
#
# 1 0.023213 -0.000105 -0.002844 -0.003629 -0.004234 0.007896
# 2 -0.000105 0.018386 -0.002148 0.001383 0.004744 0.003026
# 3 -0.002844 -0.002148 0.009600 0.002890 0.001316 0.001695
# 4 -0.003629 0.001383 0.002890 0.026371 -0.000888 -0.001311
# 5 -0.004234 0.004744 0.001316 -0.000888 0.029031 0.000167
# 6 0.007896 0.003026 0.001695 -0.001311 0.000167 0.033515
#
#
# Mechanical properties :
#
#
# Convention : Reuss Voigt Hill
#
# Bulk Modulus (GPa) = 24.38733 33.89729 29.14231
# Shear Modulus (GPa) = 30.49187 35.48626 32.98907
#
# Velocity S-wave (km/s) = 3.61960 3.90480 3.76490
# Velocity P-wave (km/s) = 5.28651 5.90717 5.60544
#
# Compressibility (1/GPa) = 0.04100490
#
# Stress axis : x y z
#
# Youngs Moduli (GPa) = 43.07920 54.39067 104.16530
#
# Poissons Ratio (x) = 0.00571 0.29622
# Poissons Ratio (y) = 0.00452 0.22376
# Poissons Ratio (z) = 0.12251 0.11684
#
# Static dielectric constant tensor:
#      x y z
#    x 1.956650 0.012760 0.031230 
#    y 0.012760 1.847080 -0.001520 
#    z 0.031230 -0.001520 1.813920 
# 
# From -- ./inp_files/40235.got.cif
#   From: 2010.05.17/outbox.cif.g08.bks.cpg/sg2_21_cif.got.tgz:40235.got - 2010.06.03 11:33:40.
