data_PCOD9067983
_publ_section_title
;
Structure prediction by ZEFSAII (Michael W. Deem and Ramdas Pophale) SiO2 
 PCOD9067983
Probable space group: P -1
;
_chemical_formula_sum "Si O2"
_cell_formula_units_Z 14
_cell_length_a 11.630912
_cell_length_b 28.958200
_cell_length_c 28.089164
_cell_angle_alpha 10.172546
_cell_angle_beta 21.057244
_cell_angle_gamma 21.291204
_cell_volume 587.228505
_symmetry_space_group_name_H-M "P -1"
_symmetry_group_IT_number 2
_symmetry_cell_setting 'triclinic'
loop_
_space_group_symop_operation_xyz
x,y,z
-x,-y,-z
loop_
_atom_site_type_symbol
_atom_site_label
_atom_site_fract_x
_atom_site_fract_y
_atom_site_fract_z
Si Si1 0.966143 0.554421 0.244850
Si Si2 0.308762 0.759443 0.247092
Si Si3 0.299279 0.807067 0.933327
Si Si4 0.529036 0.760709 0.695015
Si Si5 0.135196 0.921054 0.591861
Si Si6 0.789937 0.294335 0.770760
Si Si7 0.718688 0.510868 0.152071
O O1 0.679005 0.753928 0.125925
O O2 0.815415 0.438741 0.466683
O O3 0.131196 0.318908 0.384720
O O4 0.250951 0.686740 0.022355
O O5 0.282986 0.679775 0.283317
O O6 0.054537 0.036581 0.071872
O O7 0.548586 0.006984 0.629084
O O8 0.449936 0.590020 0.134491
O O9 0.500000 0.000000 0.500000
O O10 0.249172 0.834574 0.688590
O O11 0.500000 0.500000 0.000000
O O12 0.866720 0.197494 0.416214
O O13 0.998890 0.682650 0.862087
O O14 0.456631 0.366765 0.855955
O O15 0.000000 0.500000 0.500000
O O16 0.000000 0.000000 0.000000
#
# Coordination Sequence:
#
# PCOD9067983 Si02
#       7
#     2   2   2   2   2   2   2
#     4  11  26  49  75 109 147 200 256 312 374 448
#     4  11  26  46  77 108 149 202 254 309 375 450
#     4  12  24  48  76 107 157 194 253 312 376 455
#     4  12  27  49  75 105 150 196 246 311 372 441
#     4  12  27  47  74 112 147 197 252 304 381 445
#     4  12  26  50  75 108 153 199 247 310 373 438
#     4  12  27  46  77 114 150 197 249 307 376 447
#
# _framework density 23.840805
#
# number of rings (size 3 to 8) (size 9 to 14) (size 15 to 20)
#    0.000    0.286    2.857    5.571    6.000    0.000 
#    0.000    0.000    0.000    0.000    0.000    0.000 
#    0.000    0.000    0.000    0.000    0.000    0.000 
#
# Total GULP energy -78531.757174 kJ/mol
# GULP energy per Si atom -5609.411227 kJ/mol
# Density = 2.378654 g / cm^3
# Si number density = 23.840805 Si / 1000 Ang^3
#
#
#
# Elastic Constant Matrix: (Units=GPa)
#
#
# Indices 1 2 3 4 5 6 
#
# 1 209.7045 73.8925 48.5785 -22.8849 11.0888 -15.2987
# 2 73.8925 137.5781 30.2646 -28.0171 1.3060 -5.4435
# 3 48.5785 30.2646 110.8341 -23.4423 -1.0046 -12.0480
# 4 -22.8849 -28.0171 -23.4423 42.7268 -2.1955 8.1254
# 5 11.0888 1.3060 -1.0046 -2.1955 43.6284 -5.1042
# 6 -15.2987 -5.4435 -12.0480 8.1254 -5.1042 57.4565
#
#
#
# Elastic Compliance Matrix: (Units=1/GPa)
#
#
# Indices 1 2 3 4 5 6 
#
# 1 0.006402 -0.002929 -0.001874 0.000239 -0.001469 0.000870
# 2 -0.002929 0.009893 -0.000457 0.004806 0.000614 -0.000564
# 3 -0.001874 -0.000457 0.011086 0.004603 0.001121 0.001231
# 4 0.000239 0.004806 0.004603 0.029765 0.001092 -0.002628
# 5 -0.001469 0.000614 0.001121 0.001092 0.023572 0.001842
# 6 0.000870 -0.000564 0.001231 -0.002628 0.001842 0.018376
#
#
# Mechanical properties :
#
#
# Convention : Reuss Voigt Hill
#
# Bulk Modulus (GPa) = 59.30915 84.84310 72.07613
# Shear Modulus (GPa) = 43.38932 49.12107 46.25520
#
# Velocity S-wave (km/s) = 4.27073 4.54406 4.40951
# Velocity P-wave (km/s) = 7.01783 7.94959 7.49820
#
# Compressibility (1/GPa) = 0.01686080
#
# Stress axis : x y z
#
# Youngs Moduli (GPa) = 156.19645 101.08184 90.20215
#
# Poissons Ratio (x) = 0.29609 0.16908
# Poissons Ratio (y) = 0.45753 0.04119
# Poissons Ratio (z) = 0.29278 0.04616
#
# Static dielectric constant tensor:
#      x y z
#    x 1.880750 0.008800 0.008230 
#    y 0.008800 1.919680 0.049640 
#    z 0.008230 0.049640 1.919550 
# 
# From -- ./inp_files/623245.got.cif
#   From: 2010.05.17/outbox.cif.g08.bks.cpg/sg2_312_cif.got.tgz:623245.got - 2010.06.03 11:33:40.
