data_PCOD9067417
_publ_section_title
;
Structure prediction by ZEFSAII (Michael W. Deem and Ramdas Pophale) SiO2 
 PCOD9067417
Probable space group: P -1
;
_chemical_formula_sum "Si O2"
_cell_formula_units_Z 14
_cell_length_a 5.757953
_cell_length_b 14.747432
_cell_length_c 10.974870
_cell_angle_alpha 137.825843
_cell_angle_beta 85.640910
_cell_angle_gamma 107.461247
_cell_volume 581.058003
_symmetry_space_group_name_H-M "P -1"
_symmetry_group_IT_number 2
_symmetry_cell_setting 'triclinic'
loop_
_space_group_symop_operation_xyz
x,y,z
-x,-y,-z
loop_
_atom_site_type_symbol
_atom_site_label
_atom_site_fract_x
_atom_site_fract_y
_atom_site_fract_z
Si Si1 0.025512 0.045649 0.785928
Si Si2 0.496678 0.480425 0.626299
Si Si3 0.251623 0.607785 0.154355
Si Si4 0.189338 0.663029 0.627155
Si Si5 0.453828 0.906291 0.031811
Si Si6 0.997269 0.737941 0.483911
Si Si7 0.339763 0.334043 0.987266
O O1 0.950477 0.879421 0.582936
O O2 0.287294 0.070102 0.880239
O O3 0.116031 0.182253 0.826395
O O4 0.770265 0.056097 0.859660
O O5 0.500000 0.500000 0.500000
O O6 0.617961 0.358111 0.498950
O O7 0.652539 0.630468 0.833715
O O8 0.240017 0.412420 0.643032
O O9 0.187981 0.711052 0.355042
O O10 0.342455 0.489640 0.097776
O O11 0.432189 0.684696 0.112967
O O12 0.000000 0.500000 0.000000
O O13 0.318341 0.742225 0.822576
O O14 0.066498 0.754959 0.642999
O O15 0.000000 0.500000 0.500000
O O16 0.500000 0.000000 0.000000
#
# Coordination Sequence:
#
# PCOD9067417 Si02
#       7
#     2   2   2   2   2   2   2
#     4  12  29  46  74 109 152 197 245 307 379 446
#     4  12  23  40  71 107 143 186 243 301 368 446
#     4  11  25  49  76 102 140 193 256 314 363 437
#     4  12  24  39  66 101 146 192 243 293 361 441
#     4  12  26  47  69 107 159 201 234 295 379 450
#     4  12  26  44  70 105 142 191 246 304 366 437
#     4  11  26  47  75 106 143 194 251 307 376 442
#
# _framework density 24.093983000000001
#
# number of rings (size 3 to 8) (size 9 to 14) (size 15 to 20)
#    0.000    0.286    5.714    3.000    4.000    0.571 
#    0.000    0.714    0.000    0.000    0.000    0.000 
#    0.000    0.000    0.000    0.000    0.000    0.000 
#
# Total GULP energy -78008.518162 kJ/mol
# GULP energy per Si atom -5572.037012 kJ/mol
# Density = 2.403914 g / cm^3
# Si number density = 24.093983 Si / 1000 Ang^3
#
#
#
# Elastic Constant Matrix: (Units=GPa)
#
#
# Indices 1 2 3 4 5 6 
#
# 1 84.5188 -1.7091 11.3561 -18.0061 -18.1732 13.0349
# 2 -1.7091 51.9072 31.9505 2.7145 -17.2667 27.4783
# 3 11.3561 31.9505 90.6043 5.0280 -29.0141 0.7498
# 4 -18.0061 2.7145 5.0280 39.2716 2.6155 0.8723
# 5 -18.1732 -17.2667 -29.0141 2.6155 43.9609 -10.5395
# 6 13.0349 27.4783 0.7498 0.8723 -10.5395 44.0296
#
#
#
# Elastic Compliance Matrix: (Units=1/GPa)
#
#
# Indices 1 2 3 4 5 6 
#
# 1 0.016814 0.009692 -0.004199 0.007451 0.005178 -0.009863
# 2 0.009692 0.047610 -0.016691 0.003726 0.003934 -0.031430
# 3 -0.004199 -0.016691 0.020329 -0.004246 0.008604 0.013457
# 4 0.007451 0.003726 -0.004246 0.029371 -0.001289 -0.005349
# 5 0.005178 0.003934 0.008604 -0.001289 0.033104 0.003815
# 6 -0.009863 -0.031430 0.013457 -0.005349 0.003815 0.046037
#
#
# Mechanical properties :
#
#
# Convention : Reuss Voigt Hill
#
# Bulk Modulus (GPa) = 16.03645 34.46945 25.25295
# Shear Modulus (GPa) = 21.14663 37.81462 29.48063
#
# Velocity S-wave (km/s) = 2.96577 3.96594 3.50175
# Velocity P-wave (km/s) = 4.28928 5.94213 5.18203
#
# Compressibility (1/GPa) = 0.06235794
#
# Stress axis : x y z
#
# Youngs Moduli (GPa) = 59.47475 21.00403 49.19151
#
# Poissons Ratio (x) = -0.20358 0.20655
# Poissons Ratio (y) = -0.57645 0.82105
# Poissons Ratio (z) = 0.24973 0.35057
#
# Static dielectric constant tensor:
#      x y z
#    x 2.034030 -0.022130 -0.167070 
#    y -0.022130 1.941410 0.140890 
#    z -0.167070 0.140890 1.783380 
# 
# From -- ./inp_files/26787.got.cif
#   From: 2010.05.17/outbox.cif.g08.bks.cpg/sg2_14_cif.got.tgz:26787.got - 2010.06.03 11:33:40.
