data_PCOD9067848
_publ_section_title
;
Structure prediction by ZEFSAII (Michael W. Deem and Ramdas Pophale) SiO2 
 PCOD9067848
Probable space group: P -1
;
_chemical_formula_sum "Si O2"
_cell_formula_units_Z 10
_cell_length_a 8.258801
_cell_length_b 14.896555
_cell_length_c 8.863714
_cell_angle_alpha 33.997358
_cell_angle_beta 74.340658
_cell_angle_gamma 50.748816
_cell_volume 381.888674
_symmetry_space_group_name_H-M "P -1"
_symmetry_group_IT_number 2
_symmetry_cell_setting 'triclinic'
loop_
_space_group_symop_operation_xyz
x,y,z
-x,-y,-z
loop_
_atom_site_type_symbol
_atom_site_label
_atom_site_fract_x
_atom_site_fract_y
_atom_site_fract_z
Si Si1 0.865607 0.486963 0.749923
Si Si2 0.671771 0.111557 0.516953
Si Si3 0.282361 0.439495 0.643257
Si Si4 0.132782 0.805610 0.377345
Si Si5 0.341623 0.974981 0.661708
O O1 0.633445 0.687314 0.645538
O O2 0.725792 0.528848 0.574954
O O3 0.010058 0.549514 0.592854
O O4 0.102892 0.190302 0.130164
O O5 0.660495 0.166754 0.266221
O O6 0.768764 0.153705 0.569459
O O7 0.320449 0.561253 0.572372
O O8 0.505094 0.161475 0.031563
O O9 0.949789 0.811344 0.504818
O O10 0.000000 0.000000 0.000000
O O11 0.500000 0.000000 0.500000
#
# Coordination Sequence:
#
# PCOD9067848 Si02
#       5
#     2   2   2   2   2
#     4  11  26  48  77 110 150 208 254 311 370 472
#     4  12  27  48  75 112 158 191 259 316 389 437
#     4  11  26  45  80 104 156 201 262 301 386 454
#     4  12  27  48  77 111 154 201 255 315 383 454
#     4  12  27  48  77 111 154 201 255 315 383 454
#
# _framework density 26.185642000000001
#
# number of rings (size 3 to 8) (size 9 to 14) (size 15 to 20)
#    0.000    0.400    4.000    3.000    5.600    5.600 
#    0.000    0.000    0.000    0.000    0.000    0.000 
#    0.000    0.000    0.000    0.000    0.000    0.000 
#
# Total GULP energy -55785.534567 kJ/mol
# GULP energy per Si atom -5578.553457 kJ/mol
# Density = 2.612604 g / cm^3
# Si number density = 26.185642 Si / 1000 Ang^3
#
#
#
# Elastic Constant Matrix: (Units=GPa)
#
#
# Indices 1 2 3 4 5 6 
#
# 1 103.9395 52.9829 7.0599 2.5336 12.2283 4.1834
# 2 52.9829 190.9245 34.4096 -20.5959 13.3299 -2.5873
# 3 7.0599 34.4096 121.6619 3.8126 14.9894 5.1888
# 4 2.5336 -20.5959 3.8126 39.4025 13.4677 15.5337
# 5 12.2283 13.3299 14.9894 13.4677 30.9737 7.6734
# 6 4.1834 -2.5873 5.1888 15.5337 7.6734 64.5477
#
#
#
# Elastic Compliance Matrix: (Units=1/GPa)
#
#
# Indices 1 2 3 4 5 6 
#
# 1 0.011642 -0.003322 0.000663 -0.001504 -0.002772 -0.000250
# 2 -0.003322 0.007261 -0.001610 0.005405 -0.003317 -0.000271
# 3 0.000663 -0.001610 0.009123 -0.000364 -0.003749 -0.000308
# 4 -0.001504 0.005405 -0.000364 0.036278 -0.015715 -0.006519
# 5 -0.002772 -0.003317 -0.003749 -0.015715 0.043719 -0.001067
# 6 -0.000250 -0.000271 -0.000308 -0.006519 -0.001067 0.017218
#
#
# Mechanical properties :
#
#
# Convention : Reuss Voigt Hill
#
# Bulk Modulus (GPa) = 51.31363 67.27007 59.29185
# Shear Modulus (GPa) = 35.64418 48.45636 42.05027
#
# Velocity S-wave (km/s) = 3.69346 4.30640 4.01166
# Velocity P-wave (km/s) = 6.15041 7.10438 6.64454
#
# Compressibility (1/GPa) = 0.01948800
#
# Stress axis : x y z
#
# Youngs Moduli (GPa) = 85.89332 137.72505 109.61522
#
# Poissons Ratio (x) = 0.45758 -0.07272
# Poissons Ratio (y) = 0.28538 0.17647
# Poissons Ratio (z) = -0.05698 0.22173
#
# Static dielectric constant tensor:
#      x y z
#    x 2.187200 -0.034080 -0.093070 
#    y -0.034080 1.957980 0.017800 
#    z -0.093070 0.017800 2.233040 
# 
# From -- ./inp_files/15495.got.cif
#   From: 2010.05.17/outbox.cif.g08.bks.cpg/sg2_8_cif.got.tgz:15495.got - 2010.06.03 11:33:40.
