data_PCOD9067359
_publ_section_title
;
Structure prediction by ZEFSAII (Michael W. Deem and Ramdas Pophale) SiO2 
 PCOD9067359
Probable space group: P -1
;
_chemical_formula_sum "Si O2"
_cell_formula_units_Z 12
_cell_length_a 8.470818
_cell_length_b 8.408700
_cell_length_c 15.006732
_cell_angle_alpha 50.612429
_cell_angle_beta 140.428208
_cell_angle_gamma 128.097265
_cell_volume 508.224666
_symmetry_space_group_name_H-M "P -1"
_symmetry_group_IT_number 2
_symmetry_cell_setting 'triclinic'
loop_
_space_group_symop_operation_xyz
x,y,z
-x,-y,-z
loop_
_atom_site_type_symbol
_atom_site_label
_atom_site_fract_x
_atom_site_fract_y
_atom_site_fract_z
Si Si1 0.678227 0.404082 0.549640
Si Si2 0.711322 0.358289 0.944522
Si Si3 0.215819 0.975052 0.171413
Si Si4 0.519677 0.742184 0.669316
Si Si5 0.590367 0.037115 0.155304
Si Si6 0.988797 0.148166 0.528232
O O1 0.500000 0.500000 0.500000
O O2 0.810007 0.260782 0.718975
O O3 0.501513 0.273334 0.440760
O O4 0.872923 0.606500 0.519688
O O5 0.522205 0.506398 0.786923
O O6 0.628903 0.145012 0.924470
O O7 0.000000 0.500000 0.000000
O O8 0.662596 0.262496 0.056613
O O9 0.477226 0.048020 0.200681
O O10 0.242256 0.113344 0.223683
O O11 0.000000 0.000000 0.000000
O O12 0.283082 0.834769 0.561395
O O13 0.840433 0.946386 0.295541
O O14 0.000000 0.000000 0.500000
#
# Coordination Sequence:
#
# PCOD9067359 Si02
#       6
#     2   2   2   2   2   2
#     4  12  25  48  76 109 152 194 261 313 382 458
#     4  11  26  47  76 109 151 203 254 316 387 459
#     4  12  27  46  72 114 152 199 256 314 383 462
#     4  12  26  47  78 111 147 209 254 312 391 453
#     4  11  25  49  71 109 158 195 254 321 381 452
#     4  12  25  47  73 107 149 199 255 319 375 455
#
# _framework density 23.611605999999998
#
# number of rings (size 3 to 8) (size 9 to 14) (size 15 to 20)
#    0.000    0.333    5.000    2.000    2.333    8.667 
#    0.000    0.000    0.000    0.000    0.000    0.000 
#    0.000    0.000    0.000    0.000    0.000    0.000 
#
# Total GULP energy -67136.301868 kJ/mol
# GULP energy per Si atom -5594.691822 kJ/mol
# Density = 2.355786 g / cm^3
# Si number density = 23.611606 Si / 1000 Ang^3
#
#
#
# Elastic Constant Matrix: (Units=GPa)
#
#
# Indices 1 2 3 4 5 6 
#
# 1 103.9966 45.9584 58.5785 0.7149 -0.2619 -18.3779
# 2 45.9584 121.1796 62.5064 -9.5992 -8.7907 4.8115
# 3 58.5785 62.5064 205.5453 -22.3953 4.0848 4.1207
# 4 0.7149 -9.5992 -22.3953 61.6928 -0.0010 -14.7475
# 5 -0.2619 -8.7907 4.0848 -0.0010 37.7818 -2.2816
# 6 -18.3779 4.8115 4.1207 -14.7475 -2.2816 37.5516
#
#
#
# Elastic Compliance Matrix: (Units=1/GPa)
#
#
# Indices 1 2 3 4 5 6 
#
# 1 0.014650 -0.004325 -0.003021 -0.000017 -0.000092 0.008043
# 2 -0.004325 0.011355 -0.002180 0.000295 0.002663 -0.003055
# 3 -0.003021 -0.002180 0.006637 0.001793 -0.001324 -0.001304
# 4 -0.000017 0.000295 0.001793 0.018599 0.000303 0.007080
# 5 -0.000092 0.002663 -0.001324 0.000303 0.027323 0.001538
# 6 0.008043 -0.003055 -0.001304 0.007080 0.001538 0.033975
#
#
# Mechanical properties :
#
#
# Convention : Reuss Voigt Hill
#
# Bulk Modulus (GPa) = 73.58648 84.97867 79.28257
# Shear Modulus (GPa) = 36.73213 44.98380 40.85797
#
# Velocity S-wave (km/s) = 3.94849 4.36954 4.16434
# Velocity P-wave (km/s) = 7.21252 7.84382 7.53479
#
# Compressibility (1/GPa) = 0.01358945
#
# Stress axis : x y z
#
# Youngs Moduli (GPa) = 68.25901 88.06778 150.67413
#
# Poissons Ratio (x) = 0.38092 0.45520
# Poissons Ratio (y) = 0.29524 0.32845
# Poissons Ratio (z) = 0.20621 0.19198
#
# Static dielectric constant tensor:
#      x y z
#    x 1.829530 -0.120070 -0.043130 
#    y -0.120070 1.736700 0.012260 
#    z -0.043130 0.012260 2.004370 
# 
# From -- ./inp_files/492196.got.cif
#   From: 2010.05.17/outbox.cif.g08.bks.cpg/sg2_247_cif.got.tgz:492196.got - 2010.06.03 11:33:40.
