data_PCOD9067851
_publ_section_title
;
Structure prediction by ZEFSAII (Michael W. Deem and Ramdas Pophale) SiO2 
 PCOD9067851
Probable space group: P -1
;
_chemical_formula_sum "Si O2"
_cell_formula_units_Z 16
_cell_length_a 9.573578
_cell_length_b 22.591276
_cell_length_c 8.702072
_cell_angle_alpha 127.181351
_cell_angle_beta 149.007977
_cell_angle_gamma 42.475779
_cell_volume 652.309857
_symmetry_space_group_name_H-M "P -1"
_symmetry_group_IT_number 2
_symmetry_cell_setting 'triclinic'
loop_
_space_group_symop_operation_xyz
x,y,z
-x,-y,-z
loop_
_atom_site_type_symbol
_atom_site_label
_atom_site_fract_x
_atom_site_fract_y
_atom_site_fract_z
Si Si1 0.149684 0.757061 0.551123
Si Si2 0.485573 0.419347 0.924895
Si Si3 0.267014 0.847355 0.521679
Si Si4 0.673954 0.026955 0.584201
Si Si5 0.268254 0.993485 0.934676
Si Si6 0.543970 0.789619 0.194316
Si Si7 0.207175 0.313636 0.434915
Si Si8 0.627958 0.557217 0.779705
O O1 0.161564 0.802804 0.479772
O O2 0.427485 0.654171 0.666077
O O3 0.804750 0.771705 0.282644
O O4 0.232450 0.800475 0.838578
O O5 0.419277 0.433199 0.066057
O O6 0.848755 0.336936 0.113269
O O7 0.500000 0.500000 0.000000
O O8 0.253165 0.395262 0.582273
O O9 0.982582 0.917416 0.252234
O O10 0.549133 0.767942 0.567063
O O11 0.376076 0.907112 0.802705
O O12 0.052090 0.986994 0.856278
O O13 0.530603 0.128107 0.644531
O O14 0.500000 0.000000 0.500000
O O15 0.552438 0.003653 0.278818
O O16 0.701573 0.709784 0.336823
O O17 0.500000 0.500000 0.500000
O O18 0.000000 0.500000 0.000000
#
# Coordination Sequence:
#
# PCOD9067851 Si02
#       8
#     2   2   2   2   2   2   2   2
#     4  12  26  46  72 102 143 184 244 293 359 434
#     4  12  28  48  75 105 143 183 237 296 362 435
#     4  11  28  46  73 106 147 196 238 299 365 422
#     4  12  24  43  73 102 140 192 242 295 355 415
#     4  11  26  46  67 106 150 186 243 303 354 425
#     4  12  23  46  70 101 137 187 237 294 349 417
#     4  12  25  48  72 104 142 189 235 293 357 428
#     4  12  26  46  71 102 139 179 228 291 359 428
#
# _framework density 24.528220999999998
#
# number of rings (size 3 to 8) (size 9 to 14) (size 15 to 20)
#    0.000    0.250    3.750    4.500    5.250    5.000 
#    0.000    0.000    0.000    0.000    0.000    0.000 
#    0.000    0.000    0.000    0.000    0.000    0.000 
#
# Total GULP energy -89728.917945 kJ/mol
# GULP energy per Si atom -5608.057372 kJ/mol
# Density = 2.447239 g / cm^3
# Si number density = 24.528221 Si / 1000 Ang^3
#
#
#
# Elastic Constant Matrix: (Units=GPa)
#
#
# Indices 1 2 3 4 5 6 
#
# 1 126.1558 48.3308 13.6711 3.6630 17.9490 -6.0824
# 2 48.3308 132.1103 12.3704 24.9429 0.7054 -4.8027
# 3 13.6711 12.3704 115.2995 15.9035 21.3205 -19.8177
# 4 3.6630 24.9429 15.9035 38.9796 -1.8946 -1.7414
# 5 17.9490 0.7054 21.3205 -1.8946 31.6087 -1.4737
# 6 -6.0824 -4.8027 -19.8177 -1.7414 -1.4737 47.8289
#
#
#
# Elastic Compliance Matrix: (Units=1/GPa)
#
#
# Indices 1 2 3 4 5 6 
#
# 1 0.010237 -0.003934 0.000264 0.001206 -0.005790 0.000882
# 2 -0.003934 0.010151 -0.000051 -0.006008 0.001697 0.000331
# 3 0.000264 -0.000051 0.011566 -0.004906 -0.008039 0.004394
# 4 0.001206 -0.006008 -0.004906 0.031557 0.004594 -0.001192
# 5 -0.005790 0.001697 -0.008039 0.004594 0.040469 -0.002483
# 6 0.000882 0.000331 0.004394 -0.001192 -0.002483 0.022754
#
#
# Mechanical properties :
#
#
# Convention : Reuss Voigt Hill
#
# Bulk Modulus (GPa) = 40.79759 58.03447 49.41603
# Shear Modulus (GPa) = 35.12581 43.62966 39.37773
#
# Velocity S-wave (km/s) = 3.78836 4.22210 4.01110
# Velocity P-wave (km/s) = 5.98369 6.89056 6.45308
#
# Compressibility (1/GPa) = 0.02451125
#
# Stress axis : x y z
#
# Youngs Moduli (GPa) = 97.68865 98.51453 86.46255
#
# Poissons Ratio (x) = 0.38759 -0.02285
# Poissons Ratio (y) = 0.38434 0.00439
# Poissons Ratio (z) = -0.02581 0.00500
#
# Static dielectric constant tensor:
#      x y z
#    x 1.993520 0.022380 -0.005910 
#    y 0.022380 1.987410 -0.015400 
#    z -0.005910 -0.015400 1.900220 
# 
# From -- ./inp_files/223540.got.cif
#   From: 2010.05.17/outbox.cif.g08.bks.cpg/sg2_112_cif.got.tgz:223540.got - 2010.06.03 11:33:40.
