data_PCOD9067408
_publ_section_title
;
Structure prediction by ZEFSAII (Michael W. Deem and Ramdas Pophale) SiO2 
 PCOD9067408
Probable space group: P -1
;
_chemical_formula_sum "Si O2"
_cell_formula_units_Z 16
_cell_length_a 9.482210
_cell_length_b 15.105507
_cell_length_c 15.519774
_cell_angle_alpha 27.317581
_cell_angle_beta 77.837105
_cell_angle_gamma 96.083518
_cell_volume 754.855949
_symmetry_space_group_name_H-M "P -1"
_symmetry_group_IT_number 2
_symmetry_cell_setting 'triclinic'
loop_
_space_group_symop_operation_xyz
x,y,z
-x,-y,-z
loop_
_atom_site_type_symbol
_atom_site_label
_atom_site_fract_x
_atom_site_fract_y
_atom_site_fract_z
Si Si1 0.660543 0.504730 0.434232
Si Si2 0.214179 0.767986 0.746873
Si Si3 0.498571 0.269308 0.185034
Si Si4 0.437920 0.630225 0.105332
Si Si5 0.638618 0.036291 0.098327
Si Si6 0.818268 0.844319 0.955802
Si Si7 0.781102 0.960349 0.321038
Si Si8 0.042747 0.759502 0.258159
O O1 0.500000 0.500000 0.500000
O O2 0.851636 0.684564 0.309048
O O3 0.568527 0.212975 0.691943
O O4 0.711171 0.614932 0.236493
O O5 0.354906 0.708000 0.788885
O O6 0.297699 0.983934 0.475427
O O7 0.236208 0.912577 0.705886
O O8 0.000000 0.500000 0.000000
O O9 0.500000 0.500000 0.000000
O O10 0.571266 0.306570 0.046233
O O11 0.322885 0.332782 0.392013
O O12 0.361568 0.734621 0.085927
O O13 0.659214 0.781293 0.966013
O O14 0.691811 0.978767 0.231161
O O15 0.788814 0.090859 0.962445
O O16 0.899378 0.087338 0.794003
O O17 0.996343 0.890692 0.851843
O O18 0.000000 0.500000 0.500000
#
# Coordination Sequence:
#
# PCOD9067408 Si02
#       8
#     2   2   2   2   2   2   2   2
#     4  12  24  42  69  94 137 189 234 288 352 404
#     4  11  27  47  78 107 144 189 232 288 369 429
#     4  11  25  49  75 107 147 185 230 293 359 438
#     4  12  27  45  72 107 139 184 239 291 354 421
#     4  12  25  45  71  98 142 184 236 294 348 414
#     4  12  26  42  69 101 139 187 234 287 352 414
#     4  12  25  47  69 105 143 179 232 297 350 420
#     4  12  26  44  65 100 139 187 241 286 347 420
#
# _framework density 21.196096000000001
#
# number of rings (size 3 to 8) (size 9 to 14) (size 15 to 20)
#    0.000    0.250    6.250    2.625    3.500    3.500 
#    2.250    0.000    0.000    0.000    0.000    0.000 
#    0.000    0.000    0.000    0.000    0.000    0.000 
#
# Total GULP energy -89558.429979 kJ/mol
# GULP energy per Si atom -5597.401874 kJ/mol
# Density = 2.114785 g / cm^3
# Si number density = 21.196096 Si / 1000 Ang^3
#
#
#
# Elastic Constant Matrix: (Units=GPa)
#
#
# Indices 1 2 3 4 5 6 
#
# 1 89.5884 3.5303 34.6169 -14.4613 -4.3983 -13.5948
# 2 3.5303 30.0563 10.5824 -6.3602 5.4731 -16.7673
# 3 34.6169 10.5824 125.2216 -16.7317 4.9719 -4.3763
# 4 -14.4613 -6.3602 -16.7317 36.0953 -3.7794 1.4935
# 5 -4.3983 5.4731 4.9719 -3.7794 39.4027 -4.4670
# 6 -13.5948 -16.7673 -4.3763 1.4935 -4.4670 39.3665
#
#
#
# Elastic Compliance Matrix: (Units=1/GPa)
#
#
# Indices 1 2 3 4 5 6 
#
# 1 0.014192 0.003483 -0.003480 0.004714 0.002686 0.006124
# 2 0.003483 0.047414 -0.003191 0.007132 -0.002791 0.020456
# 3 -0.003480 -0.003191 0.009524 0.002413 -0.001111 -0.001720
# 4 0.004714 0.007132 0.002413 0.032091 0.002766 0.004030
# 5 0.002686 -0.002791 -0.001111 0.002766 0.026761 0.002547
# 6 0.006124 0.020456 -0.001720 0.004030 0.002547 0.036175
#
#
# Mechanical properties :
#
#
# Convention : Reuss Voigt Hill
#
# Bulk Modulus (GPa) = 15.44321 38.03615 26.73968
# Shear Modulus (GPa) = 25.75753 36.04869 30.90311
#
# Velocity S-wave (km/s) = 3.48976 4.12846 3.82247
# Velocity P-wave (km/s) = 4.85176 6.38039 5.66785
#
# Compressibility (1/GPa) = 0.06475336
#
# Stress axis : x y z
#
# Youngs Moduli (GPa) = 70.46345 21.09065 104.99735
#
# Poissons Ratio (x) = -0.07346 0.36543
# Poissons Ratio (y) = -0.24543 0.33506
# Poissons Ratio (z) = 0.24524 0.06730
#
# Static dielectric constant tensor:
#      x y z
#    x 1.819610 0.016390 0.022460 
#    y 0.016390 1.787890 -0.016350 
#    z 0.022460 -0.016350 1.785300 
# 
# From -- ./inp_files/112376.got.cif
#   From: 2010.05.17/outbox.cif.g08.bks.cpg/sg2_57_cif.got.tgz:112376.got - 2010.06.03 11:33:40.
