data_PCOD9067562
_publ_section_title
;
Structure prediction by ZEFSAII (Michael W. Deem and Ramdas Pophale) SiO2 
 PCOD9067562
Probable space group: P -1
;
_chemical_formula_sum "Si O2"
_cell_formula_units_Z 16
_cell_length_a 14.621205
_cell_length_b 9.256749
_cell_length_c 12.519345
_cell_angle_alpha 98.682752
_cell_angle_beta 152.458926
_cell_angle_gamma 91.852944
_cell_volume 721.491590
_symmetry_space_group_name_H-M "P -1"
_symmetry_group_IT_number 2
_symmetry_cell_setting 'triclinic'
loop_
_space_group_symop_operation_xyz
x,y,z
-x,-y,-z
loop_
_atom_site_type_symbol
_atom_site_label
_atom_site_fract_x
_atom_site_fract_y
_atom_site_fract_z
Si Si1 0.856338 0.196821 0.177383
Si Si2 0.396132 0.602469 0.028746
Si Si3 0.457778 0.160487 0.985701
Si Si4 0.190820 0.684351 0.460961
Si Si5 0.779923 0.638798 0.580695
Si Si6 0.485594 0.945404 0.648090
Si Si7 0.900598 0.736937 0.343321
Si Si8 0.752528 0.885754 0.726962
O O1 0.049249 0.225406 0.298572
O O2 0.937777 0.214153 0.385032
O O3 0.779945 0.341922 0.094601
O O4 0.655965 0.043910 0.923349
O O5 0.508621 0.744516 0.079823
O O6 0.561542 0.587038 0.283020
O O7 0.270501 0.436226 0.825217
O O8 0.225087 0.145662 0.781187
O O9 0.626502 0.273063 0.254600
O O10 0.500000 0.000000 0.000000
O O11 0.150754 0.510762 0.357991
O O12 0.294047 0.807093 0.488137
O O13 0.004987 0.716490 0.337391
O O14 0.751708 0.717652 0.670208
O O15 0.623973 0.887363 0.701809
O O16 0.379009 0.054746 0.490220
O O17 0.000000 0.000000 0.000000
#
# Coordination Sequence:
#
# PCOD9067562 Si02
#       8
#     2   2   2   2   2   2   2   2
#     4  12  22  41  76 104 138 196 237 280 348 435
#     4  12  22  44  67 103 148 196 237 283 337 432
#     4  12  26  42  63 103 151 194 237 284 340 410
#     4  12  27  45  66 111 147 188 236 295 356 421
#     4  12  24  44  78 103 140 191 244 292 357 421
#     4  11  27  48  72 104 146 176 245 309 358 429
#     4  12  25  42  70 102 152 197 234 274 353 435
#     4  11  25  50  79 102 128 191 245 302 377 427
#
# _framework density 22.176280999999999
#
# number of rings (size 3 to 8) (size 9 to 14) (size 15 to 20)
#    0.000    0.250    7.500    2.250    0.000    2.000 
#    2.250    0.625    0.000    0.000    0.000    0.000 
#    0.000    0.000    0.000    0.000    0.000    0.000 
#
# Total GULP energy -89523.434453 kJ/mol
# GULP energy per Si atom -5595.214653 kJ/mol
# Density = 2.212581 g / cm^3
# Si number density = 22.176281 Si / 1000 Ang^3
#
#
#
# Elastic Constant Matrix: (Units=GPa)
#
#
# Indices 1 2 3 4 5 6 
#
# 1 136.5830 72.3295 29.4377 5.0006 11.6188 -32.0078
# 2 72.3295 134.0702 39.5454 17.8110 4.1619 -28.7305
# 3 29.4377 39.5454 85.0142 7.1055 8.3083 -15.9693
# 4 5.0006 17.8110 7.1055 31.7718 -9.5089 5.5419
# 5 11.6188 4.1619 8.3083 -9.5089 33.8793 -1.6815
# 6 -32.0078 -28.7305 -15.9693 5.5419 -1.6815 39.8231
#
#
#
# Elastic Compliance Matrix: (Units=1/GPa)
#
#
# Indices 1 2 3 4 5 6 
#
# 1 0.011529 -0.004615 -0.000325 -0.001173 -0.003347 0.005828
# 2 -0.004615 0.012899 -0.002664 -0.007193 -0.001095 0.005483
# 3 -0.000325 -0.002664 0.014546 -0.003581 -0.003936 0.003982
# 4 -0.001173 -0.007193 -0.003581 0.042803 0.013535 -0.012953
# 5 -0.003347 -0.001095 -0.003936 0.013535 0.035292 -0.005452
# 6 0.005828 0.005483 0.003982 -0.012953 -0.005452 0.036921
#
#
# Mechanical properties :
#
#
# Convention : Reuss Voigt Hill
#
# Bulk Modulus (GPa) = 42.07722 70.92141 56.49932
# Shear Modulus (GPa) = 28.22925 35.38517 31.80721
#
# Velocity S-wave (km/s) = 3.57171 3.99887 3.79131
# Velocity P-wave (km/s) = 6.00205 7.30558 6.68566
#
# Compressibility (1/GPa) = 0.02376583
#
# Stress axis : x y z
#
# Youngs Moduli (GPa) = 86.73549 77.52564 68.74512
#
# Poissons Ratio (x) = 0.35780 0.02237
# Poissons Ratio (y) = 0.40030 0.18312
# Poissons Ratio (z) = 0.02823 0.20651
#
# Static dielectric constant tensor:
#      x y z
#    x 1.863620 -0.003040 0.034910 
#    y -0.003040 1.823010 0.015690 
#    z 0.034910 0.015690 1.791360 
# 
# From -- ./inp_files/447710.got.cif
#   From: 2010.05.17/outbox.cif.g08.bks.cpg/sg2_224_cif.got.tgz:447710.got - 2010.06.03 11:33:40.
