data_PCOD9067838
_publ_section_title
;
Structure prediction by ZEFSAII (Michael W. Deem and Ramdas Pophale) SiO2 
 PCOD9067838
Probable space group: P -1
;
_chemical_formula_sum "Si O2"
_cell_formula_units_Z 14
_cell_length_a 5.613241
_cell_length_b 14.840073
_cell_length_c 8.895098
_cell_angle_alpha 93.604536
_cell_angle_beta 71.405603
_cell_angle_gamma 54.914652
_cell_volume 544.970602
_symmetry_space_group_name_H-M "P -1"
_symmetry_group_IT_number 2
_symmetry_cell_setting 'triclinic'
loop_
_space_group_symop_operation_xyz
x,y,z
-x,-y,-z
loop_
_atom_site_type_symbol
_atom_site_label
_atom_site_fract_x
_atom_site_fract_y
_atom_site_fract_z
Si Si1 0.251148 0.645452 0.153986
Si Si2 0.520379 0.230630 0.056237
Si Si3 0.713793 0.542965 0.443700
Si Si4 0.327735 0.128349 0.607171
Si Si5 0.374717 0.965838 0.153718
Si Si6 0.290129 0.805111 0.636536
Si Si7 0.868702 0.417195 0.119163
O O1 0.485535 0.520570 0.174213
O O2 0.038043 0.753126 0.321979
O O3 0.439363 0.680936 0.023670
O O4 0.046913 0.632892 0.073259
O O5 0.640200 0.205873 0.199721
O O6 0.135046 0.293989 0.136924
O O7 0.710731 0.111310 0.911767
O O8 0.500000 0.500000 0.500000
O O9 0.445496 0.678955 0.534070
O O10 0.885488 0.496689 0.241886
O O11 0.000000 0.500000 0.500000
O O12 0.369673 0.111576 0.776517
O O13 0.528857 0.160021 0.490033
O O14 0.500000 0.000000 0.500000
O O15 0.082428 0.086938 0.298352
O O16 0.500000 0.000000 0.000000
#
# Coordination Sequence:
#
# PCOD9067838 Si02
#       7
#     2   2   2   2   2   2   2
#     4  11  26  47  78 110 154 207 260 331 396 486
#     4  12  24  49  75 108 148 200 264 316 398 484
#     4  12  29  49  80 119 168 213 270 337 413 485
#     4  12  27  48  74 115 156 200 266 334 409 471
#     4  12  27  48  78 105 149 206 259 324 398 490
#     4  12  28  47  77 114 159 205 261 339 405 477
#     4  11  26  45  76 110 156 202 269 316 402 470
#
# _framework density 25.689461999999999
#
# number of rings (size 3 to 8) (size 9 to 14) (size 15 to 20)
#    0.000    0.286    2.857    4.714    8.000    1.143 
#    0.000    0.000    0.000    0.000    0.000    0.000 
#    0.000    0.000    0.000    0.000    0.000    0.000 
#
# Total GULP energy -78117.279170 kJ/mol
# GULP energy per Si atom -5579.805655 kJ/mol
# Density = 2.563099 g / cm^3
# Si number density = 25.689462 Si / 1000 Ang^3
#
#
#
# Elastic Constant Matrix: (Units=GPa)
#
#
# Indices 1 2 3 4 5 6 
#
# 1 87.8464 55.0936 30.6315 -9.8959 7.1738 12.2277
# 2 55.0936 146.0718 35.5350 50.0794 -4.9501 8.9333
# 3 30.6315 35.5350 95.5977 31.5704 14.0916 15.4958
# 4 -9.8959 50.0794 31.5704 72.2799 -0.3812 3.2038
# 5 7.1738 -4.9501 14.0916 -0.3812 63.8504 -5.7937
# 6 12.2277 8.9333 15.4958 3.2038 -5.7937 67.6810
#
#
#
# Elastic Compliance Matrix: (Units=1/GPa)
#
#
# Indices 1 2 3 4 5 6 
#
# 1 0.023841 -0.012322 -0.007446 0.015126 -0.002070 -0.001869
# 2 -0.012322 0.015620 0.002214 -0.013486 0.002069 0.000473
# 3 -0.007446 0.002214 0.015931 -0.009421 -0.002781 -0.002387
# 4 0.015126 -0.013486 -0.009421 0.029372 -0.000511 -0.000230
# 5 -0.002070 0.002069 -0.002781 -0.000511 0.016865 0.002205
# 6 -0.001869 0.000473 -0.002387 -0.000230 0.002205 0.015797
#
#
# Mechanical properties :
#
#
# Convention : Reuss Voigt Hill
#
# Bulk Modulus (GPa) = 49.29905 63.55955 56.42930
# Shear Modulus (GPa) = 31.38836 54.64599 43.01718
#
# Velocity S-wave (km/s) = 3.49927 4.61713 4.09651
# Velocity P-wave (km/s) = 5.96310 7.29514 6.66250
#
# Compressibility (1/GPa) = 0.02028437
#
# Stress axis : x y z
#
# Youngs Moduli (GPa) = 41.94472 64.02175 62.77041
#
# Poissons Ratio (x) = 0.78889 0.46738
# Poissons Ratio (y) = 0.51685 -0.13900
# Poissons Ratio (z) = 0.31231 -0.14177
#
# Static dielectric constant tensor:
#      x y z
#    x 2.151580 0.015340 -0.071610 
#    y 0.015340 1.954640 0.010130 
#    z -0.071610 0.010130 2.139090 
# 
# From -- ./inp_files/134349.got.cif
#   From: 2010.05.17/outbox.cif.g08.bks.cpg/sg2_68_cif.got.tgz:134349.got - 2010.06.03 11:33:40.
