data_PCOD9067789
_publ_section_title
;
Structure prediction by ZEFSAII (Michael W. Deem and Ramdas Pophale) SiO2 
 PCOD9067789
Probable space group: P -1
;
_chemical_formula_sum "Si O2"
_cell_formula_units_Z 14
_cell_length_a 5.115675
_cell_length_b 11.206152
_cell_length_c 12.448515
_cell_angle_alpha 76.440856
_cell_angle_beta 67.437023
_cell_angle_gamma 64.280981
_cell_volume 591.744076
_symmetry_space_group_name_H-M "P -1"
_symmetry_group_IT_number 2
_symmetry_cell_setting 'triclinic'
loop_
_space_group_symop_operation_xyz
x,y,z
-x,-y,-z
loop_
_atom_site_type_symbol
_atom_site_label
_atom_site_fract_x
_atom_site_fract_y
_atom_site_fract_z
Si Si1 0.966547 0.794572 0.836782
Si Si2 0.141809 0.577955 0.540512
Si Si3 0.912270 0.485662 0.195551
Si Si4 0.705968 0.132325 0.038442
Si Si5 0.170417 0.186487 0.596331
Si Si6 0.806026 0.086760 0.414965
Si Si7 0.757519 0.340256 0.821655
O O1 0.614625 0.885721 0.898410
O O2 0.211868 0.808907 0.877591
O O3 0.048272 0.834364 0.698692
O O4 0.984542 0.644279 0.866593
O O5 0.500000 0.500000 0.500000
O O6 0.033115 0.568771 0.679494
O O7 0.000000 0.500000 0.500000
O O8 0.063832 0.724550 0.475269
O O9 0.553020 0.570318 0.210726
O O10 0.115979 0.573931 0.138751
O O11 0.684050 0.232507 0.924310
O O12 0.000000 0.000000 0.000000
O O13 0.487402 0.180842 0.497215
O O14 0.034388 0.263205 0.711300
O O15 0.221664 0.031921 0.629502
O O16 0.000000 0.000000 0.500000
#
# Coordination Sequence:
#
# PCOD9067789 Si02
#       7
#     2   2   2   2   2   2   2
#     4  12  29  50  78 107 153 190 249 306 368 440
#     4  12  24  43  70 110 153 195 239 302 370 444
#     4  12  26  45  75 114 145 196 242 308 376 433
#     4  12  29  53  78 107 145 200 248 305 364 436
#     4  11  26  45  72 110 148 196 244 307 369 444
#     4  11  28  45  76 108 149 198 244 309 372 439
#     4  12  27  47  78 107 149 193 253 302 366 443
#
# _framework density 23.658878000000001
#
# number of rings (size 3 to 8) (size 9 to 14) (size 15 to 20)
#    0.000    0.286    2.857    3.857   16.000    3.429 
#    0.000    0.000    0.000    0.000    0.000    0.000 
#    0.000    0.000    0.000    0.000    0.000    0.000 
#
# Total GULP energy -78429.263406 kJ/mol
# GULP energy per Si atom -5602.090243 kJ/mol
# Density = 2.360503 g / cm^3
# Si number density = 23.658878 Si / 1000 Ang^3
#
#
#
# Elastic Constant Matrix: (Units=GPa)
#
#
# Indices 1 2 3 4 5 6 
#
# 1 101.7335 33.8558 10.2077 1.4804 -5.2129 -8.2945
# 2 33.8558 96.8084 29.7318 -2.2283 -3.9944 -16.7204
# 3 10.2077 29.7318 102.5723 -8.9463 -9.3870 -11.3090
# 4 1.4804 -2.2283 -8.9463 25.4740 0.2592 -6.2636
# 5 -5.2129 -3.9944 -9.3870 0.2592 45.6550 3.8597
# 6 -8.2945 -16.7204 -11.3090 -6.2636 3.8597 41.8912
#
#
#
# Elastic Compliance Matrix: (Units=1/GPa)
#
#
# Indices 1 2 3 4 5 6 
#
# 1 0.011198 -0.003831 0.000060 -0.000853 0.000919 0.000492
# 2 -0.003831 0.013278 -0.002934 0.001332 -0.000222 0.003969
# 3 0.000060 -0.002934 0.011405 0.004314 0.001868 0.002393
# 4 -0.000853 0.001332 0.004314 0.042890 -0.000009 0.007941
# 5 0.000919 -0.000222 0.001868 -0.000009 0.022498 -0.001477
# 6 0.000492 0.003969 0.002393 0.007941 -0.001477 0.027522
#
#
# Mechanical properties :
#
#
# Convention : Reuss Voigt Hill
#
# Bulk Modulus (GPa) = 44.50395 49.85609 47.18002
# Shear Modulus (GPa) = 33.40216 37.75863 35.58040
#
# Velocity S-wave (km/s) = 3.76150 3.99928 3.88221
# Velocity P-wave (km/s) = 6.14139 6.51493 6.33092
#
# Compressibility (1/GPa) = 0.02246992
#
# Stress axis : x y z
#
# Youngs Moduli (GPa) = 89.29964 75.31462 87.68257
#
# Poissons Ratio (x) = 0.28856 -0.00527
# Poissons Ratio (y) = 0.34215 0.25726
# Poissons Ratio (z) = -0.00537 0.22097
#
# Static dielectric constant tensor:
#      x y z
#    x 1.933080 0.080300 0.010830 
#    y 0.080300 1.863770 0.022720 
#    z 0.010830 0.022720 1.864060 
# 
# From -- ./inp_files/366786.got.cif
#   From: 2010.05.17/outbox.cif.g08.bks.cpg/sg2_184_cif.got.tgz:366786.got - 2010.06.03 11:33:40.
