data_PCOD9067189
_publ_section_title
;
Structure prediction by ZEFSAII (Michael W. Deem and Ramdas Pophale) SiO2 
 PCOD9067189
Probable space group: P -1
;
_chemical_formula_sum "Si O2"
_cell_formula_units_Z 16
_cell_length_a 21.873531
_cell_length_b 8.732146
_cell_length_c 12.486791
_cell_angle_alpha 35.287078
_cell_angle_beta 151.607346
_cell_angle_gamma 134.694031
_cell_volume 654.193860
_symmetry_space_group_name_H-M "P -1"
_symmetry_group_IT_number 2
_symmetry_cell_setting 'triclinic'
loop_
_space_group_symop_operation_xyz
x,y,z
-x,-y,-z
loop_
_atom_site_type_symbol
_atom_site_label
_atom_site_fract_x
_atom_site_fract_y
_atom_site_fract_z
Si Si1 0.949548 0.259158 0.491816
Si Si2 0.777474 0.480196 0.781178
Si Si3 0.321762 0.186957 0.360863
Si Si4 0.916958 0.064720 0.942613
Si Si5 0.257430 0.051908 0.713582
Si Si6 0.945365 0.656413 0.629786
Si Si7 0.475361 0.734778 0.548739
Si Si8 0.485758 0.703580 0.963189
O O1 0.000000 0.500000 0.500000
O O2 0.015772 0.294229 0.459774
O O3 0.796597 0.217966 0.264063
O O4 0.001380 0.007015 0.785414
O O5 0.727292 0.605276 0.744565
O O6 0.764141 0.718830 0.539386
O O7 0.675727 0.272466 0.705930
O O8 0.923061 0.373393 0.082552
O O9 0.440214 0.272889 0.423786
O O10 0.204416 0.114561 0.145686
O O11 0.364280 0.906762 0.643143
O O12 0.880463 0.375680 0.703754
O O13 0.000000 0.000000 0.000000
O O14 0.154624 0.121162 0.608562
O O15 0.396985 0.099851 0.949260
O O16 0.515294 0.482973 0.828215
O O17 0.500000 0.000000 0.500000
O O18 0.500000 0.500000 0.000000
#
# Coordination Sequence:
#
# PCOD9067189 Si02
#       8
#     2   2   2   2   2   2   2   2
#     4  12  25  44  71 110 143 187 241 297 362 429
#     4  11  25  48  73 104 145 192 238 299 364 421
#     4  12  25  47  76 100 150 187 239 299 353 431
#     4  12  24  47  71 108 145 186 236 300 362 424
#     4  11  26  47  74 106 147 193 239 299 365 428
#     4  12  25  46  75 105 148 187 240 300 361 430
#     4  11  26  46  72 107 140 192 243 293 356 429
#     4  11  25  49  74 106 144 193 241 296 360 434
#
# _framework density 24.457581000000001
#
# number of rings (size 3 to 8) (size 9 to 14) (size 15 to 20)
#    0.000    0.500    5.000    1.875    3.500    4.000 
#    6.750    0.000    0.000    0.000    0.000    0.000 
#    0.000    0.000    0.000    0.000    0.000    0.000 
#
# Total GULP energy -89687.817705 kJ/mol
# GULP energy per Si atom -5605.488607 kJ/mol
# Density = 2.440191 g / cm^3
# Si number density = 24.457581 Si / 1000 Ang^3
#
#
#
# Elastic Constant Matrix: (Units=GPa)
#
#
# Indices 1 2 3 4 5 6 
#
# 1 82.9010 12.7119 7.3653 4.8681 -18.5573 8.6041
# 2 12.7119 176.9859 12.4139 29.6463 5.2842 2.5021
# 3 7.3653 12.4139 87.8337 16.1904 -14.6013 -0.1335
# 4 4.8681 29.6463 16.1904 47.5028 5.6626 1.1462
# 5 -18.5573 5.2842 -14.6013 5.6626 38.4834 -6.1142
# 6 8.6041 2.5021 -0.1335 1.1462 -6.1142 34.8407
#
#
#
# Elastic Compliance Matrix: (Units=1/GPa)
#
#
# Indices 1 2 3 4 5 6 
#
# 1 0.014057 -0.000918 0.000444 -0.001803 0.007002 -0.002116
# 2 -0.000918 0.006384 -0.000306 -0.003667 -0.000940 -0.000277
# 3 0.000444 -0.000306 0.013400 -0.005203 0.006303 0.001241
# 4 -0.001803 -0.003667 -0.005203 0.026090 -0.006384 -0.001290
# 5 0.007002 -0.000940 0.006303 -0.006384 0.033530 0.004457
# 6 -0.002116 -0.000277 0.001241 -0.001290 0.004457 0.030074
#
#
# Mechanical properties :
#
#
# Convention : Reuss Voigt Hill
#
# Bulk Modulus (GPa) = 30.97826 45.85586 38.41706
# Shear Modulus (GPa) = 36.80424 45.18067 40.99245
#
# Velocity S-wave (km/s) = 3.88341 4.30269 4.09842
# Velocity P-wave (km/s) = 5.72725 6.59349 6.17558
#
# Compressibility (1/GPa) = 0.03228070
#
# Stress axis : x y z
#
# Youngs Moduli (GPa) = 71.14043 156.64675 74.62725
#
# Poissons Ratio (x) = 0.14379 -0.03314
# Poissons Ratio (y) = 0.06530 0.02283
# Poissons Ratio (z) = -0.03159 0.04793
#
# Static dielectric constant tensor:
#      x y z
#    x 1.911280 -0.016570 -0.012620 
#    y -0.016570 2.001870 -0.001970 
#    z -0.012620 -0.001970 1.953370 
# 
# From -- ./inp_files/469802.got.cif
#   From: 2010.05.17/outbox.cif.g08.bks.cpg/sg2_235_cif.got.tgz:469802.got - 2010.06.03 11:33:40.
