data_PCOD9067201
_publ_section_title
;
Structure prediction by ZEFSAII (Michael W. Deem and Ramdas Pophale) SiO2 
 PCOD9067201
Probable space group: P -1
;
_chemical_formula_sum "Si O2"
_cell_formula_units_Z 16
_cell_length_a 11.561857
_cell_length_b 23.695744
_cell_length_c 6.145405
_cell_angle_alpha 122.503699
_cell_angle_beta 113.523414
_cell_angle_gamma 30.206074
_cell_volume 705.868862
_symmetry_space_group_name_H-M "P -1"
_symmetry_group_IT_number 2
_symmetry_cell_setting 'triclinic'
loop_
_space_group_symop_operation_xyz
x,y,z
-x,-y,-z
loop_
_atom_site_type_symbol
_atom_site_label
_atom_site_fract_x
_atom_site_fract_y
_atom_site_fract_z
Si Si1 0.324444 0.552023 0.290578
Si Si2 0.121299 0.023404 0.423283
Si Si3 0.300891 0.481544 0.730320
Si Si4 0.944248 0.676324 0.541903
Si Si5 0.226629 0.740393 0.616461
Si Si6 0.807641 0.590989 0.233362
Si Si7 0.727382 0.187921 0.833916
Si Si8 0.516643 0.956577 0.675192
O O1 0.500000 0.500000 0.500000
O O2 0.187678 0.681114 0.405189
O O3 0.142637 0.580577 0.309952
O O4 0.419120 0.473037 0.988794
O O5 0.988233 0.119706 0.330947
O O6 0.911665 0.107201 0.610921
O O7 0.217069 0.906922 0.196908
O O8 0.321035 0.985026 0.577496
O O9 0.516348 0.359337 0.494867
O O10 0.161954 0.479499 0.708968
O O11 0.111744 0.613781 0.745277
O O12 0.818083 0.663116 0.464972
O O13 0.765009 0.809890 0.592686
O O14 0.244406 0.753796 0.905839
O O15 0.542561 0.697154 0.184718
O O16 0.000000 0.500000 0.000000
O O17 0.500000 0.000000 0.500000
O O18 0.500000 0.000000 0.000000
#
# Coordination Sequence:
#
# PCOD9067201 Si02
#       8
#     2   2   2   2   2   2   2   2
#     4  12  26  44  71 108 151 193 253 311 395 468
#     4  11  26  49  76 107 150 202 265 315 385 472
#     4  12  26  45  73 113 145 203 250 321 397 463
#     4  12  27  47  73 109 150 199 255 318 386 476
#     4  12  25  43  76 105 147 191 255 319 386 468
#     4  12  23  48  72 105 154 194 253 315 392 463
#     4  11  25  48  73 110 145 200 262 322 387 462
#     4  12  31  54  81 116 160 212 262 325 400 471
#
# _framework density 22.667099
#
# number of rings (size 3 to 8) (size 9 to 14) (size 15 to 20)
#    0.000    0.250    5.000    3.375    7.000    0.000 
#    2.250    0.000    0.000    0.000    0.000    0.000 
#    0.000    0.000    0.000    0.000    0.000    0.000 
#
# Total GULP energy -89140.880211 kJ/mol
# GULP energy per Si atom -5571.305013 kJ/mol
# Density = 2.261551 g / cm^3
# Si number density = 22.667099 Si / 1000 Ang^3
#
#
#
# Elastic Constant Matrix: (Units=GPa)
#
#
# Indices 1 2 3 4 5 6 
#
# 1 104.1974 16.2681 -3.7077 1.7174 -2.5499 -1.6721
# 2 16.2681 153.0399 21.3444 -4.0688 -9.0917 6.0551
# 3 -3.7077 21.3444 74.5798 3.9664 8.2985 1.2457
# 4 1.7174 -4.0688 3.9664 24.8901 -4.2632 -2.8020
# 5 -2.5499 -9.0917 8.2985 -4.2632 28.9379 5.6175
# 6 -1.6721 6.0551 1.2457 -2.8020 5.6175 44.5226
#
#
#
# Elastic Compliance Matrix: (Units=1/GPa)
#
#
# Indices 1 2 3 4 5 6 
#
# 1 0.009841 -0.001212 0.000879 -0.000966 0.000005 0.000448
# 2 -0.001212 0.007351 -0.002651 0.002168 0.003531 -0.001280
# 3 0.000879 -0.002651 0.015043 -0.003820 -0.005720 0.000454
# 4 -0.000966 0.002168 -0.003820 0.042692 0.007691 0.001492
# 5 0.000005 0.003531 -0.005720 0.007691 0.039372 -0.004804
# 6 0.000448 -0.001280 0.000454 0.001492 -0.004804 0.023339
#
#
# Mechanical properties :
#
#
# Convention : Reuss Voigt Hill
#
# Bulk Modulus (GPa) = 38.06912 44.40296 41.23604
# Shear Modulus (GPa) = 32.81699 39.53095 36.17397
#
# Velocity S-wave (km/s) = 3.80910 4.18063 3.99918
# Velocity P-wave (km/s) = 6.01473 6.55250 6.28936
#
# Compressibility (1/GPa) = 0.02626801
#
# Stress axis : x y z
#
# Youngs Moduli (GPa) = 101.61672 136.03918 66.47676
#
# Poissons Ratio (x) = 0.16486 -0.05846
# Poissons Ratio (y) = 0.12315 0.17622
# Poissons Ratio (z) = -0.08936 0.36062
#
# Static dielectric constant tensor:
#      x y z
#    x 2.011120 0.038430 0.005290 
#    y 0.038430 1.953440 -0.076190 
#    z 0.005290 -0.076190 1.877470 
# 
# From -- ./inp_files/84525.got.cif
#   From: 2010.05.17/outbox.cif.g08.bks.cpg/sg2_43_cif.got.tgz:84525.got - 2010.06.03 11:33:40.
