data_PCOD9067970
_publ_section_title
;
Structure prediction by ZEFSAII (Michael W. Deem and Ramdas Pophale) SiO2 
 PCOD9067970
Probable space group: P -1
;
_chemical_formula_sum "Si O2"
_cell_formula_units_Z 10
_cell_length_a 8.614805
_cell_length_b 8.764289
_cell_length_c 20.168255
_cell_angle_alpha 32.817797
_cell_angle_beta 145.996686
_cell_angle_gamma 123.181509
_cell_volume 401.567911
_symmetry_space_group_name_H-M "P -1"
_symmetry_group_IT_number 2
_symmetry_cell_setting 'triclinic'
loop_
_space_group_symop_operation_xyz
x,y,z
-x,-y,-z
loop_
_atom_site_type_symbol
_atom_site_label
_atom_site_fract_x
_atom_site_fract_y
_atom_site_fract_z
Si Si1 0.667562 0.231667 0.212393
Si Si2 0.428784 0.708085 0.069161
Si Si3 0.743433 0.159445 0.649995
Si Si4 0.708728 0.157426 0.787844
Si Si5 0.602893 0.140783 0.422263
O O1 0.666882 0.423315 0.208614
O O2 0.449042 0.065063 0.197169
O O3 0.500000 0.500000 0.000000
O O4 0.024228 0.988814 0.403572
O O5 0.424801 0.521784 0.202835
O O6 0.500000 0.000000 0.000000
O O7 0.083309 0.874955 0.851000
O O8 0.809435 0.217329 0.728256
O O9 0.584564 0.483320 0.431849
O O10 0.499551 0.023850 0.611836
O O11 0.000000 0.000000 0.000000
O O12 0.500000 0.000000 0.500000
#
# Coordination Sequence:
#
# PCOD9067970 Si02
#       5
#     2   2   2   2   2
#     4  12  27  48  77 112 155 205 260 317 389 468
#     4  12  28  48  76 115 158 202 261 321 386 464
#     4  11  26  46  76 111 155 200 257 321 389 458
#     4  11  26  47  78 113 156 203 257 319 390 462
#     4  12  27  49  80 113 157 206 260 323 392 461
#
# _framework density 24.90239
#
# number of rings (size 3 to 8) (size 9 to 14) (size 15 to 20)
#    0.000    0.400    2.000    4.800   14.000    0.000 
#    0.000    5.000    0.000    0.000    0.000    0.000 
#    0.000    0.000    0.000    0.000    0.000    0.000 
#
# Total GULP energy -55950.778576 kJ/mol
# GULP energy per Si atom -5595.077858 kJ/mol
# Density = 2.484571 g / cm^3
# Si number density = 24.902390 Si / 1000 Ang^3
#
#
#
# Elastic Constant Matrix: (Units=GPa)
#
#
# Indices 1 2 3 4 5 6 
#
# 1 100.1450 44.5911 57.9532 2.1329 -22.2207 -0.3715
# 2 44.5911 155.4550 56.2916 -10.2887 -23.6216 25.5815
# 3 57.9532 56.2916 208.7177 -0.5424 -27.9431 8.2372
# 4 2.1329 -10.2887 -0.5424 57.1244 7.3474 -6.5915
# 5 -22.2207 -23.6216 -27.9431 7.3474 52.7174 -3.4234
# 6 -0.3715 25.5815 8.2372 -6.5915 -3.4234 29.4655
#
#
#
# Elastic Compliance Matrix: (Units=1/GPa)
#
#
# Indices 1 2 3 4 5 6 
#
# 1 0.013713 -0.003159 -0.002659 -0.001099 0.003355 0.003803
# 2 -0.003159 0.009257 -0.001104 0.000706 0.001651 -0.007418
# 3 -0.002659 -0.001104 0.006067 -0.000324 0.001603 -0.000658
# 4 -0.001099 0.000706 -0.000324 0.018391 -0.002669 0.003267
# 5 0.003355 0.001651 0.001603 -0.002669 0.022355 0.000161
# 6 0.003803 -0.007418 -0.000658 0.003267 0.000161 0.041360
#
#
# Mechanical properties :
#
#
# Convention : Reuss Voigt Hill
#
# Bulk Modulus (GPa) = 65.82312 86.88772 76.35542
# Shear Modulus (GPa) = 38.44616 48.22691 43.33654
#
# Velocity S-wave (km/s) = 3.93348 4.40550 4.17616
# Velocity P-wave (km/s) = 6.86437 7.80032 7.34726
#
# Compressibility (1/GPa) = 0.01519223
#
# Stress axis : x y z
#
# Youngs Moduli (GPa) = 72.92266 108.02653 164.82791
#
# Poissons Ratio (x) = 0.34129 0.43833
# Poissons Ratio (y) = 0.23039 0.18193
# Poissons Ratio (z) = 0.19393 0.11924
#
# Static dielectric constant tensor:
#      x y z
#    x 2.117580 -0.110570 0.012490 
#    y -0.110570 2.002530 -0.009820 
#    z 0.012490 -0.009820 1.975570 
# 
# From -- ./inp_files/143934.got.cif
#   From: 2010.05.17/outbox.cif.g08.bks.cpg/sg2_72_cif.got.tgz:143934.got - 2010.06.03 11:33:40.
