data_PCOD9067400
_publ_section_title
;
Structure prediction by ZEFSAII (Michael W. Deem and Ramdas Pophale) SiO2 
 PCOD9067400
Probable space group: P -1
;
_chemical_formula_sum "Si O2"
_cell_formula_units_Z 13
_cell_length_a 8.665446
_cell_length_b 15.535673
_cell_length_c 7.983696
_cell_angle_alpha 73.741560
_cell_angle_beta 57.601621
_cell_angle_gamma 38.002153
_cell_volume 537.415756
_symmetry_space_group_name_H-M "P -1"
_symmetry_group_IT_number 2
_symmetry_cell_setting 'triclinic'
loop_
_space_group_symop_operation_xyz
x,y,z
-x,-y,-z
loop_
_atom_site_type_symbol
_atom_site_label
_atom_site_fract_x
_atom_site_fract_y
_atom_site_fract_z
Si Si1 0.413957 0.524027 0.343782
Si Si2 0.321100 0.397446 0.942370
Si Si3 0.238681 0.908044 0.262296
Si Si4 0.656140 0.640192 0.663180
Si Si5 0.718046 0.049700 0.318080
Si Si6 0.206706 0.155993 0.388518
Si Si7 0.500000 0.000000 0.000000
O O1 0.500000 0.500000 0.500000
O O2 0.596299 0.530164 0.138877
O O3 0.475490 0.402676 0.300590
O O4 0.060978 0.684642 0.463165
O O5 0.555084 0.258587 0.761152
O O6 0.364613 0.342825 0.133381
O O7 0.000000 0.500000 0.000000
O O8 0.438741 0.918614 0.133490
O O9 0.000000 0.000000 0.500000
O O10 0.036892 0.973897 0.175940
O O11 0.503690 0.785085 0.589745
O O12 0.000000 0.500000 0.500000
O O13 0.535750 0.073041 0.261575
O O14 0.766843 0.946829 0.469680
O O15 0.193214 0.146157 0.204261
#
# Coordination Sequence:
#
# PCOD9067400 Si02
#       7
#     2   2   2   2   2   2   1
#     4  12  27  50  76 111 155 202 261 324 395 474
#     4  12  29  50  77 110 157 209 260 321 399 478
#     4  12  27  49  77 116 155 203 263 323 389 459
#     4  12  27  47  76 111 152 202 257 319 398 460
#     4  11  25  50  74 105 157 199 253 322 388 461
#     4  11  25  49  74 111 149 205 254 323 389 465
#     4  12  26  42  76 110 148 192 266 302 388 458
#
# _framework density 24.189838999999999
#
# number of rings (size 3 to 8) (size 9 to 14) (size 15 to 20)
#    0.000    0.308    4.615    2.308    8.615    2.462 
#    0.000    0.000    0.000    0.000    0.000    0.000 
#    0.000    0.000    0.000    0.000    0.000    0.000 
#
# Total GULP energy -72436.674887 kJ/mol
# GULP energy per Si atom -5572.051914 kJ/mol
# Density = 2.413478 g / cm^3
# Si number density = 24.189839 Si / 1000 Ang^3
#
#
#
# Elastic Constant Matrix: (Units=GPa)
#
#
# Indices 1 2 3 4 5 6 
#
# 1 65.0438 24.6012 -5.5127 -5.5298 -13.9551 -0.0830
# 2 24.6012 132.7182 21.4880 8.1916 -10.7186 11.4976
# 3 -5.5127 21.4880 84.9962 -1.7872 -2.9361 -3.5981
# 4 -5.5298 8.1916 -1.7872 39.3326 5.2333 -10.0700
# 5 -13.9551 -10.7186 -2.9361 5.2333 46.5696 -5.1872
# 6 -0.0830 11.4976 -3.5981 -10.0700 -5.1872 48.5879
#
#
#
# Elastic Compliance Matrix: (Units=1/GPa)
#
#
# Indices 1 2 3 4 5 6 
#
# 1 0.018333 -0.003845 0.002493 0.003474 0.004636 0.002341
# 2 -0.003845 0.009240 -0.002757 -0.003479 0.000855 -0.003027
# 3 0.002493 -0.002757 0.012786 0.001919 0.000937 0.002101
# 4 0.003474 -0.003479 0.001919 0.028721 -0.002120 0.006697
# 5 0.004636 0.000855 0.000937 -0.002120 0.023574 0.001952
# 6 0.002341 -0.003027 0.002101 0.006697 0.001952 0.023054
#
#
# Mechanical properties :
#
#
# Convention : Reuss Voigt Hill
#
# Bulk Modulus (GPa) = 31.11261 40.43457 35.77359
# Shear Modulus (GPa) = 37.13673 43.04345 40.09009
#
# Velocity S-wave (km/s) = 3.92244 4.22287 4.07543
# Velocity P-wave (km/s) = 5.77960 6.36621 6.07999
#
# Compressibility (1/GPa) = 0.03214131
#
# Stress axis : x y z
#
# Youngs Moduli (GPa) = 54.54717 108.22785 78.21282
#
# Poissons Ratio (x) = 0.41610 -0.19501
# Poissons Ratio (y) = 0.20972 0.21564
# Poissons Ratio (z) = -0.13600 0.29839
#
# Static dielectric constant tensor:
#      x y z
#    x 2.130290 -0.054850 0.177170 
#    y -0.054850 2.024740 -0.318320 
#    z 0.177170 -0.318320 2.780750 
# 
# From -- ./inp_files/200551.got.cif
#   From: 2010.05.17/outbox.cif.g08.bks.cpg/sg2_101_cif.got.tgz:200551.got - 2010.06.03 11:33:40.
