data_PCOD9067075
_publ_section_title
;
Structure prediction by ZEFSAII (Michael W. Deem and Ramdas Pophale) SiO2 
 PCOD9067075
Probable space group: P -1
;
_chemical_formula_sum "Si O2"
_cell_formula_units_Z 15
_cell_length_a 5.653079
_cell_length_b 14.360289
_cell_length_c 9.188058
_cell_angle_alpha 64.488908
_cell_angle_beta 106.062763
_cell_angle_gamma 72.701429
_cell_volume 567.395588
_symmetry_space_group_name_H-M "P -1"
_symmetry_group_IT_number 2
_symmetry_cell_setting 'triclinic'
loop_
_space_group_symop_operation_xyz
x,y,z
-x,-y,-z
loop_
_atom_site_type_symbol
_atom_site_label
_atom_site_fract_x
_atom_site_fract_y
_atom_site_fract_z
Si Si1 0.135800 0.852958 0.950086
Si Si2 0.571727 0.059764 0.840895
Si Si3 0.561237 0.341582 0.531872
Si Si4 0.716731 0.799471 0.551584
Si Si5 0.486512 0.810905 0.794347
Si Si6 0.000000 0.500000 0.500000
Si Si7 0.008288 0.317074 0.835518
Si Si8 0.632242 0.390139 0.202696
O O1 0.194609 0.882512 0.777800
O O2 0.325939 0.858361 0.111663
O O3 0.834588 0.958609 0.870335
O O4 0.154089 0.723488 0.045898
O O5 0.316724 0.115933 0.644765
O O6 0.500000 0.000000 0.000000
O O7 0.496487 0.245420 0.513767
O O8 0.324229 0.406830 0.569140
O O9 0.553231 0.422096 0.338003
O O10 0.870497 0.298007 0.678622
O O11 0.599719 0.855554 0.650905
O O12 0.028976 0.689986 0.690706
O O13 0.493658 0.693822 0.811453
O O14 0.687308 0.769868 0.995377
O O15 0.024270 0.432547 0.710095
O O16 0.500000 0.500000 0.000000
#
# Coordination Sequence:
#
# PCOD9067075 Si02
#       8
#     2   2   2   2   2   1   2   2
#     4  11  25  47  77 114 153 196 259 324 389 449
#     4  11  26  47  81 117 150 203 255 324 393 461
#     4  11  26  45  74 107 149 197 257 318 383 462
#     4  11  26  51  74 110 154 203 252 318 391 459
#     4  11  27  46  75 108 155 203 255 319 382 462
#     4  12  28  40  72 110 146 194 262 312 386 438
#     4  12  25  46  72 113 150 197 255 323 373 461
#     4  11  28  47  73 107 158 209 255 313 387 462
#
# _framework density 26.436582999999999
#
# number of rings (size 3 to 8) (size 9 to 14) (size 15 to 20)
#    0.000    0.800    1.333    3.600   13.067    2.667 
#    0.000    4.667    0.000    0.000    0.000    0.000 
#    0.000    0.000    0.000    0.000    0.000    0.000 
#
# Total GULP energy -83523.015223 kJ/mol
# GULP energy per Si atom -5568.201015 kJ/mol
# Density = 2.637641 g / cm^3
# Si number density = 26.436583 Si / 1000 Ang^3
#
#
#
# Elastic Constant Matrix: (Units=GPa)
#
#
# Indices 1 2 3 4 5 6 
#
# 1 82.7494 34.2410 52.7110 15.6923 -9.9317 -35.3837
# 2 34.2410 78.8351 38.9805 19.5324 -7.4134 -25.1279
# 3 52.7110 38.9805 184.6663 9.6511 -9.7566 -34.8685
# 4 15.6923 19.5324 9.6511 23.3277 3.1469 -12.2218
# 5 -9.9317 -7.4134 -9.7566 3.1469 48.6870 15.7286
# 6 -35.3837 -25.1279 -34.8685 -12.2218 15.7286 58.2341
#
#
#
# Elastic Compliance Matrix: (Units=1/GPa)
#
#
# Indices 1 2 3 4 5 6 
#
# 1 0.019748 -0.003184 -0.003254 -0.005592 0.000908 0.007258
# 2 -0.003184 0.018834 -0.001964 -0.012059 0.001973 0.001953
# 3 -0.003254 -0.001964 0.006990 0.001947 -0.000284 0.001846
# 4 -0.005592 -0.012059 0.001947 0.061276 -0.009093 0.007881
# 5 0.000908 0.001973 -0.000284 -0.009093 0.023856 -0.007119
# 6 0.007258 0.001953 0.001846 0.007881 -0.007119 0.027107
#
#
# Mechanical properties :
#
#
# Convention : Reuss Voigt Hill
#
# Bulk Modulus (GPa) = 34.75936 66.45731 50.60833
# Shear Modulus (GPa) = 27.14374 40.73766 33.94070
#
# Velocity S-wave (km/s) = 3.20777 3.92976 3.58698
# Velocity P-wave (km/s) = 5.18618 6.76636 6.02827
#
# Compressibility (1/GPa) = 0.02876923
#
# Stress axis : x y z
#
# Youngs Moduli (GPa) = 50.63828 53.09460 143.05358
#
# Poissons Ratio (x) = 0.16905 0.46551
# Poissons Ratio (y) = 0.16123 0.28090
# Poissons Ratio (z) = 0.16478 0.10426
#
# Static dielectric constant tensor:
#      x y z
#    x 2.220130 0.106830 -0.100920 
#    y 0.106830 2.129620 -0.060690 
#    z -0.100920 -0.060690 2.128660 
# 
# From -- ./inp_files/137377.got.cif
#   From: 2010.05.17/outbox.cif.g08.bks.cpg/sg2_69_cif.got.tgz:137377.got - 2010.06.03 11:33:40.
