data_PCOD9067811
_publ_section_title
;
Structure prediction by ZEFSAII (Michael W. Deem and Ramdas Pophale) SiO2 
 PCOD9067811
Probable space group: P -1
;
_chemical_formula_sum "Si O2"
_cell_formula_units_Z 16
_cell_length_a 11.269518
_cell_length_b 9.471287
_cell_length_c 9.199551
_cell_angle_alpha 116.055912
_cell_angle_beta 52.984673
_cell_angle_gamma 124.830695
_cell_volume 636.726012
_symmetry_space_group_name_H-M "P -1"
_symmetry_group_IT_number 2
_symmetry_cell_setting 'triclinic'
loop_
_space_group_symop_operation_xyz
x,y,z
-x,-y,-z
loop_
_atom_site_type_symbol
_atom_site_label
_atom_site_fract_x
_atom_site_fract_y
_atom_site_fract_z
Si Si1 0.291423 0.757077 0.761001
Si Si2 0.508335 0.315119 0.916186
Si Si3 0.910362 0.148358 0.272343
Si Si4 0.742461 0.629430 0.369316
Si Si5 0.406678 0.162399 0.239126
Si Si6 0.856358 0.350067 0.625440
Si Si7 0.118295 0.798895 0.186439
Si Si8 0.213096 0.229598 0.905197
O O1 0.232685 0.818311 0.687908
O O2 0.279507 0.563628 0.664021
O O3 0.468583 0.869211 0.756259
O O4 0.162518 0.762156 0.976868
O O5 0.675145 0.333207 0.726849
O O6 0.347933 0.201433 0.889971
O O7 0.500000 0.500000 0.000000
O O8 0.493829 0.245310 0.059535
O O9 0.887716 0.187197 0.472119
O O10 0.886721 0.954212 0.181672
O O11 0.088085 0.263538 0.120311
O O12 0.641200 0.700407 0.578484
O O13 0.709821 0.637602 0.224096
O O14 0.930892 0.764430 0.315187
O O15 0.252536 0.985578 0.225621
O O16 0.875238 0.351027 0.783412
O O17 0.000000 0.500000 0.500000
#
# Coordination Sequence:
#
# PCOD9067811 Si02
#       8
#     2   2   2   2   2   2   2   2
#     4  12  25  48  76 107 146 196 252 305 365 439
#     4  12  28  46  73 106 152 192 242 307 373 436
#     4  11  26  45  74 104 149 194 240 302 370 444
#     4  12  27  46  76 110 149 196 248 305 371 446
#     4  12  28  48  77 110 149 194 250 311 370 437
#     4  12  28  47  74 108 146 195 247 301 369 447
#     4  12  26  49  77 106 147 197 251 306 366 443
#     4  11  26  47  71 108 150 190 240 303 377 437
#
# _framework density 25.128549
#
# number of rings (size 3 to 8) (size 9 to 14) (size 15 to 20)
#    0.000    0.250    2.500    5.250   12.250    0.500 
#    0.000    0.000    0.000    0.000    0.000    0.000 
#    0.000    0.000    0.000    0.000    0.000    0.000 
#
# Total GULP energy -89653.952522 kJ/mol
# GULP energy per Si atom -5603.372033 kJ/mol
# Density = 2.507135 g / cm^3
# Si number density = 25.128549 Si / 1000 Ang^3
#
#
#
# Elastic Constant Matrix: (Units=GPa)
#
#
# Indices 1 2 3 4 5 6 
#
# 1 114.9073 10.8950 16.4786 -20.5332 -10.0024 13.7556
# 2 10.8950 85.1407 33.4280 -9.0271 -6.4943 3.1062
# 3 16.4786 33.4280 120.1855 -5.2276 -24.2269 3.7606
# 4 -20.5332 -9.0271 -5.2276 25.4515 -3.4180 -6.0953
# 5 -10.0024 -6.4943 -24.2269 -3.4180 43.3218 -6.9907
# 6 13.7556 3.1062 3.7606 -6.0953 -6.9907 42.8694
#
#
#
# Elastic Compliance Matrix: (Units=1/GPa)
#
#
# Indices 1 2 3 4 5 6 
#
# 1 0.010727 -0.000008 -0.000529 0.008461 0.002561 -0.001774
# 2 -0.000008 0.013599 -0.003522 0.004141 0.000391 -0.000021
# 3 -0.000529 -0.003522 0.010507 0.001350 0.005426 0.000580
# 4 0.008461 0.004141 0.001350 0.050236 0.008154 0.005339
# 5 0.002561 0.000391 0.005426 0.008154 0.028124 0.004420
# 6 -0.001774 -0.000021 0.000580 0.005339 0.004420 0.025326
#
#
# Mechanical properties :
#
#
# Convention : Reuss Voigt Hill
#
# Bulk Modulus (GPa) = 37.43160 49.09297 43.26229
# Shear Modulus (GPa) = 32.14605 39.62400 35.88503
#
# Velocity S-wave (km/s) = 3.58056 3.97527 3.78307
# Velocity P-wave (km/s) = 5.65882 6.37569 6.02792
#
# Compressibility (1/GPa) = 0.02671540
#
# Stress axis : x y z
#
# Youngs Moduli (GPa) = 93.22650 73.53727 95.17668
#
# Poissons Ratio (x) = 0.00057 0.05032
# Poissons Ratio (y) = 0.00073 0.33518
# Poissons Ratio (z) = 0.04929 0.25898
#
# Static dielectric constant tensor:
#      x y z
#    x 1.985770 0.057830 0.020350 
#    y 0.057830 2.158280 0.016300 
#    z 0.020350 0.016300 1.913120 
# 
# From -- ./inp_files/262983.got.cif
#   From: 2010.05.17/outbox.cif.g08.bks.cpg/sg2_132_cif.got.tgz:262983.got - 2010.06.03 11:33:40.
