data_PCOD9067089
_publ_section_title
;
Structure prediction by ZEFSAII (Michael W. Deem and Ramdas Pophale) SiO2 
 PCOD9067089
Probable space group: P -1
;
_chemical_formula_sum "Si O2"
_cell_formula_units_Z 16
_cell_length_a 21.475598
_cell_length_b 7.042506
_cell_length_c 8.502103
_cell_angle_alpha 121.565564
_cell_angle_beta 143.252797
_cell_angle_gamma 59.988634
_cell_volume 647.222872
_symmetry_space_group_name_H-M "P -1"
_symmetry_group_IT_number 2
_symmetry_cell_setting 'triclinic'
loop_
_space_group_symop_operation_xyz
x,y,z
-x,-y,-z
loop_
_atom_site_type_symbol
_atom_site_label
_atom_site_fract_x
_atom_site_fract_y
_atom_site_fract_z
Si Si1 0.067501 0.355265 0.210068
Si Si2 0.401701 0.062772 0.655728
Si Si3 0.467628 0.375816 0.179926
Si Si4 0.880614 0.451908 0.098416
Si Si5 0.789539 0.926053 0.190895
Si Si6 0.797266 0.067034 0.626902
Si Si7 0.772873 0.393975 0.186547
Si Si8 0.592955 0.788665 0.599015
O O1 0.111544 0.091428 0.157160
O O2 0.169694 0.465105 0.510625
O O3 0.995039 0.364368 0.222915
O O4 0.000000 0.500000 0.000000
O O5 0.311974 0.988369 0.551665
O O6 0.355608 0.179800 0.454500
O O7 0.482359 0.829105 0.694781
O O8 0.459151 0.244298 0.941532
O O9 0.545148 0.559222 0.410190
O O10 0.319434 0.173825 0.082259
O O11 0.871055 0.721319 0.197647
O O12 0.839171 0.392546 0.159768
O O13 0.806976 0.327957 0.781527
O O14 0.809650 0.993087 0.438965
O O15 0.650161 0.500359 0.966908
O O16 0.779079 0.144770 0.157664
O O17 0.500000 0.000000 0.500000
#
# Coordination Sequence:
#
# PCOD9067089 Si02
#       8
#     2   2   2   2   2   2   2   2
#     4  12  28  52  82 116 154 200 261 327 392 458
#     4  11  26  47  76 111 152 207 255 314 380 458
#     4  11  25  47  78 109 160 200 256 311 382 454
#     4  12  28  50  82 114 151 202 262 318 386 457
#     4  12  28  50  78 115 156 208 255 318 382 463
#     4  12  27  54  79 113 160 201 257 321 392 456
#     4  12  26  50  82 112 160 203 256 320 386 459
#     4  12  27  43  73 109 152 200 258 305 377 453
#
# _framework density 24.721001999999999
#
# number of rings (size 3 to 8) (size 9 to 14) (size 15 to 20)
#    0.000    0.250    3.750    3.375    8.750    3.000 
#    0.000    0.000    0.000    0.000    0.000    0.000 
#    0.000    0.000    0.000    0.000    0.000    0.000 
#
# Total GULP energy -89658.825447 kJ/mol
# GULP energy per Si atom -5603.676590 kJ/mol
# Density = 2.466474 g / cm^3
# Si number density = 24.721002 Si / 1000 Ang^3
#
#
#
# Elastic Constant Matrix: (Units=GPa)
#
#
# Indices 1 2 3 4 5 6 
#
# 1 82.2234 55.4598 11.7445 -1.5862 8.9179 -6.2223
# 2 55.4598 154.3155 37.6136 8.3961 -12.1571 15.3873
# 3 11.7445 37.6136 109.8691 18.0933 -11.4108 3.6819
# 4 -1.5862 8.3961 18.0933 53.1115 -1.6518 1.3739
# 5 8.9179 -12.1571 -11.4108 -1.6518 40.3060 3.0576
# 6 -6.2223 15.3873 3.6819 1.3739 3.0576 26.9306
#
#
#
# Elastic Compliance Matrix: (Units=1/GPa)
#
#
# Indices 1 2 3 4 5 6 
#
# 1 0.019821 -0.008741 -0.000570 0.001651 -0.007910 0.010466
# 2 -0.008741 0.011470 -0.001961 -0.001007 0.005471 -0.008875
# 3 -0.000570 -0.001961 0.010643 -0.003241 0.002459 -0.000580
# 4 0.001651 -0.001007 -0.003241 0.020104 -0.000798 0.000465
# 5 -0.007910 0.005471 0.002459 -0.000798 0.029526 -0.008601
# 6 0.010466 -0.008875 -0.000580 0.000465 -0.008601 0.045654
#
#
# Mechanical properties :
#
#
# Convention : Reuss Voigt Hill
#
# Bulk Modulus (GPa) = 51.57617 61.78263 56.67940
# Shear Modulus (GPa) = 30.07944 40.17564 35.12754
#
# Velocity S-wave (km/s) = 3.49199 4.03570 3.77365
# Velocity P-wave (km/s) = 6.09649 6.83828 6.47801
#
# Compressibility (1/GPa) = 0.01938880
#
# Stress axis : x y z
#
# Youngs Moduli (GPa) = 50.45131 87.18069 93.96124
#
# Poissons Ratio (x) = 0.76205 0.05360
# Poissons Ratio (y) = 0.44100 0.18427
# Poissons Ratio (z) = 0.02878 0.17098
#
# Static dielectric constant tensor:
#      x y z
#    x 1.981260 -0.029060 -0.026830 
#    y -0.029060 1.968480 -0.015750 
#    z -0.026830 -0.015750 1.961740 
# 
# From -- ./inp_files/339948.got.cif
#   From: 2010.05.17/outbox.cif.g08.bks.cpg/sg2_170_cif.got.tgz:339948.got - 2010.06.03 11:33:40.
