data_PCOD9067053
_publ_section_title
;
Structure prediction by ZEFSAII (Michael W. Deem and Ramdas Pophale) SiO2 
 PCOD9067053
Probable space group: P -1
;
_chemical_formula_sum "Si O2"
_cell_formula_units_Z 15
_cell_length_a 17.846033
_cell_length_b 18.195185
_cell_length_c 8.350061
_cell_angle_alpha 139.834123
_cell_angle_beta 45.580289
_cell_angle_gamma 159.269098
_cell_volume 617.751402
_symmetry_space_group_name_H-M "P -1"
_symmetry_group_IT_number 2
_symmetry_cell_setting 'triclinic'
loop_
_space_group_symop_operation_xyz
x,y,z
-x,-y,-z
loop_
_atom_site_type_symbol
_atom_site_label
_atom_site_fract_x
_atom_site_fract_y
_atom_site_fract_z
Si Si1 0.092537 0.858033 0.635035
Si Si2 0.649644 0.643830 0.171335
Si Si3 0.658821 0.213333 0.500301
Si Si4 0.550512 0.920132 0.729429
Si Si5 0.322905 0.505665 0.549802
Si Si6 0.904693 0.783806 0.271982
Si Si7 0.000000 0.000000 0.000000
Si Si8 0.944506 0.280244 0.195161
O O1 0.078581 0.760188 0.644921
O O2 0.858987 0.685265 0.635302
O O3 0.218592 0.915113 0.395322
O O4 0.164751 0.050098 0.908941
O O5 0.518245 0.604449 0.412208
O O6 0.723660 0.610006 0.114340
O O7 0.874666 0.894664 0.181175
O O8 0.500000 0.500000 0.000000
O O9 0.555709 0.182933 0.458995
O O10 0.796731 0.237312 0.271745
O O11 0.821166 0.450027 0.738500
O O12 0.500000 0.000000 0.500000
O O13 0.425780 0.722631 0.711009
O O14 0.500000 0.000000 0.000000
O O15 0.200744 0.366057 0.661512
O O16 0.000000 0.000000 0.500000
O O17 0.087116 0.869236 0.089023
#
# Coordination Sequence:
#
# PCOD9067053 Si02
#       8
#     2   2   2   2   2   2   1   2
#     4  12  24  47  73 109 145 198 250 304 375 463
#     4  12  25  47  77 108 144 200 251 303 378 461
#     4  11  25  48  73 108 141 197 262 315 375 448
#     4  12  29  46  74 110 149 198 250 320 392 445
#     4  12  27  47  69 108 157 191 249 309 386 453
#     4  12  29  49  74 115 159 202 247 322 392 453
#     4  12  22  42  78 110 140 186 250 304 358 454
#     4  11  25  47  77 104 147 197 262 314 369 460
#
# _framework density 24.281611999999999
#
# number of rings (size 3 to 8) (size 9 to 14) (size 15 to 20)
#    0.000    0.267    6.667    1.200    3.733    0.533 
#    2.400    0.000    0.000    0.000    0.000    0.000 
#    0.000    0.000    0.000    0.000    0.000    0.000 
#
# Total GULP energy -83501.749446 kJ/mol
# GULP energy per Si atom -5566.783296 kJ/mol
# Density = 2.422635 g / cm^3
# Si number density = 24.281612 Si / 1000 Ang^3
#
#
#
# Elastic Constant Matrix: (Units=GPa)
#
#
# Indices 1 2 3 4 5 6 
#
# 1 111.6820 23.7171 -4.7347 -5.8441 -4.9038 -15.5398
# 2 23.7171 106.2883 35.5347 -15.0216 0.2695 -25.4353
# 3 -4.7347 35.5347 85.9414 -20.0951 -22.9206 -1.5630
# 4 -5.8441 -15.0216 -20.0951 31.2966 -0.5662 -3.4609
# 5 -4.9038 0.2695 -22.9206 -0.5662 44.2521 -8.6028
# 6 -15.5398 -25.4353 -1.5630 -3.4609 -8.6028 52.1550
#
#
#
# Elastic Compliance Matrix: (Units=1/GPa)
#
#
# Indices 1 2 3 4 5 6 
#
# 1 0.010285 -0.002233 0.003225 0.003297 0.003421 0.002855
# 2 -0.002233 0.013518 -0.005390 0.003200 -0.001982 0.005651
# 3 0.003225 -0.005390 0.019536 0.010916 0.010929 0.001445
# 4 0.003297 0.003200 0.010916 0.042025 0.007891 0.006960
# 5 0.003421 -0.001982 0.010929 0.007891 0.029885 0.005833
# 6 0.002855 0.005651 0.001445 0.006960 0.005833 0.024248
#
#
# Mechanical properties :
#
#
# Convention : Reuss Voigt Hill
#
# Bulk Modulus (GPa) = 28.94881 45.88286 37.41583
# Shear Modulus (GPa) = 31.28780 42.16706 36.72743
#
# Velocity S-wave (km/s) = 3.59352 4.17175 3.89339
# Velocity P-wave (km/s) = 5.40054 6.49168 5.97108
#
# Compressibility (1/GPa) = 0.03454374
#
# Stress axis : x y z
#
# Youngs Moduli (GPa) = 97.23011 73.97441 51.18808
#
# Poissons Ratio (x) = 0.16515 -0.16508
# Poissons Ratio (y) = 0.21707 0.27591
# Poissons Ratio (z) = -0.31357 0.39873
#
# Static dielectric constant tensor:
#      x y z
#    x 1.967300 0.077460 0.078320 
#    y 0.077460 1.883270 -0.137140 
#    z 0.078320 -0.137140 1.766340 
# 
# From -- ./inp_files/336807.got.cif
#   From: 2010.05.17/outbox.cif.g08.bks.cpg/sg2_169_cif.got.tgz:336807.got - 2010.06.03 11:33:40.
