data_PCOD9067192
_publ_section_title
;
Structure prediction by ZEFSAII (Michael W. Deem and Ramdas Pophale) SiO2 
 PCOD9067192
Probable space group: P -1
;
_chemical_formula_sum "Si O2"
_cell_formula_units_Z 16
_cell_length_a 12.137037
_cell_length_b 12.170492
_cell_length_c 8.948615
_cell_angle_alpha 46.977453
_cell_angle_beta 70.715922
_cell_angle_gamma 45.841719
_cell_volume 666.251079
_symmetry_space_group_name_H-M "P -1"
_symmetry_group_IT_number 2
_symmetry_cell_setting 'triclinic'
loop_
_space_group_symop_operation_xyz
x,y,z
-x,-y,-z
loop_
_atom_site_type_symbol
_atom_site_label
_atom_site_fract_x
_atom_site_fract_y
_atom_site_fract_z
Si Si1 0.413349 0.735552 0.017923
Si Si2 0.653261 0.965277 0.004177
Si Si3 0.913102 0.429282 0.053438
Si Si4 0.494712 0.829277 0.604679
Si Si5 0.709646 0.423128 0.357569
Si Si6 0.243959 0.592260 0.294062
Si Si7 0.001243 0.612634 0.259121
Si Si8 0.223841 0.964543 0.385643
O O1 0.527627 0.573280 0.248299
O O2 0.288465 0.710442 0.085079
O O3 0.355655 0.944297 0.916869
O O4 0.499414 0.706779 0.853848
O O5 0.828717 0.739383 0.143836
O O6 0.672777 0.072929 0.768124
O O7 0.500000 0.000000 0.000000
O O8 0.773121 0.508181 0.154264
O O9 0.047323 0.183246 0.238230
O O10 0.876465 0.496143 0.835174
O O11 0.000000 0.500000 0.000000
O O12 0.630429 0.648588 0.595043
O O13 0.321376 0.949740 0.493657
O O14 0.500000 0.000000 0.500000
O O15 0.741642 0.409534 0.531037
O O16 0.783172 0.207428 0.456520
O O17 0.062571 0.710647 0.219584
O O18 0.000000 0.500000 0.500000
#
# Coordination Sequence:
#
# PCOD9067192 Si02
#       8
#     2   2   2   2   2   2   2   2
#     4  12  26  44  77 110 149 200 249 314 382 447
#     4  11  26  48  76 113 150 196 252 305 378 461
#     4  11  27  47  73 108 150 198 252 308 379 451
#     4  12  28  45  73 113 150 196 250 320 380 442
#     4  12  25  48  75 107 148 206 254 306 376 456
#     4  12  26  49  75 107 153 192 256 311 377 448
#     4  11  28  46  75 113 152 197 245 317 379 440
#     4  11  25  48  73 105 149 200 252 307 379 451
#
# _framework density 24.014972
#
# number of rings (size 3 to 8) (size 9 to 14) (size 15 to 20)
#    0.000    0.500    2.500    4.125   14.000    1.500 
#    0.000    0.000    0.000    0.000    0.000    0.000 
#    0.000    0.000    0.000    0.000    0.000    0.000 
#
# Total GULP energy -89383.676384 kJ/mol
# GULP energy per Si atom -5586.479774 kJ/mol
# Density = 2.396031 g / cm^3
# Si number density = 24.014972 Si / 1000 Ang^3
#
#
#
# Elastic Constant Matrix: (Units=GPa)
#
#
# Indices 1 2 3 4 5 6 
#
# 1 164.4759 26.8784 50.1566 15.5219 -22.9889 4.3795
# 2 26.8784 72.4504 13.2633 6.3109 -7.4639 13.7134
# 3 50.1566 13.2633 101.3209 26.7715 -7.6354 9.4024
# 4 15.5219 6.3109 26.7715 35.3297 5.4954 -1.0307
# 5 -22.9889 -7.4639 -7.6354 5.4954 46.4818 3.8796
# 6 4.3795 13.7134 9.4024 -1.0307 3.8796 36.6904
#
#
#
# Elastic Compliance Matrix: (Units=1/GPa)
#
#
# Indices 1 2 3 4 5 6 
#
# 1 0.007911 -0.001964 -0.003100 -0.001271 0.003221 0.000208
# 2 -0.001964 0.016159 0.000398 -0.002905 0.002555 -0.006259
# 3 -0.003100 0.000398 0.014644 -0.010314 0.002497 -0.004085
# 4 -0.001271 -0.002905 -0.010314 0.038585 -0.007834 0.005793
# 5 0.003221 0.002555 0.002497 -0.007834 0.025260 -0.004870
# 6 0.000208 -0.006259 -0.004085 0.005793 -0.004870 0.031294
#
#
# Mechanical properties :
#
#
# Convention : Reuss Voigt Hill
#
# Bulk Modulus (GPa) = 34.03393 57.64931 45.84162
# Shear Modulus (GPa) = 32.68410 40.23031 36.45720
#
# Velocity S-wave (km/s) = 3.69316 4.09738 3.90051
# Velocity P-wave (km/s) = 5.69110 6.81487 6.27818
#
# Compressibility (1/GPa) = 0.02938244
#
# Stress axis : x y z
#
# Youngs Moduli (GPa) = 126.41097 61.88379 68.28544
#
# Poissons Ratio (x) = 0.12155 0.21167
# Poissons Ratio (y) = 0.24830 -0.02717
# Poissons Ratio (z) = 0.39184 -0.02463
#
# Static dielectric constant tensor:
#      x y z
#    x 2.007190 0.013200 0.071710 
#    y 0.013200 2.025770 0.045300 
#    z 0.071710 0.045300 1.920130 
# 
# From -- ./inp_files/261574.got.cif
#   From: 2010.05.17/outbox.cif.g08.bks.cpg/sg2_131_cif.got.tgz:261574.got - 2010.06.03 11:33:40.
