data_PCOD9067603
_publ_section_title
;
Structure prediction by ZEFSAII (Michael W. Deem and Ramdas Pophale) SiO2 
 PCOD9067603
Probable space group: P -1
;
_chemical_formula_sum "Si O2"
_cell_formula_units_Z 14
_cell_length_a 9.107827
_cell_length_b 7.550813
_cell_length_c 9.059116
_cell_angle_alpha 113.410862
_cell_angle_beta 85.519336
_cell_angle_gamma 107.382500
_cell_volume 545.026862
_symmetry_space_group_name_H-M "P -1"
_symmetry_group_IT_number 2
_symmetry_cell_setting 'triclinic'
loop_
_space_group_symop_operation_xyz
x,y,z
-x,-y,-z
loop_
_atom_site_type_symbol
_atom_site_label
_atom_site_fract_x
_atom_site_fract_y
_atom_site_fract_z
Si Si1 0.263840 0.536600 0.870210
Si Si2 0.510845 0.449600 0.651137
Si Si3 0.804295 0.763213 0.842611
Si Si4 0.716399 0.057601 0.178397
Si Si5 0.388223 0.791316 0.213754
Si Si6 0.938203 0.391105 0.762455
Si Si7 0.978465 0.147273 0.421599
O O1 0.346858 0.406087 0.726384
O O2 0.086004 0.416682 0.860929
O O3 0.267327 0.734949 0.840907
O O4 0.361876 0.611658 0.034508
O O5 0.500000 0.500000 0.500000
O O6 0.628973 0.648705 0.775561
O O7 0.575834 0.272278 0.645824
O O8 0.884891 0.593118 0.828536
O O9 0.896822 0.841722 0.711852
O O10 0.789220 0.921011 0.020242
O O11 0.535288 0.960908 0.198230
O O12 0.816145 0.089009 0.329600
O O13 0.211102 0.791423 0.237888
O O14 0.990185 0.349439 0.580851
O O15 0.000000 0.000000 0.500000
#
# Coordination Sequence:
#
# PCOD9067603 Si02
#       7
#     2   2   2   2   2   2   2
#     4  12  25  48  76 107 149 198 252 300 367 442
#     4  11  26  44  77 105 152 194 247 305 373 438
#     4  11  25  51  74 104 149 198 248 296 375 444
#     4  12  28  47  77 109 153 194 248 310 365 437
#     4  11  27  48  72 113 145 197 249 299 371 443
#     4  11  27  47  79 104 150 192 249 300 372 436
#     4  12  29  46  75 113 152 189 248 311 373 430
#
# _framework density 25.686807000000002
#
# number of rings (size 3 to 8) (size 9 to 14) (size 15 to 20)
#    0.000    0.571    2.857    3.000   12.000    0.571 
#    0.000    0.000    0.000    0.000    0.000    0.000 
#    0.000    0.000    0.000    0.000    0.000    0.000 
#
# Total GULP energy -78402.813708 kJ/mol
# GULP energy per Si atom -5600.200979 kJ/mol
# Density = 2.562834 g / cm^3
# Si number density = 25.686807 Si / 1000 Ang^3
#
#
#
# Elastic Constant Matrix: (Units=GPa)
#
#
# Indices 1 2 3 4 5 6 
#
# 1 144.5440 50.5741 22.1937 -11.0091 8.2652 23.7661
# 2 50.5741 90.5430 41.3448 -20.0868 4.7014 3.2738
# 3 22.1937 41.3448 114.2067 -23.5913 25.8801 -5.2403
# 4 -11.0091 -20.0868 -23.5913 40.4478 -1.9380 -8.1999
# 5 8.2652 4.7014 25.8801 -1.9380 37.1425 -6.5309
# 6 23.7661 3.2738 -5.2403 -8.1999 -6.5309 47.7264
#
#
#
# Elastic Compliance Matrix: (Units=1/GPa)
#
#
# Indices 1 2 3 4 5 6 
#
# 1 0.009658 -0.005417 0.000213 -0.001061 -0.002537 -0.004944
# 2 -0.005417 0.017052 -0.004684 0.004861 0.002960 0.002254
# 3 0.000213 -0.004684 0.013502 0.005514 -0.008309 0.001508
# 4 -0.001061 0.004861 0.005514 0.031196 -0.001548 0.005948
# 5 -0.002537 0.002960 -0.008309 -0.001548 0.033610 0.004481
# 6 -0.004944 0.002254 0.001508 0.005948 0.004481 0.025061
#
#
# Mechanical properties :
#
#
# Convention : Reuss Voigt Hill
#
# Bulk Modulus (GPa) = 48.93298 64.16880 56.55089
# Shear Modulus (GPa) = 31.91508 40.74209 36.32859
#
# Velocity S-wave (km/s) = 3.52869 3.98692 3.76478
# Velocity P-wave (km/s) = 5.97440 6.79923 6.40011
#
# Compressibility (1/GPa) = 0.02043612
#
# Stress axis : x y z
#
# Youngs Moduli (GPa) = 103.54168 58.64415 74.06573
#
# Poissons Ratio (x) = 0.31766 -0.01577
# Poissons Ratio (y) = 0.56085 0.34692
# Poissons Ratio (z) = -0.02205 0.27468
#
# Static dielectric constant tensor:
#      x y z
#    x 2.036320 0.003700 -0.037270 
#    y 0.003700 2.061200 0.010750 
#    z -0.037270 0.010750 2.028650 
# 
# From -- ./inp_files/159794.got.cif
#   From: 2010.05.17/outbox.cif.g08.bks.cpg/sg2_80_cif.got.tgz:159794.got - 2010.06.03 11:33:40.
