data_PCOD9067890
_publ_section_title
;
Structure prediction by ZEFSAII (Michael W. Deem and Ramdas Pophale) SiO2 
 PCOD9067890
Probable space group: P -1
;
_chemical_formula_sum "Si O2"
_cell_formula_units_Z 14
_cell_length_a 8.539351
_cell_length_b 8.666992
_cell_length_c 11.879538
_cell_angle_alpha 79.484522
_cell_angle_beta 135.061978
_cell_angle_gamma 99.599239
_cell_volume 609.699028
_symmetry_space_group_name_H-M "P -1"
_symmetry_group_IT_number 2
_symmetry_cell_setting 'triclinic'
loop_
_space_group_symop_operation_xyz
x,y,z
-x,-y,-z
loop_
_atom_site_type_symbol
_atom_site_label
_atom_site_fract_x
_atom_site_fract_y
_atom_site_fract_z
Si Si1 0.128684 0.328107 0.282640
Si Si2 0.022013 0.698533 0.366857
Si Si3 0.726090 0.421184 0.151312
Si Si4 0.634677 0.170921 0.307854
Si Si5 0.119839 0.154925 0.092297
Si Si6 0.293400 0.188682 0.615032
Si Si7 0.773707 0.332613 0.769628
O O1 0.140063 0.173935 0.233963
O O2 0.178306 0.279840 0.442245
O O3 0.274594 0.484019 0.299449
O O4 0.884206 0.391292 0.132577
O O5 0.882559 0.535572 0.293843
O O6 0.836135 0.785737 0.335943
O O7 0.238077 0.714901 0.553310
O O8 0.134370 0.734553 0.295396
O O9 0.684862 0.249932 0.204103
O O10 0.500000 0.500000 0.000000
O O11 0.372091 0.166580 0.181982
O O12 0.716984 0.997527 0.386898
O O13 0.979684 0.297225 0.958581
O O14 0.000000 0.000000 0.000000
O O15 0.552667 0.247780 0.723226
#
# Coordination Sequence:
#
# PCOD9067890 Si02
#       7
#     2   2   2   2   2   2   2
#     4  11  26  46  72 104 146 193 250 300 371 439
#     4  11  26  46  78 107 146 195 247 299 374 435
#     4  11  26  47  73 111 145 193 244 303 369 445
#     4  12  25  46  73 106 151 189 244 309 360 436
#     4  12  27  47  71 107 149 194 245 305 372 432
#     4  12  26  46  75 112 147 193 251 304 368 437
#     4  11  26  48  72 109 144 197 248 308 363 439
#
# _framework density 22.962150000000001
#
# number of rings (size 3 to 8) (size 9 to 14) (size 15 to 20)
#    0.000    0.571    2.857    4.286    8.000    1.143 
#    0.000    2.143    0.000    0.000    0.000    0.000 
#    0.000    0.000    0.000    0.000    0.000    0.000 
#
# Total GULP energy -78069.453453 kJ/mol
# GULP energy per Si atom -5576.389532 kJ/mol
# Density = 2.290989 g / cm^3
# Si number density = 22.962150 Si / 1000 Ang^3
#
#
#
# Elastic Constant Matrix: (Units=GPa)
#
#
# Indices 1 2 3 4 5 6 
#
# 1 122.9585 27.0636 42.2127 27.9503 20.2441 1.4584
# 2 27.0636 110.4228 44.7271 4.0436 8.4492 10.1452
# 3 42.2127 44.7271 82.3474 1.7955 22.8391 5.0891
# 4 27.9503 4.0436 1.7955 34.9689 2.2104 -1.6051
# 5 20.2441 8.4492 22.8391 2.2104 47.8588 11.6532
# 6 1.4584 10.1452 5.0891 -1.6051 11.6532 20.9275
#
#
#
# Elastic Compliance Matrix: (Units=1/GPa)
#
#
# Indices 1 2 3 4 5 6 
#
# 1 0.012679 -0.000506 -0.005380 -0.009571 -0.002601 0.001384
# 2 -0.000506 0.012309 -0.006808 -0.001116 0.002780 -0.005910
# 3 -0.005380 -0.006808 0.020297 0.004641 -0.007175 0.003091
# 4 -0.009571 -0.001116 0.004641 0.036305 -0.000397 0.003085
# 5 -0.002601 0.002780 -0.007175 -0.000397 0.028706 -0.015436
# 6 0.001384 -0.005910 0.003091 0.003085 -0.015436 0.058633
#
#
# Mechanical properties :
#
#
# Convention : Reuss Voigt Hill
#
# Bulk Modulus (GPa) = 50.25776 60.41503 55.33639
# Shear Modulus (GPa) = 24.88215 34.19941 29.54078
#
# Velocity S-wave (km/s) = 3.29540 3.86344 3.59067
# Velocity P-wave (km/s) = 6.03443 6.80216 6.42976
#
# Compressibility (1/GPa) = 0.01989743
#
# Stress axis : x y z
#
# Youngs Moduli (GPa) = 78.87235 81.24329 49.26830
#
# Poissons Ratio (x) = 0.04110 0.26506
# Poissons Ratio (y) = 0.03990 0.33540
# Poissons Ratio (z) = 0.42432 0.55308
#
# Static dielectric constant tensor:
#      x y z
#    x 2.024890 0.031840 -0.042450 
#    y 0.031840 1.881500 0.014450 
#    z -0.042450 0.014450 1.869180 
# 
# From -- ./inp_files/154812.got.cif
#   From: 2010.05.17/outbox.cif.g08.bks.cpg/sg2_78_cif.got.tgz:154812.got - 2010.06.03 11:33:40.
