data_PCOD9067049
_publ_section_title
;
Structure prediction by ZEFSAII (Michael W. Deem and Ramdas Pophale) SiO2 
 PCOD9067049
Probable space group: P -1
;
_chemical_formula_sum "Si O2"
_cell_formula_units_Z 12
_cell_length_a 8.749417
_cell_length_b 7.815615
_cell_length_c 14.063522
_cell_angle_alpha 125.976707
_cell_angle_beta 40.142480
_cell_angle_gamma 132.813538
_cell_volume 450.092665
_symmetry_space_group_name_H-M "P -1"
_symmetry_group_IT_number 2
_symmetry_cell_setting 'triclinic'
loop_
_space_group_symop_operation_xyz
x,y,z
-x,-y,-z
loop_
_atom_site_type_symbol
_atom_site_label
_atom_site_fract_x
_atom_site_fract_y
_atom_site_fract_z
Si Si1 0.716194 0.821380 0.412686
Si Si2 0.219851 0.325863 0.459561
Si Si3 0.355664 0.798823 0.356602
Si Si4 0.906687 0.384978 0.904010
Si Si5 0.937421 0.165862 0.155174
Si Si6 0.337758 0.297801 0.184634
O O1 0.441083 0.595411 0.448013
O O2 0.755891 0.805384 0.501569
O O3 0.940603 0.772765 0.238568
O O4 0.721500 0.075197 0.477490
O O5 0.268861 0.221905 0.303321
O O6 0.928630 0.310170 0.594897
O O7 0.424109 0.578721 0.248612
O O8 0.624712 0.018365 0.270143
O O9 0.999514 0.589107 0.847154
O O10 0.589569 0.264166 0.018007
O O11 0.000000 0.500000 0.000000
O O12 0.117839 0.209575 0.177548
O O13 0.000000 0.000000 0.000000
#
# Coordination Sequence:
#
# PCOD9067049 Si02
#       6
#     2   2   2   2   2   2
#     4  11  25  48  77 112 154 199 251 307 385 441
#     4  11  25  47  76 113 153 198 248 316 373 446
#     4  12  26  47  77 109 149 201 254 306 372 450
#     4  12  26  52  77 110 155 202 248 314 375 453
#     4  12  28  50  79 112 151 203 252 312 381 450
#     4  12  27  50  78 113 153 196 255 314 376 444
#
# _framework density 26.661179000000001
#
# number of rings (size 3 to 8) (size 9 to 14) (size 15 to 20)
#    0.000    0.333    3.333    5.500    2.333    4.000 
#    0.000    1.667    0.000    0.000    0.000    0.000 
#    0.000    0.000    0.000    0.000    0.000    0.000 
#
# Total GULP energy -67229.630334 kJ/mol
# GULP energy per Si atom -5602.469194 kJ/mol
# Density = 2.660050 g / cm^3
# Si number density = 26.661179 Si / 1000 Ang^3
#
#
#
# Elastic Constant Matrix: (Units=GPa)
#
#
# Indices 1 2 3 4 5 6 
#
# 1 182.1646 56.2398 70.1424 -21.0597 7.8644 28.5265
# 2 56.2398 134.4945 66.1948 18.5659 3.4382 7.9159
# 3 70.1424 66.1948 196.7942 -0.2658 -15.2482 17.7416
# 4 -21.0597 18.5659 -0.2658 59.9079 8.4397 -8.1143
# 5 7.8644 3.4382 -15.2482 8.4397 64.0505 -3.5398
# 6 28.5265 7.9159 17.7416 -8.1143 -3.5398 41.5310
#
#
#
# Elastic Compliance Matrix: (Units=1/GPa)
#
#
# Indices 1 2 3 4 5 6 
#
# 1 0.008079 -0.002708 -0.001774 0.003433 -0.001929 -0.003769
# 2 -0.002708 0.010404 -0.002575 -0.004127 -0.000287 0.000146
# 3 -0.001774 -0.002575 0.006828 -0.000217 0.001950 -0.001084
# 4 0.003433 -0.004127 -0.000217 0.019858 -0.002748 0.002167
# 5 -0.001929 -0.000287 0.001950 -0.002748 0.016771 0.001439
# 6 -0.003769 0.000146 -0.001084 0.002167 0.001439 0.027649
#
#
# Mechanical properties :
#
#
# Convention : Reuss Voigt Hill
#
# Bulk Modulus (GPa) = 89.30942 99.84526 94.57734
# Shear Modulus (GPa) = 46.54005 54.48961 50.51483
#
# Velocity S-wave (km/s) = 4.18258 4.52572 4.35753
# Velocity P-wave (km/s) = 7.54294 8.05236 7.80181
#
# Compressibility (1/GPa) = 0.01119703
#
# Stress axis : x y z
#
# Youngs Moduli (GPa) = 123.77880 96.12128 146.44687
#
# Poissons Ratio (x) = 0.26029 0.25976
# Poissons Ratio (y) = 0.33519 0.37713
# Poissons Ratio (z) = 0.21955 0.24753
#
# Static dielectric constant tensor:
#      x y z
#    x 2.162300 -0.039150 -0.039620 
#    y -0.039150 2.151650 -0.053780 
#    z -0.039620 -0.053780 2.127940 
# 
# From -- ./inp_files/493557.got.cif
#   From: 2010.05.17/outbox.cif.g08.bks.cpg/sg2_247_cif.got.tgz:493557.got - 2010.06.03 11:33:40.
