data_PCOD9067925
_publ_section_title
;
Structure prediction by ZEFSAII (Michael W. Deem and Ramdas Pophale) SiO2 
 PCOD9067925
Probable space group: P -1
;
_chemical_formula_sum "Si O2"
_cell_formula_units_Z 14
_cell_length_a 21.179077
_cell_length_b 4.760041
_cell_length_c 13.953694
_cell_angle_alpha 106.789972
_cell_angle_beta 24.193451
_cell_angle_gamma 99.068559
_cell_volume 531.447701
_symmetry_space_group_name_H-M "P -1"
_symmetry_group_IT_number 2
_symmetry_cell_setting 'triclinic'
loop_
_space_group_symop_operation_xyz
x,y,z
-x,-y,-z
loop_
_atom_site_type_symbol
_atom_site_label
_atom_site_fract_x
_atom_site_fract_y
_atom_site_fract_z
Si Si1 0.661261 0.763919 0.135035
Si Si2 0.839285 0.112852 0.051052
Si Si3 0.455525 0.341814 0.421782
Si Si4 0.361248 0.303872 0.335270
Si Si5 0.982771 0.424183 0.127983
Si Si6 0.162270 0.334285 0.316003
Si Si7 0.295162 0.826969 0.233867
O O1 0.613157 0.465593 0.205504
O O2 0.502315 0.043766 0.391895
O O3 0.797116 0.875875 0.012361
O O4 0.709667 0.731448 0.953858
O O5 0.203984 0.574561 0.354894
O O6 0.903325 0.900161 0.032607
O O7 0.965358 0.298136 0.863677
O O8 0.404469 0.243705 0.380522
O O9 0.314844 0.612256 0.683793
O O10 0.320398 0.031075 0.307023
O O11 0.196874 0.567850 0.593744
O O12 0.523591 0.341242 0.067462
O O13 0.000000 0.500000 0.000000
O O14 0.194764 0.030634 0.305516
O O15 0.000000 0.500000 0.500000
#
# Coordination Sequence:
#
# PCOD9067925 Si02
#       7
#     2   2   2   2   2   2   2
#     4  12  25  45  72 102 135 188 224 285 346 410
#     4  12  27  45  70 105 140 181 230 283 346 407
#     4  12  24  46  72 100 140 180 232 282 341 421
#     4  11  26  46  73  99 143 180 235 276 344 411
#     4  12  27  45  71 102 143 184 227 287 344 404
#     4  12  26  46  71 102 138 173 233 286 344 400
#     4  11  27  47  71 103 133 188 228 284 338 408
#
# _framework density 26.343135
#
# number of rings (size 3 to 8) (size 9 to 14) (size 15 to 20)
#    0.000    0.286    4.286    3.429    4.000    4.571 
#    0.000    0.000    0.000    0.000    0.000    0.000 
#    0.000    0.000    0.000    0.000    0.000    0.000 
#
# Total GULP energy -78495.793870 kJ/mol
# GULP energy per Si atom -5606.842419 kJ/mol
# Density = 2.628318 g / cm^3
# Si number density = 26.343135 Si / 1000 Ang^3
#
#
#
# Elastic Constant Matrix: (Units=GPa)
#
#
# Indices 1 2 3 4 5 6 
#
# 1 140.6279 25.5280 27.4251 4.4199 6.4798 17.8136
# 2 25.5280 113.5778 21.2152 1.3675 -11.1339 -9.5034
# 3 27.4251 21.2152 104.4873 11.8310 -13.6170 -1.7189
# 4 4.4199 1.3675 11.8310 26.4700 4.6851 -5.2540
# 5 6.4798 -11.1339 -13.6170 4.6851 36.3999 -5.9723
# 6 17.8136 -9.5034 -1.7189 -5.2540 -5.9723 45.1297
#
#
#
# Elastic Compliance Matrix: (Units=1/GPa)
#
#
# Indices 1 2 3 4 5 6 
#
# 1 0.008758 -0.002282 -0.002349 -0.000530 -0.003822 -0.004595
# 2 -0.002282 0.010150 -0.000961 0.000334 0.003687 0.003529
# 3 -0.002349 -0.000961 0.011735 -0.005516 0.005429 0.001248
# 4 -0.000530 0.000334 -0.005516 0.042307 -0.006637 0.004117
# 5 -0.003822 0.003687 0.005429 -0.006637 0.033168 0.006108
# 6 -0.004595 0.003529 0.001248 0.004117 0.006108 0.026050
#
#
# Mechanical properties :
#
#
# Convention : Reuss Voigt Hill
#
# Bulk Modulus (GPa) = 51.39262 56.33660 53.86461
# Shear Modulus (GPa) = 33.36916 40.56824 36.96870
#
# Velocity S-wave (km/s) = 3.56295 3.92853 3.75020
# Velocity P-wave (km/s) = 6.03965 6.48151 6.26448
#
# Compressibility (1/GPa) = 0.01945805
#
# Stress axis : x y z
#
# Youngs Moduli (GPa) = 114.17959 98.52485 85.21643
#
# Poissons Ratio (x) = 0.22488 0.20017
# Poissons Ratio (y) = 0.26061 0.08189
# Poissons Ratio (z) = 0.26820 0.09468
#
# Static dielectric constant tensor:
#      x y z
#    x 2.076620 0.048610 -0.023970 
#    y 0.048610 2.025100 0.037660 
#    z -0.023970 0.037660 2.082870 
# 
# From -- ./inp_files/124239.got.cif
#   From: 2010.05.17/outbox.cif.g08.bks.cpg/sg2_63_cif.got.tgz:124239.got - 2010.06.03 11:33:40.
