data_PCOD9067393
_publ_section_title
;
Structure prediction by ZEFSAII (Michael W. Deem and Ramdas Pophale) SiO2 
 PCOD9067393
Probable space group: P -1
;
_chemical_formula_sum "Si O2"
_cell_formula_units_Z 16
_cell_length_a 16.649996
_cell_length_b 6.405267
_cell_length_c 8.187143
_cell_angle_alpha 55.300982
_cell_angle_beta 91.906359
_cell_angle_gamma 79.561888
_cell_volume 695.857084
_symmetry_space_group_name_H-M "P -1"
_symmetry_group_IT_number 2
_symmetry_cell_setting 'triclinic'
loop_
_space_group_symop_operation_xyz
x,y,z
-x,-y,-z
loop_
_atom_site_type_symbol
_atom_site_label
_atom_site_fract_x
_atom_site_fract_y
_atom_site_fract_z
Si Si1 0.758298 0.020040 0.398927
Si Si2 0.351007 0.570839 0.567055
Si Si3 0.392781 0.001860 0.852494
Si Si4 0.055385 0.704185 0.447095
Si Si5 0.446447 0.018188 0.326669
Si Si6 0.661406 0.453943 0.796854
Si Si7 0.163264 0.550560 0.205782
Si Si8 0.087825 0.781427 0.779900
O O1 0.726316 0.244316 0.431139
O O2 0.837385 0.072769 0.288551
O O3 0.678153 0.021487 0.277918
O O4 0.794512 0.750921 0.617141
O O5 0.372080 0.297684 0.787252
O O6 0.342120 0.477661 0.424303
O O7 0.413072 0.757924 0.458272
O O8 0.485982 0.963710 0.811705
O O9 0.387585 0.767876 0.076690
O O10 0.119893 0.669391 0.317746
O O11 0.088725 0.652480 0.657990
O O12 0.000000 0.500000 0.500000
O O13 0.997640 0.998223 0.308526
O O14 0.375395 0.286723 0.215626
O O15 0.500000 0.000000 0.500000
O O16 0.758125 0.337139 0.884775
O O17 0.103539 0.599133 0.022692
#
# Coordination Sequence:
#
# PCOD9067393 Si02
#       8
#     2   2   2   2   2   2   2   2
#     4  12  24  46  70 102 144 183 241 294 356 434
#     4  12  24  43  70  99 138 191 240 298 361 424
#     4  12  26  44  70 100 142 188 238 302 357 421
#     4  11  25  49  74 108 146 184 238 295 359 444
#     4  12  23  46  68  95 145 188 239 302 361 426
#     4  12  26  44  70 105 137 188 244 296 361 429
#     4  12  23  49  73 105 147 189 237 298 363 431
#     4  11  26  46  76 106 143 190 233 297 368 428
#
# _framework density 22.993227000000001
#
# number of rings (size 3 to 8) (size 9 to 14) (size 15 to 20)
#    0.000    0.250    7.500    1.875    0.000    3.000 
#    4.500    0.000    0.000    0.000    0.000    0.000 
#    0.000    0.000    0.000    0.000    0.000    0.000 
#
# Total GULP energy -89399.961578 kJ/mol
# GULP energy per Si atom -5587.497599 kJ/mol
# Density = 2.294089 g / cm^3
# Si number density = 22.993227 Si / 1000 Ang^3
#
#
#
# Elastic Constant Matrix: (Units=GPa)
#
#
# Indices 1 2 3 4 5 6 
#
# 1 84.0787 45.8166 10.9679 -3.9024 -2.8808 -21.2367
# 2 45.8166 115.1573 41.2234 -1.4197 1.5767 -20.5916
# 3 10.9679 41.2234 83.9559 4.7532 -0.8721 -3.9331
# 4 -3.9024 -1.4197 4.7532 30.7713 18.5799 -3.4411
# 5 -2.8808 1.5767 -0.8721 18.5799 29.9282 5.8914
# 6 -21.2367 -20.5916 -3.9331 -3.4411 5.8914 49.2817
#
#
#
# Elastic Compliance Matrix: (Units=1/GPa)
#
#
# Indices 1 2 3 4 5 6 
#
# 1 0.016325 -0.005867 0.000821 0.002652 -0.000710 0.004919
# 2 -0.005867 0.014030 -0.006236 0.004188 -0.004815 0.003705
# 3 0.000821 -0.006236 0.015138 -0.005591 0.004713 -0.001998
# 4 0.002652 0.004188 -0.005591 0.058449 -0.038608 0.011143
# 5 -0.000710 -0.004815 0.004713 -0.038608 0.060030 -0.011814
# 6 0.004919 0.003705 -0.001998 0.011143 -0.011814 0.025990
#
#
# Mechanical properties :
#
#
# Convention : Reuss Voigt Hill
#
# Bulk Modulus (GPa) = 43.61369 53.24531 48.42950
# Shear Modulus (GPa) = 22.70992 34.34183 28.52587
#
# Velocity S-wave (km/s) = 3.14614 3.86886 3.52607
# Velocity P-wave (km/s) = 5.67511 6.56998 6.13887
#
# Compressibility (1/GPa) = 0.02292858
#
# Stress axis : x y z
#
# Youngs Moduli (GPa) = 61.25690 71.27397 66.06008
#
# Poissons Ratio (x) = 0.41816 -0.05424
# Poissons Ratio (y) = 0.35939 0.41197
# Poissons Ratio (z) = -0.05029 0.44448
#
# Static dielectric constant tensor:
#      x y z
#    x 1.919590 0.039780 0.020330 
#    y 0.039780 1.907900 0.043500 
#    z 0.020330 0.043500 1.936650 
# 
# From -- ./inp_files/323192.got.cif
#   From: 2010.05.17/outbox.cif.g08.bks.cpg/sg2_162_cif.got.tgz:323192.got - 2010.06.03 11:33:40.
