data_PCOD9067931
_publ_section_title
;
Structure prediction by ZEFSAII (Michael W. Deem and Ramdas Pophale) SiO2 
 PCOD9067931
Probable space group: P -1
;
_chemical_formula_sum "Si O2"
_cell_formula_units_Z 16
_cell_length_a 19.676132
_cell_length_b 9.954003
_cell_length_c 12.229154
_cell_angle_alpha 126.319660
_cell_angle_beta 151.577689
_cell_angle_gamma 39.948324
_cell_volume 705.207013
_symmetry_space_group_name_H-M "P -1"
_symmetry_group_IT_number 2
_symmetry_cell_setting 'triclinic'
loop_
_space_group_symop_operation_xyz
x,y,z
-x,-y,-z
loop_
_atom_site_type_symbol
_atom_site_label
_atom_site_fract_x
_atom_site_fract_y
_atom_site_fract_z
Si Si1 0.367117 0.445424 0.111715
Si Si2 0.384846 0.614530 0.002843
Si Si3 0.991455 0.201487 0.099592
Si Si4 0.401710 0.943206 0.624281
Si Si5 0.515334 0.882156 0.353927
Si Si6 0.998362 0.189675 0.546813
Si Si7 0.192565 0.255134 0.684111
Si Si8 0.042633 0.487341 0.182997
O O1 0.451211 0.476175 0.141486
O O2 0.512234 0.301884 0.344579
O O3 0.165560 0.667006 0.964901
O O4 0.321705 0.289192 0.943391
O O5 0.392020 0.806705 0.133055
O O6 0.500000 0.500000 0.000000
O O7 0.192493 0.667192 0.724544
O O8 0.944386 0.395732 0.050527
O O9 0.212141 0.063460 0.348404
O O10 0.000000 0.000000 0.000000
O O11 0.525952 0.968935 0.736725
O O12 0.308710 0.106005 0.674135
O O13 0.733537 0.670032 0.558913
O O14 0.500000 0.000000 0.500000
O O15 0.014838 0.307662 0.727474
O O16 0.148072 0.135291 0.643165
O O17 0.000000 0.000000 0.500000
O O18 0.000000 0.500000 0.500000
O O19 0.000000 0.500000 0.000000
#
# Coordination Sequence:
#
# PCOD9067931 Si02
#       8
#     2   2   2   2   2   2   2   2
#     4  12  26  43  77 104 143 189 241 305 366 432
#     4  12  26  46  69 106 150 183 246 304 369 438
#     4  11  26  48  73 102 144 191 248 302 360 443
#     4  11  26  46  74 106 141 192 246 298 375 433
#     4  11  27  46  72 104 150 192 240 306 367 440
#     4  12  27  44  77 108 143 196 243 306 373 437
#     4  12  21  47  72 103 145 186 239 305 366 435
#     4  11  26  49  73 104 149 195 240 303 376 439
#
# _framework density 22.688372999999999
#
# number of rings (size 3 to 8) (size 9 to 14) (size 15 to 20)
#    0.000    0.500    5.000    1.875   10.500    2.500 
#    0.000    0.000    0.000    0.000    0.000    0.000 
#    0.000    0.000    0.000    0.000    0.000    0.000 
#
# Total GULP energy -89183.892546 kJ/mol
# GULP energy per Si atom -5573.993284 kJ/mol
# Density = 2.263673 g / cm^3
# Si number density = 22.688373 Si / 1000 Ang^3
#
#
#
# Elastic Constant Matrix: (Units=GPa)
#
#
# Indices 1 2 3 4 5 6 
#
# 1 178.6981 92.4967 23.8381 5.0290 -17.6128 -18.1516
# 2 92.4967 145.3403 30.6110 1.2854 -25.0829 -33.9051
# 3 23.8381 30.6110 50.4825 20.4174 1.2644 6.6866
# 4 5.0290 1.2854 20.4174 81.9324 21.0737 45.8760
# 5 -17.6128 -25.0829 1.2644 21.0737 47.1295 36.7382
# 6 -18.1516 -33.9051 6.6866 45.8760 36.7382 126.7497
#
#
#
# Elastic Compliance Matrix: (Units=1/GPa)
#
#
# Indices 1 2 3 4 5 6 
#
# 1 0.008400 -0.005113 -0.000725 -0.000321 0.000761 -0.000231
# 2 -0.005113 0.012300 -0.005145 -0.000638 0.003454 0.002060
# 3 -0.000725 -0.005145 0.025707 -0.005804 -0.000685 -0.000537
# 4 -0.000321 -0.000638 -0.005804 0.017600 -0.004235 -0.005053
# 5 0.000761 0.003454 -0.000685 -0.004235 0.030003 -0.006095
# 6 -0.000231 0.002060 -0.000537 -0.005053 -0.006095 0.012031
#
#
# Mechanical properties :
#
#
# Convention : Reuss Voigt Hill
#
# Bulk Modulus (GPa) = 40.91471 74.26807 57.59139
# Shear Modulus (GPa) = 36.72327 66.33399 51.52863
#
# Velocity S-wave (km/s) = 4.02754 5.41299 4.77083
# Velocity P-wave (km/s) = 6.30084 8.47776 7.46903
#
# Compressibility (1/GPa) = 0.02444108
#
# Stress axis : x y z
#
# Youngs Moduli (GPa) = 119.05126 81.30085 38.90049
#
# Poissons Ratio (x) = 0.41567 0.02819
# Poissons Ratio (y) = 0.60868 0.20015
# Poissons Ratio (z) = 0.08628 0.41830
#
# Static dielectric constant tensor:
#      x y z
#    x 1.439680 -0.030640 -0.783670 
#    y -0.030640 1.831280 -0.140260 
#    z -0.783670 -0.140260 0.627060 
# 
# From -- ./inp_files/403597.got.cif
#   From: 2010.05.17/outbox.cif.g08.bks.cpg/sg2_202_cif.got.tgz:403597.got - 2010.06.03 11:33:40.
