data_PCOD9067037
_publ_section_title
;
Structure prediction by ZEFSAII (Michael W. Deem and Ramdas Pophale) SiO2 
 PCOD9067037
Probable space group: P -1
;
_chemical_formula_sum "Si O2"
_cell_formula_units_Z 13
_cell_length_a 12.111261
_cell_length_b 22.277152
_cell_length_c 9.403884
_cell_angle_alpha 153.779313
_cell_angle_beta 142.048973
_cell_angle_gamma 29.934350
_cell_volume 558.683539
_symmetry_space_group_name_H-M "P -1"
_symmetry_group_IT_number 2
_symmetry_cell_setting 'triclinic'
loop_
_space_group_symop_operation_xyz
x,y,z
-x,-y,-z
loop_
_atom_site_type_symbol
_atom_site_label
_atom_site_fract_x
_atom_site_fract_y
_atom_site_fract_z
Si Si1 0.845391 0.999341 0.642547
Si Si2 0.969806 0.542263 0.225461
Si Si3 0.379484 0.909167 0.689453
Si Si4 0.664449 0.565511 0.415102
Si Si5 0.842648 0.912967 0.887882
Si Si6 0.500000 0.000000 0.500000
Si Si7 0.781243 0.386953 0.877867
O O1 0.040022 0.804039 0.392824
O O2 0.709891 0.087281 0.547646
O O3 0.679225 0.006241 0.599582
O O4 0.964761 0.087123 0.993237
O O5 0.893473 0.731107 0.561114
O O6 0.194238 0.432574 0.311596
O O7 0.809342 0.503948 0.052941
O O8 0.000000 0.500000 0.000000
O O9 0.547893 0.726177 0.536653
O O10 0.500000 0.000000 0.000000
O O11 0.184513 0.011071 0.823012
O O12 0.466995 0.561692 0.268683
O O13 0.816477 0.413634 0.135880
O O14 0.609424 0.021439 0.800854
#
# Coordination Sequence:
#
# PCOD9067037 Si02
#       7
#     2   2   2   2   2   1   2
#     4  12  26  48  78 109 146 191 252 302 366 433
#     4  12  28  47  71 106 150 196 241 295 369 440
#     4  12  23  45  78 109 145 191 245 307 362 431
#     4  11  26  46  74 108 146 188 243 304 366 427
#     4  12  27  46  76 108 146 194 249 304 362 437
#     4  12  28  48  74 104 152 190 248 298 366 426
#     4  11  25  47  76 106 145 190 240 306 363 435
#
# _framework density 23.268985000000001
#
# number of rings (size 3 to 8) (size 9 to 14) (size 15 to 20)
#    0.000    0.308    3.077    5.077    6.462    0.615 
#    0.000    0.000    0.000    0.000    0.000    0.000 
#    0.000    0.000    0.000    0.000    0.000    0.000 
#
# Total GULP energy -72602.529570 kJ/mol
# GULP energy per Si atom -5584.809967 kJ/mol
# Density = 2.321602 g / cm^3
# Si number density = 23.268985 Si / 1000 Ang^3
#
#
#
# Elastic Constant Matrix: (Units=GPa)
#
#
# Indices 1 2 3 4 5 6 
#
# 1 187.9488 39.3929 40.8434 -10.3389 28.2409 6.7884
# 2 39.3929 -3.9895 42.6484 -1.2233 -28.1278 -7.6769
# 3 40.8434 42.6484 73.8962 0.6857 27.6104 16.1141
# 4 -10.3389 -1.2233 0.6857 44.8234 -5.5969 3.8639
# 5 28.2409 -28.1278 27.6104 -5.5969 42.6435 -23.3207
# 6 6.7884 -7.6769 16.1141 3.8639 -23.3207 10.4323
#
#
#
# Elastic Compliance Matrix: (Units=1/GPa)
#
#
# Indices 1 2 3 4 5 6 
#
# 1 0.006146 -0.000371 -0.004387 0.001239 0.000867 0.003983
# 2 -0.000371 0.013282 0.007163 0.001429 -0.016599 -0.038683
# 3 -0.004387 0.007163 0.008845 -0.000826 0.004792 0.005481
# 4 0.001239 0.001429 -0.000826 0.023206 0.000747 -0.005405
# 5 0.000867 -0.016599 0.004792 0.000747 0.010176 0.002291
# 6 0.003983 -0.038683 0.005481 -0.005405 0.002291 0.063456
#
#
# Mechanical properties :
#
#
# Convention : Reuss Voigt Hill
#
# Bulk Modulus (GPa) = 30.22582 55.95832 43.09207
# Shear Modulus (GPa) = 38.07242 28.57790 33.32516
#
# Velocity S-wave (km/s) = 4.04937 3.50830 3.78851
# Velocity P-wave (km/s) = 5.90603 6.36487 6.13974
#
# Compressibility (1/GPa) = 0.03308430
#
# Stress axis : x y z
#
# Youngs Moduli (GPa) = 162.71665 75.28764 113.05496
#
# Poissons Ratio (x) = 0.02791 0.49596
# Poissons Ratio (y) = 0.06031 -0.80982
# Poissons Ratio (z) = 0.71382 -0.53929
#
# Static dielectric constant tensor:
#      x y z
#    x 1.875970 -0.012290 -0.007180 
#    y -0.012290 1.883200 0.037980 
#    z -0.007180 0.037980 1.862010 
# 
# From -- ./inp_files/282581.got.cif
#   From: 2010.05.17/outbox.cif.g08.bks.cpg/sg2_142_cif.got.tgz:282581.got - 2010.06.03 11:33:40.
