data_PCOD9067866
_publ_section_title
;
Structure prediction by ZEFSAII (Michael W. Deem and Ramdas Pophale) SiO2 
 PCOD9067866
Probable space group: P -1
;
_chemical_formula_sum "Si O2"
_cell_formula_units_Z 16
_cell_length_a 9.140733
_cell_length_b 16.080685
_cell_length_c 9.961220
_cell_angle_alpha 106.239132
_cell_angle_beta 75.568217
_cell_angle_gamma 44.910689
_cell_volume 745.742148
_symmetry_space_group_name_H-M "P -1"
_symmetry_group_IT_number 2
_symmetry_cell_setting 'triclinic'
loop_
_space_group_symop_operation_xyz
x,y,z
-x,-y,-z
loop_
_atom_site_type_symbol
_atom_site_label
_atom_site_fract_x
_atom_site_fract_y
_atom_site_fract_z
Si Si1 0.304348 0.056999 0.185828
Si Si2 0.470629 0.135678 0.689963
Si Si3 0.095141 0.647298 0.181469
Si Si4 0.615586 0.627970 0.201819
Si Si5 0.983854 0.036082 0.174709
Si Si6 0.664242 0.634905 0.494446
Si Si7 0.925034 0.147897 0.707713
Si Si8 0.957759 0.381240 0.529870
O O1 0.107524 0.228063 0.359172
O O2 0.133196 0.055987 0.173488
O O3 0.481297 0.940418 0.220259
O O4 0.500000 0.000000 0.000000
O O5 0.359652 0.285171 0.814263
O O6 0.235997 0.205196 0.684481
O O7 0.763425 0.002559 0.487301
O O8 0.149084 0.720582 0.166021
O O9 0.179746 0.585048 0.285874
O O10 0.234876 0.512959 0.988978
O O11 0.729011 0.571636 0.301072
O O12 0.287206 0.768378 0.327110
O O13 0.660840 0.195514 0.352252
O O14 0.108861 0.905911 0.191251
O O15 0.000000 0.000000 0.000000
O O16 0.824118 0.647588 0.494450
O O17 0.752717 0.523743 0.535928
#
# Coordination Sequence:
#
# PCOD9067866 Si02
#       8
#     2   2   2   2   2   2   2   2
#     4  12  28  46  74 108 142 189 246 304 362 435
#     4  12  24  45  78 102 144 193 250 300 355 427
#     4  12  27  43  74 111 147 191 248 299 363 431
#     4  12  25  46  73 109 145 195 244 302 362 429
#     4  12  27  47  74 106 144 193 243 300 367 433
#     4  11  26  46  72 102 151 193 236 297 372 433
#     4  12  25  48  74 106 144 192 248 304 355 431
#     4  11  26  46  70 107 149 190 239 299 366 436
#
# _framework density 21.455138000000002
#
# number of rings (size 3 to 8) (size 9 to 14) (size 15 to 20)
#    0.000    0.250    5.000    3.000    7.000    1.500 
#    0.000    0.000    0.000    0.000    0.000    0.000 
#    0.000    0.000    0.000    0.000    0.000    0.000 
#
# Total GULP energy -89611.811514 kJ/mol
# GULP energy per Si atom -5600.738220 kJ/mol
# Density = 2.140631 g / cm^3
# Si number density = 21.455138 Si / 1000 Ang^3
#
#
#
# Elastic Constant Matrix: (Units=GPa)
#
#
# Indices 1 2 3 4 5 6 
#
# 1 99.5606 60.2234 23.1606 -2.1315 12.4069 20.1548
# 2 60.2234 129.1566 44.7111 -16.5733 19.6394 9.4823
# 3 23.1606 44.7111 109.0882 -13.9479 20.9086 23.1819
# 4 -2.1315 -16.5733 -13.9479 31.2481 0.0269 7.0397
# 5 12.4069 19.6394 20.9086 0.0269 37.7455 10.2335
# 6 20.1548 9.4823 23.1819 7.0397 10.2335 42.1571
#
#
#
# Elastic Compliance Matrix: (Units=1/GPa)
#
#
# Indices 1 2 3 4 5 6 
#
# 1 0.015369 -0.007116 0.000835 -0.001003 -0.000186 -0.005994
# 2 -0.007116 0.013062 -0.003087 0.004570 -0.003351 0.002211
# 3 0.000835 -0.003087 0.013295 0.005935 -0.004139 -0.007002
# 4 -0.001003 0.004570 0.005935 0.039192 -0.002736 -0.009693
# 5 -0.000186 -0.003351 -0.004139 -0.002736 0.031710 -0.004122
# 6 -0.005994 0.002211 -0.007002 -0.009693 -0.004122 0.032558
#
#
# Mechanical properties :
#
#
# Convention : Reuss Voigt Hill
#
# Bulk Modulus (GPa) = 43.49468 65.99950 54.74709
# Shear Modulus (GPa) = 29.13986 36.21082 32.67534
#
# Velocity S-wave (km/s) = 3.68934 4.11268 3.90675
# Velocity P-wave (km/s) = 6.20199 7.30620 6.77662
#
# Compressibility (1/GPa) = 0.02299132
#
# Stress axis : x y z
#
# Youngs Moduli (GPa) = 65.06495 76.55543 75.21714
#
# Poissons Ratio (x) = 0.54474 -0.06277
# Poissons Ratio (y) = 0.46298 0.23216
# Poissons Ratio (z) = -0.05430 0.23629
#
# Static dielectric constant tensor:
#      x y z
#    x 1.796190 -0.005020 -0.016060 
#    y -0.005020 1.746770 0.011030 
#    z -0.016060 0.011030 1.771140 
# 
# From -- ./inp_files/207645.got.cif
#   From: 2010.05.17/outbox.cif.g08.bks.cpg/sg2_104_cif.got.tgz:207645.got - 2010.06.03 11:33:40.
