data_PCOD9067971
_publ_section_title
;
Structure prediction by ZEFSAII (Michael W. Deem and Ramdas Pophale) SiO2 
 PCOD9067971
Probable space group: P -1
;
_chemical_formula_sum "Si O2"
_cell_formula_units_Z 12
_cell_length_a 8.302722
_cell_length_b 13.011977
_cell_length_c 5.283236
_cell_angle_alpha 107.979349
_cell_angle_beta 111.319699
_cell_angle_gamma 93.871966
_cell_volume 495.232627
_symmetry_space_group_name_H-M "P -1"
_symmetry_group_IT_number 2
_symmetry_cell_setting 'triclinic'
loop_
_space_group_symop_operation_xyz
x,y,z
-x,-y,-z
loop_
_atom_site_type_symbol
_atom_site_label
_atom_site_fract_x
_atom_site_fract_y
_atom_site_fract_z
Si Si1 0.557455 0.876528 0.069316
Si Si2 0.570652 0.296694 0.774714
Si Si3 0.175302 0.469209 0.964339
Si Si4 0.283756 0.905052 0.532602
Si Si5 0.937252 0.894017 0.057360
Si Si6 0.209932 0.334614 0.379564
O O1 0.503740 0.751930 0.037058
O O2 0.736655 0.889761 0.022199
O O3 0.626138 0.968525 0.394856
O O4 0.381089 0.899866 0.853526
O O5 0.665971 0.199873 0.657505
O O6 0.397293 0.305411 0.528312
O O7 0.693038 0.415961 0.933144
O O8 0.155392 0.400936 0.639447
O O9 0.232288 0.401148 0.179617
O O10 0.000000 0.500000 0.000000
O O11 0.075873 0.896451 0.369092
O O12 0.931364 0.778950 0.822523
O O13 0.000000 0.000000 0.000000
#
# Coordination Sequence:
#
# PCOD9067971 Si02
#       6
#     2   2   2   2   2   2
#     4  11  26  49  74 116 160 204 264 320 396 464
#     4  12  26  48  80 107 158 208 260 324 397 461
#     4  12  29  52  79 116 155 206 268 327 390 470
#     4  11  26  46  76 112 157 203 262 318 394 464
#     4  12  27  48  78 116 157 207 261 323 396 466
#     4  12  27  52  77 115 158 203 265 325 392 469
#
# _framework density 24.231037000000001
#
# number of rings (size 3 to 8) (size 9 to 14) (size 15 to 20)
#    0.000    0.333    1.667    5.500    7.000    2.667 
#    6.000    0.000    0.000    0.000    0.000    0.000 
#    0.000    0.000    0.000    0.000    0.000    0.000 
#
# Total GULP energy -67133.158460 kJ/mol
# GULP energy per Si atom -5594.429872 kJ/mol
# Density = 2.417589 g / cm^3
# Si number density = 24.231037 Si / 1000 Ang^3
#
#
#
# Elastic Constant Matrix: (Units=GPa)
#
#
# Indices 1 2 3 4 5 6 
#
# 1 117.0130 73.8125 62.5037 12.5337 3.8562 -3.3131
# 2 73.8125 189.4729 76.4643 4.4725 12.0405 27.9338
# 3 62.5037 76.4643 148.1748 29.4103 10.6989 4.8907
# 4 12.5337 4.4725 29.4103 42.8210 -10.6595 4.8253
# 5 3.8562 12.0405 10.6989 -10.6595 53.6869 2.0389
# 6 -3.3131 27.9338 4.8907 4.8253 2.0389 53.3929
#
#
#
# Elastic Compliance Matrix: (Units=1/GPa)
#
#
# Indices 1 2 3 4 5 6 
#
# 1 0.013263 -0.004400 -0.003135 -0.001619 0.000202 0.003551
# 2 -0.004400 0.008947 -0.003179 0.003025 -0.000269 -0.004926
# 3 -0.003135 -0.003179 0.011341 -0.007381 -0.002833 0.001205
# 4 -0.001619 0.003025 -0.007381 0.030827 0.007184 -0.004067
# 5 0.000202 -0.000269 -0.002833 0.007184 0.020702 -0.001027
# 6 0.003551 -0.004926 0.001205 -0.004067 -0.001027 0.021823
#
#
# Mechanical properties :
#
#
# Convention : Reuss Voigt Hill
#
# Bulk Modulus (GPa) = 82.48225 97.80243 90.14234
# Shear Modulus (GPa) = 37.77197 46.10550 41.93874
#
# Velocity S-wave (km/s) = 3.95248 4.36678 4.16478
# Velocity P-wave (km/s) = 7.41237 8.11635 7.77234
#
# Compressibility (1/GPa) = 0.01212382
#
# Stress axis : x y z
#
# Youngs Moduli (GPa) = 75.39565 111.77071 88.17192
#
# Poissons Ratio (x) = 0.49180 0.27638
# Poissons Ratio (y) = 0.33175 0.28032
# Poissons Ratio (z) = 0.23633 0.35535
#
# Static dielectric constant tensor:
#      x y z
#    x 1.962150 -0.044630 -0.126310 
#    y -0.044630 2.033680 0.059960 
#    z -0.126310 0.059960 2.061010 
# 
# From -- ./inp_files/28813.got.cif
#   From: 2010.05.17/outbox.cif.g08.bks.cpg/sg2_15_cif.got.tgz:28813.got - 2010.06.03 11:33:40.
