data_PCOD9067198
_publ_section_title
;
Structure prediction by ZEFSAII (Michael W. Deem and Ramdas Pophale) SiO2 
 PCOD9067198
Probable space group: P -1
;
_chemical_formula_sum "Si O2"
_cell_formula_units_Z 16
_cell_length_a 11.747699
_cell_length_b 13.866264
_cell_length_c 6.643661
_cell_angle_alpha 91.904502
_cell_angle_beta 50.743496
_cell_angle_gamma 67.139297
_cell_volume 710.657257
_symmetry_space_group_name_H-M "P -1"
_symmetry_group_IT_number 2
_symmetry_cell_setting 'triclinic'
loop_
_space_group_symop_operation_xyz
x,y,z
-x,-y,-z
loop_
_atom_site_type_symbol
_atom_site_label
_atom_site_fract_x
_atom_site_fract_y
_atom_site_fract_z
Si Si1 0.569259 0.129702 0.453939
Si Si2 0.318133 0.306918 0.421334
Si Si3 0.169253 0.038277 0.170643
Si Si4 0.328100 0.505243 0.609918
Si Si5 0.694221 0.388872 0.739824
Si Si6 0.771255 0.150700 0.585907
Si Si7 0.934496 0.441261 0.735857
Si Si8 0.615524 0.878834 0.968599
O O1 0.427953 0.225193 0.474009
O O2 0.672361 0.165241 0.490071
O O3 0.463197 0.102087 0.723500
O O4 0.707271 0.026672 0.158201
O O5 0.350378 0.409017 0.421002
O O6 0.380799 0.226218 0.148665
O O7 0.112185 0.359241 0.651206
O O8 0.198308 0.135580 0.229019
O O9 0.974705 0.094033 0.322420
O O10 0.226818 0.941230 0.270695
O O11 0.500000 0.500000 0.500000
O O12 0.250370 0.613527 0.555896
O O13 0.211289 0.498238 0.918010
O O14 0.697240 0.274100 0.773333
O O15 0.837580 0.393345 0.712090
O O16 0.500000 0.500000 0.000000
O O17 0.000000 0.500000 0.500000
O O18 0.500000 0.000000 0.000000
#
# Coordination Sequence:
#
# PCOD9067198 Si02
#       8
#     2   2   2   2   2   2   2   2
#     4  12  25  43  78 104 148 191 250 309 376 450
#     4  12  28  44  76 110 149 196 251 310 388 448
#     4  11  25  48  73 107 150 194 253 309 375 451
#     4  12  27  50  77 113 149 200 255 307 382 466
#     4  12  27  47  78 107 154 202 255 315 385 457
#     4  11  26  47  73 107 151 196 250 312 379 446
#     4  12  28  49  76 110 156 196 253 318 375 454
#     4  12  25  47  71 108 145 193 245 306 375 448
#
# _framework density 22.51437
#
# number of rings (size 3 to 8) (size 9 to 14) (size 15 to 20)
#    0.000    0.250    5.000    2.625    5.250    2.000 
#    0.000    0.000    0.000    0.000    0.000    0.000 
#    0.000    0.000    0.000    0.000    0.000    0.000 
#
# Total GULP energy -89309.147584 kJ/mol
# GULP energy per Si atom -5581.821724 kJ/mol
# Density = 2.246313 g / cm^3
# Si number density = 22.514370 Si / 1000 Ang^3
#
#
#
# Elastic Constant Matrix: (Units=GPa)
#
#
# Indices 1 2 3 4 5 6 
#
# 1 210.2256 53.3287 60.1000 12.7825 -13.2096 16.9697
# 2 53.3287 65.8580 46.5577 11.5041 -11.2548 9.0105
# 3 60.1000 46.5577 122.0100 -5.5276 -10.1510 -0.9073
# 4 12.7825 11.5041 -5.5276 30.1589 -5.0742 0.1165
# 5 -13.2096 -11.2548 -10.1510 -5.0742 39.0422 -0.1689
# 6 16.9697 9.0105 -0.9073 0.1165 -0.1689 41.6710
#
#
#
# Elastic Compliance Matrix: (Units=1/GPa)
#
#
# Indices 1 2 3 4 5 6 
#
# 1 0.006427 -0.003078 -0.002046 -0.001831 0.000508 -0.001989
# 2 -0.003078 0.026993 -0.009023 -0.010112 0.003059 -0.004739
# 3 -0.002046 -0.009023 0.013065 0.006861 0.001008 0.003054
# 4 -0.001831 -0.010112 0.006861 0.039611 0.003410 0.002985
# 5 0.000508 0.003059 0.001008 0.003410 0.027369 -0.000745
# 6 -0.001989 -0.004739 0.003054 0.002985 -0.000745 0.025887
#
#
# Mechanical properties :
#
#
# Convention : Reuss Voigt Hill
#
# Bulk Modulus (GPa) = 54.97818 79.78514 67.38166
# Shear Modulus (GPa) = 28.78363 38.04823 33.41593
#
# Velocity S-wave (km/s) = 3.57943 4.11536 3.85672
# Velocity P-wave (km/s) = 6.44634 7.62207 7.05873
#
# Compressibility (1/GPa) = 0.01818904
#
# Stress axis : x y z
#
# Youngs Moduli (GPa) = 155.60399 37.04664 76.54318
#
# Poissons Ratio (x) = 0.11404 0.15664
# Poissons Ratio (y) = 0.47900 0.69063
# Poissons Ratio (z) = 0.31843 0.33426
#
# Static dielectric constant tensor:
#      x y z
#    x 1.833660 0.034040 -0.019000 
#    y 0.034040 1.883770 0.000020 
#    z -0.019000 0.000020 1.872590 
# 
# From -- ./inp_files/77728.got.cif
#   From: 2010.05.17/outbox.cif.g08.bks.cpg/sg2_39_cif.got.tgz:77728.got - 2010.06.03 11:33:40.
