data_PCOD9067879
_publ_section_title
;
Structure prediction by ZEFSAII (Michael W. Deem and Ramdas Pophale) SiO2 
 PCOD9067879
Probable space group: P -1
;
_chemical_formula_sum "Si O2"
_cell_formula_units_Z 12
_cell_length_a 9.435385
_cell_length_b 5.575399
_cell_length_c 14.414396
_cell_angle_alpha 57.828768
_cell_angle_beta 83.629851
_cell_angle_gamma 53.454853
_cell_volume 491.407960
_symmetry_space_group_name_H-M "P -1"
_symmetry_group_IT_number 2
_symmetry_cell_setting 'triclinic'
loop_
_space_group_symop_operation_xyz
x,y,z
-x,-y,-z
loop_
_atom_site_type_symbol
_atom_site_label
_atom_site_fract_x
_atom_site_fract_y
_atom_site_fract_z
Si Si1 0.683318 0.665792 0.605999
Si Si2 0.337587 0.102306 0.059782
Si Si3 0.031899 0.056921 0.089257
Si Si4 0.932637 0.795777 0.322097
Si Si5 0.177538 0.681173 0.611803
Si Si6 0.586087 0.151783 0.688564
O O1 0.691872 0.314431 0.663539
O O2 0.873498 0.540441 0.574144
O O3 0.500000 0.000000 0.500000
O O4 0.666354 0.837861 0.671716
O O5 0.241181 0.914979 0.099981
O O6 0.412691 0.011118 0.178677
O O7 0.148265 0.515123 0.969137
O O8 0.500000 0.000000 0.000000
O O9 0.003277 0.862812 0.210659
O O10 0.000000 0.000000 0.000000
O O11 0.824072 0.658592 0.324138
O O12 0.836557 0.148142 0.322267
O O13 0.380728 0.501273 0.598977
O O14 0.000000 0.000000 0.500000
#
# Coordination Sequence:
#
# PCOD9067879 Si02
#       6
#     2   2   2   2   2   2
#     4  12  24  44  71 100 138 184 230 288 351 422
#     4  11  26  46  71 104 142 189 239 298 360 424
#     4  11  26  46  72 103 142 188 240 296 360 429
#     4  12  25  45  72 101 143 184 234 292 358 421
#     4  12  26  46  72 105 142 186 234 292 358 425
#     4  12  25  45  68 105 140 178 239 289 348 430
#
# _framework density 24.419627999999999
#
# number of rings (size 3 to 8) (size 9 to 14) (size 15 to 20)
#    0.000    0.333    1.667    7.000    7.000    0.667 
#    0.000    0.000    0.000    0.000    0.000    0.000 
#    0.000    0.000    0.000    0.000    0.000    0.000 
#
# Total GULP energy -67073.930015 kJ/mol
# GULP energy per Si atom -5589.494168 kJ/mol
# Density = 2.436405 g / cm^3
# Si number density = 24.419628 Si / 1000 Ang^3
#
#
#
# Elastic Constant Matrix: (Units=GPa)
#
#
# Indices 1 2 3 4 5 6 
#
# 1 180.6362 66.4051 30.4579 23.8751 -10.3992 13.0394
# 2 66.4051 162.2604 37.0402 33.6467 -1.6569 14.4582
# 3 30.4579 37.0402 79.8358 19.4704 -1.7573 16.4957
# 4 23.8751 33.6467 19.4704 44.1128 -8.1832 11.4309
# 5 -10.3992 -1.6569 -1.7573 -8.1832 34.2766 -2.2154
# 6 13.0394 14.4582 16.4957 11.4309 -2.2154 57.8542
#
#
#
# Elastic Compliance Matrix: (Units=1/GPa)
#
#
# Indices 1 2 3 4 5 6 
#
# 1 0.006824 -0.002254 -0.001190 -0.001053 0.001625 -0.000365
# 2 -0.002254 0.008490 -0.001943 -0.004622 -0.001490 -0.000204
# 3 -0.001190 -0.001943 0.015458 -0.004106 -0.000828 -0.002874
# 4 -0.001053 -0.004622 -0.004106 0.030592 0.006341 -0.003238
# 5 0.001625 -0.001490 -0.000828 0.006341 0.031078 0.000179
# 6 -0.000365 -0.000204 -0.002874 -0.003238 0.000179 0.018884
#
#
# Mechanical properties :
#
#
# Convention : Reuss Voigt Hill
#
# Bulk Modulus (GPa) = 50.00003 76.72653 63.36328
# Shear Modulus (GPa) = 38.83000 46.50400 42.66700
#
# Velocity S-wave (km/s) = 3.99195 4.36864 4.18454
# Velocity P-wave (km/s) = 6.46277 7.54553 7.02504
#
# Compressibility (1/GPa) = 0.01999999
#
# Stress axis : x y z
#
# Youngs Moduli (GPa) = 146.53632 117.78400 64.69167
#
# Poissons Ratio (x) = 0.26545 0.07697
# Poissons Ratio (y) = 0.33025 0.12568
# Poissons Ratio (z) = 0.17435 0.22882
#
# Static dielectric constant tensor:
#      x y z
#    x 1.956580 0.062760 -0.020460 
#    y 0.062760 1.962920 -0.109560 
#    z -0.020460 -0.109560 2.129860 
# 
# From -- ./inp_files/27999.got.cif
#   From: 2010.05.17/outbox.cif.g08.bks.cpg/sg2_14_cif.got.tgz:27999.got - 2010.06.03 11:33:40.
