data_PCOD9067696
_publ_section_title
;
Structure prediction by ZEFSAII (Michael W. Deem and Ramdas Pophale) SiO2 
 PCOD9067696
Probable space group: P -1
;
_chemical_formula_sum "Si O2"
_cell_formula_units_Z 16
_cell_length_a 10.861409
_cell_length_b 13.783791
_cell_length_c 17.717091
_cell_angle_alpha 30.448206
_cell_angle_beta 50.839919
_cell_angle_gamma 34.133342
_cell_volume 722.119336
_symmetry_space_group_name_H-M "P -1"
_symmetry_group_IT_number 2
_symmetry_cell_setting 'triclinic'
loop_
_space_group_symop_operation_xyz
x,y,z
-x,-y,-z
loop_
_atom_site_type_symbol
_atom_site_label
_atom_site_fract_x
_atom_site_fract_y
_atom_site_fract_z
Si Si1 0.562528 0.164066 0.786919
Si Si2 0.781710 0.667942 0.683112
Si Si3 0.048144 0.639972 0.335297
Si Si4 0.494870 0.589292 0.618661
Si Si5 0.107290 0.379653 0.889611
Si Si6 0.166328 0.920326 0.645935
Si Si7 0.643404 0.206180 0.181062
Si Si8 0.196475 0.034551 0.316852
O O1 0.541027 0.399867 0.661960
O O2 0.331932 0.272883 0.835032
O O3 0.598875 0.092364 0.733566
O O4 0.789744 0.883006 0.926742
O O5 0.878833 0.480171 0.696760
O O6 0.803521 0.877238 0.517060
O O7 0.529363 0.807241 0.709276
O O8 0.934463 0.481941 0.821049
O O9 0.266999 0.542838 0.355386
O O10 0.000000 0.500000 0.500000
O O11 0.822090 0.965451 0.213012
O O12 0.361684 0.637868 0.712400
O O13 0.312659 0.888593 0.449382
O O14 0.982790 0.640377 0.817158
O O15 0.210954 0.852624 0.762658
O O16 0.934157 0.033140 0.625108
O O17 0.500000 0.500000 0.000000
#
# Coordination Sequence:
#
# PCOD9067696 Si02
#       8
#     2   2   2   2   2   2   2   2
#     4  11  26  44  67 107 144 183 235 295 353 425
#     4  12  26  47  76 103 146 192 237 294 354 426
#     4  12  27  46  74 107 141 188 241 294 350 427
#     4  12  24  45  74 102 139 184 239 292 352 419
#     4  11  26  46  69 102 148 186 232 293 363 415
#     4  12  23  47  75 105 146 185 236 297 352 422
#     4  12  29  49  74 107 145 190 240 293 361 421
#     4  12  25  45  75 104 138 189 238 291 356 420
#
# _framework density 22.157001999999999
#
# number of rings (size 3 to 8) (size 9 to 14) (size 15 to 20)
#    0.000    0.250    5.000    3.750    5.250    1.500 
#    0.000    0.000    0.000    0.000    0.000    0.000 
#    0.000    0.000    0.000    0.000    0.000    0.000 
#
# Total GULP energy -89485.310733 kJ/mol
# GULP energy per Si atom -5592.831921 kJ/mol
# Density = 2.210657 g / cm^3
# Si number density = 22.157002 Si / 1000 Ang^3
#
#
#
# Elastic Constant Matrix: (Units=GPa)
#
#
# Indices 1 2 3 4 5 6 
#
# 1 217.9718 53.5724 59.2293 12.0116 -7.3167 -55.2752
# 2 53.5724 128.7990 11.9806 -13.9380 -19.6953 26.9110
# 3 59.2293 11.9806 85.7776 -16.2377 -9.1488 -7.6375
# 4 12.0116 -13.9380 -16.2377 38.7780 -4.1617 2.2449
# 5 -7.3167 -19.6953 -9.1488 -4.1617 17.3410 39.4122
# 6 -55.2752 26.9110 -7.6375 2.2449 39.4122 23.7581
#
#
#
# Elastic Compliance Matrix: (Units=1/GPa)
#
#
# Indices 1 2 3 4 5 6 
#
# 1 0.004855 0.000132 -0.003110 -0.001648 0.008393 -0.003622
# 2 0.000132 0.005521 -0.001053 0.000384 -0.007303 0.005793
# 3 -0.003110 -0.001053 0.015135 0.006219 -0.003964 0.004811
# 4 -0.001648 0.000384 0.006219 0.027795 -0.007516 0.007571
# 5 0.008393 -0.007303 -0.003964 -0.007516 0.004650 0.019522
# 6 -0.003622 0.005793 0.004811 0.007571 0.019522 -0.004451
#
#
# Mechanical properties :
#
#
# Convention : Reuss Voigt Hill
#
# Bulk Modulus (GPa) = 57.30710 75.79032 66.54871
# Shear Modulus (GPa) = 74.20233 36.49315 55.34774
#
# Velocity S-wave (km/s) = 5.79328 4.06276 5.00340
# Velocity P-wave (km/s) = 8.40652 7.50255 7.96737
#
# Compressibility (1/GPa) = 0.01744985
#
# Stress axis : x y z
#
# Youngs Moduli (GPa) = 205.99363 181.11195 66.07154
#
# Poissons Ratio (x) = -0.02387 0.20547
# Poissons Ratio (y) = -0.02715 0.06955
# Poissons Ratio (z) = 0.64059 0.19065
#
# Static dielectric constant tensor:
#      x y z
#    x 4.346190 -1.774060 0.681350 
#    y -1.774060 3.023270 -0.480160 
#    z 0.681350 -0.480160 2.021800 
# 
# From -- ./inp_files/569937.got.cif
#   From: 2010.05.17/outbox.cif.g08.bks.cpg/sg2_285_cif.got.tgz:569937.got - 2010.06.03 11:33:40.
