data_PCOD9067730
_publ_section_title
;
Structure prediction by ZEFSAII (Michael W. Deem and Ramdas Pophale) SiO2 
 PCOD9067730
Probable space group: P -1
;
_chemical_formula_sum "Si O2"
_cell_formula_units_Z 12
_cell_length_a 5.410373
_cell_length_b 15.695285
_cell_length_c 12.505537
_cell_angle_alpha 152.695932
_cell_angle_beta 80.115891
_cell_angle_gamma 99.954997
_cell_volume 479.407015
_symmetry_space_group_name_H-M "P -1"
_symmetry_group_IT_number 2
_symmetry_cell_setting 'triclinic'
loop_
_space_group_symop_operation_xyz
x,y,z
-x,-y,-z
loop_
_atom_site_type_symbol
_atom_site_label
_atom_site_fract_x
_atom_site_fract_y
_atom_site_fract_z
Si Si1 0.034501 0.110606 0.733641
Si Si2 0.621090 0.301165 0.644933
Si Si3 0.287125 0.049647 0.241742
Si Si4 0.692170 0.333578 0.292695
Si Si5 0.993018 0.637787 0.491135
Si Si6 0.585850 0.306382 0.897572
O O1 0.803104 0.246976 0.892716
O O2 0.311462 0.207612 0.826760
O O3 0.961826 0.997943 0.720945
O O4 0.000000 0.000000 0.500000
O O5 0.487447 0.134155 0.404532
O O6 0.863345 0.373358 0.643123
O O7 0.661126 0.256610 0.715329
O O8 0.437720 0.473112 0.849152
O O9 0.215758 0.210006 0.342078
O O10 0.382473 0.864139 0.973555
O O11 0.500000 0.500000 0.500000
O O12 0.814251 0.295052 0.355470
O O13 0.899519 0.436722 0.316006
#
# Coordination Sequence:
#
# PCOD9067730 Si02
#       6
#     2   2   2   2   2   2
#     4  12  25  47  74 112 159 203 256 304 384 452
#     4  11  26  44  74 109 150 196 259 306 382 450
#     4  12  27  44  78 110 149 201 255 313 380 465
#     4  11  27  51  75 104 148 193 254 325 390 451
#     4  11  26  48  74 107 145 195 254 317 391 456
#     4  11  27  46  73 112 161 208 247 317 371 463
#
# _framework density 25.030925
#
# number of rings (size 3 to 8) (size 9 to 14) (size 15 to 20)
#    0.000    0.667    1.667    4.000    9.333    6.667 
#    0.000    0.000    0.000    0.000    0.000    0.000 
#    0.000    0.000    0.000    0.000    0.000    0.000 
#
# Total GULP energy -67276.292354 kJ/mol
# GULP energy per Si atom -5606.357696 kJ/mol
# Density = 2.497395 g / cm^3
# Si number density = 25.030925 Si / 1000 Ang^3
#
#
#
# Elastic Constant Matrix: (Units=GPa)
#
#
# Indices 1 2 3 4 5 6 
#
# 1 106.5361 40.6558 34.9496 -6.6179 2.3644 -9.7472
# 2 40.6558 120.3968 4.6146 6.2776 -2.5813 -5.6784
# 3 34.9496 4.6146 147.8809 3.0729 15.5454 -21.8892
# 4 -6.6179 6.2776 3.0729 24.0761 -0.5219 -8.8925
# 5 2.3644 -2.5813 15.5454 -0.5219 35.4494 11.0847
# 6 -9.7472 -5.6784 -21.8892 -8.8925 11.0847 53.7855
#
#
#
# Elastic Compliance Matrix: (Units=1/GPa)
#
#
# Indices 1 2 3 4 5 6 
#
# 1 0.012391 -0.004299 -0.002603 0.005490 -0.000459 0.001735
# 2 -0.004299 0.009941 0.000671 -0.003939 0.000739 -0.000260
# 3 -0.002603 0.000671 0.008442 -0.000629 -0.004709 0.003901
# 4 0.005490 -0.003939 -0.000629 0.047288 -0.002380 0.008632
# 5 -0.000459 0.000739 -0.004709 -0.002380 0.033186 -0.009154
# 6 0.001735 -0.000260 0.003901 0.008632 -0.009154 0.023781
#
#
# Mechanical properties :
#
#
# Convention : Reuss Voigt Hill
#
# Bulk Modulus (GPa) = 54.60794 59.47264 57.04029
# Shear Modulus (GPa) = 32.55352 42.30179 37.42766
#
# Velocity S-wave (km/s) = 3.61020 4.11540 3.87105
# Velocity P-wave (km/s) = 6.26431 6.81126 6.54350
#
# Compressibility (1/GPa) = 0.01831236
#
# Stress axis : x y z
#
# Youngs Moduli (GPa) = 80.70473 100.59654 118.45539
#
# Poissons Ratio (x) = 0.43243 0.30838
# Poissons Ratio (y) = 0.34692 -0.07953
# Poissons Ratio (z) = 0.21010 -0.06754
#
# Static dielectric constant tensor:
#      x y z
#    x 1.980880 0.049160 -0.065330 
#    y 0.049160 1.990780 0.019040 
#    z -0.065330 0.019040 1.998770 
# 
# From -- ./inp_files/97392.got.cif
#   From: 2010.05.17/outbox.cif.g08.bks.cpg/sg2_49_cif.got.tgz:97392.got - 2010.06.03 11:33:40.
