data_PCOD9067038
_publ_section_title
;
Structure prediction by ZEFSAII (Michael W. Deem and Ramdas Pophale) SiO2 
 PCOD9067038
Probable space group: P -1
;
_chemical_formula_sum "Si O2"
_cell_formula_units_Z 16
_cell_length_a 14.816475
_cell_length_b 8.857414
_cell_length_c 8.788787
_cell_angle_alpha 64.138290
_cell_angle_beta 137.313849
_cell_angle_gamma 102.834556
_cell_volume 694.436751
_symmetry_space_group_name_H-M "P -1"
_symmetry_group_IT_number 2
_symmetry_cell_setting 'triclinic'
loop_
_space_group_symop_operation_xyz
x,y,z
-x,-y,-z
loop_
_atom_site_type_symbol
_atom_site_label
_atom_site_fract_x
_atom_site_fract_y
_atom_site_fract_z
Si Si1 0.792058 0.656346 0.107635
Si Si2 0.963844 0.316045 0.085523
Si Si3 0.571145 0.846664 0.255892
Si Si4 0.533754 0.810903 0.559822
Si Si5 0.735383 0.264951 0.624606
Si Si6 0.943201 0.274163 0.434923
Si Si7 0.625305 0.570806 0.197596
Si Si8 0.165822 0.008521 0.381442
O O1 0.844169 0.455617 0.239256
O O2 0.688491 0.687540 0.106318
O O3 0.926558 0.727146 0.292769
O O4 0.690931 0.731722 0.814699
O O5 0.987605 0.268600 0.313999
O O6 0.811888 0.300976 0.856042
O O7 0.046580 0.166993 0.150964
O O8 0.000000 0.500000 0.000000
O O9 0.499830 0.820260 0.336575
O O10 0.584836 0.677221 0.250166
O O11 0.711589 0.903732 0.447910
O O12 0.500000 0.000000 0.000000
O O13 0.423413 0.719063 0.546394
O O14 0.500000 0.000000 0.500000
O O15 0.744849 0.418570 0.453759
O O16 0.792153 0.094778 0.676564
O O17 0.871387 0.123435 0.478716
O O18 0.500000 0.500000 0.000000
#
# Coordination Sequence:
#
# PCOD9067038 Si02
#       8
#     2   2   2   2   2   2   2   2
#     4  11  25  47  76 107 155 194 261 307 383 450
#     4  12  29  47  73 110 154 193 259 317 379 456
#     4  12  28  46  76 106 153 196 252 314 385 451
#     4  12  27  45  74 115 150 197 252 320 378 453
#     4  12  26  46  75 107 146 197 249 312 385 450
#     4  11  27  47  78 108 148 210 248 317 377 455
#     4  12  24  48  72 106 149 199 245 311 379 451
#     4  12  26  50  73 110 144 203 253 311 389 452
#
# _framework density 23.040254999999998
#
# number of rings (size 3 to 8) (size 9 to 14) (size 15 to 20)
#    0.000    0.250    3.750    4.500    8.750    0.500 
#    0.000    0.000    0.000    0.000    0.000    0.000 
#    0.000    0.000    0.000    0.000    0.000    0.000 
#
# Total GULP energy -89489.330899 kJ/mol
# GULP energy per Si atom -5593.083181 kJ/mol
# Density = 2.298781 g / cm^3
# Si number density = 23.040255 Si / 1000 Ang^3
#
#
#
# Elastic Constant Matrix: (Units=GPa)
#
#
# Indices 1 2 3 4 5 6 
#
# 1 96.7407 36.2060 16.2679 2.9102 -15.7485 -4.4048
# 2 36.2060 135.0984 32.4801 6.4644 -2.2252 -13.2585
# 3 16.2679 32.4801 118.3913 1.8550 6.0991 1.2915
# 4 2.9102 6.4644 1.8550 35.0459 -0.3933 1.8808
# 5 -15.7485 -2.2252 6.0991 -0.3933 35.9916 1.8783
# 6 -4.4048 -13.2585 1.2915 1.8808 1.8783 43.7580
#
#
#
# Elastic Compliance Matrix: (Units=1/GPa)
#
#
# Indices 1 2 3 4 5 6 
#
# 1 0.012558 -0.002951 -0.001195 -0.000383 0.005501 0.000186
# 2 -0.002951 0.008997 -0.002040 -0.001451 -0.000539 0.002575
# 3 -0.001195 -0.002040 0.009293 0.000009 -0.002176 -0.000920
# 4 -0.000383 -0.001451 0.000009 0.028927 0.000147 -0.001728
# 5 0.005501 -0.000539 -0.002176 0.000147 0.030573 -0.000864
# 6 0.000186 0.002575 -0.000920 -0.001728 -0.000864 0.023790
#
#
# Mechanical properties :
#
#
# Convention : Reuss Voigt Hill
#
# Bulk Modulus (GPa) = 54.13057 57.79316 55.96186
# Shear Modulus (GPa) = 37.68781 40.64422 39.16601
#
# Velocity S-wave (km/s) = 4.04881 4.20462 4.12745
# Velocity P-wave (km/s) = 6.73811 6.97924 6.85973
#
# Compressibility (1/GPa) = 0.01847385
#
# Stress axis : x y z
#
# Youngs Moduli (GPa) = 79.63155 111.15363 107.61315
#
# Poissons Ratio (x) = 0.32800 0.12864
# Poissons Ratio (y) = 0.23498 0.21956
# Poissons Ratio (z) = 0.09519 0.22678
#
# Static dielectric constant tensor:
#      x y z
#    x 1.914090 -0.095200 0.016340 
#    y -0.095200 1.717510 -0.102260 
#    z 0.016340 -0.102260 1.984920 
# 
# From -- ./inp_files/298040.got.cif
#   From: 2010.05.17/outbox.cif.g08.bks.cpg/sg2_150_cif.got.tgz:298040.got - 2010.06.03 11:33:40.
