data_PCOD9067136
_publ_section_title
;
Structure prediction by ZEFSAII (Michael W. Deem and Ramdas Pophale) SiO2 
 PCOD9067136
Probable space group: P -1
;
_chemical_formula_sum "Si O2"
_cell_formula_units_Z 15
_cell_length_a 11.810554
_cell_length_b 9.691029
_cell_length_c 9.109749
_cell_angle_alpha 47.230886
_cell_angle_beta 56.859814
_cell_angle_gamma 70.093128
_cell_volume 640.111124
_symmetry_space_group_name_H-M "P -1"
_symmetry_group_IT_number 2
_symmetry_cell_setting 'triclinic'
loop_
_space_group_symop_operation_xyz
x,y,z
-x,-y,-z
loop_
_atom_site_type_symbol
_atom_site_label
_atom_site_fract_x
_atom_site_fract_y
_atom_site_fract_z
Si Si1 0.918096 0.572604 0.868695
Si Si2 0.279125 0.251923 0.504910
Si Si3 0.001662 0.065710 0.779130
Si Si4 0.398116 0.423726 0.837616
Si Si5 0.000000 0.000000 0.500000
Si Si6 0.523694 0.200066 0.162433
Si Si7 0.816817 0.356317 0.825670
Si Si8 0.549534 0.789031 0.332996
O O1 0.912152 0.428603 0.839422
O O2 0.976690 0.778734 0.634423
O O3 0.759983 0.584543 0.012032
O O4 0.000000 0.500000 0.000000
O O5 0.420256 0.199404 0.370277
O O6 0.237546 0.460635 0.347034
O O7 0.306286 0.227899 0.674814
O O8 0.160849 0.122954 0.611662
O O9 0.899502 0.234098 0.744059
O O10 0.967336 0.950145 0.738893
O O11 0.000000 0.000000 0.000000
O O12 0.449112 0.626499 0.592191
O O13 0.434022 0.269641 0.803142
O O14 0.475487 0.364683 0.971367
O O15 0.506624 0.999516 0.237937
O O16 0.680890 0.240995 0.060349
#
# Coordination Sequence:
#
# PCOD9067136 Si02
#       8
#     2   2   2   2   1   2   2   2
#     4  12  28  48  77 110 157 203 256 319 390 461
#     4  12  24  48  74 107 152 197 257 317 389 460
#     4  12  28  49  77 115 155 207 265 316 391 471
#     4  11  25  48  69 112 155 190 251 321 379 455
#     4  12  28  50  74 114 154 202 258 318 374 468
#     4  12  24  49  79 107 148 201 258 315 388 461
#     4  12  25  48  80 110 154 205 253 323 390 459
#     4  11  26  42  75 111 146 198 252 314 383 465
#
# _framework density 23.433430999999999
#
# number of rings (size 3 to 8) (size 9 to 14) (size 15 to 20)
#    0.000    0.267    4.000    4.000    5.600    3.200 
#    2.400    0.000    0.000    0.000    0.000    0.000 
#    0.000    0.000    0.000    0.000    0.000    0.000 
#
# Total GULP energy -83711.399260 kJ/mol
# GULP energy per Si atom -5580.759951 kJ/mol
# Density = 2.338010 g / cm^3
# Si number density = 23.433431 Si / 1000 Ang^3
#
#
#
# Elastic Constant Matrix: (Units=GPa)
#
#
# Indices 1 2 3 4 5 6 
#
# 1 103.5552 36.5132 18.4631 10.3985 9.9967 6.3893
# 2 36.5132 138.6893 31.7997 16.1608 -4.7040 18.4617
# 3 18.4631 31.7997 57.3169 3.3652 16.4768 6.4271
# 4 10.3985 16.1608 3.3652 40.9855 1.5847 5.2839
# 5 9.9967 -4.7040 16.4768 1.5847 27.4587 -1.1060
# 6 6.3893 18.4617 6.4271 5.2839 -1.1060 30.3460
#
#
#
# Elastic Compliance Matrix: (Units=1/GPa)
#
#
# Indices 1 2 3 4 5 6 
#
# 1 0.011323 -0.002677 -0.000877 -0.001533 -0.003984 -0.000448
# 2 -0.002677 0.010354 -0.006161 -0.002666 0.006449 -0.003731
# 3 -0.000877 -0.006161 0.026104 0.001466 -0.016584 -0.002456
# 4 -0.001533 -0.002666 0.001466 0.026201 -0.002412 -0.003016
# 5 -0.003984 0.006449 -0.016584 -0.002412 0.049170 0.002640
# 6 -0.000448 -0.003731 -0.002456 -0.003016 0.002640 0.036459
#
#
# Mechanical properties :
#
#
# Convention : Reuss Voigt Hill
#
# Bulk Modulus (GPa) = 35.27094 52.56816 43.91955
# Shear Modulus (GPa) = 26.52653 33.94375 30.23514
#
# Velocity S-wave (km/s) = 3.36816 3.81007 3.59591
# Velocity P-wave (km/s) = 5.49639 6.46817 6.00198
#
# Compressibility (1/GPa) = 0.02835195
#
# Stress axis : x y z
#
# Youngs Moduli (GPa) = 88.31501 96.58279 38.30837
#
# Poissons Ratio (x) = 0.25854 0.03358
# Poissons Ratio (y) = 0.23641 0.23602
# Poissons Ratio (z) = 0.07742 0.59504
#
# Static dielectric constant tensor:
#      x y z
#    x 1.865960 0.025590 0.014430 
#    y 0.025590 1.841720 -0.015150 
#    z 0.014430 -0.015150 1.987400 
# 
# From -- ./inp_files/241883.got.cif
#   From: 2010.05.17/outbox.cif.g08.bks.cpg/sg2_121_cif.got.tgz:241883.got - 2010.06.03 11:33:40.
