data_PCOD9067193
_publ_section_title
;
Structure prediction by ZEFSAII (Michael W. Deem and Ramdas Pophale) SiO2 
 PCOD9067193
Probable space group: P -1
;
_chemical_formula_sum "Si O2"
_cell_formula_units_Z 14
_cell_length_a 10.078065
_cell_length_b 19.634484
_cell_length_c 19.726137
_cell_angle_alpha 21.108302
_cell_angle_beta 31.325368
_cell_angle_gamma 25.748056
_cell_volume 608.234282
_symmetry_space_group_name_H-M "P -1"
_symmetry_group_IT_number 2
_symmetry_cell_setting 'triclinic'
loop_
_space_group_symop_operation_xyz
x,y,z
-x,-y,-z
loop_
_atom_site_type_symbol
_atom_site_label
_atom_site_fract_x
_atom_site_fract_y
_atom_site_fract_z
Si Si1 0.739031 0.214917 0.456210
Si Si2 0.339969 0.429308 0.936285
Si Si3 0.228649 0.516775 0.692317
Si Si4 0.904405 0.129370 0.806492
Si Si5 0.272404 0.085027 0.807854
Si Si6 0.164659 0.064313 0.609775
Si Si7 0.778828 0.371317 0.049689
O O1 0.578435 0.420992 0.282135
O O2 0.883155 0.295440 0.373951
O O3 0.502132 0.165346 0.638667
O O4 0.000000 0.000000 0.500000
O O5 0.336417 0.499315 0.949336
O O6 0.543207 0.168982 0.068241
O O7 0.000000 0.500000 0.000000
O O8 0.581447 0.332092 0.728132
O O9 0.101317 0.676532 0.533688
O O10 0.057263 0.388668 0.889496
O O11 0.853392 0.947551 0.035924
O O12 0.026578 0.213884 0.735233
O O13 0.136979 0.033078 0.731078
O O14 0.114952 0.888748 0.754557
O O15 0.500000 0.000000 0.500000
O O16 0.500000 0.500000 0.000000
#
# Coordination Sequence:
#
# PCOD9067193 Si02
#       7
#     2   2   2   2   2   2   2
#     4  12  24  40  77 111 142 193 247 302 365 437
#     4  12  22  43  73 110 146 186 248 308 365 435
#     4  12  26  48  71 110 147 194 249 297 374 445
#     4  11  27  52  69 107 154 194 244 308 375 441
#     4  11  25  48  73 105 153 191 245 308 369 437
#     4  12  28  49  76 107 146 195 251 304 368 447
#     4  12  25  45  74 112 149 191 245 311 369 431
#
# _framework density 23.017447000000001
#
# number of rings (size 3 to 8) (size 9 to 14) (size 15 to 20)
#    0.000    0.286    5.714    2.143    6.000    1.143 
#    2.571    0.000    0.000    0.000    0.000    0.000 
#    0.000    0.000    0.000    0.000    0.000    0.000 
#
# Total GULP energy -78329.471255 kJ/mol
# GULP energy per Si atom -5594.962232 kJ/mol
# Density = 2.296506 g / cm^3
# Si number density = 23.017447 Si / 1000 Ang^3
#
#
#
# Elastic Constant Matrix: (Units=GPa)
#
#
# Indices 1 2 3 4 5 6 
#
# 1 122.7302 38.8226 48.0897 19.2220 16.4381 0.8438
# 2 38.8226 110.7491 44.4980 10.5466 6.9109 -10.5635
# 3 48.0897 44.4980 160.0302 13.3446 -3.7555 -2.0000
# 4 19.2220 10.5466 13.3446 35.9874 1.5562 4.8494
# 5 16.4381 6.9109 -3.7555 1.5562 46.8896 3.4982
# 6 0.8438 -10.5635 -2.0000 4.8494 3.4982 40.0149
#
#
#
# Elastic Compliance Matrix: (Units=1/GPa)
#
#
# Indices 1 2 3 4 5 6 
#
# 1 0.010922 -0.002268 -0.002394 -0.004109 -0.003539 -0.000141
# 2 -0.002268 0.011292 -0.002312 -0.001620 -0.001241 0.003218
# 3 -0.002394 -0.002312 0.007732 -0.000961 0.001847 -0.000218
# 4 -0.004109 -0.001620 -0.000961 0.031351 0.000880 -0.004266
# 5 -0.003539 -0.001241 0.001847 0.000880 0.023039 -0.002281
# 6 -0.000141 0.003218 -0.000218 -0.004266 -0.002281 0.026549
#
#
# Mechanical properties :
#
#
# Convention : Reuss Voigt Hill
#
# Bulk Modulus (GPa) = 62.50675 72.92558 67.71617
# Shear Modulus (GPa) = 38.41282 42.05167 40.23224
#
# Velocity S-wave (km/s) = 4.08960 4.27892 4.18533
# Velocity P-wave (km/s) = 7.03668 7.49424 7.26907
#
# Compressibility (1/GPa) = 0.01599827
#
# Stress axis : x y z
#
# Youngs Moduli (GPa) = 91.55874 88.55677 129.33638
#
# Poissons Ratio (x) = 0.20087 0.30957
# Poissons Ratio (y) = 0.20767 0.29903
# Poissons Ratio (z) = 0.21915 0.20475
#
# Static dielectric constant tensor:
#      x y z
#    x 1.883480 -0.019840 0.060740 
#    y -0.019840 1.874760 0.010820 
#    z 0.060740 0.010820 1.850760 
# 
# From -- ./inp_files/591757.got.cif
#   From: 2010.05.17/outbox.cif.g08.bks.cpg/sg2_296_cif.got.tgz:591757.got - 2010.06.03 11:33:40.
