data_PCOD9067021
_publ_section_title
;
Structure prediction by ZEFSAII (Michael W. Deem and Ramdas Pophale) SiO2 
 PCOD9067021
Probable space group: P -1
;
_chemical_formula_sum "Si O2"
_cell_formula_units_Z 12
_cell_length_a 13.563619
_cell_length_b 12.687493
_cell_length_c 6.066465
_cell_angle_alpha 99.986963
_cell_angle_beta 88.980565
_cell_angle_gamma 29.793502
_cell_volume 479.700124
_symmetry_space_group_name_H-M "P -1"
_symmetry_group_IT_number 2
_symmetry_cell_setting 'triclinic'
loop_
_space_group_symop_operation_xyz
x,y,z
-x,-y,-z
loop_
_atom_site_type_symbol
_atom_site_label
_atom_site_fract_x
_atom_site_fract_y
_atom_site_fract_z
Si Si1 0.963105 0.200279 0.159881
Si Si2 0.235785 0.771025 0.498183
Si Si3 0.949015 0.675169 0.540937
Si Si4 0.208572 0.505300 0.092852
Si Si5 0.575172 0.285922 0.184741
Si Si6 0.493484 0.059359 0.769739
O O1 0.940960 0.335174 0.332254
O O2 0.812685 0.259207 0.301019
O O3 0.876209 0.310224 0.962742
O O4 0.210046 0.928010 0.045284
O O5 0.416094 0.540113 0.265113
O O6 0.329742 0.790412 0.599548
O O7 0.000000 0.000000 0.500000
O O8 0.000000 0.500000 0.500000
O O9 0.013354 0.644197 0.282120
O O10 0.708254 0.918855 0.702879
O O11 0.413432 0.343823 0.170160
O O12 0.293044 0.328025 0.877021
O O13 0.500000 0.000000 0.500000
O O14 0.500000 0.000000 0.000000
#
# Coordination Sequence:
#
# PCOD9067021 Si02
#       6
#     2   2   2   2   2   2
#     4  12  27  46  76 113 151 205 265 327 403 476
#     4  11  26  49  77 112 155 203 263 331 408 484
#     4  12  26  48  75 110 159 204 265 331 393 477
#     4  12  27  47  77 112 158 208 268 331 403 480
#     4  11  25  47  75 111 152 199 261 322 406 474
#     4  12  28  50  80 114 159 217 275 333 404 476
#
# _framework density 25.015628
#
# number of rings (size 3 to 8) (size 9 to 14) (size 15 to 20)
#    0.000    0.333    5.000    2.500    2.333    6.667 
#    0.000    0.000    0.000    0.000    0.000    0.000 
#    0.000    0.000    0.000    0.000    0.000    0.000 
#
# Total GULP energy -66947.855824 kJ/mol
# GULP energy per Si atom -5578.987985 kJ/mol
# Density = 2.495869 g / cm^3
# Si number density = 25.015628 Si / 1000 Ang^3
#
#
#
# Elastic Constant Matrix: (Units=GPa)
#
#
# Indices 1 2 3 4 5 6 
#
# 1 86.4324 10.8368 49.9960 -5.7017 -9.3550 -1.5242
# 2 10.8368 129.6530 56.4364 17.4433 -23.8641 4.6072
# 3 49.9960 56.4364 134.4648 26.1490 -13.7195 5.3855
# 4 -5.7017 17.4433 26.1490 47.1584 -2.2683 -0.3011
# 5 -9.3550 -23.8641 -13.7195 -2.2683 62.4271 9.8400
# 6 -1.5242 4.6072 5.3855 -0.3011 9.8400 34.3125
#
#
#
# Elastic Compliance Matrix: (Units=1/GPa)
#
#
# Indices 1 2 3 4 5 6 
#
# 1 0.016433 0.001403 -0.007763 0.005843 0.001278 0.001445
# 2 0.001403 0.010265 -0.004190 -0.001149 0.003432 -0.001653
# 3 -0.007763 -0.004190 0.013533 -0.006892 0.000281 -0.002047
# 4 0.005843 -0.001149 -0.006892 0.026150 -0.000419 0.001845
# 5 0.001278 0.003432 0.000281 -0.000419 0.018475 -0.005750
# 6 0.001445 -0.001653 -0.002047 0.001845 -0.005750 0.031417
#
#
# Mechanical properties :
#
#
# Convention : Reuss Voigt Hill
#
# Bulk Modulus (GPa) = 52.27025 65.00984 58.64005
# Shear Modulus (GPa) = 34.78286 44.33167 39.55727
#
# Velocity S-wave (km/s) = 3.73291 4.21427 3.98087
# Velocity P-wave (km/s) = 6.28649 7.05154 6.67997
#
# Compressibility (1/GPa) = 0.01913134
#
# Stress axis : x y z
#
# Youngs Moduli (GPa) = 60.85172 97.42297 73.89406
#
# Poissons Ratio (x) = -0.13671 0.57363
# Poissons Ratio (y) = -0.08539 0.30962
# Poissons Ratio (z) = 0.47239 0.40821
#
# Static dielectric constant tensor:
#      x y z
#    x 1.987920 0.006870 0.136230 
#    y 0.006870 2.127170 -0.062290 
#    z 0.136230 -0.062290 2.190920 
# 
# From -- ./inp_files/98265.got.cif
#   From: 2010.05.17/outbox.cif.g08.bks.cpg/sg2_50_cif.got.tgz:98265.got - 2010.06.03 11:33:40.
