data_PCOD9067953
_publ_section_title
;
Structure prediction by ZEFSAII (Michael W. Deem and Ramdas Pophale) SiO2 
 PCOD9067953
Probable space group: P -1
;
_chemical_formula_sum "Si O2"
_cell_formula_units_Z 12
_cell_length_a 5.653719
_cell_length_b 15.158397
_cell_length_c 11.449785
_cell_angle_alpha 40.128535
_cell_angle_beta 128.771946
_cell_angle_gamma 136.069454
_cell_volume 432.457550
_symmetry_space_group_name_H-M "P -1"
_symmetry_group_IT_number 2
_symmetry_cell_setting 'triclinic'
loop_
_space_group_symop_operation_xyz
x,y,z
-x,-y,-z
loop_
_atom_site_type_symbol
_atom_site_label
_atom_site_fract_x
_atom_site_fract_y
_atom_site_fract_z
Si Si1 0.257720 0.161359 0.823312
Si Si2 0.403947 0.035009 0.789606
Si Si3 0.331953 0.473231 0.603552
Si Si4 0.741866 0.566518 0.846200
Si Si5 0.394018 0.876073 0.488363
Si Si6 0.741445 0.735032 0.873029
O O1 0.296369 0.298912 0.784345
O O2 0.949878 0.152051 0.655122
O O3 0.509604 0.170898 0.781084
O O4 0.332851 0.037762 0.046184
O O5 0.024610 0.895848 0.851460
O O6 0.371479 0.079390 0.601953
O O7 0.500000 0.500000 0.500000
O O8 0.627497 0.591239 0.661385
O O9 0.000000 0.500000 0.500000
O O10 0.922829 0.714769 0.834515
O O11 0.386624 0.422203 0.934521
O O12 0.000000 0.500000 0.000000
O O13 0.419330 0.740169 0.705089
O O14 0.500000 0.000000 0.500000
#
# Coordination Sequence:
#
# PCOD9067953 Si02
#       6
#     2   2   2   2   2   2
#     4  11  27  46  75 107 154 197 259 314 395 455
#     4  11  26  47  75 112 152 202 250 323 389 465
#     4  12  31  51  81 113 159 209 265 323 391 469
#     4  11  28  48  78 106 151 203 257 319 387 459
#     4  12  26  43  74 111 148 196 250 318 385 464
#     4  11  26  46  75 108 148 193 261 312 387 457
#
# _framework density 27.748389
#
# number of rings (size 3 to 8) (size 9 to 14) (size 15 to 20)
#    0.000    0.667    1.667    3.000   18.667    1.333 
#    0.000    0.000    0.000    0.000    0.000    0.000 
#    0.000    0.000    0.000    0.000    0.000    0.000 
#
# Total GULP energy -66922.630329 kJ/mol
# GULP energy per Si atom -5576.885861 kJ/mol
# Density = 2.768523 g / cm^3
# Si number density = 27.748389 Si / 1000 Ang^3
#
#
#
# Elastic Constant Matrix: (Units=GPa)
#
#
# Indices 1 2 3 4 5 6 
#
# 1 94.6272 21.9413 37.6917 1.5884 15.6758 -19.6593
# 2 21.9413 81.8774 9.0337 3.6497 -3.3320 -21.9343
# 3 37.6917 9.0337 148.9139 7.6812 0.4775 1.1059
# 4 1.5884 3.6497 7.6812 53.8587 -9.0068 9.6915
# 5 15.6758 -3.3320 0.4775 -9.0068 75.4025 5.2924
# 6 -19.6593 -21.9343 1.1059 9.6915 5.2924 58.0908
#
#
#
# Elastic Compliance Matrix: (Units=1/GPa)
#
#
# Indices 1 2 3 4 5 6 
#
# 1 0.013935 -0.002266 -0.003352 -0.001149 -0.003424 0.004427
# 2 -0.002266 0.014239 -0.000243 -0.001639 0.000567 0.004836
# 3 -0.003352 -0.000243 0.007618 -0.000622 0.000657 -0.001327
# 4 -0.001149 -0.001639 -0.000622 0.020116 0.002897 -0.004616
# 5 -0.003424 0.000567 0.000657 0.002897 0.014535 -0.002765
# 6 0.004427 0.004836 -0.001327 -0.004616 -0.002765 0.021586
#
#
# Mechanical properties :
#
#
# Convention : Reuss Voigt Hill
#
# Bulk Modulus (GPa) = 41.54812 51.41687 46.48249
# Shear Modulus (GPa) = 44.73231 54.58719 49.65975
#
# Velocity S-wave (km/s) = 4.01941 4.44015 4.23501
# Velocity P-wave (km/s) = 6.04538 6.69750 6.37977
#
# Compressibility (1/GPa) = 0.02406848
#
# Stress axis : x y z
#
# Youngs Moduli (GPa) = 71.76251 70.22864 131.26125
#
# Poissons Ratio (x) = 0.15917 0.44002
# Poissons Ratio (y) = 0.16264 0.03194
# Poissons Ratio (z) = 0.24056 0.01709
#
# Static dielectric constant tensor:
#      x y z
#    x 2.806840 -0.118020 -0.009220 
#    y -0.118020 2.287770 -0.220440 
#    z -0.009220 -0.220440 2.272520 
# 
# From -- ./inp_files/27141.got.cif
#   From: 2010.05.17/outbox.cif.g08.bks.cpg/sg2_14_cif.got.tgz:27141.got - 2010.06.03 11:33:40.
