data_PCOD9067261
_publ_section_title
;
Structure prediction by ZEFSAII (Michael W. Deem and Ramdas Pophale) SiO2 
 PCOD9067261
Probable space group: P -1
;
_chemical_formula_sum "Si O2"
_cell_formula_units_Z 13
_cell_length_a 12.261361
_cell_length_b 14.098868
_cell_length_c 17.590454
_cell_angle_alpha 149.137587
_cell_angle_beta 160.246495
_cell_angle_gamma 30.369963
_cell_volume 500.089115
_symmetry_space_group_name_H-M "P -1"
_symmetry_group_IT_number 2
_symmetry_cell_setting 'triclinic'
loop_
_space_group_symop_operation_xyz
x,y,z
-x,-y,-z
loop_
_atom_site_type_symbol
_atom_site_label
_atom_site_fract_x
_atom_site_fract_y
_atom_site_fract_z
Si Si1 0.250401 0.322320 0.694088
Si Si2 0.419623 0.595700 0.183644
Si Si3 0.561444 0.672130 0.489171
Si Si4 0.285785 0.973983 0.106959
Si Si5 0.693734 0.583924 0.750152
Si Si6 0.500000 0.000000 0.000000
Si Si7 0.798308 0.176562 0.200011
O O1 0.498956 0.347358 0.807728
O O2 0.436975 0.231924 0.831301
O O3 0.943187 0.520676 0.640395
O O4 0.079670 0.167875 0.441421
O O5 0.476629 0.724860 0.381312
O O6 0.700721 0.388981 0.246048
O O7 0.054333 0.573114 0.943201
O O8 0.316142 0.558962 0.283842
O O9 0.546036 0.858301 0.656750
O O10 0.111121 0.973557 0.911915
O O11 0.000000 0.000000 0.000000
O O12 0.500000 0.500000 0.500000
O O13 0.537839 0.804379 0.832118
O O14 0.492736 0.136826 0.016371
#
# Coordination Sequence:
#
# PCOD9067261 Si02
#       7
#     2   2   2   2   2   1   2
#     4  11  26  50  76 109 159 205 255 330 399 469
#     4  11  25  48  76 103 157 206 256 329 399 469
#     4  11  25  50  73 111 153 203 263 324 399 473
#     4  12  28  45  77 120 153 204 270 320 399 488
#     4  12  28  48  76 113 153 210 267 328 400 473
#     4  12  26  50  78 110 164 204 264 328 402 464
#     4  11  26  48  76 113 153 207 263 326 400 473
#
# _framework density 25.995365
#
# number of rings (size 3 to 8) (size 9 to 14) (size 15 to 20)
#    0.000    0.615    3.077    5.077    8.615    2.462 
#    0.000    2.308    0.000    0.000    0.000    0.000 
#    0.000    0.000    0.000    0.000    0.000    0.000 
#
# Total GULP energy -72591.042080 kJ/mol
# GULP energy per Si atom -5583.926314 kJ/mol
# Density = 2.593620 g / cm^3
# Si number density = 25.995365 Si / 1000 Ang^3
#
#
#
# Elastic Constant Matrix: (Units=GPa)
#
#
# Indices 1 2 3 4 5 6 
#
# 1 97.4516 18.8100 -2.0477 0.7275 0.7164 -12.9266
# 2 18.8100 91.0812 34.5319 19.6493 11.6446 -1.7364
# 3 -2.0477 34.5319 79.0116 1.8684 -12.7902 -18.9685
# 4 0.7275 19.6493 1.8684 44.7196 -9.9426 -2.7595
# 5 0.7164 11.6446 -12.7902 -9.9426 50.5348 6.1760
# 6 -12.9266 -1.7364 -18.9685 -2.7595 6.1760 38.7747
#
#
#
# Elastic Compliance Matrix: (Units=1/GPa)
#
#
# Indices 1 2 3 4 5 6 
#
# 1 0.011920 -0.004515 0.003821 0.002333 0.001619 0.005549
# 2 -0.004515 0.019226 -0.010940 -0.010132 -0.008473 -0.005368
# 3 0.003821 -0.010940 0.021127 0.006229 0.007778 0.010324
# 4 0.002333 -0.010132 0.006229 0.028774 0.009053 0.003977
# 5 0.001619 -0.008473 0.007778 0.009053 0.025399 0.000564
# 6 0.005549 -0.005368 0.010324 0.003977 0.000564 0.032643
#
#
# Mechanical properties :
#
#
# Convention : Reuss Voigt Hill
#
# Bulk Modulus (GPa) = 34.47644 41.12588 37.80116
# Shear Modulus (GPa) = 29.06546 41.22250 35.14398
#
# Velocity S-wave (km/s) = 3.34743 3.98648 3.68085
# Velocity P-wave (km/s) = 5.31335 6.08640 5.71296
#
# Compressibility (1/GPa) = 0.02900531
#
# Stress axis : x y z
#
# Youngs Moduli (GPa) = 83.89229 52.01205 47.33251
#
# Poissons Ratio (x) = 0.23484 -0.18088
# Poissons Ratio (y) = 0.37878 0.51784
# Poissons Ratio (z) = -0.32059 0.56904
#
# Static dielectric constant tensor:
#      x y z
#    x 2.011110 -0.030530 -0.019980 
#    y -0.030530 2.076130 0.001480 
#    z -0.019980 0.001480 2.104450 
# 
# From -- ./inp_files/560234.got.cif
#   From: 2010.05.17/outbox.cif.g08.bks.cpg/sg2_281_cif.got.tgz:560234.got - 2010.06.03 11:33:40.
