data_PCOD9067815
_publ_section_title
;
Structure prediction by ZEFSAII (Michael W. Deem and Ramdas Pophale) SiO2 
 PCOD9067815
Probable space group: P -1
;
_chemical_formula_sum "Si O2"
_cell_formula_units_Z 12
_cell_length_a 9.853502
_cell_length_b 15.667334
_cell_length_c 5.716155
_cell_angle_alpha 98.036726
_cell_angle_beta 76.976560
_cell_angle_gamma 143.918991
_cell_volume 504.952882
_symmetry_space_group_name_H-M "P -1"
_symmetry_group_IT_number 2
_symmetry_cell_setting 'triclinic'
loop_
_space_group_symop_operation_xyz
x,y,z
-x,-y,-z
loop_
_atom_site_type_symbol
_atom_site_label
_atom_site_fract_x
_atom_site_fract_y
_atom_site_fract_z
Si Si1 0.981952 0.113655 0.427159
Si Si2 0.278999 0.171790 0.715814
Si Si3 0.761208 0.668398 0.959623
Si Si4 0.798444 0.390605 0.722337
Si Si5 0.512542 0.955674 0.727140
Si Si6 0.942380 0.335059 0.009553
O O1 0.181249 0.160473 0.505550
O O2 0.864108 0.986995 0.244252
O O3 0.760011 0.028708 0.642784
O O4 0.103853 0.255940 0.311315
O O5 0.253110 0.240620 0.918816
O O6 0.548821 0.280973 0.663479
O O7 0.500000 0.500000 0.000000
O O8 0.925014 0.689630 0.063053
O O9 0.000000 0.500000 0.500000
O O10 0.860182 0.497686 0.923889
O O11 0.826554 0.314096 0.812848
O O12 0.274933 0.780825 0.770693
O O13 0.500000 0.000000 0.500000
O O14 0.500000 0.000000 0.000000
#
# Coordination Sequence:
#
# PCOD9067815 Si02
#       6
#     2   2   2   2   2   2
#     4  11  27  47  77 114 154 212 265 332 407 481
#     4  11  26  48  74 110 156 207 263 329 401 488
#     4  12  25  47  76 113 158 203 263 327 404 481
#     4  11  26  45  74 106 155 207 261 332 408 479
#     4  12  27  49  81 120 161 210 272 341 404 483
#     4  11  26  46  73 112 150 204 268 327 402 476
#
# _framework density 23.764596000000001
#
# number of rings (size 3 to 8) (size 9 to 14) (size 15 to 20)
#    0.000    0.667    3.333    2.500    7.000    4.667 
#    0.000    0.000    0.000    0.000    0.000    0.000 
#    0.000    0.000    0.000    0.000    0.000    0.000 
#
# Total GULP energy -67111.667423 kJ/mol
# GULP energy per Si atom -5592.638952 kJ/mol
# Density = 2.371051 g / cm^3
# Si number density = 23.764596 Si / 1000 Ang^3
#
#
#
# Elastic Constant Matrix: (Units=GPa)
#
#
# Indices 1 2 3 4 5 6 
#
# 1 193.9966 66.4593 62.7453 -26.7574 1.2212 41.8639
# 2 66.4593 167.9159 52.5057 -23.8131 -2.1544 28.9928
# 3 62.7453 52.5057 96.6695 -20.9666 -3.3152 2.6066
# 4 -26.7574 -23.8131 -20.9666 45.6717 -9.1886 1.4244
# 5 1.2212 -2.1544 -3.3152 -9.1886 38.9283 2.3103
# 6 41.8639 28.9928 2.6066 1.4244 2.3103 45.0745
#
#
#
# Elastic Compliance Matrix: (Units=1/GPa)
#
#
# Indices 1 2 3 4 5 6 
#
# 1 0.008947 -0.000188 -0.004746 0.003330 0.000568 -0.008049
# 2 -0.000188 0.008534 -0.003666 0.003062 0.001201 -0.005261
# 3 -0.004746 -0.003666 0.015918 0.002764 0.001617 0.005676
# 4 0.003330 0.003062 0.002764 0.028401 0.007390 -0.006499
# 5 0.000568 0.001201 0.001617 0.007390 0.027800 -0.003053
# 6 -0.008049 -0.005261 0.005676 -0.006499 -0.003053 0.033079
#
#
# Mechanical properties :
#
#
# Convention : Reuss Voigt Hill
#
# Bulk Modulus (GPa) = 61.73263 91.33361 76.53312
# Shear Modulus (GPa) = 34.41634 44.39303 39.40468
#
# Velocity S-wave (km/s) = 3.80968 4.32676 4.07643
# Velocity P-wave (km/s) = 6.73681 7.96726 7.37773
#
# Compressibility (1/GPa) = 0.01619889
#
# Stress axis : x y z
#
# Youngs Moduli (GPa) = 111.77194 117.17575 62.82029
#
# Poissons Ratio (x) = 0.02198 0.29817
# Poissons Ratio (y) = 0.02097 0.23032
# Poissons Ratio (z) = 0.53051 0.42960
#
# Static dielectric constant tensor:
#      x y z
#    x 1.888740 -0.067560 -0.012150 
#    y -0.067560 1.946590 0.055160 
#    z -0.012150 0.055160 1.950860 
# 
# From -- ./inp_files/28949.got.cif
#   From: 2010.05.17/outbox.cif.g08.bks.cpg/sg2_15_cif.got.tgz:28949.got - 2010.06.03 11:33:40.
