data_PCOD9067263
_publ_section_title
;
Structure prediction by ZEFSAII (Michael W. Deem and Ramdas Pophale) SiO2 
 PCOD9067263
Probable space group: P -1
;
_chemical_formula_sum "Si O2"
_cell_formula_units_Z 16
_cell_length_a 12.228172
_cell_length_b 7.683033
_cell_length_c 17.622968
_cell_angle_alpha 49.907254
_cell_angle_beta 45.398161
_cell_angle_gamma 34.055841
_cell_volume 652.049157
_symmetry_space_group_name_H-M "P -1"
_symmetry_group_IT_number 2
_symmetry_cell_setting 'triclinic'
loop_
_space_group_symop_operation_xyz
x,y,z
-x,-y,-z
loop_
_atom_site_type_symbol
_atom_site_label
_atom_site_fract_x
_atom_site_fract_y
_atom_site_fract_z
Si Si1 0.200399 0.104154 0.410377
Si Si2 0.566112 0.912250 0.579367
Si Si3 0.822280 0.386799 0.412172
Si Si4 0.003456 0.374495 0.186660
Si Si5 0.452336 0.104646 0.817621
Si Si6 0.033103 0.834392 0.109419
Si Si7 0.342428 0.819733 0.061999
Si Si8 0.434608 0.577335 0.791277
O O1 0.231615 0.169610 0.460864
O O2 0.967495 0.343629 0.419893
O O3 0.258482 0.776605 0.477058
O O4 0.361417 0.074641 0.285017
O O5 0.572215 0.644706 0.674836
O O6 0.500000 0.000000 0.500000
O O7 0.368753 0.251673 0.617407
O O8 0.965421 0.224522 0.312297
O O9 0.068344 0.536764 0.153845
O O10 0.780833 0.650042 0.175891
O O11 0.176388 0.123093 0.111937
O O12 0.471817 0.311934 0.800286
O O13 0.448221 0.893794 0.934209
O O14 0.808837 0.094254 0.188828
O O15 0.209709 0.775867 0.090070
O O16 0.000000 0.000000 0.000000
O O17 0.506960 0.532747 0.119170
#
# Coordination Sequence:
#
# PCOD9067263 Si02
#       8
#     2   2   2   2   2   2   2   2
#     4  11  26  47  76 110 142 193 253 302 376 447
#     4  12  27  46  72 107 148 190 246 313 373 439
#     4  11  25  48  76 106 144 196 244 310 376 437
#     4  12  24  47  78 108 152 202 245 308 376 438
#     4  12  23  49  76 106 152 198 248 303 373 446
#     4  12  25  46  71 107 149 193 250 302 366 437
#     4  12  28  49  76 109 156 203 246 309 366 446
#     4  12  27  46  71 112 147 197 249 301 376 439
#
# _framework density 24.538028000000001
#
# number of rings (size 3 to 8) (size 9 to 14) (size 15 to 20)
#    0.000    0.250    5.000    3.375    3.500    3.000 
#    2.250    0.000    0.000    0.000    0.000    0.000 
#    0.000    0.000    0.000    0.000    0.000    0.000 
#
# Total GULP energy -89772.107131 kJ/mol
# GULP energy per Si atom -5610.756696 kJ/mol
# Density = 2.448218 g / cm^3
# Si number density = 24.538028 Si / 1000 Ang^3
#
#
#
# Elastic Constant Matrix: (Units=GPa)
#
#
# Indices 1 2 3 4 5 6 
#
# 1 195.5945 45.3063 46.6262 -22.0324 7.9865 -4.2259
# 2 45.3063 86.0836 21.2225 -4.3304 -1.0562 -2.8008
# 3 46.6262 21.2225 131.0367 -20.2521 1.0329 1.0401
# 4 -22.0324 -4.3304 -20.2521 40.3615 1.7658 7.1064
# 5 7.9865 -1.0562 1.0329 1.7658 43.5677 -2.5476
# 6 -4.2259 -2.8008 1.0401 7.1064 -2.5476 35.5885
#
#
#
# Elastic Compliance Matrix: (Units=1/GPa)
#
#
# Indices 1 2 3 4 5 6 
#
# 1 0.006477 -0.002947 -0.001419 0.002571 -0.001331 -0.000030
# 2 -0.002947 0.013484 -0.001313 -0.001046 0.001001 0.001030
# 3 -0.001419 -0.001313 0.008951 0.003816 -0.000215 -0.001311
# 4 0.002571 -0.001046 0.003816 0.029104 -0.002109 -0.005851
# 5 -0.001331 0.001001 -0.000215 -0.002109 0.023430 0.002025
# 6 -0.000030 0.001030 -0.001311 -0.005851 0.002025 0.029528
#
#
# Mechanical properties :
#
#
# Convention : Reuss Voigt Hill
#
# Bulk Modulus (GPa) = 56.96772 71.00275 63.98523
# Shear Modulus (GPa) = 39.00628 43.87420 41.44024
#
# Velocity S-wave (km/s) = 3.99134 4.23307 4.11398
# Velocity P-wave (km/s) = 6.67140 7.27258 6.97847
#
# Compressibility (1/GPa) = 0.01755380
#
# Stress axis : x y z
#
# Youngs Moduli (GPa) = 154.39663 74.15946 111.71941
#
# Poissons Ratio (x) = 0.21854 0.15856
# Poissons Ratio (y) = 0.45499 0.14669
# Poissons Ratio (z) = 0.21914 0.09738
#
# Static dielectric constant tensor:
#      x y z
#    x 1.905470 -0.011580 0.017660 
#    y -0.011580 1.943910 0.043530 
#    z 0.017660 0.043530 1.931880 
# 
# From -- ./inp_files/515183.got.cif
#   From: 2010.05.17/outbox.cif.g08.bks.cpg/sg2_258_cif.got.tgz:515183.got - 2010.06.03 11:33:40.
