data_PCOD9067067
_publ_section_title
;
Structure prediction by ZEFSAII (Michael W. Deem and Ramdas Pophale) SiO2 
 PCOD9067067
Probable space group: P -1
;
_chemical_formula_sum "Si O2"
_cell_formula_units_Z 16
_cell_length_a 19.155924
_cell_length_b 8.885483
_cell_length_c 6.262768
_cell_angle_alpha 75.596539
_cell_angle_beta 122.507982
_cell_angle_gamma 131.426987
_cell_volume 664.349208
_symmetry_space_group_name_H-M "P -1"
_symmetry_group_IT_number 2
_symmetry_cell_setting 'triclinic'
loop_
_space_group_symop_operation_xyz
x,y,z
-x,-y,-z
loop_
_atom_site_type_symbol
_atom_site_label
_atom_site_fract_x
_atom_site_fract_y
_atom_site_fract_z
Si Si1 0.900728 0.797701 0.525405
Si Si2 0.264842 0.365568 0.026289
Si Si3 0.439954 0.349718 0.244233
Si Si4 0.735686 0.322848 0.888445
Si Si5 0.026293 0.376008 0.962496
Si Si6 0.189683 0.046592 0.381369
Si Si7 0.582066 0.005878 0.473281
Si Si8 0.613581 0.918135 0.121066
O O1 0.942005 0.717852 0.781478
O O2 0.838417 0.852834 0.535382
O O3 0.818054 0.647990 0.259344
O O4 0.000000 0.000000 0.500000
O O5 0.354986 0.381019 0.042699
O O6 0.306998 0.555444 0.176910
O O7 0.210627 0.165737 0.153342
O O8 0.500000 0.500000 0.500000
O O9 0.396067 0.139879 0.353665
O O10 0.463343 0.290131 0.074193
O O11 0.865468 0.471430 0.054141
O O12 0.694791 0.232897 0.613305
O O13 0.678347 0.127554 0.016947
O O14 0.000000 0.500000 0.000000
O O15 0.917605 0.188604 0.732014
O O16 0.293363 0.077440 0.622650
O O17 0.553374 0.935543 0.207256
O O18 0.500000 0.000000 0.500000
#
# Coordination Sequence:
#
# PCOD9067067 Si02
#       8
#     2   2   2   2   2   2   2   2
#     4  12  25  43  71 104 148 205 251 307 379 431
#     4  12  24  46  72 107 147 197 256 314 367 450
#     4  11  25  47  77 112 146 191 256 318 378 457
#     4  11  27  44  70 109 152 195 254 307 377 454
#     4  12  27  43  69 108 153 202 255 310 364 451
#     4  12  24  47  70 104 154 197 256 307 367 446
#     4  11  25  50  75 107 154 189 247 318 388 461
#     4  11  26  47  77 110 150 205 241 314 394 450
#
# _framework density 24.083718999999999
#
# number of rings (size 3 to 8) (size 9 to 14) (size 15 to 20)
#    0.000    0.500    5.000    2.625    7.000    3.000 
#    0.000    0.000    0.000    0.000    0.000    0.000 
#    0.000    0.000    0.000    0.000    0.000    0.000 
#
# Total GULP energy -89328.195668 kJ/mol
# GULP energy per Si atom -5583.012229 kJ/mol
# Density = 2.402890 g / cm^3
# Si number density = 24.083719 Si / 1000 Ang^3
#
#
#
# Elastic Constant Matrix: (Units=GPa)
#
#
# Indices 1 2 3 4 5 6 
#
# 1 148.8687 44.3693 36.7169 0.1097 -23.3705 -21.8460
# 2 44.3693 110.8510 15.5627 15.3124 -11.9232 -12.3280
# 3 36.7169 15.5627 101.8962 24.6613 -4.1068 -9.4963
# 4 0.1097 15.3124 24.6613 44.1266 -17.7558 -11.0459
# 5 -23.3705 -11.9232 -4.1068 -17.7558 48.2104 -3.8564
# 6 -21.8460 -12.3280 -9.4963 -11.0459 -3.8564 49.4922
#
#
#
# Elastic Compliance Matrix: (Units=1/GPa)
#
#
# Indices 1 2 3 4 5 6 
#
# 1 0.010786 -0.003393 -0.004500 0.007990 0.007381 0.005411
# 2 -0.003393 0.010868 0.000588 -0.004168 -0.000413 0.000360
# 3 -0.004500 0.000588 0.013417 -0.010077 -0.004755 -0.001885
# 4 0.007990 -0.004168 -0.010077 0.039375 0.017341 0.010694
# 5 0.007381 -0.000413 -0.004755 0.017341 0.030882 0.008520
# 6 0.005411 0.000360 -0.001885 0.010694 0.008520 0.025372
#
#
# Mechanical properties :
#
#
# Convention : Reuss Voigt Hill
#
# Bulk Modulus (GPa) = 48.87467 61.65708 55.26588
# Shear Modulus (GPa) = 32.86667 46.03030 39.44848
#
# Velocity S-wave (km/s) = 3.69817 4.37654 4.05158
# Velocity P-wave (km/s) = 6.21072 7.15511 6.69957
#
# Compressibility (1/GPa) = 0.02046049
#
# Stress axis : x y z
#
# Youngs Moduli (GPa) = 92.71703 92.01316 74.53156
#
# Poissons Ratio (x) = 0.31223 0.33541
# Poissons Ratio (y) = 0.31462 -0.04386
# Poissons Ratio (z) = 0.41725 -0.05415
#
# Static dielectric constant tensor:
#      x y z
#    x 1.934150 0.028450 -0.074590 
#    y 0.028450 1.876360 0.057090 
#    z -0.074590 0.057090 2.111790 
# 
# From -- ./inp_files/116972.got.cif
#   From: 2010.05.17/outbox.cif.g08.bks.cpg/sg2_59_cif.got.tgz:116972.got - 2010.06.03 11:33:40.
