data_PCOD9067737
_publ_section_title
;
Structure prediction by ZEFSAII (Michael W. Deem and Ramdas Pophale) SiO2 
 PCOD9067737
Probable space group: P -1
;
_chemical_formula_sum "Si O2"
_cell_formula_units_Z 14
_cell_length_a 11.272209
_cell_length_b 12.058012
_cell_length_c 15.186414
_cell_angle_alpha 150.408725
_cell_angle_beta 148.649357
_cell_angle_gamma 37.849010
_cell_volume 521.355834
_symmetry_space_group_name_H-M "P -1"
_symmetry_group_IT_number 2
_symmetry_cell_setting 'triclinic'
loop_
_space_group_symop_operation_xyz
x,y,z
-x,-y,-z
loop_
_atom_site_type_symbol
_atom_site_label
_atom_site_fract_x
_atom_site_fract_y
_atom_site_fract_z
Si Si1 0.752547 0.127505 0.843106
Si Si2 0.222108 0.277146 0.538756
Si Si3 0.500750 0.952059 0.702446
Si Si4 0.093638 0.389201 0.723737
Si Si5 0.370671 0.874180 0.758402
Si Si6 0.553883 0.506977 0.320142
Si Si7 0.902425 0.671536 0.133654
O O1 0.484949 0.197367 0.687900
O O2 0.859609 0.930665 0.707352
O O3 0.728791 0.026505 0.856235
O O4 0.853200 0.355845 0.062730
O O5 0.072462 0.353954 0.582215
O O6 0.265537 0.459264 0.618462
O O7 0.503565 0.860445 0.740328
O O8 0.453937 0.757636 0.470057
O O9 0.304348 0.177582 0.731943
O O10 0.953585 0.376321 0.717683
O O11 0.361763 0.638966 0.639569
O O12 0.500000 0.000000 0.000000
O O13 0.132220 0.059407 0.724202
O O14 0.354273 0.395930 0.070578
O O15 0.000000 0.500000 0.000000
#
# Coordination Sequence:
#
# PCOD9067737 Si02
#       7
#     2   2   2   2   2   2   2
#     4   9  16  25  44  73 107 121 155 211 255 288
#     4   9  16  26  46  78  96 125 161 208 256 285
#     4   9  17  28  47  78 103 126 163 207 258 290
#     4  10  18  28  49  71 105 128 162 206 253 291
#     4   9  19  31  49  73  98 135 167 204 248 295
#     4  10  18  31  52  76 104 126 164 214 247 298
#     4  10  21  35  49  71 103 138 170 201 245 298
#
# _framework density 26.853062000000001
#
# number of rings (size 3 to 8) (size 9 to 14) (size 15 to 20)
#    0.000    2.571    1.429    3.000    4.000    0.000 
#    0.000    2.857    0.000    0.857    0.000    2.000 
#    0.000    0.000    0.000    0.143    0.000    0.000 
#
# Total GULP energy -78277.763559 kJ/mol
# GULP energy per Si atom -5591.268826 kJ/mol
# Density = 2.679194 g / cm^3
# Si number density = 26.853062 Si / 1000 Ang^3
#
#
#
# Elastic Constant Matrix: (Units=GPa)
#
#
# Indices 1 2 3 4 5 6 
#
# 1 152.0185 69.3767 55.9613 -6.9577 -31.2471 54.3741
# 2 69.3767 132.5006 54.2383 9.9201 -9.7982 48.5094
# 3 55.9613 54.2383 101.7390 16.4368 -20.1046 17.4592
# 4 -6.9577 9.9201 16.4368 43.9219 15.3381 -2.8895
# 5 -31.2471 -9.7982 -20.1046 15.3381 41.6330 -12.0771
# 6 54.3741 48.5094 17.4592 -2.8895 -12.0771 44.9310
#
#
#
# Elastic Compliance Matrix: (Units=1/GPa)
#
#
# Indices 1 2 3 4 5 6 
#
# 1 0.014405 -0.000166 -0.005046 0.002068 0.003445 -0.014234
# 2 -0.000166 0.015495 -0.006073 -0.001057 -0.003417 -0.015154
# 3 -0.005046 -0.006073 0.017629 -0.008545 0.008646 0.007587
# 4 0.002068 -0.001057 -0.008545 0.031576 -0.014423 0.000112
# 5 0.003445 -0.003417 0.008646 -0.014423 0.036774 0.005118
# 6 -0.014234 -0.015154 0.007587 0.000112 0.005118 0.054278
#
#
# Mechanical properties :
#
#
# Convention : Reuss Voigt Hill
#
# Bulk Modulus (GPa) = 40.06525 82.82341 61.44433
# Shear Modulus (GPa) = 24.86989 39.87598 32.37294
#
# Velocity S-wave (km/s) = 3.04657 3.85771 3.47588
# Velocity P-wave (km/s) = 5.22762 7.12409 6.24823
#
# Compressibility (1/GPa) = 0.02495929
#
# Stress axis : x y z
#
# Youngs Moduli (GPa) = 69.41825 64.53900 56.72435
#
# Poissons Ratio (x) = 0.01072 0.28622
# Poissons Ratio (y) = 0.01153 0.34448
# Poissons Ratio (z) = 0.35028 0.39194
#
# Static dielectric constant tensor:
#      x y z
#    x 2.177540 -0.038510 0.079310 
#    y -0.038510 2.259180 -0.082740 
#    z 0.079310 -0.082740 2.061020 
# 
# From -- ./inp_files/225652.got.cif
#   From: 2010.05.17/outbox.cif.g08.bks.cpg/sg2_113_cif.got.tgz:225652.got - 2010.06.03 11:33:40.
