data_PCOD9067139
_publ_section_title
;
Structure prediction by ZEFSAII (Michael W. Deem and Ramdas Pophale) SiO2 
 PCOD9067139
Probable space group: P -1
;
_chemical_formula_sum "Si O2"
_cell_formula_units_Z 16
_cell_length_a 11.585026
_cell_length_b 15.417607
_cell_length_c 8.440230
_cell_angle_alpha 65.918665
_cell_angle_beta 102.961721
_cell_angle_gamma 47.938863
_cell_volume 693.756196
_symmetry_space_group_name_H-M "P -1"
_symmetry_group_IT_number 2
_symmetry_cell_setting 'triclinic'
loop_
_space_group_symop_operation_xyz
x,y,z
-x,-y,-z
loop_
_atom_site_type_symbol
_atom_site_label
_atom_site_fract_x
_atom_site_fract_y
_atom_site_fract_z
Si Si1 0.028054 0.613271 0.774500
Si Si2 0.575984 0.498389 0.362694
Si Si3 0.396819 0.017664 0.806403
Si Si4 0.152474 0.722518 0.863543
Si Si5 0.098603 0.862524 0.419932
Si Si6 0.373067 0.831644 0.090227
Si Si7 0.700473 0.078939 0.632885
Si Si8 0.687364 0.757818 0.815106
O O1 0.850656 0.771542 0.470972
O O2 0.870737 0.686512 0.818100
O O3 0.173171 0.603413 0.885566
O O4 0.180442 0.418294 0.923526
O O5 0.500000 0.500000 0.500000
O O6 0.811761 0.289971 0.536259
O O7 0.565324 0.618912 0.290600
O O8 0.389654 0.595146 0.102451
O O9 0.560019 0.913686 0.781721
O O10 0.500000 0.000000 0.000000
O O11 0.389712 0.910963 0.923597
O O12 0.075129 0.844758 0.605881
O O13 0.945674 0.865136 0.820691
O O14 0.274609 0.828094 0.481370
O O15 0.863599 0.055625 0.121125
O O16 0.351985 0.882129 0.225919
O O17 0.502249 0.162217 0.413507
#
# Coordination Sequence:
#
# PCOD9067139 Si02
#       8
#     2   2   2   2   2   2   2   2
#     4  11  25  48  70 103 134 181 237 280 343 409
#     4  12  26  45  67 104 145 185 225 281 350 409
#     4  12  27  47  73 102 138 178 232 288 350 408
#     4  12  25  42  74 101 139 182 233 282 338 416
#     4  12  24  45  69 102 142 180 231 280 346 408
#     4  12  26  44  67 104 141 181 231 283 347 416
#     4  12  23  44  73  97 141 184 225 286 346 409
#     4  11  26  47  73  98 136 181 233 286 343 414
#
# _framework density 23.062856
#
# number of rings (size 3 to 8) (size 9 to 14) (size 15 to 20)
#    0.000    0.250    5.000    3.750    5.250    0.500 
#    0.000    0.000    0.000    0.000    0.000    0.000 
#    0.000    0.000    0.000    0.000    0.000    0.000 
#
# Total GULP energy -89681.562893 kJ/mol
# GULP energy per Si atom -5605.097681 kJ/mol
# Density = 2.301036 g / cm^3
# Si number density = 23.062856 Si / 1000 Ang^3
#
#
#
# Elastic Constant Matrix: (Units=GPa)
#
#
# Indices 1 2 3 4 5 6 
#
# 1 69.4790 -3.8201 11.7614 2.9852 -14.0637 5.8994
# 2 -3.8201 65.0518 26.8554 4.8816 -1.0179 5.6836
# 3 11.7614 26.8554 68.4240 3.7959 -11.3146 12.9939
# 4 2.9852 4.8816 3.7959 45.5268 10.3010 -5.8837
# 5 -14.0637 -1.0179 -11.3146 10.3010 33.1148 -6.2368
# 6 5.8994 5.6836 12.9939 -5.8837 -6.2368 32.8497
#
#
#
# Elastic Compliance Matrix: (Units=1/GPa)
#
#
# Indices 1 2 3 4 5 6 
#
# 1 0.016567 0.002329 -0.002111 -0.002965 0.006979 -0.001749
# 2 0.002329 0.018859 -0.007644 -0.001500 -0.000779 -0.001074
# 3 -0.002111 -0.007644 0.020120 -0.002703 0.005511 -0.005695
# 4 -0.002965 -0.001500 -0.002703 0.025227 -0.009204 0.004632
# 5 0.006979 -0.000779 0.005511 -0.009204 0.038323 0.002329
# 6 -0.001749 -0.001074 -0.005695 0.004632 0.002329 0.034466
#
#
# Mechanical properties :
#
#
# Convention : Reuss Voigt Hill
#
# Bulk Modulus (GPa) = 24.57331 30.28315 27.42823
# Shear Modulus (GPa) = 27.47582 33.50880 30.49231
#
# Velocity S-wave (km/s) = 3.45533 3.81587 3.64007
# Velocity P-wave (km/s) = 5.15724 5.70734 5.43925
#
# Compressibility (1/GPa) = 0.04069456
#
# Stress axis : x y z
#
# Youngs Moduli (GPa) = 60.36155 53.02532 49.70080
#
# Poissons Ratio (x) = -0.12349 0.10492
# Poissons Ratio (y) = -0.14057 0.37990
# Poissons Ratio (z) = 0.12742 0.40531
#
# Static dielectric constant tensor:
#      x y z
#    x 1.869550 -0.000690 -0.025690 
#    y -0.000690 1.854990 -0.015020 
#    z -0.025690 -0.015020 1.823760 
# 
# From -- ./inp_files/272600.got.cif
#   From: 2010.05.17/outbox.cif.g08.bks.cpg/sg2_137_cif.got.tgz:272600.got - 2010.06.03 11:33:40.
