data_PCOD9067607
_publ_section_title
;
Structure prediction by ZEFSAII (Michael W. Deem and Ramdas Pophale) SiO2 
 PCOD9067607
Probable space group: P -1
;
_chemical_formula_sum "Si O2"
_cell_formula_units_Z 8
_cell_length_a 5.619618
_cell_length_b 8.896233
_cell_length_c 12.159125
_cell_angle_alpha 140.474909
_cell_angle_beta 108.143241
_cell_angle_gamma 90.317348
_cell_volume 335.913157
_symmetry_space_group_name_H-M "P -1"
_symmetry_group_IT_number 2
_symmetry_cell_setting 'triclinic'
loop_
_space_group_symop_operation_xyz
x,y,z
-x,-y,-z
loop_
_atom_site_type_symbol
_atom_site_label
_atom_site_fract_x
_atom_site_fract_y
_atom_site_fract_z
Si Si1 0.069702 0.525406 0.698780
Si Si2 0.239361 0.279274 0.393904
Si Si3 0.225769 0.708318 0.070604
Si Si4 0.294090 0.995175 0.564940
O O1 0.232997 0.395889 0.578654
O O2 0.012517 0.719846 0.717903
O O3 0.191162 0.632575 0.895059
O O4 0.787641 0.281279 0.545856
O O5 0.500000 0.500000 0.500000
O O6 0.206545 0.986654 0.231287
O O7 0.528708 0.774679 0.198801
O O8 0.000000 0.500000 0.000000
O O9 0.500000 0.000000 0.500000
O O10 0.000000 0.000000 0.500000
#
# Coordination Sequence:
#
# PCOD9067607 Si02
#       4
#     2   2   2   2
#     4  11  26  48  79 111 156 210 261 327 397 473
#     4  11  25  51  75 110 164 203 262 328 395 473
#     4  12  26  49  82 118 152 211 266 326 402 478
#     4  12  26  50  76 118 164 205 263 337 400 475
#
# _framework density 23.815677000000001
#
# number of rings (size 3 to 8) (size 9 to 14) (size 15 to 20)
#    0.000    0.500    5.000    2.250    0.000    2.000 
#    9.000    0.000    0.000    0.000    0.000    0.000 
#    0.000    0.000    0.000    0.000    0.000    0.000 
#
# Total GULP energy -44756.015554 kJ/mol
# GULP energy per Si atom -5594.501944 kJ/mol
# Density = 2.376147 g / cm^3
# Si number density = 23.815677 Si / 1000 Ang^3
#
#
#
# Elastic Constant Matrix: (Units=GPa)
#
#
# Indices 1 2 3 4 5 6 
#
# 1 133.2364 79.9132 80.0882 -6.8909 -3.8505 9.1593
# 2 79.9132 152.3984 91.1915 3.4178 -19.1556 2.3193
# 3 80.0882 91.1915 220.1637 -30.8514 -5.6372 4.3963
# 4 -6.8909 3.4178 -30.8514 64.7607 1.9209 -5.1776
# 5 -3.8505 -19.1556 -5.6372 1.9209 47.0529 -10.5203
# 6 9.1593 2.3193 4.3963 -5.1776 -10.5203 58.2546
#
#
#
# Elastic Compliance Matrix: (Units=1/GPa)
#
#
# Indices 1 2 3 4 5 6 
#
# 1 0.012036 -0.005229 -0.002162 0.000436 -0.001826 -0.001812
# 2 -0.005229 0.011891 -0.003327 -0.002808 0.004385 0.001142
# 3 -0.002162 -0.003327 0.007159 0.003387 -0.000792 0.000090
# 4 0.000436 -0.002808 0.003387 0.017374 -0.001160 0.001122
# 5 -0.001826 0.004385 -0.000792 -0.001160 0.023818 0.004371
# 6 -0.001812 0.001142 0.000090 0.001122 0.004371 0.018288
#
#
# Mechanical properties :
#
#
# Convention : Reuss Voigt Hill
#
# Bulk Modulus (GPa) = 103.62876 112.02048 107.82462
# Shear Modulus (GPa) = 43.39587 50.98733 47.19160
#
# Velocity S-wave (km/s) = 4.27330 4.63202 4.45627
# Velocity P-wave (km/s) = 8.24351 8.70322 8.47648
#
# Compressibility (1/GPa) = 0.00964983
#
# Stress axis : x y z
#
# Youngs Moduli (GPa) = 83.08630 84.09380 139.68419
#
# Poissons Ratio (x) = 0.43976 0.30194
# Poissons Ratio (y) = 0.43449 0.46475
# Poissons Ratio (z) = 0.17960 0.27979
#
# Static dielectric constant tensor:
#      x y z
#    x 1.998470 -0.121010 0.017420 
#    y -0.121010 1.898090 0.007650 
#    z 0.017420 0.007650 1.897260 
# 
# From -- ./inp_files/2062.got.cif
#   From: 2010.05.17/outbox.cif.g08.bks.cpg/sg2_2_cif.got.tgz:2062.got - 2010.06.03 11:33:40.
