data_PCOD9067116
_publ_section_title
;
Structure prediction by ZEFSAII (Michael W. Deem and Ramdas Pophale) SiO2 
 PCOD9067116
Probable space group: P -1
;
_chemical_formula_sum "Si O2"
_cell_formula_units_Z 10
_cell_length_a 8.262997
_cell_length_b 5.666736
_cell_length_c 11.010990
_cell_angle_alpha 55.050954
_cell_angle_beta 87.645422
_cell_angle_gamma 110.169142
_cell_volume 377.131405
_symmetry_space_group_name_H-M "P -1"
_symmetry_group_IT_number 2
_symmetry_cell_setting 'triclinic'
loop_
_space_group_symop_operation_xyz
x,y,z
-x,-y,-z
loop_
_atom_site_type_symbol
_atom_site_label
_atom_site_fract_x
_atom_site_fract_y
_atom_site_fract_z
Si Si1 0.915280 0.224331 0.483318
Si Si2 0.292728 0.107361 0.718489
Si Si3 0.544925 0.870542 0.908788
Si Si4 0.429073 0.255616 0.405648
Si Si5 0.977413 0.149849 0.830267
O O1 0.000000 0.500000 0.500000
O O2 0.914734 0.457794 0.303866
O O3 0.729410 0.937978 0.624973
O O4 0.000000 0.000000 0.500000
O O5 0.334086 0.257577 0.537263
O O6 0.406616 0.404977 0.718849
O O7 0.082883 0.007187 0.780479
O O8 0.404364 0.908244 0.804614
O O9 0.766306 0.063556 0.841693
O O10 0.500000 0.500000 0.000000
O O11 0.500000 0.000000 0.000000
O O12 0.500000 0.000000 0.500000
O O13 0.000000 0.000000 0.000000
#
# Coordination Sequence:
#
# PCOD9067116 Si02
#       5
#     2   2   2   2   2
#     4  12  28  51  79 118 158 210 273 334 397 488
#     4  11  26  51  81 118 162 210 272 336 409 487
#     4  12  30  50  77 115 163 212 266 326 405 488
#     4  11  25  47  81 111 155 209 267 334 403 478
#     4  12  27  52  82 121 163 214 269 335 413 487
#
# _framework density 26.515958000000001
#
# number of rings (size 3 to 8) (size 9 to 14) (size 15 to 20)
#    0.000    0.400    4.000    2.400   11.200    4.000 
#    0.000    0.000    0.000    0.000    0.000    0.000 
#    0.000    0.000    0.000    0.000    0.000    0.000 
#
# Total GULP energy -55743.388005 kJ/mol
# GULP energy per Si atom -5574.338800 kJ/mol
# Density = 2.645561 g / cm^3
# Si number density = 26.515958 Si / 1000 Ang^3
#
#
#
# Elastic Constant Matrix: (Units=GPa)
#
#
# Indices 1 2 3 4 5 6 
#
# 1 221.3228 45.7481 30.2235 0.1288 -8.2655 -12.4724
# 2 45.7481 139.7860 27.5881 -7.7930 5.8795 -5.8843
# 3 30.2235 27.5881 93.8962 5.0160 20.5529 -13.1312
# 4 0.1288 -7.7930 5.0160 66.3371 -11.2686 5.5992
# 5 -8.2655 5.8795 20.5529 -11.2686 55.7020 -10.8571
# 6 -12.4724 -5.8843 -13.1312 5.5992 -10.8571 47.3875
#
#
#
# Elastic Compliance Matrix: (Units=1/GPa)
#
#
# Indices 1 2 3 4 5 6 
#
# 1 0.005137 -0.001410 -0.001457 0.000126 0.001698 0.001147
# 2 -0.001410 0.008064 -0.001954 0.001081 -0.000134 -0.000070
# 3 -0.001457 -0.001954 0.013190 -0.002241 -0.004907 0.002169
# 4 0.000126 0.001081 -0.002241 0.016127 0.003699 -0.001511
# 5 0.001698 -0.000134 -0.004907 0.003699 0.021470 0.003552
# 6 0.001147 -0.000070 0.002169 -0.001511 0.003552 0.022990
#
#
# Mechanical properties :
#
#
# Convention : Reuss Voigt Hill
#
# Bulk Modulus (GPa) = 59.70134 73.56939 66.63536
# Shear Modulus (GPa) = 48.92318 57.31499 53.11909
#
# Velocity S-wave (km/s) = 4.30006 4.65427 4.48067
# Velocity P-wave (km/s) = 6.87155 7.52918 7.20787
#
# Compressibility (1/GPa) = 0.01675004
#
# Stress axis : x y z
#
# Youngs Moduli (GPa) = 194.68049 124.01357 75.81299
#
# Poissons Ratio (x) = 0.17481 0.11047
# Poissons Ratio (y) = 0.27442 0.14810
# Poissons Ratio (z) = 0.28368 0.24227
#
# Static dielectric constant tensor:
#      x y z
#    x 2.287390 0.117520 0.005290 
#    y 0.117520 2.153110 0.154870 
#    z 0.005290 0.154870 2.204680 
# 
# From -- ./inp_files/29940.got.cif
#   From: 2010.05.17/outbox.cif.g08.bks.cpg/sg2_15_cif.got.tgz:29940.got - 2010.06.03 11:33:40.
