data_PCOD9067342
_publ_section_title
;
Structure prediction by ZEFSAII (Michael W. Deem and Ramdas Pophale) SiO2 
 PCOD9067342
Probable space group: P -1
;
_chemical_formula_sum "Si O2"
_cell_formula_units_Z 16
_cell_length_a 13.472603
_cell_length_b 10.238428
_cell_length_c 7.025112
_cell_angle_alpha 65.882321
_cell_angle_beta 72.501989
_cell_angle_gamma 44.860288
_cell_volume 623.777296
_symmetry_space_group_name_H-M "P -1"
_symmetry_group_IT_number 2
_symmetry_cell_setting 'triclinic'
loop_
_space_group_symop_operation_xyz
x,y,z
-x,-y,-z
loop_
_atom_site_type_symbol
_atom_site_label
_atom_site_fract_x
_atom_site_fract_y
_atom_site_fract_z
Si Si1 0.063969 0.753221 0.090003
Si Si2 0.536095 0.484797 0.268367
Si Si3 0.230357 0.436442 0.471633
Si Si4 0.457498 0.850147 0.988543
Si Si5 0.719188 0.222963 0.009744
Si Si6 0.835384 0.820212 0.441561
Si Si7 0.026130 0.803194 0.632238
Si Si8 0.537503 0.058888 0.645570
O O1 0.185783 0.533815 0.230687
O O2 0.132910 0.840434 0.060844
O O3 0.926430 0.835581 0.238665
O O4 0.043887 0.763488 0.870582
O O5 0.500000 0.500000 0.500000
O O6 0.395741 0.580990 0.168359
O O7 0.671217 0.975948 0.495546
O O8 0.563340 0.623887 0.112805
O O9 0.157582 0.345453 0.560546
O O10 0.391735 0.266659 0.542838
O O11 0.161013 0.614822 0.552143
O O12 0.510997 0.913762 0.768571
O O13 0.317680 0.899153 0.971090
O O14 0.426405 0.941891 0.156568
O O15 0.666763 0.281874 0.223089
O O16 0.906373 0.810212 0.605684
O O17 0.000000 0.000000 0.500000
#
# Coordination Sequence:
#
# PCOD9067342 Si02
#       8
#     2   2   2   2   2   2   2   2
#     4  11  26  48  85 120 159 211 275 327 417 489
#     4   9  20  40  71 107 159 202 265 342 412 469
#     4  11  28  50  83 120 159 219 273 338 409 488
#     4   9  23  44  73 113 163 217 265 341 408 480
#     4   9  22  41  71 114 152 206 261 341 411 468
#     4  11  28  53  78 121 170 222 264 330 406 498
#     4  11  28  55  86 115 160 214 276 346 409 489
#     4  11  25  48  81 117 167 216 277 332 410 483
#
# _framework density 25.650179999999999
#
# number of rings (size 3 to 8) (size 9 to 14) (size 15 to 20)
#    0.750    1.000    0.000    1.875    5.250   11.000 
#    4.500    3.125    0.000    0.750    0.000    0.000 
#    0.000    0.000    0.000    0.000    0.000    0.000 
#
# Total GULP energy -89390.420957 kJ/mol
# GULP energy per Si atom -5586.901310 kJ/mol
# Density = 2.559180 g / cm^3
# Si number density = 25.650180 Si / 1000 Ang^3
#
#
#
# Elastic Constant Matrix: (Units=GPa)
#
#
# Indices 1 2 3 4 5 6 
#
# 1 212.2540 87.3849 86.1468 11.4822 -5.7975 -14.2444
# 2 87.3849 143.8521 72.6638 16.4628 -8.8860 -2.1022
# 3 86.1468 72.6638 197.6241 16.3511 -8.7757 -12.3356
# 4 11.4822 16.4628 16.3511 54.5750 16.8372 -0.2218
# 5 -5.7975 -8.8860 -8.7757 16.8372 38.7014 -3.8688
# 6 -14.2444 -2.1022 -12.3356 -0.2218 -3.8688 50.4785
#
#
#
# Elastic Compliance Matrix: (Units=1/GPa)
#
#
# Indices 1 2 3 4 5 6 
#
# 1 0.006841 -0.003289 -0.001693 0.000067 -0.000005 0.001380
# 2 -0.003289 0.010469 -0.002144 -0.002588 0.002467 -0.000838
# 3 -0.001693 -0.002144 0.006862 -0.001543 0.001604 0.001226
# 4 0.000067 -0.002588 -0.001543 0.022954 -0.011041 -0.001211
# 5 -0.000005 0.002467 0.001604 -0.011041 0.031860 0.002886
# 6 0.001380 -0.000838 0.001226 -0.001211 0.002886 0.020680
#
#
# Mechanical properties :
#
#
# Convention : Reuss Voigt Hill
#
# Bulk Modulus (GPa) = 100.80065 116.23567 108.51816
# Shear Modulus (GPa) = 42.65357 49.25330 45.95344
#
# Velocity S-wave (km/s) = 4.08229 4.38675 4.23726
# Velocity P-wave (km/s) = 7.84880 8.43044 8.14481
#
# Compressibility (1/GPa) = 0.00992057
#
# Stress axis : x y z
#
# Youngs Moduli (GPa) = 146.17719 95.52247 145.73504
#
# Poissons Ratio (x) = 0.31413 0.24667
# Poissons Ratio (y) = 0.48071 0.31251
# Poissons Ratio (z) = 0.24742 0.20483
#
# Static dielectric constant tensor:
#      x y z
#    x 2.033610 0.011750 0.022980 
#    y 0.011750 2.165870 -0.125650 
#    z 0.022980 -0.125650 2.065580 
# 
# From -- ./inp_files/302348.got.cif
#   From: 2010.05.17/outbox.cif.g08.bks.cpg/sg2_152_cif.got.tgz:302348.got - 2010.06.03 11:33:40.
