data_PCOD9067370
_publ_section_title
;
Structure prediction by ZEFSAII (Michael W. Deem and Ramdas Pophale) SiO2 
 PCOD9067370
Probable space group: P -1
;
_chemical_formula_sum "Si O2"
_cell_formula_units_Z 12
_cell_length_a 16.607218
_cell_length_b 6.238076
_cell_length_c 5.896930
_cell_angle_alpha 79.965247
_cell_angle_beta 108.166660
_cell_angle_gamma 124.491269
_cell_volume 478.414856
_symmetry_space_group_name_H-M "P -1"
_symmetry_group_IT_number 2
_symmetry_cell_setting 'triclinic'
loop_
_space_group_symop_operation_xyz
x,y,z
-x,-y,-z
loop_
_atom_site_type_symbol
_atom_site_label
_atom_site_fract_x
_atom_site_fract_y
_atom_site_fract_z
Si Si1 0.040535 0.269594 0.860907
Si Si2 0.153632 0.734397 0.234931
Si Si3 0.316835 0.259367 0.047734
Si Si4 0.790690 0.549766 0.367588
Si Si5 0.629284 0.422109 0.563724
Si Si6 0.548003 0.916148 0.867167
O O1 0.113661 0.500575 0.059115
O O2 0.098955 0.286718 0.678644
O O3 0.944433 0.290241 0.737380
O O4 0.000000 0.000000 0.000000
O O5 0.215401 0.704078 0.497002
O O6 0.219048 0.996221 0.102384
O O7 0.279399 0.437256 0.885362
O O8 0.453703 0.693095 0.683094
O O9 0.380421 0.178716 0.969532
O O10 0.743344 0.609653 0.531235
O O11 0.613853 0.582713 0.707396
O O12 0.613638 0.164295 0.714578
O O13 0.500000 0.000000 0.000000
#
# Coordination Sequence:
#
# PCOD9067370 Si02
#       6
#     2   2   2   2   2   2
#     4  11  25  49  72 109 150 193 248 304 364 441
#     4  11  26  48  73 108 150 192 249 306 364 439
#     4  12  26  48  76 109 150 192 249 307 369 440
#     4  12  25  45  78 105 147 197 243 299 371 434
#     4  11  26  46  72 113 146 193 248 303 369 441
#     4  11  26  49  77 106 151 195 247 308 368 441
#
# _framework density 25.082833000000001
#
# number of rings (size 3 to 8) (size 9 to 14) (size 15 to 20)
#    0.000    0.667    3.333    3.000    2.333    7.333 
#    0.000    0.000    0.000    0.000    0.000    0.000 
#    0.000    0.000    0.000    0.000    0.000    0.000 
#
# Total GULP energy -67094.541266 kJ/mol
# GULP energy per Si atom -5591.211772 kJ/mol
# Density = 2.502574 g / cm^3
# Si number density = 25.082833 Si / 1000 Ang^3
#
#
#
# Elastic Constant Matrix: (Units=GPa)
#
#
# Indices 1 2 3 4 5 6 
#
# 1 197.4276 21.9009 62.5714 4.1617 -5.1828 13.2942
# 2 21.9009 113.9677 35.8468 -2.0449 -5.0999 1.7849
# 3 62.5714 35.8468 91.2824 -13.6216 11.8208 8.3296
# 4 4.1617 -2.0449 -13.6216 39.6987 11.7133 -13.3459
# 5 -5.1828 -5.0999 11.8208 11.7133 47.4994 -8.3365
# 6 13.2942 1.7849 8.3296 -13.3459 -8.3365 19.9812
#
#
#
# Elastic Compliance Matrix: (Units=1/GPa)
#
#
# Indices 1 2 3 4 5 6 
#
# 1 0.007420 0.000577 -0.006025 -0.005269 0.002825 -0.004817
# 2 0.000577 0.010409 -0.005260 -0.001957 0.003126 0.000876
# 3 -0.006025 -0.005260 0.019762 0.009304 -0.008636 -0.001149
# 4 -0.005269 -0.001957 0.009304 0.038855 -0.008807 0.022079
# 5 0.002825 0.003126 -0.008636 -0.008807 0.027232 0.006921
# 6 -0.004817 0.000876 -0.001149 0.022079 0.006921 0.071288
#
#
# Mechanical properties :
#
#
# Convention : Reuss Voigt Hill
#
# Bulk Modulus (GPa) = 61.82436 71.47955 66.65196
# Shear Modulus (GPa) = 24.78017 40.25976 32.51997
#
# Velocity S-wave (km/s) = 3.14655 4.01068 3.60460
# Velocity P-wave (km/s) = 6.15651 7.07154 6.62983
#
# Compressibility (1/GPa) = 0.01617485
#
# Stress axis : x y z
#
# Youngs Moduli (GPa) = 134.76347 96.07090 50.60191
#
# Poissons Ratio (x) = -0.05539 0.30489
# Poissons Ratio (y) = -0.07770 0.26614
# Poissons Ratio (z) = 0.81199 0.50529
#
# Static dielectric constant tensor:
#      x y z
#    x 1.971290 0.013430 -0.009190 
#    y 0.013430 1.953680 -0.009210 
#    z -0.009190 -0.009210 2.021220 
# 
# From -- ./inp_files/106358.got.cif
#   From: 2010.05.17/outbox.cif.g08.bks.cpg/sg2_54_cif.got.tgz:106358.got - 2010.06.03 11:33:40.
