data_PCOD9067525
_publ_section_title
;
Structure prediction by ZEFSAII (Michael W. Deem and Ramdas Pophale) SiO2 
 PCOD9067525
Probable space group: P -1
;
_chemical_formula_sum "Si O2"
_cell_formula_units_Z 14
_cell_length_a 21.587167
_cell_length_b 18.089357
_cell_length_c 9.133340
_cell_angle_alpha 45.371172
_cell_angle_beta 143.668402
_cell_angle_gamma 161.301807
_cell_volume 642.031265
_symmetry_space_group_name_H-M "P -1"
_symmetry_group_IT_number 2
_symmetry_cell_setting 'triclinic'
loop_
_space_group_symop_operation_xyz
x,y,z
-x,-y,-z
loop_
_atom_site_type_symbol
_atom_site_label
_atom_site_fract_x
_atom_site_fract_y
_atom_site_fract_z
Si Si1 0.068857 0.480815 0.781512
Si Si2 0.454854 0.040347 0.485791
Si Si3 0.234950 0.283419 0.870238
Si Si4 0.483246 0.216368 0.696299
Si Si5 0.228480 0.785240 0.910005
Si Si6 0.779257 0.498913 0.563346
Si Si7 0.725357 0.747074 0.679867
O O1 0.123172 0.603096 0.854908
O O2 0.000000 0.500000 0.500000
O O3 0.305801 0.623605 0.008167
O O4 0.831994 0.196012 0.735649
O O5 0.605550 0.281080 0.423185
O O6 0.500000 0.000000 0.500000
O O7 0.560374 0.077588 0.780270
O O8 0.167912 0.338227 0.613355
O O9 0.500000 0.500000 0.000000
O O10 0.262346 0.299841 0.075121
O O11 0.000864 0.998136 0.786801
O O12 0.629893 0.365387 0.616655
O O13 0.339791 0.191262 0.495041
O O14 0.319399 0.965321 0.737636
O O15 0.025167 0.651250 0.816537
O O16 0.500000 0.500000 0.500000
#
# Coordination Sequence:
#
# PCOD9067525 Si02
#       7
#     2   2   2   2   2   2   2
#     4  12  24  41  67 100 141 186 233 273 335 418
#     4  12  24  41  66 101 138 183 233 276 334 413
#     4  11  25  50  76 102 137 183 238 296 361 421
#     4  12  24  45  71 100 139 187 227 281 355 410
#     4  12  24  45  66  98 149 184 226 285 337 412
#     4  12  24  44  73  99 138 188 227 282 351 412
#     4  11  27  49  75 105 139 179 238 303 357 421
#
# _framework density 21.805792
#
# number of rings (size 3 to 8) (size 9 to 14) (size 15 to 20)
#    0.000    0.286    7.143    2.571    0.000    4.000 
#    2.571    0.000    0.000    0.000    0.000    0.000 
#    0.000    0.000    0.000    0.000    0.000    0.000 
#
# Total GULP energy -78237.878013 kJ/mol
# GULP energy per Si atom -5588.419858 kJ/mol
# Density = 2.175616 g / cm^3
# Si number density = 21.805792 Si / 1000 Ang^3
#
#
#
# Elastic Constant Matrix: (Units=GPa)
#
#
# Indices 1 2 3 4 5 6 
#
# 1 66.7026 30.3632 23.6840 3.0391 -3.3433 11.2090
# 2 30.3632 151.5708 27.6787 7.8233 -12.0417 10.3336
# 3 23.6840 27.6787 82.9358 -0.6168 -9.6087 -0.1753
# 4 3.0391 7.8233 -0.6168 50.7630 3.7279 2.3212
# 5 -3.3433 -12.0417 -9.6087 3.7279 38.7564 9.7217
# 6 11.2090 10.3336 -0.1753 2.3212 9.7217 33.4462
#
#
#
# Elastic Compliance Matrix: (Units=1/GPa)
#
#
# Indices 1 2 3 4 5 6 
#
# 1 0.018741 -0.002409 -0.004413 -0.000631 0.001314 -0.005898
# 2 -0.002409 0.007789 -0.001637 -0.001156 0.002482 -0.002249
# 3 -0.004413 -0.001637 0.014128 0.000462 0.002223 0.001381
# 4 -0.000631 -0.001156 0.000462 0.020090 -0.002184 -0.000188
# 5 0.001314 0.002482 0.002223 -0.002184 0.029889 -0.009732
# 6 -0.005898 -0.002249 0.001381 -0.000188 -0.009732 0.035419
#
#
# Mechanical properties :
#
#
# Convention : Reuss Voigt Hill
#
# Bulk Modulus (GPa) = 42.12388 51.62902 46.87645
# Shear Modulus (GPa) = 33.13706 39.22534 36.18120
#
# Velocity S-wave (km/s) = 3.90249 4.24589 4.07780
# Velocity P-wave (km/s) = 6.29806 6.91121 6.61175
#
# Compressibility (1/GPa) = 0.02373950
#
# Stress axis : x y z
#
# Youngs Moduli (GPa) = 53.35835 128.38018 70.78162
#
# Poissons Ratio (x) = 0.30932 0.31234
# Poissons Ratio (y) = 0.12856 0.11590
# Poissons Ratio (z) = 0.23546 0.21021
#
# Static dielectric constant tensor:
#      x y z
#    x 1.791090 0.066580 0.008720 
#    y 0.066580 1.888840 0.033680 
#    z 0.008720 0.033680 1.799050 
# 
# From -- ./inp_files/348371.got.cif
#   From: 2010.05.17/outbox.cif.g08.bks.cpg/sg2_175_cif.got.tgz:348371.got - 2010.06.03 11:33:40.
