data_PCOD9067797
_publ_section_title
;
Structure prediction by ZEFSAII (Michael W. Deem and Ramdas Pophale) SiO2 
 PCOD9067797
Probable space group: P -1
;
_chemical_formula_sum "Si O2"
_cell_formula_units_Z 14
_cell_length_a 14.628031
_cell_length_b 11.585425
_cell_length_c 5.457170
_cell_angle_alpha 71.012265
_cell_angle_beta 121.492929
_cell_angle_gamma 129.086595
_cell_volume 612.105479
_symmetry_space_group_name_H-M "P -1"
_symmetry_group_IT_number 2
_symmetry_cell_setting 'triclinic'
loop_
_space_group_symop_operation_xyz
x,y,z
-x,-y,-z
loop_
_atom_site_type_symbol
_atom_site_label
_atom_site_fract_x
_atom_site_fract_y
_atom_site_fract_z
Si Si1 0.740827 0.257548 0.275264
Si Si2 0.610897 0.748759 0.504444
Si Si3 0.747078 0.041588 0.752040
Si Si4 0.842360 0.551890 0.373096
Si Si5 0.311810 0.478050 0.328138
Si Si6 0.079654 0.673067 0.908220
Si Si7 0.462547 0.091018 0.057509
O O1 0.742789 0.119211 0.448423
O O2 0.844858 0.406778 0.454791
O O3 0.783394 0.290173 0.031823
O O4 0.608859 0.231560 0.207581
O O5 0.455948 0.635958 0.433569
O O6 0.658356 0.646385 0.569219
O O7 0.709436 0.877752 0.747571
O O8 0.609387 0.842704 0.214035
O O9 0.621401 0.999731 0.765590
O O10 0.875492 0.182170 0.963257
O O11 0.762974 0.543754 0.507661
O O12 0.992143 0.676842 0.565701
O O13 0.774823 0.547127 0.022288
O O14 0.000000 0.500000 0.000000
O O15 0.500000 0.000000 0.000000
#
# Coordination Sequence:
#
# PCOD9067797 Si02
#       7
#     2   2   2   2   2   2   2
#     4  12  24  42  71 109 146 184 238 305 377 431
#     4  11  26  45  73 104 144 184 247 305 366 426
#     4  12  25  42  71 106 150 184 236 302 376 423
#     4  12  26  46  74 104 147 193 248 285 358 441
#     4  11  28  48  75 104 142 200 244 301 356 434
#     4  12  26  43  71 108 151 192 239 296 367 437
#     4  12  23  40  69 108 143 175 231 305 379 424
#
# _framework density 22.871874999999999
#
# number of rings (size 3 to 8) (size 9 to 14) (size 15 to 20)
#    0.000    0.286    5.714    2.571    6.000    1.143 
#    0.000    1.429    0.000    0.000    0.000    0.000 
#    0.000    0.000    0.000    0.000    0.000    0.000 
#
# Total GULP energy -77960.959333 kJ/mol
# GULP energy per Si atom -5568.639952 kJ/mol
# Density = 2.281982 g / cm^3
# Si number density = 22.871875 Si / 1000 Ang^3
#
#
#
# Elastic Constant Matrix: (Units=GPa)
#
#
# Indices 1 2 3 4 5 6 
#
# 1 97.8644 37.4797 19.7333 -11.1426 -18.8334 3.5320
# 2 37.4797 146.4594 48.3457 18.6370 -3.0060 -11.0110
# 3 19.7333 48.3457 89.8799 14.2324 1.7811 -2.4705
# 4 -11.1426 18.6370 14.2324 43.4878 5.0166 -7.0517
# 5 -18.8334 -3.0060 1.7811 5.0166 31.4803 -2.4332
# 6 3.5320 -11.0110 -2.4705 -7.0517 -2.4332 39.1864
#
#
#
# Elastic Compliance Matrix: (Units=1/GPa)
#
#
# Indices 1 2 3 4 5 6 
#
# 1 0.013927 -0.003379 -0.002160 0.004713 0.007300 -0.001040
# 2 -0.003379 0.009524 -0.003790 -0.003339 -0.000201 0.002129
# 3 -0.002160 -0.003790 0.014207 -0.003469 -0.001961 -0.000721
# 4 0.004713 -0.003339 -0.003469 0.027464 -0.001427 0.003272
# 5 0.007300 -0.000201 -0.001961 -0.001427 0.036543 0.001174
# 6 -0.001040 0.002129 -0.000721 0.003272 0.001174 0.026827
#
#
# Mechanical properties :
#
#
# Convention : Reuss Voigt Hill
#
# Bulk Modulus (GPa) = 52.62890 60.59125 56.61008
# Shear Modulus (GPa) = 32.57686 38.07388 35.32537
#
# Velocity S-wave (km/s) = 3.77811 4.08445 3.93426
# Velocity P-wave (km/s) = 6.48787 6.98518 6.74111
#
# Compressibility (1/GPa) = 0.01900097
#
# Stress axis : x y z
#
# Youngs Moduli (GPa) = 71.80465 104.99352 70.38720
#
# Poissons Ratio (x) = 0.35478 0.15200
# Poissons Ratio (y) = 0.24263 0.26677
# Poissons Ratio (z) = 0.15506 0.39793
#
# Static dielectric constant tensor:
#      x y z
#    x 1.987870 0.147900 -0.007570 
#    y 0.147900 2.010360 0.083810 
#    z -0.007570 0.083810 1.993230 
# 
# From -- ./inp_files/93447.got.cif
#   From: 2010.05.17/outbox.cif.g08.bks.cpg/sg2_47_cif.got.tgz:93447.got - 2010.06.03 11:33:40.
