data_PCOD9067179
_publ_section_title
;
Structure prediction by ZEFSAII (Michael W. Deem and Ramdas Pophale) SiO2 
 PCOD9067179
Probable space group: P -1
;
_chemical_formula_sum "Si O2"
_cell_formula_units_Z 13
_cell_length_a 18.691481
_cell_length_b 8.870151
_cell_length_c 16.046335
_cell_angle_alpha 121.941926
_cell_angle_beta 158.670271
_cell_angle_gamma 46.657117
_cell_volume 639.675485
_symmetry_space_group_name_H-M "P -1"
_symmetry_group_IT_number 2
_symmetry_cell_setting 'triclinic'
loop_
_space_group_symop_operation_xyz
x,y,z
-x,-y,-z
loop_
_atom_site_type_symbol
_atom_site_label
_atom_site_fract_x
_atom_site_fract_y
_atom_site_fract_z
Si Si1 0.636056 0.260767 0.531381
Si Si2 0.521342 0.161086 0.628348
Si Si3 0.157213 0.678690 0.391342
Si Si4 0.270337 0.251310 0.720660
Si Si5 0.733587 0.118287 0.291549
Si Si6 0.000000 0.000000 0.000000
Si Si7 0.410411 0.030159 0.170208
O O1 0.500000 0.500000 0.500000
O O2 0.783080 0.254623 0.610190
O O3 0.443423 0.220390 0.279911
O O4 0.822553 0.071552 0.745722
O O5 0.266169 0.419383 0.425704
O O6 0.500000 0.000000 0.500000
O O7 0.580010 0.071687 0.760202
O O8 0.745612 0.146409 0.826629
O O9 0.294730 0.704367 0.622402
O O10 0.857953 0.848935 0.129141
O O11 0.000000 0.500000 0.500000
O O12 0.249492 0.074951 0.694561
O O13 0.369431 0.157665 0.707522
O O14 0.491783 0.236317 0.003409
O O15 0.000000 0.000000 0.500000
#
# Coordination Sequence:
#
# PCOD9067179 Si02
#       7
#     2   2   2   2   2   1   2
#     4  12  25  44  68  98 139 182 225 286 342 408
#     4  12  27  43  67 104 138 181 233 283 339 415
#     4  12  26  44  73 100 140 186 226 288 346 416
#     4  11  27  47  74 106 142 179 234 300 346 419
#     4  11  25  48  72 107 139 180 235 288 358 418
#     4  12  24  42  64  98 140 176 228 280 332 402
#     4  12  26  44  70 103 136 184 235 280 354 414
#
# _framework density 20.322804999999999
#
# number of rings (size 3 to 8) (size 9 to 14) (size 15 to 20)
#    0.000    0.308    7.692    0.000    4.308    4.308 
#    0.000    0.000    0.000    0.000    0.000    0.000 
#    0.000    0.000    0.000    0.000    0.000    0.000 
#
# Total GULP energy -72424.666373 kJ/mol
# GULP energy per Si atom -5571.128183 kJ/mol
# Density = 2.027655 g / cm^3
# Si number density = 20.322805 Si / 1000 Ang^3
#
#
#
# Elastic Constant Matrix: (Units=GPa)
#
#
# Indices 1 2 3 4 5 6 
#
# 1 107.7632 41.9498 34.4912 -6.2336 0.3309 -28.7585
# 2 41.9498 79.4556 31.3339 0.0621 -4.5387 -15.5145
# 3 34.4912 31.3339 104.7434 -2.7817 -4.0703 -9.5713
# 4 -6.2336 0.0621 -2.7817 29.1123 -14.4290 -2.2512
# 5 0.3309 -4.5387 -4.0703 -14.4290 37.1828 -2.2955
# 6 -28.7585 -15.5145 -9.5713 -2.2512 -2.2955 30.8210
#
#
#
# Elastic Compliance Matrix: (Units=1/GPa)
#
#
# Indices 1 2 3 4 5 6 
#
# 1 0.015242 -0.004781 -0.002347 0.004720 0.001568 0.011548
# 2 -0.004781 0.017116 -0.003173 -0.000152 0.001929 0.003302
# 3 -0.002347 -0.003173 0.011349 0.001257 0.001359 -0.000070
# 4 0.004720 -0.000152 0.001257 0.045230 0.018208 0.009378
# 5 0.001568 0.001929 0.001359 0.018208 0.034748 0.006775
# 6 0.011548 0.003302 -0.000070 0.009378 0.006775 0.046051
#
#
# Mechanical properties :
#
#
# Convention : Reuss Voigt Hill
#
# Bulk Modulus (GPa) = 43.28163 56.39023 49.83593
# Shear Modulus (GPa) = 25.24725 31.70238 28.47482
#
# Velocity S-wave (km/s) = 3.52847 3.95389 3.74722
# Velocity P-wave (km/s) = 6.15982 6.97509 6.58009
#
# Compressibility (1/GPa) = 0.02310449
#
# Stress axis : x y z
#
# Youngs Moduli (GPa) = 65.60835 58.42390 88.11189
#
# Poissons Ratio (x) = 0.27931 0.20683
# Poissons Ratio (y) = 0.31366 0.27961
# Poissons Ratio (z) = 0.15401 0.18540
#
# Static dielectric constant tensor:
#      x y z
#    x 1.714210 0.017150 -0.001000 
#    y 0.017150 1.728720 0.021600 
#    z -0.001000 0.021600 1.703790 
# 
# From -- ./inp_files/88362.got.cif
#   From: 2010.05.17/outbox.cif.g08.bks.cpg/sg2_45_cif.got.tgz:88362.got - 2010.06.03 11:33:40.
