data_PCOD9067093
_publ_section_title
;
Structure prediction by ZEFSAII (Michael W. Deem and Ramdas Pophale) SiO2 
 PCOD9067093
Probable space group: P -1
;
_chemical_formula_sum "Si O2"
_cell_formula_units_Z 13
_cell_length_a 9.116870
_cell_length_b 8.494117
_cell_length_c 11.823538
_cell_angle_alpha 43.807235
_cell_angle_beta 62.790568
_cell_angle_gamma 82.026234
_cell_volume 535.787501
_symmetry_space_group_name_H-M "P -1"
_symmetry_group_IT_number 2
_symmetry_cell_setting 'triclinic'
loop_
_space_group_symop_operation_xyz
x,y,z
-x,-y,-z
loop_
_atom_site_type_symbol
_atom_site_label
_atom_site_fract_x
_atom_site_fract_y
_atom_site_fract_z
Si Si1 0.976801 0.652056 0.250339
Si Si2 0.304444 0.507579 0.219184
Si Si3 0.364714 0.739315 0.394813
Si Si4 0.159205 0.127769 0.291289
Si Si5 0.604034 0.866342 0.456844
Si Si6 0.988094 0.135797 0.108871
Si Si7 0.500000 0.000000 0.000000
O O1 0.784846 0.511795 0.428863
O O2 0.112792 0.521885 0.308750
O O3 0.035661 0.913798 0.149435
O O4 0.976830 0.670694 0.104005
O O5 0.279028 0.372334 0.178035
O O6 0.354266 0.327907 0.378159
O O7 0.426157 0.778652 0.045864
O O8 0.484261 0.753825 0.452078
O O9 0.261060 0.934929 0.339670
O O10 0.473319 0.801509 0.210697
O O11 0.090899 0.186982 0.163605
O O12 0.000000 0.000000 0.500000
O O13 0.500000 0.000000 0.500000
O O14 0.785102 0.047403 0.255295
#
# Coordination Sequence:
#
# PCOD9067093 Si02
#       7
#     2   2   2   2   2   2   1
#     4  11  26  50  80 111 146 210 256 325 360 459
#     4  12  26  50  78 112 154 197 255 307 387 441
#     4  12  26  48  75 108 156 195 259 305 387 446
#     4  12  23  47  78 112 145 204 248 319 367 455
#     4  12  25  48  76 115 157 200 241 321 383 455
#     4  11  25  47  78 112 154 195 267 305 387 442
#     4  12  30  48  72 114 148 204 242 318 380 454
#
# _framework density 24.263349000000002
#
# number of rings (size 3 to 8) (size 9 to 14) (size 15 to 20)
#    0.000    0.308    4.615    2.769    0.000   10.462 
#    5.538    0.000    0.000    0.000    0.000    0.000 
#    0.000    0.000    0.000    0.000    0.000    0.000 
#
# Total GULP energy -72672.591449 kJ/mol
# GULP energy per Si atom -5590.199342 kJ/mol
# Density = 2.420813 g / cm^3
# Si number density = 24.263349 Si / 1000 Ang^3
#
#
#
# Elastic Constant Matrix: (Units=GPa)
#
#
# Indices 1 2 3 4 5 6 
#
# 1 151.2416 43.9840 52.2795 5.4949 34.8565 9.8719
# 2 43.9840 99.4040 14.9433 -5.2844 8.7940 26.8819
# 3 52.2795 14.9433 122.6045 -1.9751 19.8571 26.1265
# 4 5.4949 -5.2844 -1.9751 35.6966 12.2730 0.9935
# 5 34.8565 8.7940 19.8571 12.2730 28.0149 0.4507
# 6 9.8719 26.8819 26.1265 0.9935 0.4507 51.2922
#
#
#
# Elastic Compliance Matrix: (Units=1/GPa)
#
#
# Indices 1 2 3 4 5 6 
#
# 1 0.011138 -0.003780 -0.002685 0.001473 -0.011434 0.001277
# 2 -0.003780 0.013949 0.002052 0.003909 -0.002719 -0.007680
# 3 -0.002685 0.002052 0.011679 0.004036 -0.007245 -0.006522
# 4 0.001473 0.003909 0.004036 0.036184 -0.021693 -0.004898
# 5 -0.011434 -0.002719 -0.007245 -0.021693 0.065298 0.007162
# 6 0.001277 -0.007680 -0.006522 -0.004898 0.007162 0.026629
#
#
# Mechanical properties :
#
#
# Convention : Reuss Voigt Hill
#
# Bulk Modulus (GPa) = 35.79211 66.18485 50.98848
# Shear Modulus (GPa) = 27.31976 40.47028 33.89502
#
# Velocity S-wave (km/s) = 3.35919 4.08850 3.74165
# Velocity P-wave (km/s) = 5.46160 7.04448 6.30292
#
# Compressibility (1/GPa) = 0.02793912
#
# Stress axis : x y z
#
# Youngs Moduli (GPa) = 89.78576 71.68782 85.62118
#
# Poissons Ratio (x) = 0.27099 0.22990
# Poissons Ratio (y) = 0.33940 -0.17565
# Poissons Ratio (z) = 0.24108 -0.14707
#
# Static dielectric constant tensor:
#      x y z
#    x 1.907850 0.000830 -0.034330 
#    y 0.000830 1.978370 -0.014410 
#    z -0.034330 -0.014410 1.826210 
# 
# From -- ./inp_files/181115.got.cif
#   From: 2010.05.17/outbox.cif.g08.bks.cpg/sg2_91_cif.got.tgz:181115.got - 2010.06.03 11:33:40.
