data_PCOD9067547
_publ_section_title
;
Structure prediction by ZEFSAII (Michael W. Deem and Ramdas Pophale) SiO2 
 PCOD9067547
Probable space group: P -1
;
_chemical_formula_sum "Si O2"
_cell_formula_units_Z 13
_cell_length_a 9.245190
_cell_length_b 5.059780
_cell_length_c 12.407501
_cell_angle_alpha 91.845193
_cell_angle_beta 115.436702
_cell_angle_gamma 100.834210
_cell_volume 510.608788
_symmetry_space_group_name_H-M "P -1"
_symmetry_group_IT_number 2
_symmetry_cell_setting 'triclinic'
loop_
_space_group_symop_operation_xyz
x,y,z
-x,-y,-z
loop_
_atom_site_type_symbol
_atom_site_label
_atom_site_fract_x
_atom_site_fract_y
_atom_site_fract_z
Si Si1 0.135973 0.453375 0.886973
Si Si2 0.525623 0.254296 0.749401
Si Si3 0.632023 0.270703 0.204278
Si Si4 0.848779 0.699545 0.882466
Si Si5 0.500000 0.000000 0.500000
Si Si6 0.971703 0.235595 0.416290
Si Si7 0.141527 0.965483 0.308267
O O1 0.303084 0.619487 0.890711
O O2 0.024489 0.643691 0.904433
O O3 0.162039 0.265314 0.992768
O O4 0.022896 0.270031 0.757795
O O5 0.422351 0.479606 0.750713
O O6 0.709957 0.433243 0.808474
O O7 0.475245 0.126948 0.614353
O O8 0.500153 0.009134 0.824218
O O9 0.791667 0.197818 0.309182
O O10 0.814317 0.931747 0.797468
O O11 0.299066 0.906963 0.416401
O O12 0.095253 0.219766 0.358005
O O13 0.000000 0.500000 0.500000
O O14 0.000000 0.000000 0.500000
#
# Coordination Sequence:
#
# PCOD9067547 Si02
#       7
#     2   2   2   2   1   2   2
#     4  11  25  50  78 109 149 205 263 317 378 460
#     4  12  28  49  75 115 158 200 252 316 388 460
#     4  12  26  49  74 114 154 198 254 319 387 452
#     4  11  26  48  78 108 152 205 261 316 381 458
#     4  12  26  48  74 112 158 202 246 318 392 464
#     4  12  25  43  73 108 152 202 253 309 378 456
#     4  12  24  47  76 111 152 200 261 311 383 460
#
# _framework density 25.459806
#
# number of rings (size 3 to 8) (size 9 to 14) (size 15 to 20)
#    0.000    0.308    3.077    6.000    0.000    4.923 
#    0.000    0.000    0.000    0.000    0.000    0.000 
#    0.000    0.000    0.000    0.000    0.000    0.000 
#
# Total GULP energy -72607.288855 kJ/mol
# GULP energy per Si atom -5585.176066 kJ/mol
# Density = 2.540186 g / cm^3
# Si number density = 25.459806 Si / 1000 Ang^3
#
#
#
# Elastic Constant Matrix: (Units=GPa)
#
#
# Indices 1 2 3 4 5 6 
#
# 1 118.3295 45.7181 15.5576 -7.8144 -21.1213 -4.2748
# 2 45.7181 130.4879 28.2034 5.5042 -16.8798 3.6463
# 3 15.5576 28.2034 113.1600 4.5007 -2.2302 2.0816
# 4 -7.8144 5.5042 4.5007 23.9321 10.0871 -1.3134
# 5 -21.1213 -16.8798 -2.2302 10.0871 28.8777 7.5630
# 6 -4.2748 3.6463 2.0816 -1.3134 7.5630 41.3052
#
#
#
# Elastic Compliance Matrix: (Units=1/GPa)
#
#
# Indices 1 2 3 4 5 6 
#
# 1 0.010820 -0.003084 -0.000718 0.002249 0.005123 0.000562
# 2 -0.003084 0.010244 -0.001729 -0.005820 0.006280 -0.002471
# 3 -0.000718 -0.001729 0.009434 -0.001572 -0.000148 -0.000420
# 4 0.002249 -0.005820 -0.001572 0.053995 -0.022484 0.006659
# 5 0.005123 0.006280 -0.000148 -0.022484 0.052603 -0.010363
# 6 0.000562 -0.002471 -0.000420 0.006659 -0.010363 0.026617
#
#
# Mechanical properties :
#
#
# Convention : Reuss Voigt Hill
#
# Bulk Modulus (GPa) = 51.44476 60.10397 55.77436
# Shear Modulus (GPa) = 27.58574 36.98954 32.28764
#
# Velocity S-wave (km/s) = 3.29523 3.81578 3.56502
# Velocity P-wave (km/s) = 5.89306 6.56294 6.23700
#
# Compressibility (1/GPa) = 0.01943833
#
# Stress axis : x y z
#
# Youngs Moduli (GPa) = 92.42123 97.61424 106.00088
#
# Poissons Ratio (x) = 0.30100 0.07609
# Poissons Ratio (y) = 0.28499 0.18324
# Poissons Ratio (z) = 0.06634 0.16874
#
# Static dielectric constant tensor:
#      x y z
#    x 1.992010 0.036550 -0.031060 
#    y 0.036550 2.011330 -0.021200 
#    z -0.031060 -0.021200 2.030330 
# 
# From -- ./inp_files/130663.got.cif
#   From: 2010.05.17/outbox.cif.g08.bks.cpg/sg2_66_cif.got.tgz:130663.got - 2010.06.03 11:33:40.
