data_PCOD9067215
_publ_section_title
;
Structure prediction by ZEFSAII (Michael W. Deem and Ramdas Pophale) SiO2 
 PCOD9067215
Probable space group: P -1
;
_chemical_formula_sum "Si O2"
_cell_formula_units_Z 16
_cell_length_a 5.626598
_cell_length_b 11.759511
_cell_length_c 12.234143
_cell_angle_alpha 99.712017
_cell_angle_beta 95.220923
_cell_angle_gamma 123.985518
_cell_volume 644.360761
_symmetry_space_group_name_H-M "P -1"
_symmetry_group_IT_number 2
_symmetry_cell_setting 'triclinic'
loop_
_space_group_symop_operation_xyz
x,y,z
-x,-y,-z
loop_
_atom_site_type_symbol
_atom_site_label
_atom_site_fract_x
_atom_site_fract_y
_atom_site_fract_z
Si Si1 0.095162 0.276968 0.239454
Si Si2 0.397806 0.192851 0.543611
Si Si3 0.264079 0.090660 0.271672
Si Si4 0.652875 0.384944 0.968518
Si Si5 0.581773 0.151096 0.061122
Si Si6 0.773490 0.506764 0.564047
Si Si7 0.609801 0.536265 0.198614
Si Si8 0.882812 0.168002 0.651011
O O1 0.034863 0.129164 0.244789
O O2 0.017891 0.343040 0.341934
O O3 0.433145 0.410232 0.258319
O O4 0.928445 0.257236 0.118303
O O5 0.388301 0.167415 0.408037
O O6 0.605215 0.361849 0.602320
O O7 0.571085 0.132353 0.592052
O O8 0.079641 0.146174 0.569704
O O9 0.439470 0.138598 0.171645
O O10 0.162120 0.932495 0.266747
O O11 0.525317 0.225952 0.975356
O O12 0.585934 0.447542 0.078597
O O13 0.533269 0.389054 0.846931
O O14 0.000000 0.500000 0.000000
O O15 0.500000 0.000000 0.000000
O O16 0.500000 0.500000 0.500000
O O17 0.000000 0.500000 0.500000
O O18 0.918778 0.666811 0.278452
#
# Coordination Sequence:
#
# PCOD9067215 Si02
#       8
#     2   2   2   2   2   2   2   2
#     4  12  26  48  76 112 154 203 257 331 389 465
#     4  12  27  50  78 117 160 210 262 317 393 477
#     4  12  29  50  76 111 164 203 263 324 398 473
#     4  11  25  48  74 105 149 197 263 323 392 458
#     4  12  30  48  79 110 153 207 263 330 399 470
#     4  12  25  45  78 115 157 201 256 317 386 463
#     4  11  26  47  75 111 146 203 260 332 385 467
#     4  12  30  48  82 114 162 211 261 317 398 473
#
# _framework density 24.830812000000002
#
# number of rings (size 3 to 8) (size 9 to 14) (size 15 to 20)
#    0.000    0.250    5.000    2.250   10.500    0.500 
#    0.000    0.000    0.000    0.000    0.000    0.000 
#    0.000    0.000    0.000    0.000    0.000    0.000 
#
# Total GULP energy -89368.429271 kJ/mol
# GULP energy per Si atom -5585.526829 kJ/mol
# Density = 2.477430 g / cm^3
# Si number density = 24.830812 Si / 1000 Ang^3
#
#
#
# Elastic Constant Matrix: (Units=GPa)
#
#
# Indices 1 2 3 4 5 6 
#
# 1 110.4926 37.3368 35.8919 -9.7817 -1.3728 -14.1091
# 2 37.3368 112.1992 15.7572 -11.9995 -10.9864 -27.8150
# 3 35.8919 15.7572 88.3364 -1.5906 -4.8833 -8.9340
# 4 -9.7817 -11.9995 -1.5906 50.3549 1.5667 -3.2741
# 5 -1.3728 -10.9864 -4.8833 1.5667 33.6548 -2.1317
# 6 -14.1091 -27.8150 -8.9340 -3.2741 -2.1317 39.5210
#
#
#
# Elastic Compliance Matrix: (Units=1/GPa)
#
#
# Indices 1 2 3 4 5 6 
#
# 1 0.011663 -0.002935 -0.004122 0.001550 -0.001074 0.001237
# 2 -0.002935 0.012698 0.000072 0.002865 0.004433 0.008382
# 3 -0.004122 0.000072 0.013248 -0.000317 0.001897 0.001650
# 4 0.001550 0.002865 -0.000317 0.021102 0.000240 0.004259
# 5 -0.001074 0.004433 0.001897 0.000240 0.031691 0.004895
# 6 0.001237 0.008382 0.001650 0.004259 0.004895 0.032633
#
#
# Mechanical properties :
#
#
# Convention : Reuss Voigt Hill
#
# Bulk Modulus (GPa) = 42.30252 54.33333 48.31793
# Shear Modulus (GPa) = 34.51025 39.50896 37.00960
#
# Velocity S-wave (km/s) = 3.73207 3.99322 3.86485
# Velocity P-wave (km/s) = 5.97029 6.57191 6.27831
#
# Compressibility (1/GPa) = 0.02363925
#
# Stress axis : x y z
#
# Youngs Moduli (GPa) = 85.74290 78.75435 75.48193
#
# Poissons Ratio (x) = 0.23115 0.31110
# Poissons Ratio (y) = 0.25166 -0.00543
# Poissons Ratio (z) = 0.35339 -0.00566
#
# Static dielectric constant tensor:
#      x y z
#    x 2.198280 0.000280 -0.118130 
#    y 0.000280 2.015320 -0.034440 
#    z -0.118130 -0.034440 1.970710 
# 
# From -- ./inp_files/364788.got.cif
#   From: 2010.05.17/outbox.cif.g08.bks.cpg/sg2_183_cif.got.tgz:364788.got - 2010.06.03 11:33:40.
