data_PCOD9067940
_publ_section_title
;
Structure prediction by ZEFSAII (Michael W. Deem and Ramdas Pophale) SiO2 
 PCOD9067940
Probable space group: P -1
;
_chemical_formula_sum "Si O2"
_cell_formula_units_Z 14
_cell_length_a 4.918029
_cell_length_b 19.426436
_cell_length_c 5.729754
_cell_angle_alpha 59.173908
_cell_angle_beta 89.741269
_cell_angle_gamma 78.508846
_cell_volume 457.554133
_symmetry_space_group_name_H-M "P -1"
_symmetry_group_IT_number 2
_symmetry_cell_setting 'triclinic'
loop_
_space_group_symop_operation_xyz
x,y,z
-x,-y,-z
loop_
_atom_site_type_symbol
_atom_site_label
_atom_site_fract_x
_atom_site_fract_y
_atom_site_fract_z
Si Si1 0.757538 0.044974 0.848248
Si Si2 0.376923 0.129317 0.310757
Si Si3 0.348977 0.793589 0.198890
Si Si4 0.560024 0.369224 0.276193
Si Si5 0.174630 0.544678 0.488001
Si Si6 0.023261 0.719897 0.957471
Si Si7 0.000000 0.000000 0.500000
Si Si8 0.000000 0.500000 0.000000
O O1 0.657842 0.066424 0.516960
O O2 0.762747 0.143016 0.708195
O O3 0.043654 0.980112 0.849522
O O4 0.500000 0.000000 0.000000
O O5 0.157560 0.074778 0.405826
O O6 0.445260 0.157917 0.006958
O O7 0.246938 0.220049 0.264553
O O8 0.483446 0.700040 0.425594
O O9 0.134455 0.779761 0.028366
O O10 0.748261 0.431312 0.263811
O O11 0.264977 0.420407 0.109706
O O12 0.746135 0.317729 0.166334
O O13 0.500000 0.500000 0.500000
O O14 0.025933 0.638784 0.250447
O O15 0.944306 0.496887 0.696613
#
# Coordination Sequence:
#
# PCOD9067940 Si02
#       8
#     2   2   2   2   2   2   1   1
#     4  12  27  48  76 114 155 199 255 323 394 468
#     4  12  26  48  76 111 154 203 261 324 393 472
#     4  11  26  48  76 109 153 207 264 325 392 466
#     4  11  26  49  77 113 155 205 264 326 397 471
#     4  11  26  46  74 112 156 202 255 323 392 466
#     4  11  26  50  77 110 155 209 269 327 391 467
#     4  12  28  48  74 114 158 200 256 322 390 468
#     4  12  26  46  74 112 156 202 256 324 394 466
#
# _framework density 30.597476
#
# number of rings (size 3 to 8) (size 9 to 14) (size 15 to 20)
#    0.000    0.571    0.000    6.857    0.000   13.714 
#    0.000    0.000    0.000    0.000    0.000    0.000 
#    0.000    0.000    0.000    0.000    0.000    0.000 
#
# Total GULP energy -78299.933491 kJ/mol
# GULP energy per Si atom -5592.852392 kJ/mol
# Density = 3.052783 g / cm^3
# Si number density = 30.597476 Si / 1000 Ang^3
#
#
#
# Elastic Constant Matrix: (Units=GPa)
#
#
# Indices 1 2 3 4 5 6 
#
# 1 261.2768 97.6761 84.8748 -21.9054 38.5911 -9.2377
# 2 97.6761 239.4757 70.7739 -8.1755 13.9682 -24.8451
# 3 84.8748 70.7739 239.0819 -37.6528 14.7825 -24.2232
# 4 -21.9054 -8.1755 -37.6528 101.2380 -18.8789 8.7164
# 5 38.5911 13.9682 14.7825 -18.8789 66.5482 -17.4629
# 6 -9.2377 -24.8451 -24.2232 8.7164 -17.4629 77.1560
#
#
#
# Elastic Compliance Matrix: (Units=1/GPa)
#
#
# Indices 1 2 3 4 5 6 
#
# 1 0.005238 -0.001701 -0.001270 0.000117 -0.002607 -0.000923
# 2 -0.001701 0.005237 -0.000885 -0.000325 0.000337 0.001318
# 3 -0.001270 -0.000885 0.005231 0.001597 0.000513 0.001141
# 4 0.000117 -0.000325 0.001597 0.010994 0.002707 -0.000219
# 5 -0.002607 0.000337 0.000513 0.002707 0.018106 0.003749
# 6 -0.000923 0.001318 0.001141 -0.000219 0.003749 0.014506
#
#
# Mechanical properties :
#
#
# Convention : Reuss Voigt Hill
#
# Bulk Modulus (GPa) = 125.08562 138.49822 131.79192
# Shear Modulus (GPa) = 71.74802 81.42240 76.58521
#
# Velocity S-wave (km/s) = 4.84767 5.16416 5.00842
# Velocity P-wave (km/s) = 8.50312 8.99561 8.75283
#
# Compressibility (1/GPa) = 0.00799452
#
# Stress axis : x y z
#
# Youngs Moduli (GPa) = 190.91280 190.94861 191.17576
#
# Poissons Ratio (x) = 0.32476 0.24277
# Poissons Ratio (y) = 0.32470 0.16919
# Poissons Ratio (z) = 0.24243 0.16898
#
# Static dielectric constant tensor:
#      x y z
#    x 2.212900 -0.263200 0.398320 
#    y -0.263200 2.731260 0.474580 
#    z 0.398320 0.474580 2.275690 
# 
# From -- ./inp_files/6640.got.cif
#   From: 2010.05.17/outbox.cif.g08.bks.cpg/sg2_4_cif.got.tgz:6640.got - 2010.06.03 11:33:40.
