data_PCOD9067628
_publ_section_title
;
Structure prediction by ZEFSAII (Michael W. Deem and Ramdas Pophale) SiO2 
 PCOD9067628
Probable space group: P -1
;
_chemical_formula_sum "Si O2"
_cell_formula_units_Z 15
_cell_length_a 14.532664
_cell_length_b 8.430306
_cell_length_c 7.767062
_cell_angle_alpha 72.963400
_cell_angle_beta 65.773570
_cell_angle_gamma 120.477614
_cell_volume 576.134823
_symmetry_space_group_name_H-M "P -1"
_symmetry_group_IT_number 2
_symmetry_cell_setting 'triclinic'
loop_
_space_group_symop_operation_xyz
x,y,z
-x,-y,-z
loop_
_atom_site_type_symbol
_atom_site_label
_atom_site_fract_x
_atom_site_fract_y
_atom_site_fract_z
Si Si1 0.812262 0.634241 0.653345
Si Si2 0.858604 0.922262 0.057823
Si Si3 0.247913 0.082978 0.527984
Si Si4 0.386826 0.710456 0.368241
Si Si5 0.592209 0.887881 0.864815
Si Si6 0.084159 0.769351 0.351275
Si Si7 0.000000 0.500000 0.000000
Si Si8 0.749183 0.480486 0.109474
O O1 0.765306 0.498653 0.548999
O O2 0.975010 0.769616 0.520397
O O3 0.799805 0.814250 0.580447
O O4 0.718073 0.442540 0.941213
O O5 0.808892 0.738474 0.007685
O O6 0.739478 0.818665 0.325119
O O7 0.900152 0.149985 0.881138
O O8 0.000000 0.000000 0.000000
O O9 0.398901 0.205903 0.287336
O O10 0.129065 0.793067 0.735653
O O11 0.369276 0.668461 0.598815
O O12 0.430076 0.950463 0.226527
O O13 0.493652 0.731238 0.155546
O O14 0.758084 0.064283 0.745882
O O15 0.000000 0.500000 0.500000
O O16 0.869820 0.482685 0.061386
#
# Coordination Sequence:
#
# PCOD9067628 Si02
#       8
#     2   2   2   2   2   2   1   2
#     4  12  26  46  77 107 147 188 245 304 366 432
#     4  12  24  43  67 108 153 187 232 308 371 430
#     4  12  25  43  70 107 146 194 238 297 367 434
#     4  11  25  52  72 105 149 196 240 305 365 430
#     4  11  26  47  73 104 150 191 246 303 362 435
#     4  12  25  42  72 110 140 189 246 296 362 439
#     4  12  24  38  74 110 144 188 242 304 364 434
#     4  12  25  46  72 106 144 191 241 302 363 430
#
# _framework density 26.035572999999999
#
# number of rings (size 3 to 8) (size 9 to 14) (size 15 to 20)
#    0.000    0.267    6.667    1.600    3.733    2.133 
#    2.400    2.667    0.000    0.000    0.000    0.000 
#    0.000    0.000    0.000    0.000    0.000    0.000 
#
# Total GULP energy -83643.736349 kJ/mol
# GULP energy per Si atom -5576.249090 kJ/mol
# Density = 2.597631 g / cm^3
# Si number density = 26.035573 Si / 1000 Ang^3
#
#
#
# Elastic Constant Matrix: (Units=GPa)
#
#
# Indices 1 2 3 4 5 6 
#
# 1 49.1676 33.1610 49.9757 -9.1334 15.9254 -18.9920
# 2 33.1610 62.8798 29.3929 1.2511 5.6323 -27.4792
# 3 49.9757 29.3929 192.1417 11.9732 23.4912 -26.5016
# 4 -9.1334 1.2511 11.9732 47.2981 -5.7938 0.7573
# 5 15.9254 5.6323 23.4912 -5.7938 52.6349 -2.3274
# 6 -18.9920 -27.4792 -26.5016 0.7573 -2.3274 44.5135
#
#
#
# Elastic Compliance Matrix: (Units=1/GPa)
#
#
# Indices 1 2 3 4 5 6 
#
# 1 0.048033 -0.019647 -0.008978 0.011160 -0.007087 0.002460
# 2 -0.019647 0.030362 0.002218 -0.005145 0.001664 0.011856
# 3 -0.008978 0.002218 0.007933 -0.004008 -0.001403 0.002257
# 4 0.011160 -0.005145 -0.004008 0.024666 0.001628 -0.001135
# 5 -0.007087 0.001664 -0.001403 0.001628 0.021694 -0.001725
# 6 0.002460 0.011856 0.002257 -0.001135 -0.001725 0.032106
#
#
# Mechanical properties :
#
#
# Convention : Reuss Voigt Hill
#
# Bulk Modulus (GPa) = 29.83745 58.80537 44.32141
# Shear Modulus (GPa) = 21.85507 41.66661 31.76084
#
# Velocity S-wave (km/s) = 2.90044 4.00481 3.49650
# Velocity P-wave (km/s) = 4.76465 6.63477 5.77590
#
# Compressibility (1/GPa) = 0.03351493
#
# Stress axis : x y z
#
# Youngs Moduli (GPa) = 20.81885 32.93545 126.05878
#
# Poissons Ratio (x) = 0.64709 1.13171
# Poissons Ratio (y) = 0.40903 -0.27959
# Poissons Ratio (z) = 0.18690 -0.07305
#
# Static dielectric constant tensor:
#      x y z
#    x 2.006960 0.043070 0.019660 
#    y 0.043070 2.166680 0.072870 
#    z 0.019660 0.072870 2.228340 
# 
# From -- ./inp_files/297602.got.cif
#   From: 2010.05.17/outbox.cif.g08.bks.cpg/sg2_149_cif.got.tgz:297602.got - 2010.06.03 11:33:40.
