data_PCOD9067647
_publ_section_title
;
Structure prediction by ZEFSAII (Michael W. Deem and Ramdas Pophale) SiO2 
 PCOD9067647
Probable space group: P -1
;
_chemical_formula_sum "Si O2"
_cell_formula_units_Z 14
_cell_length_a 14.676347
_cell_length_b 9.342159
_cell_length_c 6.982757
_cell_angle_alpha 48.198766
_cell_angle_beta 67.932307
_cell_angle_gamma 54.848898
_cell_volume 583.498630
_symmetry_space_group_name_H-M "P -1"
_symmetry_group_IT_number 2
_symmetry_cell_setting 'triclinic'
loop_
_space_group_symop_operation_xyz
x,y,z
-x,-y,-z
loop_
_atom_site_type_symbol
_atom_site_label
_atom_site_fract_x
_atom_site_fract_y
_atom_site_fract_z
Si Si1 0.241493 0.305148 0.105913
Si Si2 0.560040 0.752800 0.736650
Si Si3 0.836698 0.348599 0.415373
Si Si4 0.006575 0.463983 0.753508
Si Si5 0.509147 0.485359 0.280373
Si Si6 0.759843 0.114091 0.398824
Si Si7 0.115288 0.984238 0.003698
O O1 0.324017 0.305370 0.203020
O O2 0.255618 0.064229 0.306477
O O3 0.115721 0.456681 0.139897
O O4 0.254349 0.412648 0.802832
O O5 0.565002 0.605884 0.683762
O O6 0.500000 0.000000 0.500000
O O7 0.488661 0.705904 0.996059
O O8 0.942753 0.387515 0.333132
O O9 0.836732 0.193246 0.382796
O O10 0.825387 0.229817 0.719982
O O11 0.000000 0.500000 0.500000
O O12 0.082862 0.205560 0.949907
O O13 0.500000 0.500000 0.500000
O O14 0.637644 0.313819 0.288152
O O15 0.812942 0.024922 0.230151
O O16 0.000000 0.000000 0.000000
#
# Coordination Sequence:
#
# PCOD9067647 Si02
#       7
#     2   2   2   2   2   2   2
#     4  12  25  48  75 111 149 198 248 303 376 437
#     4  11  25  52  82 104 147 194 247 318 372 441
#     4  12  27  46  74 108 156 198 247 304 361 445
#     4  12  25  45  71 110 153 198 248 294 363 444
#     4  11  27  51  76 112 145 189 253 315 372 438
#     4  12  26  49  75 110 150 198 248 300 378 438
#     4  12  26  47  75 107 152 202 245 299 364 443
#
# _framework density 23.993200000000002
#
# number of rings (size 3 to 8) (size 9 to 14) (size 15 to 20)
#    0.000    0.286    5.714    2.143    0.000    8.000 
#    0.000    0.000    0.000    0.000    0.000    0.000 
#    0.000    0.000    0.000    0.000    0.000    0.000 
#
# Total GULP energy -78420.594799 kJ/mol
# GULP energy per Si atom -5601.471057 kJ/mol
# Density = 2.393859 g / cm^3
# Si number density = 23.993200 Si / 1000 Ang^3
#
#
#
# Elastic Constant Matrix: (Units=GPa)
#
#
# Indices 1 2 3 4 5 6 
#
# 1 134.5801 45.3766 30.3552 -5.4596 18.1794 39.3260
# 2 45.3766 61.9106 35.8013 -25.5551 -6.6344 15.6411
# 3 30.3552 35.8013 189.0672 -40.1409 16.0413 17.0876
# 4 -5.4596 -25.5551 -40.1409 46.4505 11.1620 -5.7121
# 5 18.1794 -6.6344 16.0413 11.1620 36.7503 -2.6770
# 6 39.3260 15.6411 17.0876 -5.7121 -2.6770 47.7630
#
#
#
# Elastic Compliance Matrix: (Units=1/GPa)
#
#
# Indices 1 2 3 4 5 6 
#
# 1 0.015146 -0.011167 0.000909 -0.002428 -0.009895 -0.009984
# 2 -0.011167 0.031130 -0.002519 0.011742 0.008808 0.001799
# 3 0.000909 -0.002519 0.007818 0.006768 -0.006538 -0.002278
# 4 -0.002428 0.011742 0.006768 0.036035 -0.010619 -0.000553
# 5 -0.009895 0.008808 -0.006538 -0.010619 0.040401 0.008597
# 6 -0.009984 0.001799 -0.002278 -0.000553 0.008597 0.029798
#
#
# Mechanical properties :
#
#
# Convention : Reuss Voigt Hill
#
# Bulk Modulus (GPa) = 35.03821 67.62488 51.33154
# Shear Modulus (GPa) = 25.58923 44.46109 35.02516
#
# Velocity S-wave (km/s) = 3.26930 4.30940 3.82487
# Velocity P-wave (km/s) = 5.37459 7.28062 6.39897
#
# Compressibility (1/GPa) = 0.02854027
#
# Stress axis : x y z
#
# Youngs Moduli (GPa) = 66.02237 32.12368 127.91718
#
# Poissons Ratio (x) = 0.35873 -0.11632
# Poissons Ratio (y) = 0.73729 0.32219
# Poissons Ratio (z) = -0.06003 0.08091
#
# Static dielectric constant tensor:
#      x y z
#    x 1.910580 0.008080 -0.002110 
#    y 0.008080 1.901500 -0.026670 
#    z -0.002110 -0.026670 1.983840 
# 
# From -- ./inp_files/104506.got.cif
#   From: 2010.05.17/outbox.cif.g08.bks.cpg/sg2_53_cif.got.tgz:104506.got - 2010.06.03 11:33:40.
