data_PCOD9067553
_publ_section_title
;
Structure prediction by ZEFSAII (Michael W. Deem and Ramdas Pophale) SiO2 
 PCOD9067553
Probable space group: P -1
;
_chemical_formula_sum "Si O2"
_cell_formula_units_Z 13
_cell_length_a 11.625695
_cell_length_b 9.467488
_cell_length_c 4.856523
_cell_angle_alpha 97.930776
_cell_angle_beta 102.662303
_cell_angle_gamma 64.042192
_cell_volume 468.385139
_symmetry_space_group_name_H-M "P -1"
_symmetry_group_IT_number 2
_symmetry_cell_setting 'triclinic'
loop_
_space_group_symop_operation_xyz
x,y,z
-x,-y,-z
loop_
_atom_site_type_symbol
_atom_site_label
_atom_site_fract_x
_atom_site_fract_y
_atom_site_fract_z
Si Si1 0.219004 0.825865 0.612592
Si Si2 0.003376 0.734566 0.691647
Si Si3 0.361303 0.632240 0.137808
Si Si4 0.245991 0.089124 0.035028
Si Si5 0.396695 0.351510 0.446604
Si Si6 0.169416 0.394449 0.760191
Si Si7 0.500000 0.000000 0.500000
O O1 0.255187 0.769916 0.306238
O O2 0.083671 0.821042 0.622641
O O3 0.322097 0.689076 0.823605
O O4 0.232000 0.982407 0.753639
O O5 0.885107 0.851960 0.840502
O O6 0.941474 0.658945 0.415967
O O7 0.099325 0.576237 0.862509
O O8 0.362109 0.470110 0.205518
O O9 0.501752 0.618699 0.293355
O O10 0.375133 0.998721 0.255093
O O11 0.247838 0.249626 0.962260
O O12 0.266700 0.381686 0.558482
O O13 0.473758 0.166965 0.383224
#
# Coordination Sequence:
#
# PCOD9067553 Si02
#       7
#     2   2   2   2   2   2   1
#     4  12  28  50  81 116 162 207 268 318 401 474
#     4  11  26  50  76 117 153 211 269 316 404 464
#     4  11  28  51  79 114 156 216 258 328 391 479
#     4  12  28  47  78 113 166 201 266 328 401 466
#     4  11  25  50  78 110 161 197 274 317 401 461
#     4  11  26  49  81 115 152 212 261 336 388 477
#     4  12  26  48  70 120 150 202 258 328 394 460
#
# _framework density 27.754939
#
# number of rings (size 3 to 8) (size 9 to 14) (size 15 to 20)
#    0.000    0.615    4.615    0.923    8.615    4.923 
#    0.000    0.000    0.000    0.000    0.000    0.000 
#    0.000    0.000    0.000    0.000    0.000    0.000 
#
# Total GULP energy -72784.659729 kJ/mol
# GULP energy per Si atom -5598.819979 kJ/mol
# Density = 2.769177 g / cm^3
# Si number density = 27.754939 Si / 1000 Ang^3
#
#
#
# Elastic Constant Matrix: (Units=GPa)
#
#
# Indices 1 2 3 4 5 6 
#
# 1 123.7194 44.3554 34.9981 18.0376 3.8564 18.2444
# 2 44.3554 173.5311 27.2578 -6.6720 6.3633 -5.3193
# 3 34.9981 27.2578 70.4900 -14.0004 9.9231 -7.6794
# 4 18.0376 -6.6720 -14.0004 58.7365 -12.7092 7.7432
# 5 3.8564 6.3633 9.9231 -12.7092 49.2843 6.4337
# 6 18.2444 -5.3193 -7.6794 7.7432 6.4337 31.9755
#
#
#
# Elastic Compliance Matrix: (Units=1/GPa)
#
#
# Indices 1 2 3 4 5 6 
#
# 1 0.013116 -0.002654 -0.007491 -0.004812 0.000720 -0.008704
# 2 -0.002654 0.006687 -0.000743 0.000970 -0.000560 0.002326
# 3 -0.007491 -0.000743 0.020623 0.005324 -0.003201 0.008458
# 4 -0.004812 0.000970 0.005324 0.021197 0.004898 -0.001933
# 5 0.000720 -0.000560 -0.003201 0.004898 0.023143 -0.007115
# 6 -0.008704 0.002326 0.008458 -0.001933 -0.007115 0.040558
#
#
# Mechanical properties :
#
#
# Convention : Reuss Voigt Hill
#
# Bulk Modulus (GPa) = 53.62251 64.55146 59.08699
# Shear Modulus (GPa) = 32.61235 45.40788 39.01011
#
# Velocity S-wave (km/s) = 3.43156 4.04917 3.75309
# Velocity P-wave (km/s) = 5.92138 6.72080 6.33372
#
# Compressibility (1/GPa) = 0.01864889
#
# Stress axis : x y z
#
# Youngs Moduli (GPa) = 76.24277 149.54619 48.49042
#
# Poissons Ratio (x) = 0.39690 0.36324
# Poissons Ratio (y) = 0.20235 0.03604
# Poissons Ratio (z) = 0.57114 0.11115
#
# Static dielectric constant tensor:
#      x y z
#    x 2.124580 -0.003790 0.032750 
#    y -0.003790 2.131250 0.038900 
#    z 0.032750 0.038900 2.202230 
# 
# From -- ./inp_files/59753.got.cif
#   From: 2010.05.17/outbox.cif.g08.bks.cpg/sg2_30_cif.got.tgz:59753.got - 2010.06.03 11:33:40.
