data_PCOD9067019
_publ_section_title
;
Structure prediction by ZEFSAII (Michael W. Deem and Ramdas Pophale) SiO2 
 PCOD9067019
Probable space group: P -1
;
_chemical_formula_sum "Si O2"
_cell_formula_units_Z 15
_cell_length_a 7.790313
_cell_length_b 11.320739
_cell_length_c 9.436875
_cell_angle_alpha 92.697343
_cell_angle_beta 54.993372
_cell_angle_gamma 110.671694
_cell_volume 624.542466
_symmetry_space_group_name_H-M "P -1"
_symmetry_group_IT_number 2
_symmetry_cell_setting 'triclinic'
loop_
_space_group_symop_operation_xyz
x,y,z
-x,-y,-z
loop_
_atom_site_type_symbol
_atom_site_label
_atom_site_fract_x
_atom_site_fract_y
_atom_site_fract_z
Si Si1 0.734782 0.715814 0.890390
Si Si2 0.894422 0.197746 0.030520
Si Si3 0.457852 0.633942 0.485905
Si Si4 0.476014 0.111416 0.431031
Si Si5 0.090866 0.402397 0.712826
Si Si6 0.252951 0.002208 0.138459
Si Si7 0.000000 0.000000 0.500000
Si Si8 0.718030 0.462909 0.744477
O O1 0.753270 0.854997 0.829097
O O2 0.785409 0.613617 0.760694
O O3 0.909810 0.755202 0.941115
O O4 0.481845 0.630101 0.062226
O O5 0.652805 0.155909 0.220262
O O6 0.943316 0.313191 0.902367
O O7 0.888928 0.076021 0.933520
O O8 0.458642 0.772025 0.484681
O O9 0.258305 0.549134 0.683450
O O10 0.706437 0.645683 0.417551
O O11 0.390127 0.568051 0.361558
O O12 0.220225 0.069490 0.499722
O O13 0.500000 0.000000 0.500000
O O14 0.927191 0.420093 0.671789
O O15 0.146801 0.934581 0.331256
O O16 0.500000 0.000000 0.000000
#
# Coordination Sequence:
#
# PCOD9067019 Si02
#       8
#     2   2   2   2   2   2   1   2
#     4  11  26  45  73 114 153 202 267 320 399 473
#     4  12  25  49  76 115 156 211 264 329 401 473
#     4  11  26  49  77 113 154 206 262 336 392 473
#     4  12  29  48  77 115 156 208 268 330 402 477
#     4  11  25  47  76 109 152 203 262 318 401 466
#     4  12  26  49  79 115 155 212 258 334 399 474
#     4  12  28  50  74 116 154 200 268 314 402 472
#     4  11  25  47  75 110 154 206 260 332 386 471
#
# _framework density 24.017582999999998
#
# number of rings (size 3 to 8) (size 9 to 14) (size 15 to 20)
#    0.000    0.533    2.667    4.000    1.867    7.467 
#    2.400    0.000    0.000    0.000    0.000    0.000 
#    0.000    0.000    0.000    0.000    0.000    0.000 
#
# Total GULP energy -83635.850811 kJ/mol
# GULP energy per Si atom -5575.723387 kJ/mol
# Density = 2.396292 g / cm^3
# Si number density = 24.017583 Si / 1000 Ang^3
#
#
#
# Elastic Constant Matrix: (Units=GPa)
#
#
# Indices 1 2 3 4 5 6 
#
# 1 107.1225 57.1979 40.7559 2.6933 -3.1006 -6.3646
# 2 57.1979 172.8539 15.0241 16.4019 12.6661 -2.1828
# 3 40.7559 15.0241 81.5952 5.9699 -13.8565 4.0430
# 4 2.6933 16.4019 5.9699 46.8340 12.8782 10.3660
# 5 -3.1006 12.6661 -13.8565 12.8782 40.3054 0.2615
# 6 -6.3646 -2.1828 4.0430 10.3660 0.2615 41.3833
#
#
#
# Elastic Compliance Matrix: (Units=1/GPa)
#
#
# Indices 1 2 3 4 5 6 
#
# 1 0.014150 -0.004169 -0.006521 0.001009 -0.000181 0.002342
# 2 -0.004169 0.007444 0.000532 -0.001972 -0.001848 0.000205
# 3 -0.006521 0.000532 0.016787 -0.003233 0.006147 -0.001844
# 4 0.001009 -0.001972 -0.003233 0.026154 -0.008731 -0.006129
# 5 -0.000181 -0.001848 0.006147 -0.008731 0.030272 0.001270
# 6 0.002342 0.000205 -0.001844 -0.006129 0.001270 0.026243
#
#
# Mechanical properties :
#
#
# Convention : Reuss Voigt Hill
#
# Bulk Modulus (GPa) = 55.35471 65.28081 60.31776
# Shear Modulus (GPa) = 33.92424 42.27746 38.10085
#
# Velocity S-wave (km/s) = 3.76237 4.20011 3.98725
# Velocity P-wave (km/s) = 6.47854 7.12465 6.80926
#
# Compressibility (1/GPa) = 0.01806531
#
# Stress axis : x y z
#
# Youngs Moduli (GPa) = 70.66929 134.34464 59.57087
#
# Poissons Ratio (x) = 0.56002 0.38846
# Poissons Ratio (y) = 0.29459 -0.03168
# Poissons Ratio (z) = 0.46083 -0.07145
#
# Static dielectric constant tensor:
#      x y z
#    x 1.900780 -0.056170 0.097770 
#    y -0.056170 2.097610 -0.215430 
#    z 0.097770 -0.215430 2.258130 
# 
# From -- ./inp_files/385242.got.cif
#   From: 2010.05.17/outbox.cif.g08.bks.cpg/sg2_193_cif.got.tgz:385242.got - 2010.06.03 11:33:40.
