data_PCOD9067079
_publ_section_title
;
Structure prediction by ZEFSAII (Michael W. Deem and Ramdas Pophale) SiO2 
 PCOD9067079
Probable space group: P -1
;
_chemical_formula_sum "Si O2"
_cell_formula_units_Z 16
_cell_length_a 9.180850
_cell_length_b 20.054765
_cell_length_c 12.300021
_cell_angle_alpha 40.834048
_cell_angle_beta 106.989522
_cell_angle_gamma 138.535980
_cell_volume 757.732638
_symmetry_space_group_name_H-M "P -1"
_symmetry_group_IT_number 2
_symmetry_cell_setting 'triclinic'
loop_
_space_group_symop_operation_xyz
x,y,z
-x,-y,-z
loop_
_atom_site_type_symbol
_atom_site_label
_atom_site_fract_x
_atom_site_fract_y
_atom_site_fract_z
Si Si1 0.243113 0.922813 0.578280
Si Si2 0.318821 0.945595 0.176020
Si Si3 0.894926 0.724243 0.539174
Si Si4 0.786307 0.435154 0.947943
Si Si5 0.340515 0.186397 0.339566
Si Si6 0.421495 0.607449 0.636354
Si Si7 0.158508 0.733865 0.967826
Si Si8 0.300677 0.724335 0.320220
O O1 0.079212 0.870327 0.501682
O O2 0.500000 0.000000 0.500000
O O3 0.382145 0.089296 0.474142
O O4 0.051167 0.742429 0.833618
O O5 0.244948 0.800737 0.273903
O O6 0.050030 0.831760 0.326527
O O7 0.557313 0.056679 0.181500
O O8 0.481971 0.120194 0.920535
O O9 0.885564 0.597452 0.716905
O O10 0.593950 0.611063 0.619475
O O11 0.764999 0.335550 0.973997
O O12 0.502967 0.303076 0.118565
O O13 0.000000 0.500000 0.000000
O O14 0.472502 0.316196 0.311210
O O15 0.000000 0.000000 0.500000
O O16 0.458025 0.731865 0.423026
O O17 0.084380 0.401165 0.828752
O O18 0.000000 0.500000 0.500000
#
# Coordination Sequence:
#
# PCOD9067079 Si02
#       8
#     2   2   2   2   2   2   2   2
#     4  12  21  37  64  96 133 180 237 261 334 419
#     4  11  25  47  78 101 129 180 237 286 347 418
#     4  12  25  42  64 103 142 179 225 285 349 407
#     4  12  23  40  63  99 140 192 235 270 329 417
#     4  12  24  39  61  99 144 184 221 281 344 411
#     4  12  26  43  66 102 142 179 228 293 349 397
#     4  12  23  40  71  95 136 187 230 284 332 417
#     4  11  25  50  80 103 126 176 244 292 345 412
#
# _framework density 21.115628000000001
#
# number of rings (size 3 to 8) (size 9 to 14) (size 15 to 20)
#    0.000    0.250    7.500    1.500    1.750    1.500 
#    0.000    0.625    0.000    0.000    0.000    0.000 
#    0.000    0.000    0.000    0.000    0.000    0.000 
#
# Total GULP energy -89337.037013 kJ/mol
# GULP energy per Si atom -5583.564813 kJ/mol
# Density = 2.106757 g / cm^3
# Si number density = 21.115628 Si / 1000 Ang^3
#
#
#
# Elastic Constant Matrix: (Units=GPa)
#
#
# Indices 1 2 3 4 5 6 
#
# 1 101.0085 19.6363 56.9123 -4.9100 -24.6686 -13.0779
# 2 19.6363 45.9548 19.6243 -12.6672 -9.3294 -12.6946
# 3 56.9123 19.6243 142.2651 6.7031 -16.4676 -7.6052
# 4 -4.9100 -12.6672 6.7031 36.4977 -2.6043 4.8509
# 5 -24.6686 -9.3294 -16.4676 -2.6043 38.6287 -6.0060
# 6 -13.0779 -12.6946 -7.6052 4.8509 -6.0060 30.1045
#
#
#
# Elastic Compliance Matrix: (Units=1/GPa)
#
#
# Indices 1 2 3 4 5 6 
#
# 1 0.016154 -0.000062 -0.005115 0.002816 0.009418 0.007124
# 2 -0.000062 0.031179 -0.003080 0.010355 0.008809 0.012432
# 3 -0.005115 -0.003080 0.009604 -0.003460 -0.000240 -0.000585
# 4 0.002816 0.010355 -0.003460 0.032300 0.005084 0.000525
# 5 0.009418 0.008809 -0.000240 0.005084 0.036478 0.014203
# 6 0.007124 0.012432 -0.000585 0.000525 0.014203 0.044156
#
#
# Mechanical properties :
#
#
# Convention : Reuss Voigt Hill
#
# Bulk Modulus (GPa) = 24.73850 53.50824 39.12337
# Shear Modulus (GPa) = 25.01766 33.91655 29.46710
#
# Velocity S-wave (km/s) = 3.44582 4.01213 3.73971
# Velocity P-wave (km/s) = 5.25097 6.84533 6.10046
#
# Compressibility (1/GPa) = 0.04042283
#
# Stress axis : x y z
#
# Youngs Moduli (GPa) = 61.90525 32.07313 104.12014
#
# Poissons Ratio (x) = 0.00198 0.53262
# Poissons Ratio (y) = 0.00382 0.32067
# Poissons Ratio (z) = 0.31667 0.09878
#
# Static dielectric constant tensor:
#      x y z
#    x 1.731330 -0.034660 -0.005430 
#    y -0.034660 1.795380 0.025790 
#    z -0.005430 0.025790 1.848160 
# 
# From -- ./inp_files/405429.got.cif
#   From: 2010.05.17/outbox.cif.g08.bks.cpg/sg2_203_cif.got.tgz:405429.got - 2010.06.03 11:33:40.
