data_PCOD9067364
_publ_section_title
;
Structure prediction by ZEFSAII (Michael W. Deem and Ramdas Pophale) SiO2 
 PCOD9067364
Probable space group: P -1
;
_chemical_formula_sum "Si O2"
_cell_formula_units_Z 16
_cell_length_a 10.204462
_cell_length_b 12.901109
_cell_length_c 14.259755
_cell_angle_alpha 125.636138
_cell_angle_beta 139.743562
_cell_angle_gamma 35.589574
_cell_volume 702.396066
_symmetry_space_group_name_H-M "P -1"
_symmetry_group_IT_number 2
_symmetry_cell_setting 'triclinic'
loop_
_space_group_symop_operation_xyz
x,y,z
-x,-y,-z
loop_
_atom_site_type_symbol
_atom_site_label
_atom_site_fract_x
_atom_site_fract_y
_atom_site_fract_z
Si Si1 0.134040 0.909035 0.626425
Si Si2 0.829331 0.447733 0.913494
Si Si3 0.812729 0.803656 0.470346
Si Si4 0.337473 0.473032 0.331319
Si Si5 0.814612 0.845643 0.715947
Si Si6 0.767498 0.950728 0.073013
Si Si7 0.078774 0.474370 0.733654
Si Si8 0.616488 0.250239 0.023338
O O1 0.464158 0.734859 0.694377
O O2 0.001444 0.834329 0.548696
O O3 0.103975 0.019965 0.755555
O O4 0.000000 0.000000 0.500000
O O5 0.723651 0.434577 0.751573
O O6 0.564587 0.599368 0.914028
O O7 0.029425 0.250443 0.960472
O O8 0.000000 0.500000 0.000000
O O9 0.809076 0.818038 0.587269
O O10 0.932326 0.614320 0.407023
O O11 0.498629 0.960146 0.336134
O O12 0.500000 0.500000 0.500000
O O13 0.053912 0.547966 0.265099
O O14 0.892110 0.681567 0.724961
O O15 0.076251 0.824956 0.865568
O O16 0.668355 0.086924 0.007349
O O17 0.500000 0.000000 0.000000
O O18 0.405717 0.356407 0.876254
#
# Coordination Sequence:
#
# PCOD9067364 Si02
#       8
#     2   2   2   2   2   2   2   2
#     4  12  24  42  69 106 142 176 227 290 354 418
#     4  12  23  44  67 102 140 179 222 281 357 425
#     4  11  25  49  72 101 142 178 243 293 342 418
#     4  12  22  41  68 105 142 173 229 287 349 420
#     4  11  26  50  70  98 140 189 242 292 340 408
#     4  12  24  41  69  99 141 184 217 277 355 413
#     4  12  26  44  74 103 139 189 234 288 352 416
#     4  12  26  47  70 104 144 183 238 285 346 430
#
# _framework density 22.779171000000002
#
# number of rings (size 3 to 8) (size 9 to 14) (size 15 to 20)
#    0.000    0.250    6.250    2.250    1.750    2.500 
#    0.000    0.000    0.000    0.000    0.000    0.000 
#    0.000    0.000    0.000    0.000    0.000    0.000 
#
# Total GULP energy -89563.378493 kJ/mol
# GULP energy per Si atom -5597.711156 kJ/mol
# Density = 2.272733 g / cm^3
# Si number density = 22.779171 Si / 1000 Ang^3
#
#
#
# Elastic Constant Matrix: (Units=GPa)
#
#
# Indices 1 2 3 4 5 6 
#
# 1 37.8215 -0.1618 12.0216 4.5175 10.7373 7.3108
# 2 -0.1618 106.9218 -7.7574 -7.4887 8.4108 13.1597
# 3 12.0216 -7.7574 76.3354 -5.8848 9.1513 -0.0295
# 4 4.5175 -7.4887 -5.8848 31.8617 -2.0504 -0.5193
# 5 10.7373 8.4108 9.1513 -2.0504 40.2911 -10.0004
# 6 7.3108 13.1597 -0.0295 -0.5193 -10.0004 31.2753
#
#
#
# Elastic Compliance Matrix: (Units=1/GPa)
#
#
# Indices 1 2 3 4 5 6 
#
# 1 0.034456 0.001831 -0.004277 -0.006231 -0.012087 -0.012797
# 2 0.001831 0.010758 0.001514 0.002152 -0.004550 -0.006372
# 3 -0.004277 0.001514 0.014479 0.003479 -0.002368 -0.000323
# 4 -0.006231 0.002152 0.003479 0.033618 0.002616 0.001949
# 5 -0.012087 -0.004550 -0.002368 0.002616 0.033507 0.015495
# 6 -0.012797 -0.006372 -0.000323 0.001949 0.015495 0.042633
#
#
# Mechanical properties :
#
#
# Convention : Reuss Voigt Hill
#
# Bulk Modulus (GPa) = 17.29182 25.47595 21.38389
# Shear Modulus (GPa) = 26.23406 35.15070 30.69238
#
# Velocity S-wave (km/s) = 3.39731 3.93250 3.67466
# Velocity P-wave (km/s) = 4.79546 5.64159 5.23565
#
# Compressibility (1/GPa) = 0.05783080
#
# Stress axis : x y z
#
# Youngs Moduli (GPa) = 29.02221 92.95284 69.06380
#
# Poissons Ratio (x) = -0.17022 0.29535
# Poissons Ratio (y) = -0.05315 -0.10454
# Poissons Ratio (z) = 0.12411 -0.14071
#
# Static dielectric constant tensor:
#      x y z
#    x 1.806680 0.012210 -0.026340 
#    y 0.012210 1.867720 -0.023220 
#    z -0.026340 -0.023220 1.921130 
# 
# From -- ./inp_files/522447.got.cif
#   From: 2010.05.17/outbox.cif.g08.bks.cpg/sg2_262_cif.got.tgz:522447.got - 2010.06.03 11:33:40.
