data_PCOD9067098
_publ_section_title
;
Structure prediction by ZEFSAII (Michael W. Deem and Ramdas Pophale) SiO2 
 PCOD9067098
Probable space group: P -1
;
_chemical_formula_sum "Si O2"
_cell_formula_units_Z 12
_cell_length_a 11.607154
_cell_length_b 9.854125
_cell_length_c 14.438199
_cell_angle_alpha 68.940540
_cell_angle_beta 18.950970
_cell_angle_gamma 70.438576
_cell_volume 500.421864
_symmetry_space_group_name_H-M "P -1"
_symmetry_group_IT_number 2
_symmetry_cell_setting 'triclinic'
loop_
_space_group_symop_operation_xyz
x,y,z
-x,-y,-z
loop_
_atom_site_type_symbol
_atom_site_label
_atom_site_fract_x
_atom_site_fract_y
_atom_site_fract_z
Si Si1 0.311585 0.078063 0.801806
Si Si2 0.160511 0.632095 0.119201
Si Si3 0.183679 0.904426 0.305789
Si Si4 0.060844 0.388653 0.397737
Si Si5 0.154617 0.411623 0.820010
Si Si6 0.044744 0.076433 0.728518
O O1 0.262143 0.248806 0.805235
O O2 0.650213 0.039936 0.490763
O O3 0.000000 0.000000 0.000000
O O4 0.268623 0.004345 0.954830
O O5 0.049541 0.483588 0.290890
O O6 0.142813 0.604145 0.030792
O O7 0.906207 0.769267 0.295234
O O8 0.540448 0.669759 0.870201
O O9 0.219993 0.743411 0.358243
O O10 0.989971 0.873118 0.363583
O O11 0.000000 0.000000 0.500000
O O12 0.500000 0.000000 0.000000
O O13 0.000000 0.500000 0.500000
O O14 0.500000 0.500000 0.500000
O O15 0.000000 0.500000 0.000000
#
# Coordination Sequence:
#
# PCOD9067098 Si02
#       6
#     2   2   2   2   2   2
#     4  12  26  46  78 105 141 194 254 294 361 448
#     4  11  26  47  79 109 150 198 262 307 366 459
#     4  12  27  46  71 111 152 185 240 312 376 431
#     4  11  25  47  79 108 142 206 255 300 372 452
#     4  12  30  49  73 114 155 192 243 319 381 431
#     4  12  25  47  76 108 143 198 247 302 359 444
#
# _framework density 23.979768
#
# number of rings (size 3 to 8) (size 9 to 14) (size 15 to 20)
#    0.000    0.333    3.333    4.500    7.000    4.000 
#    0.000    0.000    0.000    0.000    0.000    0.000 
#    0.000    0.000    0.000    0.000    0.000    0.000 
#
# Total GULP energy -67085.364754 kJ/mol
# GULP energy per Si atom -5590.447063 kJ/mol
# Density = 2.392519 g / cm^3
# Si number density = 23.979768 Si / 1000 Ang^3
#
#
#
# Elastic Constant Matrix: (Units=GPa)
#
#
# Indices 1 2 3 4 5 6 
#
# 1 108.7469 49.9413 21.2972 11.4194 41.1651 4.9167
# 2 49.9413 217.6840 70.5009 -10.9425 31.6630 0.2301
# 3 21.2972 70.5009 118.9302 -2.2546 40.9126 2.9112
# 4 11.4194 -10.9425 -2.2546 53.7300 1.3005 18.4231
# 5 41.1651 31.6630 40.9126 1.3005 38.9374 5.6885
# 6 4.9167 0.2301 2.9112 18.4231 5.6885 46.0100
#
#
#
# Elastic Compliance Matrix: (Units=1/GPa)
#
#
# Indices 1 2 3 4 5 6 
#
# 1 0.019300 -0.003262 0.007056 -0.004726 -0.025379 0.002537
# 2 -0.003262 0.006375 -0.003997 0.001940 0.002474 -0.000513
# 3 0.007056 -0.003997 0.017155 -0.001597 -0.022415 0.001591
# 4 -0.004726 0.001940 -0.001597 0.023001 0.005690 -0.009317
# 5 -0.025379 0.002474 -0.022415 0.005690 0.074948 -0.007427
# 6 0.002537 -0.000513 0.001591 -0.009317 -0.007427 0.026014
#
#
# Mechanical properties :
#
#
# Convention : Reuss Voigt Hill
#
# Bulk Modulus (GPa) = 23.57040 80.98223 52.27632
# Shear Modulus (GPa) = 27.57248 47.97693 37.77471
#
# Velocity S-wave (km/s) = 3.39458 4.47780 3.97328
# Velocity P-wave (km/s) = 5.02144 7.78323 6.54956
#
# Compressibility (1/GPa) = 0.04242608
#
# Stress axis : x y z
#
# Youngs Moduli (GPa) = 51.81254 156.87007 58.29042
#
# Poissons Ratio (x) = 0.51171 -0.41132
# Poissons Ratio (y) = 0.16901 0.23296
# Poissons Ratio (z) = -0.36561 0.62695
#
# Static dielectric constant tensor:
#      x y z
#    x 2.032310 -0.081740 -0.178110 
#    y -0.081740 1.647700 -0.031290 
#    z -0.178110 -0.031290 2.068170 
# 
# From -- ./inp_files/229274.got.cif
#   From: 2010.05.17/outbox.cif.g08.bks.cpg/sg2_115_cif.got.tgz:229274.got - 2010.06.03 11:33:40.
