data_PCOD9067711
_publ_section_title
;
Structure prediction by ZEFSAII (Michael W. Deem and Ramdas Pophale) SiO2 
 PCOD9067711
Probable space group: P -1
;
_chemical_formula_sum "Si O2"
_cell_formula_units_Z 11
_cell_length_a 10.105729
_cell_length_b 9.611711
_cell_length_c 13.010635
_cell_angle_alpha 143.722166
_cell_angle_beta 136.335259
_cell_angle_gamma 39.954119
_cell_volume 461.346961
_symmetry_space_group_name_H-M "P -1"
_symmetry_group_IT_number 2
_symmetry_cell_setting 'triclinic'
loop_
_space_group_symop_operation_xyz
x,y,z
-x,-y,-z
loop_
_atom_site_type_symbol
_atom_site_label
_atom_site_fract_x
_atom_site_fract_y
_atom_site_fract_z
Si Si1 0.360395 0.233487 0.216807
Si Si2 0.180956 0.799304 0.559701
Si Si3 0.275845 0.769653 0.955978
Si Si4 0.000000 0.500000 0.000000
Si Si5 0.675610 0.338166 0.846833
Si Si6 0.948436 0.801793 0.640185
O O1 0.266842 0.504454 0.389938
O O2 0.610387 0.149622 0.284444
O O3 0.204765 0.305771 0.074329
O O4 0.345593 0.001298 0.133514
O O5 0.065210 0.828795 0.620024
O O6 0.000000 0.000000 0.500000
O O7 0.430295 0.554079 0.831886
O O8 0.045371 0.866630 0.835026
O O9 0.287337 0.650809 0.003453
O O10 0.164433 0.582212 0.077276
O O11 0.714954 0.051337 0.658252
O O12 0.000000 0.500000 0.500000
#
# Coordination Sequence:
#
# PCOD9067711 Si02
#       6
#     2   2   2   1   2   2
#     4  11  26  47  74 108 149 192 249 300 369 437
#     4  11  27  46  71 110 151 194 238 311 369 431
#     4  11  26  47  73 104 144 195 245 301 363 437
#     4  12  24  44  80 104 146 182 254 302 350 440
#     4  11  26  44  72 109 137 192 244 300 363 431
#     4  12  26  44  71 103 149 191 241 299 368 437
#
# _framework density 23.843228
#
# number of rings (size 3 to 8) (size 9 to 14) (size 15 to 20)
#    0.000    0.727    1.818    3.818    7.636    5.091 
#    0.000    0.000    0.000    0.000    0.000    0.000 
#    0.000    0.000    0.000    0.000    0.000    0.000 
#
# Total GULP energy -61307.831592 kJ/mol
# GULP energy per Si atom -5573.439236 kJ/mol
# Density = 2.378896 g / cm^3
# Si number density = 23.843228 Si / 1000 Ang^3
#
#
#
# Elastic Constant Matrix: (Units=GPa)
#
#
# Indices 1 2 3 4 5 6 
#
# 1 102.7090 26.5277 8.2658 10.1550 2.3744 6.0339
# 2 26.5277 67.0455 -2.7513 -4.6339 0.4600 -8.0547
# 3 8.2658 -2.7513 35.5591 18.8145 2.4308 -8.0402
# 4 10.1550 -4.6339 18.8145 52.4605 -4.1919 -6.1217
# 5 2.3744 0.4600 2.4308 -4.1919 30.2241 -0.4867
# 6 6.0339 -8.0547 -8.0402 -6.1217 -0.4867 60.8105
#
#
#
# Elastic Compliance Matrix: (Units=1/GPa)
#
#
# Indices 1 2 3 4 5 6 
#
# 1 0.011636 -0.005135 -0.002410 -0.002198 -0.000985 -0.002383
# 2 -0.005135 0.017586 0.002123 0.002202 0.000324 0.003344
# 3 -0.002410 0.002123 0.036609 -0.012354 -0.004435 0.004082
# 4 -0.002198 0.002202 -0.012354 0.024641 0.004573 0.001394
# 5 -0.000985 0.000324 -0.004435 0.004573 0.034154 0.000288
# 6 -0.002383 0.003344 0.004082 0.001394 0.000288 0.017806
#
#
# Mechanical properties :
#
#
# Convention : Reuss Voigt Hill
#
# Bulk Modulus (GPa) = 18.18599 29.93312 24.05955
# Shear Modulus (GPa) = 29.13666 40.25043 34.69354
#
# Velocity S-wave (km/s) = 3.49952 4.11314 3.81868
# Velocity P-wave (km/s) = 4.89619 5.92778 5.43651
#
# Compressibility (1/GPa) = 0.05498740
#
# Stress axis : x y z
#
# Youngs Moduli (GPa) = 85.93663 56.86471 27.31555
#
# Poissons Ratio (x) = 0.29197 0.06584
# Poissons Ratio (y) = 0.44124 -0.05799
# Poissons Ratio (z) = 0.20714 -0.12072
#
# Static dielectric constant tensor:
#      x y z
#    x 1.880180 -0.108370 -0.009710 
#    y -0.108370 2.069720 0.015340 
#    z -0.009710 0.015340 1.929610 
# 
# From -- ./inp_files/237382.got.cif
#   From: 2010.05.17/outbox.cif.g08.bks.cpg/sg2_119_cif.got.tgz:237382.got - 2010.06.03 11:33:40.
