data_PCOD9067904
_publ_section_title
;
Structure prediction by ZEFSAII (Michael W. Deem and Ramdas Pophale) SiO2 
 PCOD9067904
Probable space group: P -1
;
_chemical_formula_sum "Si O2"
_cell_formula_units_Z 12
_cell_length_a 13.668017
_cell_length_b 9.491268
_cell_length_c 9.443508
_cell_angle_alpha 149.561030
_cell_angle_beta 56.930648
_cell_angle_gamma 110.262772
_cell_volume 497.386565
_symmetry_space_group_name_H-M "P -1"
_symmetry_group_IT_number 2
_symmetry_cell_setting 'triclinic'
loop_
_space_group_symop_operation_xyz
x,y,z
-x,-y,-z
loop_
_atom_site_type_symbol
_atom_site_label
_atom_site_fract_x
_atom_site_fract_y
_atom_site_fract_z
Si Si1 0.529931 0.769978 0.644063
Si Si2 0.973719 0.926383 0.275559
Si Si3 0.841366 0.130944 0.279664
Si Si4 0.440915 0.755785 0.380971
Si Si5 0.114210 0.302199 0.384699
Si Si6 0.806309 0.659704 0.358812
O O1 0.500000 0.500000 0.500000
O O2 0.461103 0.780411 0.556323
O O3 0.674464 0.696987 0.429875
O O4 0.500000 0.000000 0.000000
O O5 0.871662 0.873562 0.414623
O O6 0.918482 0.923536 0.160327
O O7 0.004716 0.236189 0.508540
O O8 0.095884 0.664998 0.990644
O O9 0.701428 0.207316 0.496850
O O10 0.886807 0.414168 0.459630
O O11 0.854819 0.960072 0.975129
O O12 0.500000 0.000000 0.500000
O O13 0.500000 0.500000 0.000000
O O14 0.215925 0.267834 0.394579
#
# Coordination Sequence:
#
# PCOD9067904 Si02
#       6
#     2   2   2   2   2   2
#     4  12  27  50  77 110 146 199 251 305 366 440
#     4  11  26  46  72 110 146 192 236 307 377 438
#     4  12  26  45  76 104 146 191 246 307 363 443
#     4  12  26  50  74 108 146 197 253 305 366 437
#     4  12  24  47  68 108 143 189 242 297 372 441
#     4  11  26  47  73 108 151 188 243 304 375 443
#
# _framework density 24.126106
#
# number of rings (size 3 to 8) (size 9 to 14) (size 15 to 20)
#    0.000    0.333    1.667    6.500    4.667    0.000 
#    3.000    0.000    0.000    0.000    0.000    0.000 
#    0.000    0.000    0.000    0.000    0.000    0.000 
#
# Total GULP energy -66933.015072 kJ/mol
# GULP energy per Si atom -5577.751256 kJ/mol
# Density = 2.407119 g / cm^3
# Si number density = 24.126106 Si / 1000 Ang^3
#
#
#
# Elastic Constant Matrix: (Units=GPa)
#
#
# Indices 1 2 3 4 5 6 
#
# 1 119.1319 21.5445 44.5509 -5.3578 -20.7803 26.2150
# 2 21.5445 175.2929 53.0766 24.2925 -3.9911 23.1030
# 3 44.5509 53.0766 138.0780 8.9856 20.3119 28.0472
# 4 -5.3578 24.2925 8.9856 46.0554 9.1618 10.4289
# 5 -20.7803 -3.9911 20.3119 9.1618 44.3436 -12.9240
# 6 26.2150 23.1030 28.0472 10.4289 -12.9240 49.8979
#
#
#
# Elastic Compliance Matrix: (Units=1/GPa)
#
#
# Indices 1 2 3 4 5 6 
#
# 1 0.011749 0.000170 -0.004441 0.001360 0.006595 -0.002331
# 2 0.000170 0.007177 -0.002916 -0.003674 0.002734 -0.000297
# 3 -0.004441 -0.002916 0.012504 0.002118 -0.010398 -0.006481
# 4 0.001360 -0.003674 0.002118 0.026924 -0.008573 -0.008052
# 5 0.006595 0.002734 -0.010398 -0.008573 0.035985 0.012226
# 6 -0.002331 -0.000297 -0.006481 -0.008052 0.012226 0.029895
#
#
# Mechanical properties :
#
#
# Convention : Reuss Voigt Hill
#
# Bulk Modulus (GPa) = 58.63501 74.53852 66.58676
# Shear Modulus (GPa) = 34.65091 48.94809 41.79950
#
# Velocity S-wave (km/s) = 3.79389 4.50915 4.16690
# Velocity P-wave (km/s) = 6.59907 7.62053 7.12812
#
# Compressibility (1/GPa) = 0.01705466
#
# Stress axis : x y z
#
# Youngs Moduli (GPa) = 85.11685 139.32492 79.97136
#
# Poissons Ratio (x) = -0.02364 0.35516
# Poissons Ratio (y) = -0.01444 0.23323
# Poissons Ratio (z) = 0.37801 0.40634
#
# Static dielectric constant tensor:
#      x y z
#    x 1.925890 0.019280 -0.026730 
#    y 0.019280 1.874340 0.010670 
#    z -0.026730 0.010670 1.975310 
# 
# From -- ./inp_files/299913.got.cif
#   From: 2010.05.17/outbox.cif.g08.bks.cpg/sg2_150_cif.got.tgz:299913.got - 2010.06.03 11:33:40.
