data_PCOD9067518
_publ_section_title
;
Structure prediction by ZEFSAII (Michael W. Deem and Ramdas Pophale) SiO2 
 PCOD9067518
Probable space group: P -1
;
_chemical_formula_sum "Si O2"
_cell_formula_units_Z 13
_cell_length_a 12.098241
_cell_length_b 11.151079
_cell_length_c 6.837733
_cell_angle_alpha 119.779370
_cell_angle_beta 135.764953
_cell_angle_gamma 46.817944
_cell_volume 469.204866
_symmetry_space_group_name_H-M "P -1"
_symmetry_group_IT_number 2
_symmetry_cell_setting 'triclinic'
loop_
_space_group_symop_operation_xyz
x,y,z
-x,-y,-z
loop_
_atom_site_type_symbol
_atom_site_label
_atom_site_fract_x
_atom_site_fract_y
_atom_site_fract_z
Si Si1 0.500000 0.000000 0.000000
Si Si2 0.154155 0.424883 0.457416
Si Si3 0.005422 0.232081 0.632341
Si Si4 0.740536 0.332260 0.686256
Si Si5 0.185528 0.865259 0.014033
Si Si6 0.583138 0.642731 0.932099
Si Si7 0.685020 0.918032 0.836057
O O1 0.466147 0.184390 0.066473
O O2 0.522011 0.015743 0.294354
O O3 0.068276 0.578449 0.327669
O O4 0.211812 0.254327 0.287009
O O5 0.000000 0.500000 0.500000
O O6 0.341802 0.389912 0.779056
O O7 0.936554 0.202522 0.726965
O O8 0.904456 0.197785 0.306816
O O9 0.232565 0.115173 0.852151
O O10 0.741510 0.490494 0.880121
O O11 0.593392 0.369817 0.358620
O O12 0.699667 0.267403 0.778304
O O13 0.288396 0.943511 0.104612
O O14 0.000000 0.000000 0.000000
#
# Coordination Sequence:
#
# PCOD9067518 Si02
#       7
#     1   2   2   2   2   2   2
#     4  12  28  50  68 106 160 200 242 302 382 448
#     4  12  25  48  78 111 146 200 254 309 384 452
#     4  12  24  48  79 106 145 196 252 318 373 441
#     4  11  25  50  75 111 147 193 255 314 377 446
#     4  12  25  46  79 114 145 190 257 317 378 439
#     4  11  26  48  73 104 153 194 247 312 368 453
#     4  12  27  46  77 112 153 198 248 313 375 453
#
# _framework density 27.706444999999999
#
# number of rings (size 3 to 8) (size 9 to 14) (size 15 to 20)
#    0.000    0.308    3.077    5.538    4.308    1.231 
#    8.308    0.000    0.000    0.000    0.000    0.000 
#    0.000    0.000    0.000    0.000    0.000    0.000 
#
# Total GULP energy -72651.880103 kJ/mol
# GULP energy per Si atom -5588.606162 kJ/mol
# Density = 2.764338 g / cm^3
# Si number density = 27.706445 Si / 1000 Ang^3
#
#
#
# Elastic Constant Matrix: (Units=GPa)
#
#
# Indices 1 2 3 4 5 6 
#
# 1 141.9138 51.8758 27.5783 12.6664 -32.1895 6.6696
# 2 51.8758 175.8081 42.5273 6.8054 -13.5977 17.6067
# 3 27.5783 42.5273 175.6282 -4.1696 15.7861 7.0999
# 4 12.6664 6.8054 -4.1696 59.4088 -4.4470 -14.5480
# 5 -32.1895 -13.5977 15.7861 -4.4470 21.4577 5.0520
# 6 6.6696 17.6067 7.0999 -14.5480 5.0520 47.3664
#
#
#
# Elastic Compliance Matrix: (Units=1/GPa)
#
#
# Indices 1 2 3 4 5 6 
#
# 1 0.013978 -0.000753 -0.004050 -0.002458 0.023996 -0.004396
# 2 -0.000753 0.007179 -0.002004 -0.001182 0.005403 -0.003201
# 3 -0.004050 -0.002004 0.007972 0.001111 -0.013426 0.001894
# 4 -0.002458 -0.001182 0.001111 0.019010 -0.002908 0.006768
# 5 0.023996 0.005403 -0.013426 -0.002908 0.098785 -0.014804
# 6 -0.004396 -0.003201 0.001894 0.006768 -0.014804 0.026295
#
#
# Mechanical properties :
#
#
# Convention : Reuss Voigt Hill
#
# Bulk Modulus (GPa) = 64.46040 81.92363 73.19202
# Shear Modulus (GPa) = 26.04093 50.40450 38.22272
#
# Velocity S-wave (km/s) = 3.06908 4.26988 3.71827
# Velocity P-wave (km/s) = 5.98958 7.34450 6.70137
#
# Compressibility (1/GPa) = 0.01551340
#
# Stress axis : x y z
#
# Youngs Moduli (GPa) = 71.54123 139.28674 125.44266
#
# Poissons Ratio (x) = 0.10495 0.50804
# Poissons Ratio (y) = 0.05390 0.25144
# Poissons Ratio (z) = 0.28974 0.27919
#
# Static dielectric constant tensor:
#      x y z
#    x 3.823370 -0.988920 0.172530 
#    y -0.988920 2.665070 -0.198170 
#    z 0.172530 -0.198170 2.325230 
# 
# From -- ./inp_files/72492.got.cif
#   From: 2010.05.17/outbox.cif.g08.bks.cpg/sg2_37_cif.got.tgz:72492.got - 2010.06.03 11:33:40.
