data_PCOD9067774
_publ_section_title
;
Structure prediction by ZEFSAII (Michael W. Deem and Ramdas Pophale) SiO2 
 PCOD9067774
Probable space group: P -1
;
_chemical_formula_sum "Si O2"
_cell_formula_units_Z 14
_cell_length_a 13.969217
_cell_length_b 11.457680
_cell_length_c 28.626223
_cell_angle_alpha 157.855771
_cell_angle_beta 157.825035
_cell_angle_gamma 31.480176
_cell_volume 651.462228
_symmetry_space_group_name_H-M "P -1"
_symmetry_group_IT_number 2
_symmetry_cell_setting 'triclinic'
loop_
_space_group_symop_operation_xyz
x,y,z
-x,-y,-z
loop_
_atom_site_type_symbol
_atom_site_label
_atom_site_fract_x
_atom_site_fract_y
_atom_site_fract_z
Si Si1 0.937066 0.254841 0.442039
Si Si2 0.267117 0.366278 0.059155
Si Si3 0.352250 0.593336 0.079078
Si Si4 0.369580 0.265043 0.569760
Si Si5 0.237405 0.300544 0.310081
Si Si6 0.851158 0.333791 0.228053
Si Si7 0.794828 0.584839 0.152965
O O1 0.704638 0.449894 0.390937
O O2 0.110482 0.162976 0.442049
O O3 0.094722 0.487521 0.633223
O O4 0.848514 0.951897 0.317827
O O5 0.299393 0.402274 0.031712
O O6 0.456735 0.586750 0.256187
O O7 0.000000 0.500000 0.000000
O O8 0.261864 0.010619 0.941113
O O9 0.647815 0.527620 0.179375
O O10 0.303697 0.949088 0.199041
O O11 0.188979 0.489866 0.922585
O O12 0.500000 0.000000 0.500000
O O13 0.500000 0.500000 0.500000
O O14 0.109647 0.315833 0.309081
O O15 0.015155 0.413118 0.216697
O O16 0.500000 0.500000 0.000000
#
# Coordination Sequence:
#
# PCOD9067774 Si02
#       7
#     2   2   2   2   2   2   2
#     4  11  27  45  73 105 145 191 238 299 369 428
#     4  12  25  45  76 109 146 191 242 302 378 438
#     4  12  26  48  76 103 148 192 247 305 369 437
#     4  11  26  45  71 110 147 183 239 302 366 437
#     4  12  29  49  75 107 146 198 254 305 364 438
#     4  12  25  48  76 107 147 194 245 307 373 445
#     4  12  28  50  75 106 148 199 249 301 364 440
#
# _framework density 21.490117000000001
#
# number of rings (size 3 to 8) (size 9 to 14) (size 15 to 20)
#    0.000    0.286    4.286    3.429    8.000    1.143 
#    0.000    0.000    0.000    0.000    0.000    0.000 
#    0.000    0.000    0.000    0.000    0.000    0.000 
#
# Total GULP energy -78307.993882 kJ/mol
# GULP energy per Si atom -5593.428134 kJ/mol
# Density = 2.144120 g / cm^3
# Si number density = 21.490117 Si / 1000 Ang^3
#
#
#
# Elastic Constant Matrix: (Units=GPa)
#
#
# Indices 1 2 3 4 5 6 
#
# 1 108.4761 51.0359 54.1932 6.3308 -11.0976 -11.2428
# 2 51.0359 167.6143 44.5207 5.3639 9.0414 -15.4927
# 3 54.1932 44.5207 65.7534 3.9600 3.8131 -17.3246
# 4 6.3308 5.3639 3.9600 38.8347 4.4696 -9.3478
# 5 -11.0976 9.0414 3.8131 4.4696 39.0785 -2.3873
# 6 -11.2428 -15.4927 -17.3246 -9.3478 -2.3873 36.9274
#
#
#
# Elastic Compliance Matrix: (Units=1/GPa)
#
#
# Indices 1 2 3 4 5 6 
#
# 1 0.018003 -0.002228 -0.014197 -0.002557 0.007166 -0.002298
# 2 -0.002228 0.007630 -0.002944 0.000095 -0.002059 0.001032
# 3 -0.014197 -0.002944 0.031614 0.002493 -0.006139 0.009508
# 4 -0.002557 0.000095 0.002493 0.028089 -0.003758 0.007298
# 5 0.007166 -0.002059 -0.006139 -0.003758 0.029091 -0.000633
# 6 -0.002298 0.001032 0.009508 0.007298 -0.000633 0.033081
#
#
# Mechanical properties :
#
#
# Convention : Reuss Voigt Hill
#
# Bulk Modulus (GPa) = 54.02663 71.26036 62.64349
# Shear Modulus (GPa) = 25.98541 35.77438 30.87990
#
# Velocity S-wave (km/s) = 3.48110 4.08449 3.79480
# Velocity P-wave (km/s) = 6.43057 7.44820 6.95801
#
# Compressibility (1/GPa) = 0.01850939
#
# Stress axis : x y z
#
# Youngs Moduli (GPa) = 55.54477 131.06329 31.63187
#
# Poissons Ratio (x) = 0.29201 0.44907
# Poissons Ratio (y) = 0.12375 0.09313
# Poissons Ratio (z) = 0.78855 0.38586
#
# Static dielectric constant tensor:
#      x y z
#    x 1.275730 0.063480 0.471920 
#    y 0.063480 1.756370 -0.076670 
#    z 0.471920 -0.076670 1.443020 
# 
# From -- ./inp_files/261169.got.cif
#   From: 2010.05.17/outbox.cif.g08.bks.cpg/sg2_131_cif.got.tgz:261169.got - 2010.06.03 11:33:40.
