data_PCOD9067397
_publ_section_title
;
Structure prediction by ZEFSAII (Michael W. Deem and Ramdas Pophale) SiO2 
 PCOD9067397
Probable space group: P -1
;
_chemical_formula_sum "Si O2"
_cell_formula_units_Z 11
_cell_length_a 15.174313
_cell_length_b 11.680944
_cell_length_c 5.531817
_cell_angle_alpha 88.144434
_cell_angle_beta 88.394480
_cell_angle_gamma 153.085291
_cell_volume 440.090141
_symmetry_space_group_name_H-M "P -1"
_symmetry_group_IT_number 2
_symmetry_cell_setting 'triclinic'
loop_
_space_group_symop_operation_xyz
x,y,z
-x,-y,-z
loop_
_atom_site_type_symbol
_atom_site_label
_atom_site_fract_x
_atom_site_fract_y
_atom_site_fract_z
Si Si1 0.084092 0.648874 0.235694
Si Si2 0.564078 0.666575 0.183822
Si Si3 0.464413 0.106833 0.951264
Si Si4 0.200478 0.237398 0.609130
Si Si5 0.190692 0.475240 0.785185
Si Si6 0.500000 0.000000 0.500000
O O1 0.000000 0.500000 0.500000
O O2 0.015949 0.701925 0.220981
O O3 0.000000 0.500000 0.000000
O O4 0.320961 0.902583 0.201935
O O5 0.589829 0.824701 0.084068
O O6 0.390270 0.471411 0.407329
O O7 0.760933 0.838786 0.260586
O O8 0.500000 0.500000 0.000000
O O9 0.407167 0.962500 0.742574
O O10 0.691695 0.364808 0.986579
O O11 0.189424 0.337426 0.767056
O O12 0.000000 0.000000 0.500000
O O13 0.333095 0.701381 0.564856
#
# Coordination Sequence:
#
# PCOD9067397 Si02
#       6
#     2   2   2   2   2   1
#     4  12  30  48  75 117 159 205 265 324 398 485
#     4  11  25  49  74 109 151 205 262 324 395 465
#     4  12  27  48  80 111 159 206 260 329 398 484
#     4  11  27  47  75 111 154 202 268 329 393 468
#     4  12  26  47  74 110 156 202 259 322 401 470
#     4  12  24  48  76 112 154 206 256 316 402 474
#
# _framework density 24.994879000000001
#
# number of rings (size 3 to 8) (size 9 to 14) (size 15 to 20)
#    0.000    0.364    5.455    1.636    5.091    3.636 
#    0.000    0.000    0.000    0.000    0.000    0.000 
#    0.000    0.000    0.000    0.000    0.000    0.000 
#
# Total GULP energy -61407.358719 kJ/mol
# GULP energy per Si atom -5582.487156 kJ/mol
# Density = 2.493799 g / cm^3
# Si number density = 24.994879 Si / 1000 Ang^3
#
#
#
# Elastic Constant Matrix: (Units=GPa)
#
#
# Indices 1 2 3 4 5 6 
#
# 1 194.7328 36.3762 23.0419 13.7161 -7.0274 -8.6857
# 2 36.3762 70.5148 14.7889 11.3397 -2.0755 15.7836
# 3 23.0419 14.7889 109.6822 13.2041 -18.1281 -6.5431
# 4 13.7161 11.3397 13.2041 41.1690 -0.6219 3.3256
# 5 -7.0274 -2.0755 -18.1281 -0.6219 40.7164 3.6699
# 6 -8.6857 15.7836 -6.5431 3.3256 3.6699 58.4660
#
#
#
# Elastic Compliance Matrix: (Units=1/GPa)
#
#
# Indices 1 2 3 4 5 6 
#
# 1 0.005956 -0.003160 -0.000516 -0.001080 0.000466 0.001712
# 2 -0.003160 0.017822 -0.001703 -0.002880 0.000040 -0.005310
# 3 -0.000516 -0.001703 0.010603 -0.002811 0.004371 0.001455
# 4 -0.001080 -0.002880 -0.002811 0.026420 -0.001079 -0.001132
# 5 0.000466 0.000040 0.004371 -0.001079 0.026668 -0.001065
# 6 0.001712 -0.005310 0.001455 -0.001132 -0.001065 0.019086
#
#
# Mechanical properties :
#
#
# Convention : Reuss Voigt Hill
#
# Bulk Modulus (GPa) = 42.33146 58.14931 50.24039
# Shear Modulus (GPa) = 39.94061 48.11847 44.02954
#
# Velocity S-wave (km/s) = 4.00178 4.39239 4.20163
# Velocity P-wave (km/s) = 6.19073 7.00280 6.60925
#
# Compressibility (1/GPa) = 0.02362309
#
# Stress axis : x y z
#
# Youngs Moduli (GPa) = 167.90197 56.11172 94.31451
#
# Poissons Ratio (x) = 0.17732 0.04866
# Poissons Ratio (y) = 0.53060 0.16057
# Poissons Ratio (z) = 0.08662 0.09553
#
# Static dielectric constant tensor:
#      x y z
#    x 2.169100 -0.139530 0.296240 
#    y -0.139530 2.005050 -0.199940 
#    z 0.296240 -0.199940 2.322020 
# 
# From -- ./inp_files/92635.got.cif
#   From: 2010.05.17/outbox.cif.g08.bks.cpg/sg2_47_cif.got.tgz:92635.got - 2010.06.03 11:33:40.
