data_PCOD9067146
_publ_section_title
;
Structure prediction by ZEFSAII (Michael W. Deem and Ramdas Pophale) SiO2 
 PCOD9067146
Probable space group: P -1
;
_chemical_formula_sum "Si O2"
_cell_formula_units_Z 13
_cell_length_a 9.215930
_cell_length_b 8.337861
_cell_length_c 11.541165
_cell_angle_alpha 59.388006
_cell_angle_beta 50.456468
_cell_angle_gamma 49.106966
_cell_volume 510.424415
_symmetry_space_group_name_H-M "P -1"
_symmetry_group_IT_number 2
_symmetry_cell_setting 'triclinic'
loop_
_space_group_symop_operation_xyz
x,y,z
-x,-y,-z
loop_
_atom_site_type_symbol
_atom_site_label
_atom_site_fract_x
_atom_site_fract_y
_atom_site_fract_z
Si Si1 0.751778 0.715073 0.695191
Si Si2 0.290515 0.935831 0.809962
Si Si3 0.842158 0.244684 0.839557
Si Si4 0.886310 0.198703 0.574731
Si Si5 0.275419 0.217701 0.048674
Si Si6 0.204368 0.627422 0.816711
Si Si7 0.500000 0.500000 0.500000
O O1 0.524090 0.915645 0.694847
O O2 0.736592 0.498813 0.779969
O O3 0.778324 0.758116 0.798322
O O4 0.953047 0.703872 0.531210
O O5 0.279009 0.786688 0.771112
O O6 0.268674 0.836813 0.979985
O O7 0.079786 0.163221 0.807124
O O8 0.860617 0.144413 0.740066
O O9 0.655380 0.367994 0.579136
O O10 0.000000 0.000000 0.500000
O O11 0.056100 0.264757 0.076900
O O12 0.306936 0.414088 0.919942
O O13 0.500000 0.000000 0.000000
O O14 0.282035 0.574013 0.665362
#
# Coordination Sequence:
#
# PCOD9067146 Si02
#       7
#     2   2   2   2   2   2   1
#     4  12  26  47  72 114 147 198 254 307 383 446
#     4  11  26  45  77 108 150 199 255 303 379 448
#     4  11  26  47  76 107 154 198 247 313 373 452
#     4  12  29  49  75 110 153 199 255 310 385 448
#     4  11  27  44  74 107 154 198 256 310 369 445
#     4  11  25  48  70 112 149 201 252 309 374 449
#     4  12  26  44  74 104 150 190 246 308 372 438
#
# _framework density 25.468999
#
# number of rings (size 3 to 8) (size 9 to 14) (size 15 to 20)
#    0.000    0.615    3.077    2.769    8.615    1.846 
#    0.000    0.000    0.000    0.000    0.000    0.000 
#    0.000    0.000    0.000    0.000    0.000    0.000 
#
# Total GULP energy -72652.111130 kJ/mol
# GULP energy per Si atom -5588.623933 kJ/mol
# Density = 2.541103 g / cm^3
# Si number density = 25.468999 Si / 1000 Ang^3
#
#
#
# Elastic Constant Matrix: (Units=GPa)
#
#
# Indices 1 2 3 4 5 6 
#
# 1 108.4333 27.4044 14.2481 10.8568 -2.9301 -36.0785
# 2 27.4044 87.1053 21.4208 17.6938 -4.7313 -28.4039
# 3 14.2481 21.4208 76.8916 9.9349 2.0778 -21.7719
# 4 10.8568 17.6938 9.9349 29.0379 -6.8365 -0.2799
# 5 -2.9301 -4.7313 2.0778 -6.8365 39.1433 7.0170
# 6 -36.0785 -28.4039 -21.7719 -0.2799 7.0170 51.1906
#
#
#
# Elastic Compliance Matrix: (Units=1/GPa)
#
#
# Indices 1 2 3 4 5 6 
#
# 1 0.012816 -0.000168 0.001151 -0.005413 -0.001797 0.009646
# 2 -0.000168 0.016575 -0.000741 -0.010006 -0.001311 0.008888
# 3 0.001151 -0.000741 0.016050 -0.006174 -0.003304 0.007645
# 4 -0.005413 -0.010006 -0.006174 0.046713 0.009202 -0.012999
# 5 -0.001797 -0.001311 -0.003304 0.009202 0.028333 -0.007232
# 6 0.009646 0.008888 0.007645 -0.012999 -0.007232 0.035437
#
#
# Mechanical properties :
#
#
# Convention : Reuss Voigt Hill
#
# Bulk Modulus (GPa) = 21.77428 44.28631 33.03030
# Shear Modulus (GPa) = 29.28261 37.83148 33.55705
#
# Velocity S-wave (km/s) = 3.39445 3.85826 3.63377
# Velocity P-wave (km/s) = 4.89193 6.10527 5.53197
#
# Compressibility (1/GPa) = 0.04592574
#
# Stress axis : x y z
#
# Youngs Moduli (GPa) = 78.02552 60.33078 62.30356
#
# Poissons Ratio (x) = 0.01012 -0.07172
# Poissons Ratio (y) = 0.01309 0.04620
# Poissons Ratio (z) = -0.08982 0.04473
#
# Static dielectric constant tensor:
#      x y z
#    x 1.992050 0.054470 -0.023150 
#    y 0.054470 2.039190 -0.008900 
#    z -0.023150 -0.008900 1.989230 
# 
# From -- ./inp_files/156526.got.cif
#   From: 2010.05.17/outbox.cif.g08.bks.cpg/sg2_79_cif.got.tgz:156526.got - 2010.06.03 11:33:40.
