data_PCOD9067920
_publ_section_title
;
Structure prediction by ZEFSAII (Michael W. Deem and Ramdas Pophale) SiO2 
 PCOD9067920
Probable space group: P -1
;
_chemical_formula_sum "Si O2"
_cell_formula_units_Z 14
_cell_length_a 12.069599
_cell_length_b 9.397172
_cell_length_c 9.150280
_cell_angle_alpha 36.925508
_cell_angle_beta 73.186133
_cell_angle_gamma 69.297914
_cell_volume 583.201217
_symmetry_space_group_name_H-M "P -1"
_symmetry_group_IT_number 2
_symmetry_cell_setting 'triclinic'
loop_
_space_group_symop_operation_xyz
x,y,z
-x,-y,-z
loop_
_atom_site_type_symbol
_atom_site_label
_atom_site_fract_x
_atom_site_fract_y
_atom_site_fract_z
Si Si1 0.394152 0.549406 0.116436
Si Si2 0.971163 0.736287 0.712308
Si Si3 0.976801 0.263643 0.625888
Si Si4 0.696830 0.794899 0.772585
Si Si5 0.799396 0.008838 0.075518
Si Si6 0.452805 0.732606 0.460822
Si Si7 0.338762 0.325455 0.775074
O O1 0.314405 0.382176 0.211151
O O2 0.314755 0.814840 0.954681
O O3 0.454852 0.454281 0.322875
O O4 0.500000 0.500000 0.000000
O O5 0.035148 0.659081 0.599499
O O6 0.830783 0.810301 0.701442
O O7 0.000000 0.000000 0.500000
O O8 0.000000 0.500000 0.000000
O O9 0.000000 0.500000 0.500000
O O10 0.867639 0.157469 0.816095
O O11 0.099919 0.073260 0.771766
O O12 0.604181 0.048884 0.591133
O O13 0.674198 0.716954 0.012083
O O14 0.754734 0.791737 0.185530
O O15 0.349640 0.608466 0.537939
O O16 0.534451 0.793559 0.249727
#
# Coordination Sequence:
#
# PCOD9067920 Si02
#       7
#     2   2   2   2   2   2   2
#     4  12  26  47  75 111 156 200 259 320 398 468
#     4  12  32  51  81 117 158 205 268 339 406 470
#     4  11  28  53  78 113 153 207 273 323 403 480
#     4  12  27  47  77 106 156 201 258 326 395 465
#     4  11  28  47  81 112 157 210 258 329 397 478
#     4  11  27  45  74 111 151 207 256 313 389 478
#     4  11  26  46  73 108 151 196 259 308 390 472
#
# _framework density 24.005437000000001
#
# number of rings (size 3 to 8) (size 9 to 14) (size 15 to 20)
#    0.000    0.571    1.429    3.429   20.000    0.000 
#    0.000    0.000    0.000    0.000    0.000    0.000 
#    0.000    0.000    0.000    0.000    0.000    0.000 
#
# Total GULP energy -78224.467426 kJ/mol
# GULP energy per Si atom -5587.461959 kJ/mol
# Density = 2.395080 g / cm^3
# Si number density = 24.005437 Si / 1000 Ang^3
#
#
#
# Elastic Constant Matrix: (Units=GPa)
#
#
# Indices 1 2 3 4 5 6 
#
# 1 111.5951 18.3699 37.6038 0.8990 -31.3726 9.3587
# 2 18.3699 122.6062 22.7009 3.0422 -9.5865 15.4171
# 3 37.6038 22.7009 103.4833 24.8919 -22.4245 8.4064
# 4 0.8990 3.0422 24.8919 31.4967 0.6622 -6.4254
# 5 -31.3726 -9.5865 -22.4245 0.6622 46.3424 -10.7926
# 6 9.3587 15.4171 8.4064 -6.4254 -10.7926 50.6130
#
#
#
# Elastic Compliance Matrix: (Units=1/GPa)
#
#
# Indices 1 2 3 4 5 6 
#
# 1 0.011968 -0.000757 -0.003389 0.002323 0.006324 0.000224
# 2 -0.000757 0.008834 -0.001406 -0.000196 0.000097 -0.002322
# 3 -0.003389 -0.001406 0.015342 -0.012417 0.004526 -0.002104
# 4 0.002323 -0.000196 -0.012417 0.042890 -0.003606 0.006369
# 5 0.006324 0.000097 0.004526 -0.003606 0.029001 0.003776
# 6 0.000224 -0.002322 -0.002104 0.006369 0.003776 0.022387
#
#
# Mechanical properties :
#
#
# Convention : Reuss Voigt Hill
#
# Bulk Modulus (GPa) = 39.93723 55.00373 47.47048
# Shear Modulus (GPa) = 33.36154 42.95775 38.15964
#
# Velocity S-wave (km/s) = 3.73198 4.23484 3.99134
# Velocity P-wave (km/s) = 5.93659 6.84650 6.40772
#
# Compressibility (1/GPa) = 0.02503929
#
# Stress axis : x y z
#
# Youngs Moduli (GPa) = 83.55503 113.19468 65.18122
#
# Poissons Ratio (x) = 0.08568 0.22093
# Poissons Ratio (y) = 0.06324 0.09166
# Poissons Ratio (z) = 0.28320 0.15917
#
# Static dielectric constant tensor:
#      x y z
#    x 1.701010 -0.224210 0.055370 
#    y -0.224210 1.644880 0.085920 
#    z 0.055370 0.085920 1.962140 
# 
# From -- ./inp_files/241786.got.cif
#   From: 2010.05.17/outbox.cif.g08.bks.cpg/sg2_121_cif.got.tgz:241786.got - 2010.06.03 11:33:40.
