data_PCOD9067769
_publ_section_title
;
Structure prediction by ZEFSAII (Michael W. Deem and Ramdas Pophale) SiO2 
 PCOD9067769
Probable space group: P -1
;
_chemical_formula_sum "Si O2"
_cell_formula_units_Z 16
_cell_length_a 14.497394
_cell_length_b 7.995554
_cell_length_c 11.834074
_cell_angle_alpha 52.521015
_cell_angle_beta 60.499700
_cell_angle_gamma 101.260049
_cell_volume 660.916641
_symmetry_space_group_name_H-M "P -1"
_symmetry_group_IT_number 2
_symmetry_cell_setting 'triclinic'
loop_
_space_group_symop_operation_xyz
x,y,z
-x,-y,-z
loop_
_atom_site_type_symbol
_atom_site_label
_atom_site_fract_x
_atom_site_fract_y
_atom_site_fract_z
Si Si1 0.716466 0.258874 0.871662
Si Si2 0.536079 0.798539 0.973893
Si Si3 0.968528 0.234183 0.559484
Si Si4 0.774417 0.104954 0.537056
Si Si5 0.786137 0.170427 0.092112
Si Si6 0.595536 0.747468 0.578789
Si Si7 0.255199 0.437388 0.933401
Si Si8 0.084413 0.325283 0.858083
O O1 0.574510 0.194977 0.021896
O O2 0.862101 0.613308 0.617530
O O3 0.756108 0.135554 0.990022
O O4 0.663642 0.089452 0.854379
O O5 0.442906 0.534394 0.230666
O O6 0.629410 0.817780 0.812077
O O7 0.912714 0.195406 0.481236
O O8 0.000000 0.500000 0.500000
O O9 0.845953 0.905083 0.823823
O O10 0.807055 0.400700 0.408506
O O11 0.731344 0.017848 0.468504
O O12 0.659200 0.863987 0.366605
O O13 0.772665 0.395918 0.042513
O O14 0.948617 0.300218 0.971616
O O15 0.434812 0.640685 0.734381
O O16 0.186951 0.404345 0.867863
O O17 0.000000 0.000000 0.000000
#
# Coordination Sequence:
#
# PCOD9067769 Si02
#       8
#     2   2   2   2   2   2   2   2
#     4  11  26  45  71 107 145 190 245 306 367 433
#     4  11  26  45  73 105 146 193 243 305 365 437
#     4  12  24  46  76 105 144 192 249 303 362 433
#     4  12  24  47  75 102 147 187 250 300 361 443
#     4  12  28  48  71 110 152 189 251 298 369 447
#     4  12  27  47  72 109 149 197 242 300 376 440
#     4  12  27  48  75 107 151 199 244 304 367 438
#     4  12  29  47  76 108 148 198 247 306 374 435
#
# _framework density 24.208801999999999
#
# number of rings (size 3 to 8) (size 9 to 14) (size 15 to 20)
#    0.000    0.250    5.000    2.625    7.000    2.000 
#    0.000    0.000    0.000    0.000    0.000    0.000 
#    0.000    0.000    0.000    0.000    0.000    0.000 
#
# Total GULP energy -89474.260679 kJ/mol
# GULP energy per Si atom -5592.141292 kJ/mol
# Density = 2.415370 g / cm^3
# Si number density = 24.208802 Si / 1000 Ang^3
#
#
#
# Elastic Constant Matrix: (Units=GPa)
#
#
# Indices 1 2 3 4 5 6 
#
# 1 148.8244 25.8091 33.7889 -3.9923 -10.8367 34.3973
# 2 25.8091 47.3370 17.3753 -5.4691 -2.0429 20.3647
# 3 33.7889 17.3753 145.9732 -10.2323 12.7135 12.0255
# 4 -3.9923 -5.4691 -10.2323 37.6108 0.0185 0.5652
# 5 -10.8367 -2.0429 12.7135 0.0185 44.4381 -6.7971
# 6 34.3973 20.3647 12.0255 0.5652 -6.7971 32.6383
#
#
#
# Elastic Compliance Matrix: (Units=1/GPa)
#
#
# Indices 1 2 3 4 5 6 
#
# 1 0.009247 -0.000735 -0.001426 0.000614 0.001330 -0.008495
# 2 -0.000735 0.030183 -0.001575 0.004150 -0.001061 -0.017770
# 3 -0.001426 -0.001575 0.007820 0.001764 -0.002813 -0.001012
# 4 0.000614 0.004150 0.001764 0.027805 -0.000871 -0.004549
# 5 0.001330 -0.001061 -0.002813 -0.000871 0.024409 0.005396
# 6 -0.008495 -0.017770 -0.001012 -0.004549 0.005396 0.052255
#
#
# Mechanical properties :
#
#
# Convention : Reuss Voigt Hill
#
# Bulk Modulus (GPa) = 25.14018 55.12012 40.13015
# Shear Modulus (GPa) = 28.99366 40.61486 34.80426
#
# Velocity S-wave (km/s) = 3.46446 4.10040 3.79577
# Velocity P-wave (km/s) = 5.13912 6.72576 5.98525
#
# Compressibility (1/GPa) = 0.03977696
#
# Stress axis : x y z
#
# Youngs Moduli (GPa) = 108.13904 33.13157 127.87510
#
# Poissons Ratio (x) = 0.02437 0.18234
# Poissons Ratio (y) = 0.07953 0.20143
# Poissons Ratio (z) = 0.15420 0.05219
#
# Static dielectric constant tensor:
#      x y z
#    x 1.912090 -0.021660 -0.012300 
#    y -0.021660 1.998410 -0.020220 
#    z -0.012300 -0.020220 1.970210 
# 
# From -- ./inp_files/187481.got.cif
#   From: 2010.05.17/outbox.cif.g08.bks.cpg/sg2_94_cif.got.tgz:187481.got - 2010.06.03 11:33:40.
