data_PCOD9067072
_publ_section_title
;
Structure prediction by ZEFSAII (Michael W. Deem and Ramdas Pophale) SiO2 
 PCOD9067072
Probable space group: P -1
;
_chemical_formula_sum "Si O2"
_cell_formula_units_Z 12
_cell_length_a 12.805289
_cell_length_b 10.364514
_cell_length_c 7.195557
_cell_angle_alpha 134.376554
_cell_angle_beta 64.086491
_cell_angle_gamma 135.287756
_cell_volume 476.806626
_symmetry_space_group_name_H-M "P -1"
_symmetry_group_IT_number 2
_symmetry_cell_setting 'triclinic'
loop_
_space_group_symop_operation_xyz
x,y,z
-x,-y,-z
loop_
_atom_site_type_symbol
_atom_site_label
_atom_site_fract_x
_atom_site_fract_y
_atom_site_fract_z
Si Si1 0.567284 0.538790 0.191948
Si Si2 0.375278 0.762587 0.965369
Si Si3 0.869004 0.057099 0.108995
Si Si4 0.300054 0.475211 0.407651
Si Si5 0.679815 0.193093 0.559557
Si Si6 0.077144 0.102979 0.740060
O O1 0.475663 0.601363 0.433598
O O2 0.500000 0.500000 0.000000
O O3 0.540705 0.316128 0.070106
O O4 0.744887 0.728747 0.251826
O O5 0.288813 0.779218 0.216111
O O6 0.263114 0.558560 0.700057
O O7 0.500000 0.000000 0.000000
O O8 0.766198 0.123936 0.308940
O O9 0.998074 0.198498 0.996003
O O10 0.944940 0.071587 0.259288
O O11 0.284696 0.585467 0.350648
O O12 0.228398 0.209235 0.159469
O O13 0.500000 0.000000 0.500000
O O14 0.000000 0.000000 0.500000
#
# Coordination Sequence:
#
# PCOD9067072 Si02
#       6
#     2   2   2   2   2   2
#     4  12  23  48  81 111 154 203 261 322 382 462
#     4  12  26  41  71 121 156 194 256 327 387 449
#     4  11  26  48  77 110 157 205 250 320 395 462
#     4  12  25  46  80 115 153 200 264 323 385 456
#     4  12  24  45  73 114 157 198 263 325 383 457
#     4  11  25  47  77 112 154 205 254 312 396 465
#
# _framework density 25.167435000000001
#
# number of rings (size 3 to 8) (size 9 to 14) (size 15 to 20)
#    0.000    0.333    5.000    3.500    0.000    2.667 
#    3.000    7.500    0.000   12.000    0.000    0.000 
#    0.000    0.000    0.000    0.000    0.000    0.000 
#
# Total GULP energy -67136.194593 kJ/mol
# GULP energy per Si atom -5594.682883 kJ/mol
# Density = 2.511015 g / cm^3
# Si number density = 25.167435 Si / 1000 Ang^3
#
#
#
# Elastic Constant Matrix: (Units=GPa)
#
#
# Indices 1 2 3 4 5 6 
#
# 1 132.7288 63.4451 68.0432 -9.2796 10.1706 14.5861
# 2 63.4451 109.3688 54.0689 -8.4939 -3.6927 3.3272
# 3 68.0432 54.0689 174.5288 -18.8426 6.7079 18.4975
# 4 -9.2796 -8.4939 -18.8426 40.0797 -2.1502 -9.8886
# 5 10.1706 -3.6927 6.7079 -2.1502 63.4018 -12.2950
# 6 14.5861 3.3272 18.4975 -9.8886 -12.2950 54.4380
#
#
#
# Elastic Compliance Matrix: (Units=1/GPa)
#
#
# Indices 1 2 3 4 5 6 
#
# 1 0.012070 -0.005760 -0.002590 -0.000433 -0.002526 -0.002651
# 2 -0.005760 0.013675 -0.002188 0.001213 0.002423 0.002219
# 3 -0.002590 -0.002188 0.007856 0.002188 -0.000783 -0.001621
# 4 -0.000433 0.001213 0.002188 0.027380 0.001742 0.004666
# 5 -0.002526 0.002423 -0.000783 0.001742 0.017440 0.005050
# 6 -0.002651 0.002219 -0.001621 0.004666 0.005050 0.021483
#
#
# Mechanical properties :
#
#
# Convention : Reuss Voigt Hill
#
# Bulk Modulus (GPa) = 79.84424 87.52677 83.68550
# Shear Modulus (GPa) = 39.95080 46.98851 43.46965
#
# Velocity S-wave (km/s) = 3.98854 4.32561 4.16049
# Velocity P-wave (km/s) = 7.28048 7.73312 7.51021
#
# Compressibility (1/GPa) = 0.01252439
#
# Stress axis : x y z
#
# Youngs Moduli (GPa) = 82.85261 73.12679 127.29932
#
# Poissons Ratio (x) = 0.42118 0.32970
# Poissons Ratio (y) = 0.47719 0.27857
# Poissons Ratio (z) = 0.21459 0.16003
#
# Static dielectric constant tensor:
#      x y z
#    x 1.978830 0.066250 0.015600 
#    y 0.066250 2.181380 -0.038720 
#    z 0.015600 -0.038720 2.123340 
# 
# From -- ./inp_files/301844.got.cif
#   From: 2010.05.17/outbox.cif.g08.bks.cpg/sg2_151_cif.got.tgz:301844.got - 2010.06.03 11:33:40.
