data_PCOD9067187
_publ_section_title
;
Structure prediction by ZEFSAII (Michael W. Deem and Ramdas Pophale) SiO2 
 PCOD9067187
Probable space group: P -1
;
_chemical_formula_sum "Si O2"
_cell_formula_units_Z 14
_cell_length_a 9.964044
_cell_length_b 8.926773
_cell_length_c 11.534851
_cell_angle_alpha 84.336636
_cell_angle_beta 125.164827
_cell_angle_gamma 61.520583
_cell_volume 629.946112
_symmetry_space_group_name_H-M "P -1"
_symmetry_group_IT_number 2
_symmetry_cell_setting 'triclinic'
loop_
_space_group_symop_operation_xyz
x,y,z
-x,-y,-z
loop_
_atom_site_type_symbol
_atom_site_label
_atom_site_fract_x
_atom_site_fract_y
_atom_site_fract_z
Si Si1 0.433965 0.210834 0.015157
Si Si2 0.143690 0.668780 0.868736
Si Si3 0.706600 0.794912 0.558679
Si Si4 0.225099 0.782444 0.129748
Si Si5 0.506267 0.908952 0.210725
Si Si6 0.255316 0.586520 0.384000
Si Si7 0.931394 0.985274 0.339759
O O1 0.686021 0.073532 0.190805
O O2 0.348324 0.144081 0.076154
O O3 0.317922 0.440685 0.935025
O O4 0.408922 0.174444 0.871495
O O5 0.081825 0.853942 0.752175
O O6 0.912484 0.724539 0.741349
O O7 0.249650 0.669566 0.037073
O O8 0.676089 0.851907 0.401245
O O9 0.729168 0.600977 0.584705
O O10 0.500000 0.000000 0.500000
O O11 0.396525 0.819216 0.209898
O O12 0.179782 0.691814 0.215681
O O13 0.000000 0.000000 0.000000
O O14 0.500000 0.500000 0.500000
O O15 0.108099 0.759853 0.393992
O O16 0.000000 0.000000 0.500000
#
# Coordination Sequence:
#
# PCOD9067187 Si02
#       7
#     2   2   2   2   2   2   2
#     4  11  27  46  74 105 145 195 245 296 375 436
#     4  12  27  43  74 108 144 190 244 307 364 432
#     4  12  28  47  70 110 148 186 248 307 368 432
#     4  12  24  47  73 101 146 189 250 300 362 436
#     4  11  25  48  72  98 150 189 247 299 362 443
#     4  12  27  47  78 105 143 203 242 300 372 433
#     4  12  27  48  74 111 153 192 248 306 368 442
#
# _framework density 22.224122000000001
#
# number of rings (size 3 to 8) (size 9 to 14) (size 15 to 20)
#    0.000    0.286    4.286    3.000   12.000    1.143 
#    0.000    0.000    0.000    0.000    0.000    0.000 
#    0.000    0.000    0.000    0.000    0.000    0.000 
#
# Total GULP energy -77980.408091 kJ/mol
# GULP energy per Si atom -5570.029149 kJ/mol
# Density = 2.217354 g / cm^3
# Si number density = 22.224122 Si / 1000 Ang^3
#
#
#
# Elastic Constant Matrix: (Units=GPa)
#
#
# Indices 1 2 3 4 5 6 
#
# 1 60.1103 39.1197 12.9631 -7.0258 5.9033 12.7042
# 2 39.1197 168.9490 31.7967 -21.3396 0.7815 3.4205
# 3 12.9631 31.7967 66.5921 -7.5049 -0.0925 -8.4510
# 4 -7.0258 -21.3396 -7.5049 34.3257 4.2479 -1.1424
# 5 5.9033 0.7815 -0.0925 4.2479 55.6103 -4.5895
# 6 12.7042 3.4205 -8.4510 -1.1424 -4.5895 35.0737
#
#
#
# Elastic Compliance Matrix: (Units=1/GPa)
#
#
# Indices 1 2 3 4 5 6 
#
# 1 0.022440 -0.004202 -0.003343 0.001345 -0.003165 -0.008894
# 2 -0.004202 0.007786 -0.002475 0.003437 0.000094 0.000291
# 3 -0.003343 -0.002475 0.017799 0.001769 0.000771 0.005900
# 4 0.001345 0.003437 0.001769 0.032267 -0.002627 0.000311
# 5 -0.003165 0.000094 0.000771 -0.002627 0.018824 0.003701
# 6 -0.008894 0.000291 0.005900 0.000311 0.003701 0.033621
#
#
# Mechanical properties :
#
#
# Convention : Reuss Voigt Hill
#
# Bulk Modulus (GPa) = 35.73608 51.49006 43.61307
# Shear Modulus (GPa) = 30.84431 39.12004 34.98218
#
# Velocity S-wave (km/s) = 3.72946 4.20009 3.97175
# Velocity P-wave (km/s) = 5.88727 6.83665 6.37965
#
# Compressibility (1/GPa) = 0.02798292
#
# Stress axis : x y z
#
# Youngs Moduli (GPa) = 44.56397 128.44346 56.18410
#
# Poissons Ratio (x) = 0.53972 0.18784
# Poissons Ratio (y) = 0.18726 0.13906
# Poissons Ratio (z) = 0.14899 0.31792
#
# Static dielectric constant tensor:
#      x y z
#    x 1.884200 0.129250 0.090340 
#    y 0.129250 1.114140 -0.216420 
#    z 0.090340 -0.216420 1.649010 
# 
# From -- ./inp_files/377742.got.cif
#   From: 2010.05.17/outbox.cif.g08.bks.cpg/sg2_189_cif.got.tgz:377742.got - 2010.06.03 11:33:40.
