data_PCOD9067606
_publ_section_title
;
Structure prediction by ZEFSAII (Michael W. Deem and Ramdas Pophale) SiO2 
 PCOD9067606
Probable space group: P -1
;
_chemical_formula_sum "Si O2"
_cell_formula_units_Z 12
_cell_length_a 10.440364
_cell_length_b 7.748393
_cell_length_c 7.421401
_cell_angle_alpha 72.352819
_cell_angle_beta 112.150958
_cell_angle_gamma 130.732095
_cell_volume 419.960625
_symmetry_space_group_name_H-M "P -1"
_symmetry_group_IT_number 2
_symmetry_cell_setting 'triclinic'
loop_
_space_group_symop_operation_xyz
x,y,z
-x,-y,-z
loop_
_atom_site_type_symbol
_atom_site_label
_atom_site_fract_x
_atom_site_fract_y
_atom_site_fract_z
Si Si1 0.612851 0.059540 0.862607
Si Si2 0.000000 0.500000 0.500000
Si Si3 0.435167 0.352597 0.230357
Si Si4 0.937257 0.054683 0.267341
Si Si5 0.311161 0.027760 0.565897
Si Si6 0.217326 0.390889 0.846066
Si Si7 0.000000 0.500000 0.000000
O O1 0.494436 0.073655 0.652298
O O2 0.804060 0.288907 0.906950
O O3 0.619395 0.861323 0.855017
O O4 0.500000 0.000000 0.000000
O O5 0.894769 0.515498 0.260688
O O6 0.844596 0.224087 0.512458
O O7 0.346303 0.237905 0.407310
O O8 0.645176 0.508559 0.280255
O O9 0.346757 0.456661 0.059410
O O10 0.750466 0.972974 0.266959
O O11 0.912875 0.879381 0.164112
O O12 0.028272 0.308926 0.167724
O O13 0.000000 0.000000 0.500000
#
# Coordination Sequence:
#
# PCOD9067606 Si02
#       7
#     2   1   2   2   2   2   1
#     4  12  25  50  80 120 157 215 272 327 411 490
#     4  12  26  44  80 112 158 206 264 342 396 484
#     4  11  26  48  77 111 161 211 267 337 403 486
#     4  12  27  52  76 119 156 214 274 329 405 496
#     4  12  27  46  77 118 160 210 272 336 409 475
#     4  11  25  51  75 109 161 208 270 328 406 486
#     4  12  28  50  84 110 170 212 266 342 402 482
#
# _framework density 28.574103999999998
#
# number of rings (size 3 to 8) (size 9 to 14) (size 15 to 20)
#    0.000    0.333    6.667    0.500    4.667    1.333 
#    9.000    0.000    0.000    0.000    0.000    0.000 
#    0.000    0.000    0.000    0.000    0.000    0.000 
#
# Total GULP energy -66830.003881 kJ/mol
# GULP energy per Si atom -5569.166990 kJ/mol
# Density = 2.850907 g / cm^3
# Si number density = 28.574104 Si / 1000 Ang^3
#
#
#
# Elastic Constant Matrix: (Units=GPa)
#
#
# Indices 1 2 3 4 5 6 
#
# 1 101.6731 37.8045 11.0908 -4.4355 18.9235 4.9585
# 2 37.8045 224.5967 21.9627 -15.0570 6.2587 10.8601
# 3 11.0908 21.9627 101.4383 -37.2238 38.7398 -0.9769
# 4 -4.4355 -15.0570 -37.2238 64.4851 10.4216 5.6394
# 5 18.9235 6.2587 38.7398 10.4216 75.8190 -2.7452
# 6 4.9585 10.8601 -0.9769 5.6394 -2.7452 37.4153
#
#
#
# Elastic Compliance Matrix: (Units=1/GPa)
#
#
# Indices 1 2 3 4 5 6 
#
# 1 0.011142 -0.001701 0.001082 0.001684 -0.003478 -0.001464
# 2 -0.001701 0.004912 -0.000741 0.000674 0.000258 -0.001303
# 3 0.001082 -0.000741 0.019266 0.013153 -0.011944 -0.002284
# 4 0.001684 0.000674 0.013153 0.025544 -0.010879 -0.004724
# 5 -0.003478 0.000258 -0.011944 -0.010879 0.021754 0.003310
# 6 -0.001464 -0.001303 -0.002284 -0.004724 0.003310 0.028194
#
#
# Mechanical properties :
#
#
# Convention : Reuss Voigt Hill
#
# Bulk Modulus (GPa) = 30.67404 63.26935 46.97169
# Shear Modulus (GPa) = 40.19327 59.33390 49.76359
#
# Velocity S-wave (km/s) = 3.75458 4.56180 4.17773
# Velocity P-wave (km/s) = 5.43636 7.06661 6.30440
#
# Compressibility (1/GPa) = 0.03260086
#
# Stress axis : x y z
#
# Youngs Moduli (GPa) = 89.75133 203.57618 51.90446
#
# Poissons Ratio (x) = 0.34621 -0.05616
# Poissons Ratio (y) = 0.15264 0.03847
# Poissons Ratio (z) = -0.09712 0.15087
#
# Static dielectric constant tensor:
#      x y z
#    x 2.120840 -0.092190 0.176270 
#    y -0.092190 1.993430 0.017340 
#    z 0.176270 0.017340 2.305320 
# 
# From -- ./inp_files/173650.got.cif
#   From: 2010.05.17/outbox.cif.g08.bks.cpg/sg2_87_cif.got.tgz:173650.got - 2010.06.03 11:33:40.
