data_PCOD9067658
_publ_section_title
;
Structure prediction by ZEFSAII (Michael W. Deem and Ramdas Pophale) SiO2 
 PCOD9067658
Probable space group: P -1
;
_chemical_formula_sum "Si O2"
_cell_formula_units_Z 14
_cell_length_a 11.379829
_cell_length_b 4.923465
_cell_length_c 11.879393
_cell_angle_alpha 72.148729
_cell_angle_beta 125.024922
_cell_angle_gamma 96.468148
_cell_volume 517.092047
_symmetry_space_group_name_H-M "P -1"
_symmetry_group_IT_number 2
_symmetry_cell_setting 'triclinic'
loop_
_space_group_symop_operation_xyz
x,y,z
-x,-y,-z
loop_
_atom_site_type_symbol
_atom_site_label
_atom_site_fract_x
_atom_site_fract_y
_atom_site_fract_z
Si Si1 0.276649 0.680742 0.701083
Si Si2 0.560982 0.310977 0.939015
Si Si3 0.705692 0.315475 0.625470
Si Si4 0.125474 0.235254 0.205693
Si Si5 0.453371 0.167063 0.651446
Si Si6 0.201084 0.105175 0.776652
Si Si7 0.848553 0.634861 0.046627
O O1 0.418762 0.522953 0.861474
O O2 0.201548 0.395080 0.666572
O O3 0.349726 0.911077 0.635878
O O4 0.166572 0.860100 0.701553
O O5 0.526457 0.205506 0.806912
O O6 0.693088 0.514024 0.973545
O O7 0.638523 0.034329 0.081238
O O8 0.771593 0.521598 0.728401
O O9 0.580140 0.140862 0.632841
O O10 0.637193 0.539643 0.469526
O O11 0.822957 0.072958 0.677044
O O12 0.132846 0.193562 0.080143
O O13 0.969529 0.371983 0.137192
O O14 0.135882 0.197224 0.849732
#
# Coordination Sequence:
#
# PCOD9067658 Si02
#       7
#     2   2   2   2   2   2   2
#     4  12  25  40  64 101 140 173 212 271 340 397
#     4  12  22  40  64 106 136 172 210 276 334 402
#     4  11  26  46  69  98 133 177 223 270 326 392
#     4  11  26  46  69  98 133 177 223 270 326 392
#     4  11  26  41  72  99 138 170 221 272 332 394
#     4  12  25  40  64 101 140 173 212 271 340 397
#     4  11  26  41  72  99 138 170 221 272 332 394
#
# _framework density 27.074482
#
# number of rings (size 3 to 8) (size 9 to 14) (size 15 to 20)
#    0.000    0.571    4.286    3.429    4.000    2.286 
#    0.000    0.000    0.000    5.143    0.000    0.000 
#    0.000    0.000    0.000    0.000    0.000    0.000 
#
# Total GULP energy -78374.651163 kJ/mol
# GULP energy per Si atom -5598.189369 kJ/mol
# Density = 2.701286 g / cm^3
# Si number density = 27.074482 Si / 1000 Ang^3
#
#
#
# Elastic Constant Matrix: (Units=GPa)
#
#
# Indices 1 2 3 4 5 6 
#
# 1 97.7109 39.6711 22.2221 3.1330 -10.7374 -12.7072
# 2 39.6711 167.9481 37.6538 -30.3473 -1.2663 -12.6198
# 3 22.2221 37.6538 81.7659 -23.9214 -1.6596 3.1482
# 4 3.1330 -30.3473 -23.9214 44.2270 -4.9099 5.5193
# 5 -10.7374 -1.2663 -1.6596 -4.9099 35.9547 -13.3807
# 6 -12.7072 -12.6198 3.1482 5.5193 -13.3807 34.0875
#
#
#
# Elastic Compliance Matrix: (Units=1/GPa)
#
#
# Indices 1 2 3 4 5 6 
#
# 1 0.014261 -0.002734 -0.004441 -0.005606 0.006188 0.008051
# 2 -0.002734 0.007915 -0.001592 0.004637 0.000595 0.001541
# 3 -0.004441 -0.001592 0.016990 0.008972 -0.001561 -0.005880
# 4 -0.005606 0.004637 0.008972 0.031902 0.001042 -0.005958
# 5 0.006188 0.000595 -0.001561 0.001042 0.035933 0.016608
# 6 0.008051 0.001541 -0.005880 -0.005958 0.016608 0.040935
#
#
# Mechanical properties :
#
#
# Convention : Reuss Voigt Hill
#
# Bulk Modulus (GPa) = 46.23131 60.72432 53.47782
# Shear Modulus (GPa) = 28.95485 39.37904 34.16694
#
# Velocity S-wave (km/s) = 3.27379 3.81789 3.55626
# Velocity P-wave (km/s) = 5.60384 6.47397 6.05456
#
# Compressibility (1/GPa) = 0.02163036
#
# Stress axis : x y z
#
# Youngs Moduli (GPa) = 70.11954 126.33629 58.85834
#
# Poissons Ratio (x) = 0.34545 0.26141
# Poissons Ratio (y) = 0.19173 0.09373
# Poissons Ratio (z) = 0.31142 0.20119
#
# Static dielectric constant tensor:
#      x y z
#    x 2.156900 0.029630 -0.029780 
#    y 0.029630 2.170720 0.061630 
#    z -0.029780 0.061630 2.104380 
# 
# From -- ./inp_files/510750.got.cif
#   From: 2010.05.17/outbox.cif.g08.bks.cpg/sg2_256_cif.got.tgz:510750.got - 2010.06.03 11:33:40.
