data_PCOD9067671
_publ_section_title
;
Structure prediction by ZEFSAII (Michael W. Deem and Ramdas Pophale) SiO2 
 PCOD9067671
Probable space group: P -1
;
_chemical_formula_sum "Si O2"
_cell_formula_units_Z 16
_cell_length_a 16.459433
_cell_length_b 9.274642
_cell_length_c 5.187667
_cell_angle_alpha 112.812409
_cell_angle_beta 87.592490
_cell_angle_gamma 99.950035
_cell_volume 718.727998
_symmetry_space_group_name_H-M "P -1"
_symmetry_group_IT_number 2
_symmetry_cell_setting 'triclinic'
loop_
_space_group_symop_operation_xyz
x,y,z
-x,-y,-z
loop_
_atom_site_type_symbol
_atom_site_label
_atom_site_fract_x
_atom_site_fract_y
_atom_site_fract_z
Si Si1 0.008942 0.875016 0.627239
Si Si2 0.790683 0.580504 0.943437
Si Si3 0.050710 0.560512 0.283698
Si Si4 0.552121 0.560877 0.285348
Si Si5 0.287208 0.561018 0.644965
Si Si6 0.305629 0.937005 0.968218
Si Si7 0.145978 0.095280 0.068103
Si Si8 0.411498 0.058836 0.532629
O O1 0.055712 0.746330 0.408703
O O2 0.074083 0.956022 0.885230
O O3 0.000000 0.000000 0.500000
O O4 0.914205 0.815462 0.685852
O O5 0.863443 0.496320 0.770728
O O6 0.720401 0.516812 0.694133
O O7 0.778791 0.527287 0.203421
O O8 0.815941 0.769907 0.047337
O O9 0.000000 0.500000 0.500000
O O10 0.000000 0.500000 0.000000
O O11 0.500000 0.500000 0.500000
O O12 0.631222 0.477246 0.253304
O O13 0.575525 0.752172 0.396333
O O14 0.500000 0.500000 0.000000
O O15 0.284961 0.748774 0.776386
O O16 0.223438 0.014759 0.085200
O O17 0.358532 0.019328 0.774871
O O18 0.361138 0.967748 0.238236
O O19 0.500000 0.000000 0.500000
#
# Coordination Sequence:
#
# PCOD9067671 Si02
#       8
#     2   2   2   2   2   2   2   2
#     4  11  26  43  70  96 139 180 238 283 350 407
#     4  12  25  44  68  95 137 175 232 276 345 399
#     4  12  25  45  67  97 129 180 226 281 342 402
#     4  12  24  44  71 102 139 176 223 272 336 406
#     4  12  26  44  68 101 134 180 223 285 335 405
#     4  12  26  45  71 101 142 177 232 280 345 405
#     4  11  26  44  66 102 135 186 227 292 342 414
#     4  12  25  46  73 104 138 182 225 281 342 411
#
# _framework density 22.261551000000001
#
# number of rings (size 3 to 8) (size 9 to 14) (size 15 to 20)
#    0.000    0.250    1.250    7.875    7.000    0.000 
#    0.000    0.000    0.000    0.000    0.000    0.000 
#    0.000    0.000    0.000    0.000    0.000    0.000 
#
# Total GULP energy -89438.695919 kJ/mol
# GULP energy per Si atom -5589.918495 kJ/mol
# Density = 2.221088 g / cm^3
# Si number density = 22.261551 Si / 1000 Ang^3
#
#
#
# Elastic Constant Matrix: (Units=GPa)
#
#
# Indices 1 2 3 4 5 6 
#
# 1 138.0071 15.9122 19.1618 -1.5308 -0.8917 -21.6153
# 2 15.9122 114.9245 0.2738 0.9318 -6.8538 -5.5209
# 3 19.1618 0.2738 87.2974 -17.7953 18.0007 9.1991
# 4 -1.5308 0.9318 -17.7953 47.0304 -0.9616 -7.5541
# 5 -0.8917 -6.8538 18.0007 -0.9616 39.4188 2.5028
# 6 -21.6153 -5.5209 9.1991 -7.5541 2.5028 38.7664
#
#
#
# Elastic Compliance Matrix: (Units=1/GPa)
#
#
# Indices 1 2 3 4 5 6 
#
# 1 0.008528 -0.000873 -0.002565 0.000181 0.000885 0.005217
# 2 -0.000873 0.008955 -0.000278 -0.000163 0.001615 0.000719
# 3 -0.002565 -0.000278 0.014708 0.004775 -0.006477 -0.003611
# 4 0.000181 -0.000163 0.004775 0.023630 -0.001861 0.003669
# 5 0.000885 0.001615 -0.006477 -0.001861 0.028579 0.000053
# 6 0.005217 0.000719 -0.003611 0.003669 0.000053 0.030375
#
#
# Mechanical properties :
#
#
# Convention : Reuss Voigt Hill
#
# Bulk Modulus (GPa) = 40.38833 45.65829 43.02331
# Shear Modulus (GPa) = 38.32612 45.36853 41.84733
#
# Velocity S-wave (km/s) = 4.15375 4.51929 4.34037
# Velocity P-wave (km/s) = 6.41770 6.91278 6.66983
#
# Compressibility (1/GPa) = 0.02475963
#
# Stress axis : x y z
#
# Youngs Moduli (GPa) = 117.26693 111.66940 67.98832
#
# Poissons Ratio (x) = 0.09745 0.17436
# Poissons Ratio (y) = 0.10233 0.01893
# Poissons Ratio (z) = 0.30074 0.03109
#
# Static dielectric constant tensor:
#      x y z
#    x 1.737790 -0.060860 -0.005230 
#    y -0.060860 1.767510 0.072680 
#    z -0.005230 0.072680 1.923520 
# 
# From -- ./inp_files/90942.got.cif
#   From: 2010.05.17/outbox.cif.g08.bks.cpg/sg2_46_cif.got.tgz:90942.got - 2010.06.03 11:33:40.
