data_PCOD9067476
_publ_section_title
;
Structure prediction by ZEFSAII (Michael W. Deem and Ramdas Pophale) SiO2 
 PCOD9067476
Probable space group: P -1
;
_chemical_formula_sum "Si O2"
_cell_formula_units_Z 11
_cell_length_a 5.562072
_cell_length_b 9.021363
_cell_length_c 11.834917
_cell_angle_alpha 54.091585
_cell_angle_beta 98.902062
_cell_angle_gamma 112.708176
_cell_volume 441.658671
_symmetry_space_group_name_H-M "P -1"
_symmetry_group_IT_number 2
_symmetry_cell_setting 'triclinic'
loop_
_space_group_symop_operation_xyz
x,y,z
-x,-y,-z
loop_
_atom_site_type_symbol
_atom_site_label
_atom_site_fract_x
_atom_site_fract_y
_atom_site_fract_z
Si Si1 0.630254 0.435433 0.935074
Si Si2 0.458751 0.103111 0.563054
Si Si3 0.000000 0.000000 0.000000
Si Si4 0.157589 0.747714 0.287732
Si Si5 0.450063 0.455735 0.674149
Si Si6 0.089596 0.830202 0.836500
O O1 0.446747 0.385401 0.835156
O O2 0.884676 0.634063 0.848793
O O3 0.500000 0.500000 0.000000
O O4 0.698994 0.252971 0.060756
O O5 0.707173 0.128501 0.649148
O O6 0.449146 0.311685 0.433902
O O7 0.500000 0.000000 0.500000
O O8 0.215273 0.984582 0.677662
O O9 0.994528 0.077301 0.100646
O O10 0.846149 0.138000 0.879236
O O11 0.347789 0.625445 0.334288
O O12 0.853244 0.625814 0.346640
#
# Coordination Sequence:
#
# PCOD9067476 Si02
#       6
#     2   2   1   2   2   2
#     4  11  25  49  80 116 161 220 272 349 418 490
#     4  12  30  52  84 124 167 219 279 344 415 508
#     4  12  26  50  84 120 158 208 290 342 406 486
#     4  12  29  54  82 119 165 225 274 349 418 501
#     4  12  28  54  80 116 173 218 277 335 434 501
#     4  11  27  50  81 119 164 213 281 346 413 494
#
# _framework density 24.906112
#
# number of rings (size 3 to 8) (size 9 to 14) (size 15 to 20)
#    0.000    0.364    1.818    4.364   12.727    3.636 
#    0.000    0.000    0.000    0.000    0.000    0.000 
#    0.000    0.000    0.000    0.000    0.000    0.000 
#
# Total GULP energy -61412.176544 kJ/mol
# GULP energy per Si atom -5582.925140 kJ/mol
# Density = 2.484942 g / cm^3
# Si number density = 24.906112 Si / 1000 Ang^3
#
#
#
# Elastic Constant Matrix: (Units=GPa)
#
#
# Indices 1 2 3 4 5 6 
#
# 1 134.4472 47.0216 39.6074 0.2001 7.5611 -14.9592
# 2 47.0216 95.2447 18.0558 28.2031 -0.1654 -24.6905
# 3 39.6074 18.0558 81.4053 18.2890 0.1583 -11.4676
# 4 0.2001 28.2031 18.2890 55.5560 0.2368 -1.2812
# 5 7.5611 -0.1654 0.1583 0.2368 35.0422 2.2124
# 6 -14.9592 -24.6905 -11.4676 -1.2812 2.2124 43.8419
#
#
#
# Elastic Compliance Matrix: (Units=1/GPa)
#
#
# Indices 1 2 3 4 5 6 
#
# 1 0.011180 -0.006146 -0.005258 0.004803 -0.002402 -0.000761
# 2 -0.006146 0.018169 0.002342 -0.009782 0.000936 0.008415
# 3 -0.005258 0.002342 0.016269 -0.006448 0.000892 0.003547
# 4 0.004803 -0.009782 -0.006448 0.024965 -0.000920 -0.004781
# 5 -0.002402 0.000936 0.000892 -0.000920 0.029160 -0.001558
# 6 -0.000761 0.008415 0.003547 -0.004781 -0.001558 0.028155
#
#
# Mechanical properties :
#
#
# Convention : Reuss Voigt Hill
#
# Bulk Modulus (GPa) = 36.37157 57.82964 47.10060
# Shear Modulus (GPa) = 32.21891 40.64885 36.43388
#
# Velocity S-wave (km/s) = 3.60059 4.04429 3.82887
# Velocity P-wave (km/s) = 5.64985 6.71400 6.20478
#
# Compressibility (1/GPa) = 0.02749400
#
# Stress axis : x y z
#
# Youngs Moduli (GPa) = 89.44781 55.03756 61.46476
#
# Poissons Ratio (x) = 0.33828 0.32317
# Poissons Ratio (y) = 0.54977 -0.14394
# Poissons Ratio (z) = 0.47030 -0.12889
#
# Static dielectric constant tensor:
#      x y z
#    x 0.043910 -0.422200 0.287150 
#    y -0.422200 1.939810 -0.030430 
#    z 0.287150 -0.030430 1.990940 
# 
# From -- ./inp_files/360018.got.cif
#   From: 2010.05.17/outbox.cif.g08.bks.cpg/sg2_181_cif.got.tgz:360018.got - 2010.06.03 11:33:40.
