data_PCOD9067492
_publ_section_title
;
Structure prediction by ZEFSAII (Michael W. Deem and Ramdas Pophale) SiO2 
 PCOD9067492
Probable space group: P -1
;
_chemical_formula_sum "Si O2"
_cell_formula_units_Z 15
_cell_length_a 19.398797
_cell_length_b 6.347367
_cell_length_c 12.114031
_cell_angle_alpha 52.346229
_cell_angle_beta 146.842262
_cell_angle_gamma 125.282450
_cell_volume 638.318263
_symmetry_space_group_name_H-M "P -1"
_symmetry_group_IT_number 2
_symmetry_cell_setting 'triclinic'
loop_
_space_group_symop_operation_xyz
x,y,z
-x,-y,-z
loop_
_atom_site_type_symbol
_atom_site_label
_atom_site_fract_x
_atom_site_fract_y
_atom_site_fract_z
Si Si1 0.716606 0.499589 0.097738
Si Si2 0.136756 0.313935 0.153372
Si Si3 0.290181 0.578374 0.459437
Si Si4 0.386519 0.006772 0.761253
Si Si5 0.633789 0.455135 0.746239
Si Si6 0.529155 0.884966 0.768807
Si Si7 0.085277 0.689306 0.314857
Si Si8 0.000000 0.500000 0.500000
O O1 0.719700 0.219328 0.256312
O O2 0.864264 0.623308 0.251066
O O3 0.657253 0.462937 0.906383
O O4 0.615114 0.651967 0.976011
O O5 0.185449 0.546694 0.232172
O O6 0.258104 0.327352 0.231035
O O7 0.106130 0.013727 0.258511
O O8 0.021218 0.365476 0.905695
O O9 0.418703 0.796279 0.558488
O O10 0.213717 0.612280 0.458050
O O11 0.340892 0.293465 0.611307
O O12 0.447365 0.944600 0.746530
O O13 0.500000 0.000000 0.000000
O O14 0.500000 0.500000 0.500000
O O15 0.632789 0.148231 0.804093
O O16 0.038134 0.524356 0.412277
#
# Coordination Sequence:
#
# PCOD9067492 Si02
#       8
#     2   2   2   2   2   2   2   1
#     4  12  26  46  70 106 148 194 241 305 371 435
#     4  11  25  50  71 111 149 192 249 302 360 445
#     4  12  24  45  78 109 142 195 243 301 375 434
#     4  12  24  44  71 107 147 186 246 306 365 441
#     4  12  25  45  70 107 148 187 246 309 361 436
#     4  12  25  44  74 107 142 194 240 310 370 436
#     4  11  26  49  80 104 151 196 243 302 369 439
#     4  12  26  50  74 108 144 194 242 302 362 440
#
# _framework density 23.49925
#
# number of rings (size 3 to 8) (size 9 to 14) (size 15 to 20)
#    0.000    0.267    4.000    5.600    1.867    3.200 
#    4.800    3.333    0.000    0.000    0.000    0.000 
#    0.000    0.000    0.000    0.000    0.000    0.000 
#
# Total GULP energy -83595.909075 kJ/mol
# GULP energy per Si atom -5573.060605 kJ/mol
# Density = 2.344577 g / cm^3
# Si number density = 23.499250 Si / 1000 Ang^3
#
#
#
# Elastic Constant Matrix: (Units=GPa)
#
#
# Indices 1 2 3 4 5 6 
#
# 1 115.0807 7.5864 41.2818 -4.3345 -3.1081 -12.1988
# 2 7.5864 47.5753 32.6024 6.0537 -11.2915 -10.4527
# 3 41.2818 32.6024 143.1053 22.2922 0.6855 -13.8907
# 4 -4.3345 6.0537 22.2922 28.6054 2.2180 -1.9871
# 5 -3.1081 -11.2915 0.6855 2.2180 48.7721 -0.6486
# 6 -12.1988 -10.4527 -13.8907 -1.9871 -0.6486 22.2125
#
#
#
# Elastic Compliance Matrix: (Units=1/GPa)
#
#
# Indices 1 2 3 4 5 6 
#
# 1 0.010573 0.001485 -0.003620 0.004360 0.000932 0.004659
# 2 0.001485 0.029008 -0.005830 -0.001162 0.007091 0.010923
# 3 -0.003620 -0.005830 0.010640 -0.007415 -0.001376 0.001219
# 4 0.004360 -0.001162 -0.007415 0.041844 -0.001778 0.000902
# 5 0.000932 0.007091 -0.001376 -0.001778 0.022351 0.003481
# 6 0.004659 0.010923 0.001219 0.000902 0.003481 0.053663
#
#
# Mechanical properties :
#
#
# Convention : Reuss Voigt Hill
#
# Bulk Modulus (GPa) = 29.16119 52.07805 40.61962
# Shear Modulus (GPa) = 25.58316 34.87072 30.22694
#
# Velocity S-wave (km/s) = 3.30309 3.85633 3.59038
# Velocity P-wave (km/s) = 5.19457 6.48368 5.87459
#
# Compressibility (1/GPa) = 0.03429216
#
# Stress axis : x y z
#
# Youngs Moduli (GPa) = 94.57642 34.47305 93.98306
#
# Poissons Ratio (x) = -0.05118 0.34020
# Poissons Ratio (y) = -0.14040 0.54788
# Poissons Ratio (z) = 0.34235 0.20096
#
# Static dielectric constant tensor:
#      x y z
#    x 1.907380 0.033490 -0.013440 
#    y 0.033490 1.989390 0.021640 
#    z -0.013440 0.021640 1.949560 
# 
# From -- ./inp_files/459049.got.cif
#   From: 2010.05.17/outbox.cif.g08.bks.cpg/sg2_230_cif.got.tgz:459049.got - 2010.06.03 11:33:40.
