data_PCOD9067982
_publ_section_title
;
Structure prediction by ZEFSAII (Michael W. Deem and Ramdas Pophale) SiO2 
 PCOD9067982
Probable space group: P -1
;
_chemical_formula_sum "Si O2"
_cell_formula_units_Z 12
_cell_length_a 10.301298
_cell_length_b 9.308292
_cell_length_c 13.464960
_cell_angle_alpha 132.895302
_cell_angle_beta 34.567801
_cell_angle_gamma 112.670805
_cell_volume 486.754709
_symmetry_space_group_name_H-M "P -1"
_symmetry_group_IT_number 2
_symmetry_cell_setting 'triclinic'
loop_
_space_group_symop_operation_xyz
x,y,z
-x,-y,-z
loop_
_atom_site_type_symbol
_atom_site_label
_atom_site_fract_x
_atom_site_fract_y
_atom_site_fract_z
Si Si1 0.748559 0.365732 0.523781
Si Si2 0.785978 0.545197 0.791712
Si Si3 0.969170 0.204431 0.681929
Si Si4 0.767943 0.936585 0.248653
Si Si5 0.749563 0.302120 0.080922
Si Si6 0.546216 0.029366 0.218093
O O1 0.726172 0.421510 0.680401
O O2 0.858702 0.113304 0.315938
O O3 0.940088 0.458211 0.404448
O O4 0.480648 0.467466 0.685223
O O5 0.813407 0.418954 0.817221
O O6 0.592281 0.796305 0.033788
O O7 0.840973 0.209863 0.870129
O O8 0.258643 0.166270 0.496412
O O9 0.000000 0.000000 0.500000
O O10 0.500000 0.000000 0.500000
O O11 0.720895 0.964884 0.175148
O O12 0.001444 0.712638 0.024970
O O13 0.624731 0.170174 0.159155
#
# Coordination Sequence:
#
# PCOD9067982 Si02
#       6
#     2   2   2   2   2   2
#     4  11  26  46  77 108 146 192 246 298 367 436
#     4  11  26  47  77 109 145 192 243 302 366 431
#     4  12  27  45  75 113 147 189 247 302 366 434
#     4  12  27  49  73 108 152 192 244 304 367 431
#     4  12  26  47  75 107 146 193 244 303 362 435
#     4  12  27  49  75 107 148 195 242 303 367 432
#
# _framework density 24.653072999999999
#
# number of rings (size 3 to 8) (size 9 to 14) (size 15 to 20)
#    0.000    0.333    5.000    2.500    4.667    5.333 
#    0.000    0.000    0.000    0.000    0.000    0.000 
#    0.000    0.000    0.000    0.000    0.000    0.000 
#
# Total GULP energy -67294.813477 kJ/mol
# GULP energy per Si atom -5607.901123 kJ/mol
# Density = 2.459696 g / cm^3
# Si number density = 24.653073 Si / 1000 Ang^3
#
#
#
# Elastic Constant Matrix: (Units=GPa)
#
#
# Indices 1 2 3 4 5 6 
#
# 1 90.4032 34.8615 12.3516 -13.6360 -5.3170 -18.6677
# 2 34.8615 67.0496 14.1466 -14.9254 -1.5362 -31.0406
# 3 12.3516 14.1466 103.2553 -13.1473 -23.4223 -12.9353
# 4 -13.6360 -14.9254 -13.1473 41.2473 -5.7561 3.1966
# 5 -5.3170 -1.5362 -23.4223 -5.7561 56.4377 0.9367
# 6 -18.6677 -31.0406 -12.9353 3.1966 0.9367 43.0228
#
#
#
# Elastic Compliance Matrix: (Units=1/GPa)
#
#
# Indices 1 2 3 4 5 6 
#
# 1 0.014189 -0.006042 -0.000029 0.002568 0.001396 0.001567
# 2 -0.006042 0.027176 0.000048 0.006657 0.000596 0.016493
# 3 -0.000029 0.000048 0.011818 0.004269 0.005286 0.003143
# 4 0.002568 0.006657 0.004269 0.029192 0.005090 0.004921
# 5 0.001396 0.000596 0.005286 0.005090 0.020550 0.001799
# 6 0.001567 0.016493 0.003143 0.004921 0.001799 0.036363
#
#
# Mechanical properties :
#
#
# Convention : Reuss Voigt Hill
#
# Bulk Modulus (GPa) = 24.30880 42.60306 33.45593
# Shear Modulus (GPa) = 30.29472 41.43147 35.86309
#
# Velocity S-wave (km/s) = 3.50929 4.10394 3.81820
# Velocity P-wave (km/s) = 5.12854 6.30674 5.74790
#
# Compressibility (1/GPa) = 0.04113736
#
# Stress axis : x y z
#
# Youngs Moduli (GPa) = 70.47957 36.79676 84.61617
#
# Poissons Ratio (x) = 0.22231 0.00249
# Poissons Ratio (y) = 0.42581 -0.00409
# Poissons Ratio (z) = 0.00208 -0.00178
#
# Static dielectric constant tensor:
#      x y z
#    x 1.942940 0.026470 -0.056280 
#    y 0.026470 1.896160 -0.020040 
#    z -0.056280 -0.020040 1.933690 
# 
# From -- ./inp_files/167500.got.cif
#   From: 2010.05.17/outbox.cif.g08.bks.cpg/sg2_84_cif.got.tgz:167500.got - 2010.06.03 11:33:40.
