data_PCOD9067327
_publ_section_title
;
Structure prediction by ZEFSAII (Michael W. Deem and Ramdas Pophale) SiO2 
 PCOD9067327
Probable space group: P -1
;
_chemical_formula_sum "Si O2"
_cell_formula_units_Z 10
_cell_length_a 9.847629
_cell_length_b 8.831206
_cell_length_c 9.571158
_cell_angle_alpha 67.252834
_cell_angle_beta 72.394202
_cell_angle_gamma 32.050474
_cell_volume 406.810994
_symmetry_space_group_name_H-M "P -1"
_symmetry_group_IT_number 2
_symmetry_cell_setting 'triclinic'
loop_
_space_group_symop_operation_xyz
x,y,z
-x,-y,-z
loop_
_atom_site_type_symbol
_atom_site_label
_atom_site_fract_x
_atom_site_fract_y
_atom_site_fract_z
Si Si1 0.256890 0.857101 0.495708
Si Si2 0.772352 0.799387 0.042992
Si Si3 0.906497 0.612487 0.649577
Si Si4 0.241092 0.835364 0.063143
Si Si5 0.512204 0.696454 0.751533
O O1 0.500000 0.500000 0.500000
O O2 0.298749 0.869125 0.641579
O O3 0.194227 0.108013 0.375523
O O4 0.000000 0.000000 0.500000
O O5 0.859040 0.678643 0.220204
O O6 0.810343 0.947608 0.925687
O O7 0.000000 0.500000 0.000000
O O8 0.500000 0.000000 0.000000
O O9 0.667913 0.714523 0.698818
O O10 0.000000 0.500000 0.500000
O O11 0.435652 0.718576 0.924965
O O12 0.305255 0.631921 0.221705
O O13 0.000000 0.000000 0.000000
#
# Coordination Sequence:
#
# PCOD9067327 Si02
#       5
#     2   2   2   2   2
#     4  12  30  48  78 118 161 204 263 336 400 466
#     4  12  29  48  80 120 160 202 262 340 402 461
#     4  12  27  55  84 114 162 219 269 319 404 497
#     4  11  25  48  79 110 151 205 265 318 388 480
#     4  11  26  50  78 110 154 209 265 316 390 484
#
# _framework density 24.581441000000002
#
# number of rings (size 3 to 8) (size 9 to 14) (size 15 to 20)
#    0.000    0.400    2.000    4.200   11.200    3.200 
#    0.000    0.000    0.000    0.000    0.000    0.000 
#    0.000    0.000    0.000    0.000    0.000    0.000 
#
# Total GULP energy -55720.257209 kJ/mol
# GULP energy per Si atom -5572.025721 kJ/mol
# Density = 2.452549 g / cm^3
# Si number density = 24.581441 Si / 1000 Ang^3
#
#
#
# Elastic Constant Matrix: (Units=GPa)
#
#
# Indices 1 2 3 4 5 6 
#
# 1 254.3001 84.1258 55.0854 -20.8076 -24.5642 -3.3196
# 2 84.1258 129.1451 26.9476 -7.4546 -14.8093 -0.1085
# 3 55.0854 26.9476 101.9546 -2.0851 19.6522 -3.2302
# 4 -20.8076 -7.4546 -2.0851 51.9916 3.2514 -5.0982
# 5 -24.5642 -14.8093 19.6522 3.2514 60.7966 -17.2882
# 6 -3.3196 -0.1085 -3.2302 -5.0982 -17.2882 58.3994
#
#
#
# Elastic Compliance Matrix: (Units=1/GPa)
#
#
# Indices 1 2 3 4 5 6 
#
# 1 0.005949 -0.002820 -0.002957 0.001792 0.002915 0.001189
# 2 -0.002820 0.010123 -0.001504 0.000178 0.001904 0.000355
# 3 -0.002957 -0.001504 0.012920 -0.000629 -0.006076 -0.001310
# 4 0.001792 0.000178 -0.000629 0.020115 0.000452 0.001957
# 5 0.002915 0.001904 -0.006076 0.000452 0.021831 0.006335
# 6 0.001189 0.000355 -0.001310 0.001957 0.006335 0.019166
#
#
# Mechanical properties :
#
#
# Convention : Reuss Voigt Hill
#
# Bulk Modulus (GPa) = 69.29452 90.85750 80.07601
# Shear Modulus (GPa) = 45.67209 55.52024 50.59617
#
# Velocity S-wave (km/s) = 4.31512 4.75765 4.54178
# Velocity P-wave (km/s) = 7.28546 8.19893 7.75566
#
# Compressibility (1/GPa) = 0.01443116
#
# Stress axis : x y z
#
# Youngs Moduli (GPa) = 168.08475 98.78635 77.39852
#
# Poissons Ratio (x) = 0.27856 0.22884
# Poissons Ratio (y) = 0.47397 0.11642
# Poissons Ratio (z) = 0.49696 0.14859
#
# Static dielectric constant tensor:
#      x y z
#    x 1.827400 0.086330 0.306080 
#    y 0.086330 2.227510 0.188890 
#    z 0.306080 0.188890 1.900880 
# 
# From -- ./inp_files/135964.got.cif
#   From: 2010.05.17/outbox.cif.g08.bks.cpg/sg2_68_cif.got.tgz:135964.got - 2010.06.03 11:33:40.
