data_PCOD9067282
_publ_section_title
;
Structure prediction by ZEFSAII (Michael W. Deem and Ramdas Pophale) SiO2 
 PCOD9067282
Probable space group: P -1
;
_chemical_formula_sum "Si O2"
_cell_formula_units_Z 12
_cell_length_a 4.904520
_cell_length_b 12.603686
_cell_length_c 12.988616
_cell_angle_alpha 140.369067
_cell_angle_beta 97.547970
_cell_angle_gamma 99.638879
_cell_volume 459.596180
_symmetry_space_group_name_H-M "P -1"
_symmetry_group_IT_number 2
_symmetry_cell_setting 'triclinic'
loop_
_space_group_symop_operation_xyz
x,y,z
-x,-y,-z
loop_
_atom_site_type_symbol
_atom_site_label
_atom_site_fract_x
_atom_site_fract_y
_atom_site_fract_z
Si Si1 0.388898 0.737921 0.540868
Si Si2 0.728396 0.559770 0.307032
Si Si3 0.882805 0.781035 0.953637
Si Si4 0.356938 0.838352 0.191735
Si Si5 0.871271 0.796628 0.292685
Si Si6 0.198311 0.868089 0.826143
O O1 0.644084 0.669632 0.475632
O O2 0.299875 0.754772 0.666321
O O3 0.076733 0.599345 0.368780
O O4 0.493017 0.940815 0.649279
O O5 0.461903 0.358827 0.149880
O O6 0.719086 0.652550 0.267426
O O7 0.964691 0.763595 0.826045
O O8 0.124778 0.761193 0.028046
O O9 0.912871 0.988824 0.125036
O O10 0.629696 0.781694 0.181505
O O11 0.153274 0.779632 0.240261
O O12 0.000000 0.000000 0.500000
O O13 0.500000 0.000000 0.000000
#
# Coordination Sequence:
#
# PCOD9067282 Si02
#       6
#     2   2   2   2   2   2
#     4  12  24  45  73 105 139 190 235 287 350 423
#     4  12  28  44  71 110 148 175 238 302 345 406
#     4  11  28  47  70 107 142 184 238 300 352 416
#     4  12  23  44  74  99 141 194 235 274 349 434
#     4  12  23  42  72 106 140 190 233 281 349 421
#     4  11  25  48  76  97 138 195 238 282 364 434
#
# _framework density 26.109876
#
# number of rings (size 3 to 8) (size 9 to 14) (size 15 to 20)
#    0.000    0.333    5.000    3.500    4.667    2.667 
#    0.000    0.000    0.000    0.000    0.000    0.000 
#    0.000    0.000    0.000    0.000    0.000    0.000 
#
# Total GULP energy -67402.108861 kJ/mol
# GULP energy per Si atom -5616.842405 kJ/mol
# Density = 2.605045 g / cm^3
# Si number density = 26.109876 Si / 1000 Ang^3
#
#
#
# Elastic Constant Matrix: (Units=GPa)
#
#
# Indices 1 2 3 4 5 6 
#
# 1 103.5558 20.5889 10.0347 -0.0952 8.8050 20.9423
# 2 20.5889 121.0253 47.6580 6.6872 5.2792 36.6804
# 3 10.0347 47.6580 107.5354 -1.8544 11.4232 11.5069
# 4 -0.0952 6.6872 -1.8544 39.5119 9.9677 8.2024
# 5 8.8050 5.2792 11.4232 9.9677 52.1998 -7.8605
# 6 20.9423 36.6804 11.5069 8.2024 -7.8605 47.9051
#
#
#
# Elastic Compliance Matrix: (Units=1/GPa)
#
#
# Indices 1 2 3 4 5 6 
#
# 1 0.011076 -0.000178 -0.000001 0.001981 -0.003064 -0.005547
# 2 -0.000178 0.012871 -0.004567 -0.000142 -0.001588 -0.008917
# 3 -0.000001 -0.004567 0.011621 0.001944 -0.002457 -0.000030
# 4 0.001981 -0.000142 0.001944 0.028814 -0.007357 -0.007365
# 5 -0.003064 -0.001588 -0.002457 -0.007357 0.023009 0.008180
# 6 -0.005547 -0.008917 -0.000030 -0.007365 0.008180 0.032737
#
#
# Mechanical properties :
#
#
# Convention : Reuss Voigt Hill
#
# Bulk Modulus (GPa) = 38.35135 54.29774 46.32454
# Shear Modulus (GPa) = 36.14961 44.84568 40.49764
#
# Velocity S-wave (km/s) = 3.72495 4.14886 3.94261
# Velocity P-wave (km/s) = 5.76374 6.61753 6.20534
#
# Compressibility (1/GPa) = 0.02607470
#
# Stress axis : x y z
#
# Youngs Moduli (GPa) = 90.28235 77.69335 86.04939
#
# Poissons Ratio (x) = 0.01386 0.00012
# Poissons Ratio (y) = 0.01610 0.39301
# Poissons Ratio (z) = 0.00012 0.35485
#
# Static dielectric constant tensor:
#      x y z
#    x 2.009070 -0.034820 -0.054270 
#    y -0.034820 2.005730 -0.010570 
#    z -0.054270 -0.010570 2.061980 
# 
# From -- ./inp_files/71953.got.cif
#   From: 2010.05.17/outbox.cif.g08.bks.cpg/sg2_36_cif.got.tgz:71953.got - 2010.06.03 11:33:40.
