data_PCOD9067630
_publ_section_title
;
Structure prediction by ZEFSAII (Michael W. Deem and Ramdas Pophale) SiO2 
 PCOD9067630
Probable space group: P -1
;
_chemical_formula_sum "Si O2"
_cell_formula_units_Z 12
_cell_length_a 5.114371
_cell_length_b 9.244240
_cell_length_c 17.644276
_cell_angle_alpha 132.842608
_cell_angle_beta 103.917802
_cell_angle_gamma 106.665052
_cell_volume 459.726960
_symmetry_space_group_name_H-M "P -1"
_symmetry_group_IT_number 2
_symmetry_cell_setting 'triclinic'
loop_
_space_group_symop_operation_xyz
x,y,z
-x,-y,-z
loop_
_atom_site_type_symbol
_atom_site_label
_atom_site_fract_x
_atom_site_fract_y
_atom_site_fract_z
Si Si1 0.760268 0.728955 0.283298
Si Si2 0.864642 0.583709 0.583573
Si Si3 0.490795 0.223275 0.110364
Si Si4 0.619250 0.817264 0.145489
Si Si5 0.536420 0.789602 0.447543
Si Si6 0.077936 0.846880 0.061350
O O1 0.812724 0.515017 0.215117
O O2 0.561444 0.700343 0.182783
O O3 0.586716 0.694936 0.339870
O O4 0.101528 0.027004 0.414580
O O5 0.500000 0.500000 0.500000
O O6 0.768818 0.432231 0.601075
O O7 0.000000 0.500000 0.500000
O O8 0.148745 0.881915 0.720877
O O9 0.384033 0.143020 0.162059
O O10 0.192493 0.218295 0.046910
O O11 0.500000 0.000000 0.000000
O O12 0.278594 0.733992 0.047030
O O13 0.867215 0.793785 0.104144
O O14 0.500000 0.000000 0.500000
#
# Coordination Sequence:
#
# PCOD9067630 Si02
#       6
#     2   2   2   2   2   2
#     4  11  27  46  75 108 158 195 252 315 375 453
#     4  12  25  45  73 105 150 194 246 303 369 449
#     4  11  25  52  74 110 144 205 252 313 377 451
#     4  12  25  47  71 114 145 200 242 320 372 447
#     4  11  26  46  72 114 149 203 244 305 386 453
#     4  11  26  47  76 103 149 191 260 299 385 443
#
# _framework density 26.102449
#
# number of rings (size 3 to 8) (size 9 to 14) (size 15 to 20)
#    0.000    0.667    3.333    3.000    7.000    4.000 
#    0.000    0.000    0.000    0.000    0.000    0.000 
#    0.000    0.000    0.000    0.000    0.000    0.000 
#
# Total GULP energy -67151.080047 kJ/mol
# GULP energy per Si atom -5595.923337 kJ/mol
# Density = 2.604304 g / cm^3
# Si number density = 26.102449 Si / 1000 Ang^3
#
#
#
# Elastic Constant Matrix: (Units=GPa)
#
#
# Indices 1 2 3 4 5 6 
#
# 1 144.1805 51.7121 41.1633 -8.9412 -6.7878 -6.0205
# 2 51.7121 227.2254 48.1483 -1.6266 -4.8773 -12.7578
# 3 41.1633 48.1483 108.5776 2.3555 -11.3261 -9.7530
# 4 -8.9412 -1.6266 2.3555 50.8980 -9.9514 4.3120
# 5 -6.7878 -4.8773 -11.3261 -9.9514 44.0017 -6.9568
# 6 -6.0205 -12.7578 -9.7530 4.3120 -6.9568 44.9902
#
#
#
# Elastic Compliance Matrix: (Units=1/GPa)
#
#
# Indices 1 2 3 4 5 6 
#
# 1 0.008270 -0.001316 -0.002479 0.001687 0.000901 0.000174
# 2 -0.001316 0.005108 -0.001675 -0.000056 0.000066 0.000925
# 3 -0.002479 -0.001675 0.011362 -0.000699 0.002533 0.002115
# 4 0.001687 -0.000056 -0.000699 0.020983 0.004624 -0.001238
# 5 0.000901 0.000066 0.002533 0.004624 0.025226 0.004146
# 6 0.000174 0.000925 0.002115 -0.001238 0.004146 0.023731
#
#
# Mechanical properties :
#
#
# Convention : Reuss Voigt Hill
#
# Bulk Modulus (GPa) = 72.46133 84.67012 78.56573
# Shear Modulus (GPa) = 45.36436 50.57530 47.96983
#
# Velocity S-wave (km/s) = 4.17338 4.40656 4.29155
# Velocity P-wave (km/s) = 7.14447 7.64188 7.39736
#
# Compressibility (1/GPa) = 0.01380046
#
# Stress axis : x y z
#
# Youngs Moduli (GPa) = 120.92566 195.76163 88.01275
#
# Poissons Ratio (x) = 0.25754 0.21816
# Poissons Ratio (y) = 0.15909 0.14745
# Poissons Ratio (z) = 0.29974 0.32797
#
# Static dielectric constant tensor:
#      x y z
#    x 3.270560 0.309580 -1.069190 
#    y 0.309580 2.082750 -0.211270 
#    z -1.069190 -0.211270 3.457230 
# 
# From -- ./inp_files/130542.got.cif
#   From: 2010.05.17/outbox.cif.g08.bks.cpg/sg2_66_cif.got.tgz:130542.got - 2010.06.03 11:33:40.
