data_PCOD9067433
_publ_section_title
;
Structure prediction by ZEFSAII (Michael W. Deem and Ramdas Pophale) SiO2 
 PCOD9067433
Probable space group: P -1
;
_chemical_formula_sum "Si O2"
_cell_formula_units_Z 15
_cell_length_a 13.524280
_cell_length_b 9.879556
_cell_length_c 12.122206
_cell_angle_alpha 62.157451
_cell_angle_beta 24.938642
_cell_angle_gamma 56.132076
_cell_volume 563.662877
_symmetry_space_group_name_H-M "P -1"
_symmetry_group_IT_number 2
_symmetry_cell_setting 'triclinic'
loop_
_space_group_symop_operation_xyz
x,y,z
-x,-y,-z
loop_
_atom_site_type_symbol
_atom_site_label
_atom_site_fract_x
_atom_site_fract_y
_atom_site_fract_z
Si Si1 0.967927 0.963381 0.761119
Si Si2 0.444563 0.691274 0.493802
Si Si3 0.828209 0.693510 0.920699
Si Si4 0.246476 0.409219 0.357733
Si Si5 0.537056 0.313033 0.893407
Si Si6 0.000000 0.000000 0.500000
Si Si7 0.767736 0.647995 0.369005
Si Si8 0.778717 0.961576 0.177464
O O1 0.873791 0.866117 0.793864
O O2 0.200229 0.825907 0.637775
O O3 0.038149 0.077780 0.561508
O O4 0.774368 0.027194 0.032198
O O5 0.500000 0.500000 0.500000
O O6 0.492784 0.702978 0.571192
O O7 0.662676 0.715573 0.188465
O O8 0.086352 0.542158 0.732488
O O9 0.694066 0.640955 0.975552
O O10 0.353369 0.542281 0.253350
O O11 0.208564 0.319186 0.539221
O O12 0.000000 0.500000 0.500000
O O13 0.441595 0.293951 0.118368
O O14 0.725995 0.148823 0.712721
O O15 0.886736 0.762750 0.142455
O O16 0.500000 0.000000 0.500000
O O17 0.000000 0.000000 0.000000
#
# Coordination Sequence:
#
# PCOD9067433 Si02
#       8
#     2   2   2   2   2   1   2   2
#     4  12  27  50  75 114 154 205 267 328 408 480
#     4  12  22  42  76 113 154 192 256 335 405 474
#     4  12  23  46  75 114 144 193 268 332 402 467
#     4  11  25  49  76 111 153 202 269 329 404 483
#     4  11  26  47  75 112 156 203 264 337 394 495
#     4  12  28  50  76 106 162 214 260 332 408 488
#     4  12  24  46  79 112 150 209 260 341 401 483
#     4  12  30  52  74 112 164 215 271 325 408 500
#
# _framework density 26.611653
#
# number of rings (size 3 to 8) (size 9 to 14) (size 15 to 20)
#    0.000    0.267    5.333    3.600    1.867    2.667 
#    0.000    0.000    0.000    0.000    0.000    0.000 
#    0.000    0.000    0.000    0.000    0.000    0.000 
#
# Total GULP energy -83700.155977 kJ/mol
# GULP energy per Si atom -5580.010398 kJ/mol
# Density = 2.655108 g / cm^3
# Si number density = 26.611653 Si / 1000 Ang^3
#
#
#
# Elastic Constant Matrix: (Units=GPa)
#
#
# Indices 1 2 3 4 5 6 
#
# 1 210.5031 14.3419 59.8428 -3.8930 1.2037 -27.4816
# 2 14.3419 45.4931 -1.0512 1.9246 -17.5868 -3.1745
# 3 59.8428 -1.0512 130.6888 18.9486 26.2912 -9.4785
# 4 -3.8930 1.9246 18.9486 28.6969 3.0111 -5.6039
# 5 1.2037 -17.5868 26.2912 3.0111 69.5629 -5.6098
# 6 -27.4816 -3.1745 -9.4785 -5.6039 -5.6098 55.3282
#
#
#
# Elastic Compliance Matrix: (Units=1/GPa)
#
#
# Indices 1 2 3 4 5 6 
#
# 1 0.006263 -0.001692 -0.003367 0.003666 0.000811 0.002891
# 2 -0.001692 0.025232 0.000090 -0.002467 0.006565 0.001038
# 3 -0.003367 0.000090 0.010982 -0.007495 -0.003820 -0.000932
# 4 0.003666 -0.002467 -0.007495 0.041290 0.000733 0.004651
# 5 0.000811 0.006565 -0.003820 0.000733 0.017593 0.001983
# 6 0.002891 0.001038 -0.000932 0.004651 0.001983 0.020082
#
#
# Mechanical properties :
#
#
# Convention : Reuss Voigt Hill
#
# Bulk Modulus (GPa) = 30.73187 59.21689 44.97438
# Shear Modulus (GPa) = 35.15546 51.62105 43.38825
#
# Velocity S-wave (km/s) = 3.63858 4.40908 4.04223
# Velocity P-wave (km/s) = 5.40608 6.94410 6.22279
#
# Compressibility (1/GPa) = 0.03253951
#
# Stress axis : x y z
#
# Youngs Moduli (GPa) = 159.65718 39.63282 91.06082
#
# Poissons Ratio (x) = 0.06707 0.30656
# Poissons Ratio (y) = 0.27020 -0.00822
# Poissons Ratio (z) = 0.53749 -0.00358
#
# Static dielectric constant tensor:
#      x y z
#    x 2.049200 0.300980 -0.183080 
#    y 0.300980 1.788710 0.305150 
#    z -0.183080 0.305150 1.907820 
# 
# From -- ./inp_files/427945.got.cif
#   From: 2010.05.17/outbox.cif.g08.bks.cpg/sg2_214_cif.got.tgz:427945.got - 2010.06.03 11:33:40.
