data_PCOD9067777
_publ_section_title
;
Structure prediction by ZEFSAII (Michael W. Deem and Ramdas Pophale) SiO2 
 PCOD9067777
Probable space group: P -1
;
_chemical_formula_sum "Si O2"
_cell_formula_units_Z 16
_cell_length_a 5.129111
_cell_length_b 8.988228
_cell_length_c 23.468979
_cell_angle_alpha 52.898180
_cell_angle_beta 47.725073
_cell_angle_gamma 60.758874
_cell_volume 632.204757
_symmetry_space_group_name_H-M "P -1"
_symmetry_group_IT_number 2
_symmetry_cell_setting 'triclinic'
loop_
_space_group_symop_operation_xyz
x,y,z
-x,-y,-z
loop_
_atom_site_type_symbol
_atom_site_label
_atom_site_fract_x
_atom_site_fract_y
_atom_site_fract_z
Si Si1 0.907927 0.888865 0.728314
Si Si2 0.066187 0.073059 0.161685
Si Si3 0.640832 0.306169 0.992013
Si Si4 0.490083 0.573283 0.856430
Si Si5 0.795230 0.515449 0.404901
Si Si6 0.573127 0.705180 0.156112
Si Si7 0.475934 0.712647 0.295741
Si Si8 0.155724 0.899753 0.558822
O O1 0.108315 0.929244 0.748521
O O2 0.818748 0.680066 0.797769
O O3 0.004479 0.906586 0.644111
O O4 0.593345 0.061295 0.741728
O O5 0.831491 0.256254 0.125142
O O6 0.220709 0.862641 0.166138
O O7 0.451723 0.149146 0.086262
O O8 0.499459 0.378052 0.934048
O O9 0.063828 0.253707 0.937094
O O10 0.500000 0.500000 0.000000
O O11 0.503401 0.496839 0.808390
O O12 0.500000 0.500000 0.500000
O O13 0.645698 0.648719 0.344904
O O14 0.844791 0.314086 0.412540
O O15 0.126930 0.603030 0.363884
O O16 0.662980 0.680722 0.215181
O O17 0.500000 0.000000 0.500000
O O18 0.000000 0.000000 0.500000
#
# Coordination Sequence:
#
# PCOD9067777 Si02
#       8
#     2   2   2   2   2   2   2   2
#     4  11  26  45  72 101 147 189 247 309 378 451
#     4  11  26  46  72 105 145 197 252 315 381 453
#     4  12  24  47  69 106 150 195 253 314 384 450
#     4  12  25  44  75 102 147 195 253 313 380 449
#     4  12  25  47  75 107 149 191 246 309 381 448
#     4  11  27  44  72 106 148 197 255 309 383 452
#     4  11  27  45  73 107 147 194 250 311 374 453
#     4  12  27  46  75 110 147 194 245 306 378 452
#
# _framework density 25.308254000000002
#
# number of rings (size 3 to 8) (size 9 to 14) (size 15 to 20)
#    0.000    0.500    2.500    4.125   10.500    1.500 
#    0.000    0.000    0.000    0.000    0.000    0.000 
#    0.000    0.000    0.000    0.000    0.000    0.000 
#
# Total GULP energy -89224.851482 kJ/mol
# GULP energy per Si atom -5576.553218 kJ/mol
# Density = 2.525065 g / cm^3
# Si number density = 25.308254 Si / 1000 Ang^3
#
#
#
# Elastic Constant Matrix: (Units=GPa)
#
#
# Indices 1 2 3 4 5 6 
#
# 1 116.6360 34.2618 26.7471 2.1628 4.9920 12.5068
# 2 34.2618 159.9634 37.2317 4.8713 -7.4418 10.1740
# 3 26.7471 37.2317 109.8653 9.2067 6.2296 11.8174
# 4 2.1628 4.8713 9.2067 52.7109 -0.0301 8.6298
# 5 4.9920 -7.4418 6.2296 -0.0301 35.5830 -4.4181
# 6 12.5068 10.1740 11.8174 8.6298 -4.4181 41.5127
#
#
#
# Elastic Compliance Matrix: (Units=1/GPa)
#
#
# Indices 1 2 3 4 5 6 
#
# 1 0.009728 -0.001683 -0.001478 0.000401 -0.001752 -0.002368
# 2 -0.001683 0.007228 -0.002098 -0.000164 0.002064 -0.000413
# 3 -0.001478 -0.002098 0.010633 -0.001268 -0.002349 -0.002054
# 4 0.000401 -0.000164 -0.001268 0.019826 -0.000333 -0.003877
# 5 -0.001752 0.002064 -0.002349 -0.000333 0.029678 0.003919
# 6 -0.002368 -0.000413 -0.002054 -0.003877 0.003919 0.026711
#
#
# Mechanical properties :
#
#
# Convention : Reuss Voigt Hill
#
# Bulk Modulus (GPa) = 58.57839 64.77178 61.67509
# Shear Modulus (GPa) = 41.66212 45.17626 43.41919
#
# Velocity S-wave (km/s) = 4.06172 4.22956 4.14649
# Velocity P-wave (km/s) = 6.72258 7.03569 6.88091
#
# Compressibility (1/GPa) = 0.01707114
#
# Stress axis : x y z
#
# Youngs Moduli (GPa) = 102.79291 138.35918 94.04395
#
# Poissons Ratio (x) = 0.23284 0.13897
# Poissons Ratio (y) = 0.17298 0.19735
# Poissons Ratio (z) = 0.15190 0.29034
#
# Static dielectric constant tensor:
#      x y z
#    x 2.289630 -0.057120 0.168070 
#    y -0.057120 1.998470 0.029870 
#    z 0.168070 0.029870 2.204410 
# 
# From -- ./inp_files/603959.got.cif
#   From: 2010.05.17/outbox.cif.g08.bks.cpg/sg2_302_cif.got.tgz:603959.got - 2010.06.03 11:33:40.
