data_PCOD9067741
_publ_section_title
;
Structure prediction by ZEFSAII (Michael W. Deem and Ramdas Pophale) SiO2 
 PCOD9067741
Probable space group: P -1
;
_chemical_formula_sum "Si O2"
_cell_formula_units_Z 13
_cell_length_a 5.198591
_cell_length_b 11.713523
_cell_length_c 9.233719
_cell_angle_alpha 104.092714
_cell_angle_beta 105.043227
_cell_angle_gamma 104.384000
_cell_volume 496.664017
_symmetry_space_group_name_H-M "P -1"
_symmetry_group_IT_number 2
_symmetry_cell_setting 'triclinic'
loop_
_space_group_symop_operation_xyz
x,y,z
-x,-y,-z
loop_
_atom_site_type_symbol
_atom_site_label
_atom_site_fract_x
_atom_site_fract_y
_atom_site_fract_z
Si Si1 0.717944 0.344958 0.608867
Si Si2 0.500000 0.500000 0.500000
Si Si3 0.090225 0.205879 0.506190
Si Si4 0.795220 0.031432 0.640231
Si Si5 0.129276 0.647038 0.035801
Si Si6 0.435970 0.318700 0.154890
Si Si7 0.679982 0.961199 0.897649
O O1 0.796073 0.484233 0.608375
O O2 0.375339 0.316337 0.538545
O O3 0.763824 0.311211 0.770395
O O4 0.844094 0.263965 0.499725
O O5 0.530648 0.423942 0.325291
O O6 0.050267 0.140377 0.638897
O O7 0.095723 0.088251 0.376803
O O8 0.500000 0.000000 0.500000
O O9 0.688607 0.044766 0.785546
O O10 0.368368 0.664875 0.954565
O O11 0.000000 0.500000 0.000000
O O12 0.876162 0.691175 0.953303
O O13 0.426024 0.186864 0.180472
O O14 0.500000 0.000000 0.000000
O O15 0.000000 0.000000 0.000000
#
# Coordination Sequence:
#
# PCOD9067741 Si02
#       7
#     2   1   2   2   2   2   2
#     4  12  27  46  79 109 152 196 257 312 391 453
#     4  12  30  52  78 116 154 200 256 326 384 448
#     4  11  26  44  78 112 146 200 258 312 374 458
#     4  11  26  49  77 110 154 200 262 308 378 463
#     4  12  27  52  76 113 147 204 256 314 383 469
#     4  12  29  51  79 113 157 201 257 318 388 455
#     4  12  31  50  76 115 159 200 252 319 387 454
#
# _framework density 26.174634999999999
#
# number of rings (size 3 to 8) (size 9 to 14) (size 15 to 20)
#    0.000    0.308    3.077    3.231   12.923    3.692 
#    0.000    0.000    0.000    0.000    0.000    0.000 
#    0.000    0.000    0.000    0.000    0.000    0.000 
#
# Total GULP energy -72492.200667 kJ/mol
# GULP energy per Si atom -5576.323128 kJ/mol
# Density = 2.611506 g / cm^3
# Si number density = 26.174635 Si / 1000 Ang^3
#
#
#
# Elastic Constant Matrix: (Units=GPa)
#
#
# Indices 1 2 3 4 5 6 
#
# 1 203.1145 33.0168 87.9009 -6.7025 -35.2188 -16.3655
# 2 33.0168 50.4771 -3.8917 6.1665 -11.3281 -27.7491
# 3 87.9009 -3.8917 148.9135 -32.6802 -10.7470 -10.9928
# 4 -6.7025 6.1665 -32.6802 49.6379 -1.7915 -9.8818
# 5 -35.2188 -11.3281 -10.7470 -1.7915 46.2580 -5.8361
# 6 -16.3655 -27.7491 -10.9928 -9.8818 -5.8361 54.4915
#
#
#
# Elastic Compliance Matrix: (Units=1/GPa)
#
#
# Indices 1 2 3 4 5 6 
#
# 1 0.008755 -0.005903 -0.005587 -0.001921 0.003663 -0.001460
# 2 -0.005903 0.036862 0.007426 0.003848 0.008949 0.020153
# 3 -0.005587 0.007426 0.012501 0.007847 0.001557 0.006215
# 4 -0.001921 0.003848 0.007847 0.026306 0.003342 0.008094
# 5 0.003663 0.008949 0.001557 0.003342 0.028302 0.009609
# 6 -0.001460 0.020153 0.006215 0.008094 0.009609 0.031926
#
#
# Mechanical properties :
#
#
# Convention : Reuss Voigt Hill
#
# Bulk Modulus (GPa) = 20.00470 70.72857 45.36663
# Shear Modulus (GPa) = 29.50824 49.10940 39.30882
#
# Velocity S-wave (km/s) = 3.36126 4.33624 3.87950
# Velocity P-wave (km/s) = 4.76691 7.22157 6.11860
#
# Compressibility (1/GPa) = 0.04998826
#
# Stress axis : x y z
#
# Youngs Moduli (GPa) = 114.21966 27.12833 79.99634
#
# Poissons Ratio (x) = 0.16014 0.44696
# Poissons Ratio (y) = 0.67425 -0.59403
# Poissons Ratio (z) = 0.63818 -0.20145
#
# Static dielectric constant tensor:
#      x y z
#    x 1.937050 -0.018310 0.013080 
#    y -0.018310 1.533190 0.144020 
#    z 0.013080 0.144020 2.144040 
# 
# From -- ./inp_files/131179.got.cif
#   From: 2010.05.17/outbox.cif.g08.bks.cpg/sg2_66_cif.got.tgz:131179.got - 2010.06.03 11:33:40.
