data_PCOD9067916
_publ_section_title
;
Structure prediction by ZEFSAII (Michael W. Deem and Ramdas Pophale) SiO2 
 PCOD9067916
Probable space group: P -1
;
_chemical_formula_sum "Si O2"
_cell_formula_units_Z 16
_cell_length_a 9.255762
_cell_length_b 17.934825
_cell_length_c 11.937234
_cell_angle_alpha 137.788857
_cell_angle_beta 128.198560
_cell_angle_gamma 84.306626
_cell_volume 767.547869
_symmetry_space_group_name_H-M "P -1"
_symmetry_group_IT_number 2
_symmetry_cell_setting 'triclinic'
loop_
_space_group_symop_operation_xyz
x,y,z
-x,-y,-z
loop_
_atom_site_type_symbol
_atom_site_label
_atom_site_fract_x
_atom_site_fract_y
_atom_site_fract_z
Si Si1 0.515559 0.638661 0.662850
Si Si2 0.511010 0.058937 0.190009
Si Si3 0.705827 0.402667 0.245337
Si Si4 0.890754 0.395440 0.719212
Si Si5 0.892720 0.090261 0.795496
Si Si6 0.551992 0.098249 0.791350
Si Si7 0.010459 0.070429 0.199398
Si Si8 0.234613 0.409598 0.715428
O O1 0.500000 0.500000 0.500000
O O2 0.419601 0.634810 0.735540
O O3 0.321668 0.615081 0.454830
O O4 0.811946 0.783409 0.947017
O O5 0.760699 0.230218 0.518768
O O6 0.460013 0.950377 0.142156
O O7 0.500000 0.000000 0.000000
O O8 0.284019 0.049576 0.055878
O O9 0.697901 0.504436 0.273731
O O10 0.000000 0.500000 0.500000
O O11 0.585353 0.242750 0.958463
O O12 0.073846 0.424619 0.739060
O O13 0.000000 0.500000 0.000000
O O14 0.787798 0.133825 0.885744
O O15 0.709696 0.038710 0.546437
O O16 0.845123 0.947893 0.664192
O O17 0.104310 0.236231 0.436397
O O18 0.000000 0.000000 0.000000
O O19 0.500000 0.500000 0.000000
#
# Coordination Sequence:
#
# PCOD9067916 Si02
#       8
#     2   2   2   2   2   2   2   2
#     4  12  28  47  73 105 144 194 242 297 367 437
#     4  12  24  47  74 101 144 188 248 295 361 435
#     4  12  25  47  76 102 148 193 240 299 372 432
#     4  12  29  48  74 109 150 194 242 310 366 437
#     4  11  26  46  73 107 145 184 247 299 360 436
#     4  11  26  46  73 107 143 191 240 304 362 433
#     4  12  25  45  75 106 139 194 243 296 363 437
#     4  12  29  47  72 109 149 190 243 301 368 438
#
# _framework density 20.845604999999999
#
# number of rings (size 3 to 8) (size 9 to 14) (size 15 to 20)
#    0.000    0.250    5.000    3.000    7.000    1.500 
#    0.000    0.000    0.000    0.000    0.000    0.000 
#    0.000    0.000    0.000    0.000    0.000    0.000 
#
# Total GULP energy -89298.400186 kJ/mol
# GULP energy per Si atom -5581.150012 kJ/mol
# Density = 2.079816 g / cm^3
# Si number density = 20.845605 Si / 1000 Ang^3
#
#
#
# Elastic Constant Matrix: (Units=GPa)
#
#
# Indices 1 2 3 4 5 6 
#
# 1 166.2052 49.2878 66.7520 -7.5112 -0.3891 10.5028
# 2 49.2878 123.0755 49.1520 -4.9449 -4.7753 2.0564
# 3 66.7520 49.1520 126.5467 1.2676 -2.9102 14.2604
# 4 -7.5112 -4.9449 1.2676 44.2985 -9.6018 -1.8650
# 5 -0.3891 -4.7753 -2.9102 -9.6018 38.7149 -4.3386
# 6 10.5028 2.0564 14.2604 -1.8650 -4.3386 27.7961
#
#
#
# Elastic Compliance Matrix: (Units=1/GPa)
#
#
# Indices 1 2 3 4 5 6 
#
# 1 0.008054 -0.001793 -0.003445 0.001167 -0.000233 -0.001101
# 2 -0.001793 0.010208 -0.003211 0.001342 0.001546 0.001901
# 3 -0.003445 -0.003211 0.011482 -0.001562 -0.000462 -0.004528
# 4 0.001167 0.001342 -0.001562 0.024489 0.006460 0.002913
# 5 -0.000233 0.001546 -0.000462 0.006460 0.028150 0.005038
# 6 -0.001101 0.001901 -0.004528 0.002913 0.005038 0.039557
#
#
# Mechanical properties :
#
#
# Convention : Reuss Voigt Hill
#
# Bulk Modulus (GPa) = 77.84954 82.91234 80.38094
# Shear Modulus (GPa) = 34.93590 38.87094 36.90342
#
# Velocity S-wave (km/s) = 4.09826 4.32291 4.21208
# Velocity P-wave (km/s) = 7.73442 8.04845 7.89300
#
# Compressibility (1/GPa) = 0.01284529
#
# Stress axis : x y z
#
# Youngs Moduli (GPa) = 124.16638 97.96476 87.09503
#
# Poissons Ratio (x) = 0.17568 0.30001
# Poissons Ratio (y) = 0.22267 0.27966
# Poissons Ratio (z) = 0.42771 0.31456
#
# Static dielectric constant tensor:
#      x y z
#    x -14.762120 -4.986190 13.270320 
#    y -4.986190 0.191440 4.030950 
#    z 13.270320 4.030950 -8.931430 
# 
# From -- ./inp_files/403416.got.cif
#   From: 2010.05.17/outbox.cif.g08.bks.cpg/sg2_202_cif.got.tgz:403416.got - 2010.06.03 11:33:40.
