data_PCOD9067588
_publ_section_title
;
Structure prediction by ZEFSAII (Michael W. Deem and Ramdas Pophale) SiO2 
 PCOD9067588
Probable space group: P -1
;
_chemical_formula_sum "Si O2"
_cell_formula_units_Z 12
_cell_length_a 8.572618
_cell_length_b 8.945845
_cell_length_c 8.280233
_cell_angle_alpha 128.309621
_cell_angle_beta 86.015771
_cell_angle_gamma 77.423958
_cell_volume 468.665561
_symmetry_space_group_name_H-M "P -1"
_symmetry_group_IT_number 2
_symmetry_cell_setting 'triclinic'
loop_
_space_group_symop_operation_xyz
x,y,z
-x,-y,-z
loop_
_atom_site_type_symbol
_atom_site_label
_atom_site_fract_x
_atom_site_fract_y
_atom_site_fract_z
Si Si1 0.978312 0.455373 0.154197
Si Si2 0.541215 0.158966 0.275095
Si Si3 0.154730 0.298696 0.399911
Si Si4 0.420594 0.715778 0.288589
Si Si5 0.354549 0.304947 0.004000
Si Si6 0.771598 0.156118 0.957529
O O1 0.882163 0.668428 0.384780
O O2 0.171280 0.353990 0.119885
O O3 0.000000 0.500000 0.000000
O O4 0.885897 0.292864 0.064364
O O5 0.346058 0.289034 0.361827
O O6 0.605843 0.178347 0.464996
O O7 0.554364 0.924799 0.104360
O O8 0.652319 0.205558 0.157916
O O9 0.000000 0.500000 0.500000
O O10 0.140355 0.085454 0.206889
O O11 0.601032 0.700025 0.193989
O O12 0.306353 0.799407 0.191763
O O13 0.408790 0.495732 0.175394
#
# Coordination Sequence:
#
# PCOD9067588 Si02
#       6
#     2   2   2   2   2   2
#     4  12  28  51  79 121 165 208 264 333 405 476
#     4  12  28  51  86 118 161 215 274 332 401 486
#     4  12  30  52  79 123 164 209 271 338 402 475
#     4  11  26  50  89 119 154 217 272 327 406 481
#     4  11  25  50  83 118 165 210 270 334 398 486
#     4  12  29  53  85 119 163 216 270 330 407 485
#
# _framework density 25.604614000000002
#
# number of rings (size 3 to 8) (size 9 to 14) (size 15 to 20)
#    0.000    0.333    3.333    3.000    7.000    8.000 
#    0.000    0.000    0.000    0.000    0.000    0.000 
#    0.000    0.000    0.000    0.000    0.000    0.000 
#
# Total GULP energy -67061.073557 kJ/mol
# GULP energy per Si atom -5588.422796 kJ/mol
# Density = 2.554634 g / cm^3
# Si number density = 25.604614 Si / 1000 Ang^3
#
#
#
# Elastic Constant Matrix: (Units=GPa)
#
#
# Indices 1 2 3 4 5 6 
#
# 1 132.7298 66.9420 58.0802 -5.8458 -28.2113 28.5763
# 2 66.9420 153.9462 60.2745 8.7482 -15.6959 28.3919
# 3 58.0802 60.2745 170.2809 -13.7146 -28.5940 17.3525
# 4 -5.8458 8.7482 -13.7146 44.6288 0.2755 -5.2301
# 5 -28.2113 -15.6959 -28.5940 0.2755 41.4277 -3.4972
# 6 28.5763 28.3919 17.3525 -5.2301 -3.4972 62.3804
#
#
#
# Elastic Compliance Matrix: (Units=1/GPa)
#
#
# Indices 1 2 3 4 5 6 
#
# 1 0.011815 -0.003551 -0.001442 0.001419 0.005445 -0.002971
# 2 -0.003551 0.009495 -0.002269 -0.003298 -0.000565 -0.002372
# 3 -0.001442 -0.002269 0.008009 0.002682 0.003660 -0.000105
# 4 0.001419 -0.003298 0.002682 0.024315 0.001595 0.002233
# 5 0.005445 -0.000565 0.003660 0.001595 0.030027 -0.001438
# 6 -0.002971 -0.002372 -0.000105 0.002233 -0.001438 0.018607
#
#
# Mechanical properties :
#
#
# Convention : Reuss Voigt Hill
#
# Bulk Modulus (GPa) = 67.58086 91.95003 79.76545
# Shear Modulus (GPa) = 41.07667 47.79804 44.43735
#
# Velocity S-wave (km/s) = 4.00968 4.32531 4.17048
# Velocity P-wave (km/s) = 6.92012 7.80601 7.37638
#
# Compressibility (1/GPa) = 0.01479709
#
# Stress axis : x y z
#
# Youngs Moduli (GPa) = 84.63543 105.31394 124.86441
#
# Poissons Ratio (x) = 0.37395 0.18002
# Poissons Ratio (y) = 0.30052 0.28328
# Poissons Ratio (z) = 0.12202 0.23892
#
# Static dielectric constant tensor:
#      x y z
#    x 1.174240 0.982720 -0.308010 
#    y 0.982720 0.741680 0.281420 
#    z -0.308010 0.281420 2.004030 
# 
# From -- ./inp_files/152483.got.cif
#   From: 2010.05.17/outbox.cif.g08.bks.cpg/sg2_77_cif.got.tgz:152483.got - 2010.06.03 11:33:40.
