data_PCOD9067326
_publ_section_title
;
Structure prediction by ZEFSAII (Michael W. Deem and Ramdas Pophale) SiO2 
 PCOD9067326
Probable space group: P -1
;
_chemical_formula_sum "Si O2"
_cell_formula_units_Z 14
_cell_length_a 12.570680
_cell_length_b 11.240605
_cell_length_c 5.427950
_cell_angle_alpha 87.738136
_cell_angle_beta 60.584479
_cell_angle_gamma 119.933049
_cell_volume 536.278406
_symmetry_space_group_name_H-M "P -1"
_symmetry_group_IT_number 2
_symmetry_cell_setting 'triclinic'
loop_
_space_group_symop_operation_xyz
x,y,z
-x,-y,-z
loop_
_atom_site_type_symbol
_atom_site_label
_atom_site_fract_x
_atom_site_fract_y
_atom_site_fract_z
Si Si1 0.128616 0.465239 0.669441
Si Si2 0.804601 0.950807 0.253247
Si Si3 0.181819 0.717258 0.280552
Si Si4 0.767650 0.790238 0.793560
Si Si5 0.000785 0.756617 0.769630
Si Si6 0.475699 0.846644 0.609925
Si Si7 0.548986 0.419955 0.634976
O O1 0.187412 0.627108 0.504614
O O2 0.277842 0.467018 0.475865
O O3 0.974715 0.371459 0.689898
O O4 0.071089 0.402843 0.014165
O O5 0.829163 0.877634 0.462249
O O6 0.642006 0.911358 0.511854
O O7 0.940917 0.124407 0.090235
O O8 0.789506 0.886847 0.003831
O O9 0.155443 0.826650 0.435724
O O10 0.327990 0.772511 0.953762
O O11 0.869700 0.738411 0.761416
O O12 0.586241 0.662501 0.004654
O O13 0.448712 0.710549 0.486176
O O14 0.500000 0.000000 0.500000
O O15 0.500000 0.500000 0.500000
#
# Coordination Sequence:
#
# PCOD9067326 Si02
#       7
#     2   2   2   2   2   2   2
#     4  11  26  46  68 112 149 195 259 321 394 473
#     4  11  27  48  76 111 155 204 269 329 400 464
#     4  11  28  44  74 110 150 205 252 330 400 476
#     4  11  26  50  73 116 151 207 265 335 392 474
#     4  12  26  44  78 103 157 199 260 321 398 480
#     4  11  27  50  77 114 155 205 267 327 398 477
#     4  11  25  48  79 109 154 204 264 330 392 470
#
# _framework density 26.105844000000001
#
# number of rings (size 3 to 8) (size 9 to 14) (size 15 to 20)
#    0.000    0.857    1.429    3.000   16.000    0.571 
#    0.000    2.857    0.000    0.000    0.000    0.000 
#    0.000    0.000    0.000    0.000    0.000    0.000 
#
# Total GULP energy -78211.274706 kJ/mol
# GULP energy per Si atom -5586.519622 kJ/mol
# Density = 2.604643 g / cm^3
# Si number density = 26.105844 Si / 1000 Ang^3
#
#
#
# Elastic Constant Matrix: (Units=GPa)
#
#
# Indices 1 2 3 4 5 6 
#
# 1 208.6282 51.4076 56.7424 4.9509 -28.2481 -11.6186
# 2 51.4076 112.9699 50.4403 2.5050 -2.0468 -0.9259
# 3 56.7424 50.4403 118.1152 12.2174 -49.6058 -22.7793
# 4 4.9509 2.5050 12.2174 33.2503 -8.0626 1.2891
# 5 -28.2481 -2.0468 -49.6058 -8.0626 58.7321 -9.8542
# 6 -11.6186 -0.9259 -22.7793 1.2891 -9.8542 50.6342
#
#
#
# Elastic Compliance Matrix: (Units=1/GPa)
#
#
# Indices 1 2 3 4 5 6 
#
# 1 0.005974 -0.002557 -0.000213 0.000017 0.002908 0.001794
# 2 -0.002557 0.014973 -0.011780 0.001016 -0.011851 -0.007945
# 3 -0.000213 -0.011780 0.028157 -0.003880 0.025672 0.017498
# 4 0.000017 0.001016 -0.003880 0.031688 0.000715 -0.002391
# 5 0.002908 -0.011851 0.025672 0.000715 0.043214 0.020392
# 6 0.001794 -0.007945 0.017498 -0.002391 0.020392 0.031917
#
#
# Mechanical properties :
#
#
# Convention : Reuss Voigt Hill
#
# Bulk Modulus (GPa) = 49.98915 84.09932 67.04424
# Shear Modulus (GPa) = 26.08361 47.26487 36.67424
#
# Velocity S-wave (km/s) = 3.16436 4.25962 3.75217
# Velocity P-wave (km/s) = 5.70448 7.51513 6.67152
#
# Compressibility (1/GPa) = 0.02000434
#
# Stress axis : x y z
#
# Youngs Moduli (GPa) = 167.38400 66.78751 35.51527
#
# Poissons Ratio (x) = 0.17075 0.00756
# Poissons Ratio (y) = 0.42794 0.41839
# Poissons Ratio (z) = 0.03561 0.78679
#
# Static dielectric constant tensor:
#      x y z
#    x 2.043760 -0.077740 -0.033890 
#    y -0.077740 2.272850 0.112080 
#    z -0.033890 0.112080 2.094610 
# 
# From -- ./inp_files/69629.got.cif
#   From: 2010.05.17/outbox.cif.g08.bks.cpg/sg2_35_cif.got.tgz:69629.got - 2010.06.03 11:33:40.
