data_PCOD9067648
_publ_section_title
;
Structure prediction by ZEFSAII (Michael W. Deem and Ramdas Pophale) SiO2 
 PCOD9067648
Probable space group: P -1
;
_chemical_formula_sum "Si O2"
_cell_formula_units_Z 12
_cell_length_a 5.243127
_cell_length_b 7.153311
_cell_length_c 17.656219
_cell_angle_alpha 132.489634
_cell_angle_beta 105.457154
_cell_angle_gamma 83.571389
_cell_volume 468.487799
_symmetry_space_group_name_H-M "P -1"
_symmetry_group_IT_number 2
_symmetry_cell_setting 'triclinic'
loop_
_space_group_symop_operation_xyz
x,y,z
-x,-y,-z
loop_
_atom_site_type_symbol
_atom_site_label
_atom_site_fract_x
_atom_site_fract_y
_atom_site_fract_z
Si Si1 0.195322 0.000111 0.945948
Si Si2 0.548660 0.355205 0.645921
Si Si3 0.132648 0.441182 0.761647
Si Si4 0.150945 0.778302 0.493887
Si Si5 0.761321 0.246594 0.326710
Si Si6 0.748600 0.686404 0.098800
O O1 0.156745 0.445829 0.855085
O O2 0.145518 0.738299 0.824463
O O3 0.500000 0.000000 0.000000
O O4 0.000000 0.000000 0.000000
O O5 0.839411 0.318506 0.688556
O O6 0.506361 0.637052 0.689592
O O7 0.358987 0.326209 0.697221
O O8 0.434161 0.778882 0.472685
O O9 0.024146 0.500816 0.604096
O O10 0.198653 0.800562 0.593332
O O11 0.000000 0.000000 0.500000
O O12 0.735452 0.967630 0.211596
O O13 0.875539 0.770278 0.051143
O O14 0.500000 0.500000 0.000000
#
# Coordination Sequence:
#
# PCOD9067648 Si02
#       6
#     2   2   2   2   2   2
#     4  12  26  48  76 109 157 213 275 331 393 470
#     4  12  24  52  77 116 160 204 265 336 404 480
#     4  12  27  48  77 114 161 213 263 331 403 482
#     4  11  25  52  83 117 159 207 273 338 411 480
#     4  11  26  49  79 119 157 215 266 336 403 488
#     4  12  27  51  79 121 162 219 270 332 406 488
#
# _framework density 25.614328
#
# number of rings (size 3 to 8) (size 9 to 14) (size 15 to 20)
#    0.000    0.333    5.000    2.500    0.000    2.667 
#    9.000    0.000    0.000    0.000    0.000    0.000 
#    0.000    0.000    0.000    0.000    0.000    0.000 
#
# Total GULP energy -66867.660577 kJ/mol
# GULP energy per Si atom -5572.305048 kJ/mol
# Density = 2.555603 g / cm^3
# Si number density = 25.614328 Si / 1000 Ang^3
#
#
#
# Elastic Constant Matrix: (Units=GPa)
#
#
# Indices 1 2 3 4 5 6 
#
# 1 163.9446 41.5418 59.3660 -16.4208 -26.3345 20.1691
# 2 41.5418 178.5402 40.8211 -18.3483 -4.6449 36.1686
# 3 59.3660 40.8211 165.7963 -13.4239 3.2666 22.4684
# 4 -16.4208 -18.3483 -13.4239 62.6202 2.7236 2.8088
# 5 -26.3345 -4.6449 3.2666 2.7236 41.5012 -8.2017
# 6 20.1691 36.1686 22.4684 2.8088 -8.2017 40.5692
#
#
#
# Elastic Compliance Matrix: (Units=1/GPa)
#
#
# Indices 1 2 3 4 5 6 
#
# 1 0.008342 -0.000893 -0.002648 0.001176 0.005142 -0.000927
# 2 -0.000893 0.007371 -0.000453 0.002155 -0.001082 -0.006244
# 3 -0.002648 -0.000453 0.007676 0.001096 -0.003044 -0.003223
# 4 0.001176 0.002155 0.001096 0.017398 -0.001139 -0.004548
# 5 0.005142 -0.001082 -0.003044 -0.001139 0.028734 0.005982
# 6 -0.000927 -0.006244 -0.003223 -0.004548 0.005982 0.033986
#
#
# Mechanical properties :
#
#
# Convention : Reuss Voigt Hill
#
# Bulk Modulus (GPa) = 64.92755 87.97100 76.44928
# Shear Modulus (GPa) = 42.87113 53.37494 48.12303
#
# Velocity S-wave (km/s) = 4.09555 4.56981 4.33916
# Velocity P-wave (km/s) = 6.91143 7.89070 7.41725
#
# Compressibility (1/GPa) = 0.01540178
#
# Stress axis : x y z
#
# Youngs Moduli (GPa) = 119.86841 135.67256 130.26870
#
# Poissons Ratio (x) = 0.12121 0.34491
# Poissons Ratio (y) = 0.10709 0.05899
# Poissons Ratio (z) = 0.31738 0.06144
#
# Static dielectric constant tensor:
#      x y z
#    x 2.161960 0.077530 -0.071430 
#    y 0.077530 2.138570 0.000340 
#    z -0.071430 0.000340 2.196750 
# 
# From -- ./inp_files/581763.got.cif
#   From: 2010.05.17/outbox.cif.g08.bks.cpg/sg2_291_cif.got.tgz:581763.got - 2010.06.03 11:33:40.
