data_PCOD9067109
_publ_section_title
;
Structure prediction by ZEFSAII (Michael W. Deem and Ramdas Pophale) SiO2 
 PCOD9067109
Probable space group: P -1
;
_chemical_formula_sum "Si O2"
_cell_formula_units_Z 10
_cell_length_a 9.153084
_cell_length_b 13.480352
_cell_length_c 14.710939
_cell_angle_alpha 29.904801
_cell_angle_beta 153.233912
_cell_angle_gamma 147.452129
_cell_volume 387.842158
_symmetry_space_group_name_H-M "P -1"
_symmetry_group_IT_number 2
_symmetry_cell_setting 'triclinic'
loop_
_space_group_symop_operation_xyz
x,y,z
-x,-y,-z
loop_
_atom_site_type_symbol
_atom_site_label
_atom_site_fract_x
_atom_site_fract_y
_atom_site_fract_z
Si Si1 0.683243 0.356805 0.877225
Si Si2 0.347120 0.268400 0.062006
Si Si3 0.113368 0.967144 0.865315
Si Si4 0.761528 0.365740 0.552226
Si Si5 0.170417 0.963100 0.530743
O O1 0.432543 0.496136 0.610594
O O2 0.427008 0.140623 0.949881
O O3 0.821077 0.250986 0.953573
O O4 0.000000 0.500000 0.000000
O O5 0.004226 0.264713 0.822761
O O6 0.500000 0.500000 0.000000
O O7 0.640180 0.210306 0.216806
O O8 0.218547 0.099942 0.204333
O O9 0.066192 0.076108 0.657975
O O10 0.000000 0.500000 0.500000
O O11 0.452957 0.179886 0.490457
O O12 0.000000 0.000000 0.500000
#
# Coordination Sequence:
#
# PCOD9067109 Si02
#       5
#     2   2   2   2   2
#     4  11  25  47  80 109 153 201 256 316 385 445
#     4  12  28  48  76 111 157 203 256 314 390 455
#     4  11  26  49  80 112 156 197 260 317 382 463
#     4  12  27  45  75 108 156 200 253 310 386 452
#     4  12  28  48  80 114 152 201 260 318 382 460
#
# _framework density 25.783684999999998
#
# number of rings (size 3 to 8) (size 9 to 14) (size 15 to 20)
#    0.000    0.400    2.000    4.800   11.200    0.800 
#    0.000    0.000    0.000    0.000    0.000    0.000 
#    0.000    0.000    0.000    0.000    0.000    0.000 
#
# Total GULP energy -56002.346401 kJ/mol
# GULP energy per Si atom -5600.234640 kJ/mol
# Density = 2.572500 g / cm^3
# Si number density = 25.783685 Si / 1000 Ang^3
#
#
#
# Elastic Constant Matrix: (Units=GPa)
#
#
# Indices 1 2 3 4 5 6 
#
# 1 155.0648 44.5066 74.5528 -1.2327 28.3787 -3.1795
# 2 44.5066 180.1174 8.2717 5.5441 0.0493 -11.1360
# 3 74.5528 8.2717 161.9201 10.4815 34.1004 -20.2550
# 4 -1.2327 5.5441 10.4815 38.1972 -10.7861 5.4490
# 5 28.3787 0.0493 34.1004 -10.7861 62.9055 -13.9637
# 6 -3.1795 -11.1360 -20.2550 5.4490 -13.9637 43.9082
#
#
#
# Elastic Compliance Matrix: (Units=1/GPa)
#
#
# Indices 1 2 3 4 5 6 
#
# 1 0.009558 -0.002388 -0.004230 0.001546 -0.002376 -0.002812
# 2 -0.002388 0.006281 0.000982 -0.001355 0.000819 0.002302
# 3 -0.004230 0.000982 0.009494 -0.004317 -0.003121 0.003865
# 4 0.001546 -0.001355 -0.004317 0.029845 0.005859 -0.004064
# 5 -0.002376 0.000819 -0.003121 0.005859 0.020649 0.004436
# 6 -0.002812 0.002302 0.003865 -0.004064 0.004436 0.026853
#
#
# Mechanical properties :
#
#
# Convention : Reuss Voigt Hill
#
# Bulk Modulus (GPa) = 71.12748 83.52938 77.32843
# Shear Modulus (GPa) = 42.14482 53.65360 47.89921
#
# Velocity S-wave (km/s) = 4.04735 4.56665 4.31482
# Velocity P-wave (km/s) = 7.03473 7.76352 7.40810
#
# Compressibility (1/GPa) = 0.01405926
#
# Stress axis : x y z
#
# Youngs Moduli (GPa) = 104.62848 159.21662 105.33353
#
# Poissons Ratio (x) = 0.38025 0.44558
# Poissons Ratio (y) = 0.24988 -0.10344
# Poissons Ratio (z) = 0.44259 -0.15635
#
# Static dielectric constant tensor:
#      x y z
#    x 2.047250 0.056090 0.006900 
#    y 0.056090 2.661830 0.403600 
#    z 0.006900 0.403600 2.392550 
# 
# From -- ./inp_files/173685.got.cif
#   From: 2010.05.17/outbox.cif.g08.bks.cpg/sg2_87_cif.got.tgz:173685.got - 2010.06.03 11:33:40.
