data_PCOD9067933
_publ_section_title
;
Structure prediction by ZEFSAII (Michael W. Deem and Ramdas Pophale) SiO2 
 PCOD9067933
Probable space group: P -1
;
_chemical_formula_sum "Si O2"
_cell_formula_units_Z 12
_cell_length_a 5.183645
_cell_length_b 4.873760
_cell_length_c 22.215492
_cell_angle_alpha 72.790124
_cell_angle_beta 56.291588
_cell_angle_gamma 87.605243
_cell_volume 440.659714
_symmetry_space_group_name_H-M "P -1"
_symmetry_group_IT_number 2
_symmetry_cell_setting 'triclinic'
loop_
_space_group_symop_operation_xyz
x,y,z
-x,-y,-z
loop_
_atom_site_type_symbol
_atom_site_label
_atom_site_fract_x
_atom_site_fract_y
_atom_site_fract_z
Si Si1 0.145024 0.407349 0.174708
Si Si2 0.888883 0.283305 0.341989
Si Si3 0.724774 0.194982 0.686325
Si Si4 0.699502 0.816327 0.146671
Si Si5 0.289516 0.188597 0.051712
Si Si6 0.777181 0.692589 0.551095
O O1 0.446312 0.613165 0.151308
O O2 0.942991 0.602703 0.149688
O O3 0.924157 0.265138 0.266653
O O4 0.243795 0.169493 0.131577
O O5 0.561572 0.208521 0.422770
O O6 0.002933 0.615939 0.322362
O O7 0.135243 0.070574 0.344422
O O8 0.462152 0.097643 0.776194
O O9 0.656153 0.446844 0.634047
O O10 0.938123 0.100694 0.075484
O O11 0.500000 0.500000 0.000000
O O12 0.500000 0.000000 0.000000
O O13 0.000000 0.500000 0.500000
O O14 0.000000 0.000000 0.500000
#
# Coordination Sequence:
#
# PCOD9067933 Si02
#       6
#     2   2   2   2   2   2
#     4  11  27  51  81 114 154 211 274 330 393 476
#     4  11  26  46  74 107 148 204 264 325 385 468
#     4  11  26  46  74 107 148 204 264 325 385 468
#     4  11  27  51  81 114 154 211 274 330 393 476
#     4  12  28  50  78 116 162 206 258 332 406 482
#     4  12  26  44  72 110 154 196 252 324 396 474
#
# _framework density 27.231895999999999
#
# number of rings (size 3 to 8) (size 9 to 14) (size 15 to 20)
#    0.000    0.667    3.333    2.000    9.333    6.667 
#    0.000    0.000    0.000    0.000    0.000    0.000 
#    0.000    0.000    0.000    0.000    0.000    0.000 
#
# Total GULP energy -67054.107507 kJ/mol
# GULP energy per Si atom -5587.842292 kJ/mol
# Density = 2.716992 g / cm^3
# Si number density = 27.231896 Si / 1000 Ang^3
#
#
#
# Elastic Constant Matrix: (Units=GPa)
#
#
# Indices 1 2 3 4 5 6 
#
# 1 118.2776 52.2848 53.9346 10.0109 -30.0495 8.5262
# 2 52.2848 198.1581 49.4027 7.0137 -39.1721 -3.3151
# 3 53.9346 49.4027 167.4489 9.0499 -46.1033 10.9976
# 4 10.0109 7.0137 9.0499 51.1297 -1.0703 -2.3347
# 5 -30.0495 -39.1721 -46.1033 -1.0703 68.6204 -8.2244
# 6 8.5262 -3.3151 10.9976 -2.3347 -8.2244 37.6160
#
#
#
# Elastic Compliance Matrix: (Units=1/GPa)
#
#
# Indices 1 2 3 4 5 6 
#
# 1 0.011106 -0.001944 -0.002256 -0.001543 0.002012 -0.001685
# 2 -0.001944 0.006246 -0.000630 -0.000235 0.002492 0.001705
# 3 -0.002256 -0.000630 0.008089 -0.000872 0.003942 -0.001101
# 4 -0.001543 -0.000235 -0.000872 0.020103 -0.000885 0.001638
# 5 0.002012 0.002492 0.003942 -0.000885 0.019858 0.002898
# 6 -0.001685 0.001705 -0.001101 0.001638 0.002898 0.028174
#
#
# Mechanical properties :
#
#
# Convention : Reuss Voigt Hill
#
# Bulk Modulus (GPa) = 63.36239 88.34766 75.85502
# Shear Modulus (GPa) = 46.08502 53.35739 49.72120
#
# Velocity S-wave (km/s) = 4.11824 4.43128 4.27763
# Velocity P-wave (km/s) = 6.77727 7.66125 7.23278
#
# Compressibility (1/GPa) = 0.01578223
#
# Stress axis : x y z
#
# Youngs Moduli (GPa) = 90.04312 160.10774 123.62406
#
# Poissons Ratio (x) = 0.31121 0.27884
# Poissons Ratio (y) = 0.17502 0.07787
# Poissons Ratio (z) = 0.20310 0.10085
#
# Static dielectric constant tensor:
#      x y z
#    x 2.183370 -0.019930 0.097770 
#    y -0.019930 2.070840 -0.020940 
#    z 0.097770 -0.020940 2.183110 
# 
# From -- ./inp_files/602726.got.cif
#   From: 2010.05.17/outbox.cif.g08.bks.cpg/sg2_302_cif.got.tgz:602726.got - 2010.06.03 11:33:40.
