data_PCOD9067176
_publ_section_title
;
Structure prediction by ZEFSAII (Michael W. Deem and Ramdas Pophale) SiO2 
 PCOD9067176
Probable space group: P -1
;
_chemical_formula_sum "Si O2"
_cell_formula_units_Z 14
_cell_length_a 8.304591
_cell_length_b 19.877192
_cell_length_c 9.046755
_cell_angle_alpha 38.177334
_cell_angle_beta 97.971909
_cell_angle_gamma 125.168116
_cell_volume 591.058086
_symmetry_space_group_name_H-M "P -1"
_symmetry_group_IT_number 2
_symmetry_cell_setting 'triclinic'
loop_
_space_group_symop_operation_xyz
x,y,z
-x,-y,-z
loop_
_atom_site_type_symbol
_atom_site_label
_atom_site_fract_x
_atom_site_fract_y
_atom_site_fract_z
Si Si1 0.679264 0.436252 0.754143
Si Si2 0.366700 0.023565 0.836539
Si Si3 0.131876 0.661275 0.649663
Si Si4 0.867453 0.818418 0.281432
Si Si5 0.007905 0.229557 0.334491
Si Si6 0.613556 0.940068 0.575771
Si Si7 0.354692 0.485132 0.688033
O O1 0.464497 0.418081 0.794488
O O2 0.768114 0.519023 0.460133
O O3 0.924588 0.574564 0.647918
O O4 0.558194 0.253824 0.075864
O O5 0.582079 0.224470 0.551721
O O6 0.330706 0.019355 0.661881
O O7 0.500000 0.000000 0.000000
O O8 0.084913 0.873334 0.118958
O O9 0.156000 0.773538 0.577144
O O10 0.000000 0.500000 0.000000
O O11 0.829368 0.747838 0.560135
O O12 0.605212 0.682440 0.403325
O O13 0.000000 0.000000 0.000000
O O14 0.169647 0.383632 0.977207
O O15 0.854573 0.064635 0.501110
O O16 0.500000 0.000000 0.500000
#
# Coordination Sequence:
#
# PCOD9067176 Si02
#       7
#     2   2   2   2   2   2   2
#     4  11  25  48  72 106 146 192 247 292 375 436
#     4  12  25  45  75 100 148 190 239 303 362 433
#     4  12  24  47  73 103 139 193 241 299 364 428
#     4  12  27  47  72 110 146 194 245 298 368 437
#     4  12  26  45  70 106 147 182 248 300 359 437
#     4  12  25  47  70 110 145 187 243 305 366 434
#     4  11  27  46  74 104 148 194 241 303 362 443
#
# _framework density 23.686333999999999
#
# number of rings (size 3 to 8) (size 9 to 14) (size 15 to 20)
#    0.000    0.286    5.714    1.286   10.000    0.571 
#    0.000    1.429    0.000    0.000    0.000    0.000 
#    0.000    0.000    0.000    0.000    0.000    0.000 
#
# Total GULP energy -78084.903403 kJ/mol
# GULP energy per Si atom -5577.493100 kJ/mol
# Density = 2.363242 g / cm^3
# Si number density = 23.686334 Si / 1000 Ang^3
#
#
#
# Elastic Constant Matrix: (Units=GPa)
#
#
# Indices 1 2 3 4 5 6 
#
# 1 30.0537 30.1932 18.8429 6.0615 9.9713 -7.4110
# 2 30.1932 186.0239 77.4109 13.1278 -0.5171 20.8489
# 3 18.8429 77.4109 160.6979 11.2641 0.3946 -13.5931
# 4 6.0615 13.1278 11.2641 63.7842 -1.7807 9.3368
# 5 9.9713 -0.5171 0.3946 -1.7807 39.5560 -7.5470
# 6 -7.4110 20.8489 -13.5931 9.3368 -7.5470 26.0529
#
#
#
# Elastic Compliance Matrix: (Units=1/GPa)
#
#
# Indices 1 2 3 4 5 6 
#
# 1 0.055661 -0.012539 0.002334 -0.007334 -0.009399 0.026992
# 2 -0.012539 0.011386 -0.005547 0.002218 0.000362 -0.016263
# 3 0.002334 -0.005547 0.009758 -0.002443 0.001316 0.011450
# 4 -0.007334 0.002218 -0.002443 0.018040 0.000530 -0.011448
# 5 -0.009399 0.000362 0.001316 0.000530 0.028786 0.005872
# 6 0.026992 -0.016263 0.011450 -0.011448 0.005872 0.070854
#
#
# Mechanical properties :
#
#
# Convention : Reuss Voigt Hill
#
# Bulk Modulus (GPa) = 22.07430 69.96328 46.01879
# Shear Modulus (GPa) = 20.73925 42.56718 31.65321
#
# Velocity S-wave (km/s) = 2.96223 4.24384 3.65958
# Velocity P-wave (km/s) = 4.58687 7.32224 6.10960
#
# Compressibility (1/GPa) = 0.04530155
#
# Stress axis : x y z
#
# Youngs Moduli (GPa) = 17.96579 87.82620 102.48383
#
# Poissons Ratio (x) = 1.10127 -0.23920
# Poissons Ratio (y) = 0.22528 0.56844
# Poissons Ratio (z) = -0.04193 0.48714
#
# Static dielectric constant tensor:
#      x y z
#    x 1.980310 -0.017120 -0.008900 
#    y -0.017120 1.913930 0.021130 
#    z -0.008900 0.021130 1.884250 
# 
# From -- ./inp_files/223048.got.cif
#   From: 2010.05.17/outbox.cif.g08.bks.cpg/sg2_112_cif.got.tgz:223048.got - 2010.06.03 11:33:40.
