data_PCOD9067138
_publ_section_title
;
Structure prediction by ZEFSAII (Michael W. Deem and Ramdas Pophale) SiO2 
 PCOD9067138
Probable space group: P -1
;
_chemical_formula_sum "Si O2"
_cell_formula_units_Z 14
_cell_length_a 16.016834
_cell_length_b 22.869779
_cell_length_c 13.395086
_cell_angle_alpha 154.710864
_cell_angle_beta 25.613736
_cell_angle_gamma 161.906896
_cell_volume 617.022847
_symmetry_space_group_name_H-M "P -1"
_symmetry_group_IT_number 2
_symmetry_cell_setting 'triclinic'
loop_
_space_group_symop_operation_xyz
x,y,z
-x,-y,-z
loop_
_atom_site_type_symbol
_atom_site_label
_atom_site_fract_x
_atom_site_fract_y
_atom_site_fract_z
Si Si1 0.852371 0.640218 0.651010
Si Si2 0.716744 0.480986 0.120702
Si Si3 0.388877 0.034036 0.763376
Si Si4 0.173917 0.373695 0.569239
Si Si5 0.867116 0.335123 0.222282
Si Si6 0.394639 0.046608 0.423599
Si Si7 0.402710 0.554342 0.102857
O O1 0.931144 0.651013 0.467910
O O2 0.055976 0.849003 0.814264
O O3 0.857936 0.495733 0.474460
O O4 0.554408 0.563389 0.858365
O O5 0.495889 0.491127 0.385947
O O6 0.820296 0.515100 0.175784
O O7 0.978186 0.631625 0.994938
O O8 0.523255 0.252109 0.945359
O O9 0.479227 0.009531 0.730792
O O10 0.500000 0.000000 0.500000
O O11 0.944756 0.144381 0.503537
O O12 0.074835 0.397800 0.185317
O O13 0.553064 0.124427 0.266166
O O14 0.484907 0.236632 0.670218
O O15 0.500000 0.500000 0.000000
#
# Coordination Sequence:
#
# PCOD9067138 Si02
#       7
#     2   2   2   2   2   2   2
#     4  12  23  42  71 104 137 184 228 282 347 401
#     4  11  25  48  69  99 143 182 238 282 336 418
#     4  12  22  40  69 104 135 176 231 287 334 410
#     4  11  26  45  71 100 138 192 229 281 346 406
#     4  12  24  42  69 103 138 178 229 284 341 414
#     4  12  24  41  67 105 140 178 230 283 352 404
#     4  12  23  40  68 102 144 178 221 288 348 402
#
# _framework density 22.689598
#
# number of rings (size 3 to 8) (size 9 to 14) (size 15 to 20)
#    0.000    0.286    7.143    2.143    0.000    4.000 
#    0.000    0.000    0.000    4.286    0.000    0.000 
#    0.000    0.000    0.000    0.000    0.000    0.000 
#
# Total GULP energy -78201.629519 kJ/mol
# GULP energy per Si atom -5585.830680 kJ/mol
# Density = 2.263796 g / cm^3
# Si number density = 22.689598 Si / 1000 Ang^3
#
#
#
# Elastic Constant Matrix: (Units=GPa)
#
#
# Indices 1 2 3 4 5 6 
#
# 1 88.5255 19.1942 29.1421 -5.0482 8.9940 -17.2572
# 2 19.1942 85.7492 15.1337 -27.6709 9.7879 -16.3173
# 3 29.1421 15.1337 61.8058 -26.6183 18.1577 -8.3951
# 4 -5.0482 -27.6709 -26.6183 40.9064 1.0167 4.9336
# 5 8.9940 9.7879 18.1577 1.0167 41.0774 -7.0912
# 6 -17.2572 -16.3173 -8.3951 4.9336 -7.0912 34.5962
#
#
#
# Elastic Compliance Matrix: (Units=1/GPa)
#
#
# Indices 1 2 3 4 5 6 
#
# 1 0.015653 -0.003517 -0.009931 -0.007637 0.002927 0.005429
# 2 -0.003517 0.017845 0.006197 0.015233 -0.005768 0.004812
# 3 -0.009931 0.006197 0.035195 0.026308 -0.015586 -0.000437
# 4 -0.007637 0.015233 0.026308 0.051375 -0.014968 -0.000635
# 5 0.002927 -0.005768 -0.015586 -0.014968 0.033004 0.003857
# 6 0.005429 0.004812 -0.000437 -0.000635 0.003857 0.034657
#
#
# Mechanical properties :
#
#
# Convention : Reuss Voigt Hill
#
# Bulk Modulus (GPa) = 18.45295 40.33562 29.39429
# Shear Modulus (GPa) = 22.69691 34.82338 28.76014
#
# Velocity S-wave (km/s) = 3.16622 3.92187 3.56413
# Velocity P-wave (km/s) = 4.63864 6.19062 5.46996
#
# Compressibility (1/GPa) = 0.05419187
#
# Stress axis : x y z
#
# Youngs Moduli (GPa) = 63.88423 56.03862 28.41324
#
# Poissons Ratio (x) = 0.19706 0.28217
# Poissons Ratio (y) = 0.22465 -0.17608
# Poissons Ratio (z) = 0.63444 -0.34727
#
# Static dielectric constant tensor:
#      x y z
#    x 1.911590 0.004180 0.038800 
#    y 0.004180 1.925100 -0.082750 
#    z 0.038800 -0.082750 1.838700 
# 
# From -- ./inp_files/258436.got.cif
#   From: 2010.05.17/outbox.cif.g08.bks.cpg/sg2_130_cif.got.tgz:258436.got - 2010.06.03 11:33:40.
