data_PCOD9067362
_publ_section_title
;
Structure prediction by ZEFSAII (Michael W. Deem and Ramdas Pophale) SiO2 
 PCOD9067362
Probable space group: P -1
;
_chemical_formula_sum "Si O2"
_cell_formula_units_Z 16
_cell_length_a 9.648285
_cell_length_b 6.713805
_cell_length_c 18.363958
_cell_angle_alpha 137.940202
_cell_angle_beta 89.781430
_cell_angle_gamma 84.318265
_cell_volume 787.623953
_symmetry_space_group_name_H-M "P -1"
_symmetry_group_IT_number 2
_symmetry_cell_setting 'triclinic'
loop_
_space_group_symop_operation_xyz
x,y,z
-x,-y,-z
loop_
_atom_site_type_symbol
_atom_site_label
_atom_site_fract_x
_atom_site_fract_y
_atom_site_fract_z
Si Si1 0.736686 0.144267 0.850688
Si Si2 0.992935 0.904370 0.686052
Si Si3 0.368374 0.241198 0.586378
Si Si4 0.470618 0.883309 0.763330
Si Si5 0.616055 0.811372 0.001173
Si Si6 0.159968 0.891809 0.991832
Si Si7 0.921064 0.776720 0.485871
Si Si8 0.737389 0.768385 0.251044
O O1 0.631776 0.454938 0.918631
O O2 0.868337 0.096918 0.783403
O O3 0.637065 0.889305 0.770257
O O4 0.798608 0.140271 0.931517
O O5 0.947490 0.849230 0.589010
O O6 0.022103 0.569578 0.628666
O O7 0.134272 0.053660 0.721737
O O8 0.422074 0.561100 0.668080
O O9 0.243535 0.195597 0.520223
O O10 0.302550 0.212274 0.658828
O O11 0.500000 0.000000 0.500000
O O12 0.399796 0.085763 0.752853
O O13 0.406103 0.031004 0.878146
O O14 0.500000 0.000000 0.000000
O O15 0.758874 0.860872 0.976639
O O16 0.216222 0.573819 0.867325
O O17 0.000000 0.000000 0.000000
O O18 0.000000 0.000000 0.500000
#
# Coordination Sequence:
#
# PCOD9067362 Si02
#       8
#     2   2   2   2   2   2   2   2
#     4  12  28  44  71 111 145 188 240 289 353 436
#     4  11  27  45  72 102 141 185 236 294 359 424
#     4  12  29  46  74 105 137 186 246 298 354 424
#     4  12  26  46  71  99 147 185 236 294 357 415
#     4  12  24  46  70 102 144 194 235 285 357 425
#     4  12  27  43  73 107 148 189 236 287 353 432
#     4  11  25  49  71  97 140 187 236 297 360 412
#     4  12  25  48  71 104 142 188 230 299 356 421
#
# _framework density 20.314261999999999
#
# number of rings (size 3 to 8) (size 9 to 14) (size 15 to 20)
#    0.000    0.250    6.250    1.875    7.000    2.500 
#    0.000    0.000    0.000    0.000    0.000    0.000 
#    0.000    0.000    0.000    0.000    0.000    0.000 
#
# Total GULP energy -89462.995628 kJ/mol
# GULP energy per Si atom -5591.437227 kJ/mol
# Density = 2.026803 g / cm^3
# Si number density = 20.314262 Si / 1000 Ang^3
#
#
#
# Elastic Constant Matrix: (Units=GPa)
#
#
# Indices 1 2 3 4 5 6 
#
# 1 142.5274 28.2700 21.0850 7.2002 10.3075 -2.1780
# 2 28.2700 71.5632 5.0378 14.6557 7.5293 2.8576
# 3 21.0850 5.0378 60.6167 14.8850 -0.3719 3.1936
# 4 7.2002 14.6557 14.8850 32.7832 -0.2078 5.8748
# 5 10.3075 7.5293 -0.3719 -0.2078 37.8561 0.4806
# 6 -2.1780 2.8576 3.1936 5.8748 0.4806 38.8465
#
#
#
# Elastic Compliance Matrix: (Units=1/GPa)
#
#
# Indices 1 2 3 4 5 6 
#
# 1 0.008124 -0.003010 -0.002794 0.000672 -0.001648 0.000825
# 2 -0.003010 0.016880 0.001493 -0.007514 -0.002560 -0.000365
# 3 -0.002794 0.001493 0.019545 -0.008826 0.000614 -0.000546
# 4 0.000672 -0.007514 -0.008826 0.038544 0.001494 -0.004532
# 5 -0.001648 -0.002560 0.000614 0.001494 0.027394 -0.000519
# 6 0.000825 -0.000365 -0.000546 -0.004532 -0.000519 0.026552
#
#
# Mechanical properties :
#
#
# Convention : Reuss Voigt Hill
#
# Bulk Modulus (GPa) = 27.83466 42.61032 35.22249
# Shear Modulus (GPa) = 31.71812 36.58480 34.15146
#
# Velocity S-wave (km/s) = 3.95571 4.24835 4.10464
# Velocity P-wave (km/s) = 5.88177 6.71459 6.31193
#
# Compressibility (1/GPa) = 0.03592643
#
# Stress axis : x y z
#
# Youngs Moduli (GPa) = 123.08547 59.24083 51.16427
#
# Poissons Ratio (x) = 0.17831 0.14297
# Poissons Ratio (y) = 0.37047 -0.07637
# Poissons Ratio (z) = 0.34395 -0.08843
#
# Static dielectric constant tensor:
#      x y z
#    x 1.696940 -0.004330 0.037410 
#    y -0.004330 1.737810 0.010820 
#    z 0.037410 0.010820 1.719450 
# 
# From -- ./inp_files/81636.got.cif
#   From: 2010.05.17/outbox.cif.g08.bks.cpg/sg2_41_cif.got.tgz:81636.got - 2010.06.03 11:33:40.
