data_PCOD9067682
_publ_section_title
;
Structure prediction by ZEFSAII (Michael W. Deem and Ramdas Pophale) SiO2 
 PCOD9067682
Probable space group: P -1
;
_chemical_formula_sum "Si O2"
_cell_formula_units_Z 10
_cell_length_a 11.680482
_cell_length_b 10.259604
_cell_length_c 14.097290
_cell_angle_alpha 130.838290
_cell_angle_beta 158.753869
_cell_angle_gamma 45.583300
_cell_volume 437.258676
_symmetry_space_group_name_H-M "P -1"
_symmetry_group_IT_number 2
_symmetry_cell_setting 'triclinic'
loop_
_space_group_symop_operation_xyz
x,y,z
-x,-y,-z
loop_
_atom_site_type_symbol
_atom_site_label
_atom_site_fract_x
_atom_site_fract_y
_atom_site_fract_z
Si Si1 0.214989 0.102924 0.445980
Si Si2 0.228793 0.906688 0.721295
Si Si3 0.388402 0.394217 0.251863
Si Si4 0.307922 0.284718 0.332393
Si Si5 0.318946 0.675642 0.012263
O O1 0.998465 0.092394 0.365038
O O2 0.945399 0.179788 0.191673
O O3 0.471121 0.898133 0.529997
O O4 0.419602 0.238924 0.697336
O O5 0.449371 0.705748 0.764784
O O6 0.000000 0.000000 0.500000
O O7 0.500000 0.000000 0.000000
O O8 0.395350 0.248125 0.270818
O O9 0.572858 0.540918 0.480528
O O10 0.000000 0.500000 0.000000
O O11 0.926640 0.345913 0.103258
O O12 0.500000 0.500000 0.000000
#
# Coordination Sequence:
#
# PCOD9067682 Si02
#       5
#     2   2   2   2   2
#     4  12  26  47  74 103 141 186 236 288 351 423
#     4  12  25  46  72 104 143 182 237 287 350 415
#     4  11  26  43  74 103 146 185 234 296 344 422
#     4  11  26  46  69 108 141 188 236 286 357 412
#     4  12  28  47  73 102 144 186 235 292 349 422
#
# _framework density 22.869758000000001
#
# number of rings (size 3 to 8) (size 9 to 14) (size 15 to 20)
#    0.000    0.400    2.000    5.400   11.200    0.000 
#    0.000    0.000    0.000    0.000    0.000    0.000 
#    0.000    0.000    0.000    0.000    0.000    0.000 
#
# Total GULP energy -55924.614449 kJ/mol
# GULP energy per Si atom -5592.461445 kJ/mol
# Density = 2.281771 g / cm^3
# Si number density = 22.869758 Si / 1000 Ang^3
#
#
#
# Elastic Constant Matrix: (Units=GPa)
#
#
# Indices 1 2 3 4 5 6 
#
# 1 93.2099 7.3066 23.2949 3.8560 41.2708 -9.9388
# 2 7.3066 74.4946 0.0970 -13.7071 11.7069 -7.9907
# 3 23.2949 0.0970 126.5029 13.7055 28.1224 12.8605
# 4 3.8560 -13.7071 13.7055 42.6972 7.6948 2.0614
# 5 41.2708 11.7069 28.1224 7.6948 55.4474 -9.8387
# 6 -9.9388 -7.9907 12.8605 2.0614 -9.8387 46.4034
#
#
#
# Elastic Compliance Matrix: (Units=1/GPa)
#
#
# Indices 1 2 3 4 5 6 
#
# 1 0.016116 0.000572 -0.000582 0.000975 -0.011747 0.001177
# 2 0.000572 0.015198 0.000045 0.005480 -0.004132 0.001608
# 3 -0.000582 0.000045 0.009694 -0.001984 -0.004883 -0.003751
# 4 0.000975 0.005480 -0.001984 0.026589 -0.004649 -0.000465
# 5 -0.011747 -0.004132 -0.004883 -0.004649 0.031669 0.005047
# 6 0.001177 0.001608 -0.003751 -0.000465 0.005047 0.024209
#
#
# Mechanical properties :
#
#
# Convention : Reuss Voigt Hill
#
# Bulk Modulus (GPa) = 24.34484 39.51159 31.92821
# Shear Modulus (GPa) = 36.47034 46.47685 41.47359
#
# Velocity S-wave (km/s) = 3.99770 4.51293 4.26310
# Velocity P-wave (km/s) = 5.65481 6.66856 6.18250
#
# Compressibility (1/GPa) = 0.04107647
#
# Stress axis : x y z
#
# Youngs Moduli (GPa) = 62.05142 65.79880 103.15793
#
# Poissons Ratio (x) = -0.03763 0.06003
# Poissons Ratio (y) = -0.03549 -0.00459
# Poissons Ratio (z) = 0.03611 -0.00293
#
# Static dielectric constant tensor:
#      x y z
#    x 1.935660 0.008530 -0.089580 
#    y 0.008530 1.909580 -0.017580 
#    z -0.089580 -0.017580 1.812690 
# 
# From -- ./inp_files/15181.got.cif
#   From: 2010.05.17/outbox.cif.g08.bks.cpg/sg2_8_cif.got.tgz:15181.got - 2010.06.03 11:33:40.
