data_PCOD9067383
_publ_section_title
;
Structure prediction by ZEFSAII (Michael W. Deem and Ramdas Pophale) SiO2 
 PCOD9067383
Probable space group: P -1
;
_chemical_formula_sum "Si O2"
_cell_formula_units_Z 16
_cell_length_a 8.811151
_cell_length_b 10.816716
_cell_length_c 14.719226
_cell_angle_alpha 143.515399
_cell_angle_beta 46.882413
_cell_angle_gamma 114.346787
_cell_volume 577.627244
_symmetry_space_group_name_H-M "P -1"
_symmetry_group_IT_number 2
_symmetry_cell_setting 'triclinic'
loop_
_space_group_symop_operation_xyz
x,y,z
-x,-y,-z
loop_
_atom_site_type_symbol
_atom_site_label
_atom_site_fract_x
_atom_site_fract_y
_atom_site_fract_z
Si Si1 0.432021 0.360301 0.268064
Si Si2 0.595286 0.505751 0.836888
Si Si3 0.211368 0.118755 0.968711
Si Si4 0.618755 0.711368 0.561324
Si Si5 0.139698 0.067980 0.160217
Si Si6 0.994250 0.904714 0.573577
Si Si7 0.304986 0.241782 0.824848
Si Si8 0.741782 0.804986 0.388052
O O1 0.437882 0.509649 0.268163
O O2 0.378705 0.437926 0.439897
O O3 0.238445 0.261555 0.261555
O O4 0.655723 0.155722 0.055940
O O5 0.634048 0.733344 0.977292
O O6 0.819612 0.319612 0.657728
O O7 0.397778 0.442476 0.925608
O O8 0.062073 0.121295 0.119324
O O9 0.141539 0.211893 0.951808
O O10 0.376644 0.876643 0.750209
O O11 0.711893 0.641538 0.381453
O O12 0.766657 0.865952 0.622004
O O13 0.990351 0.062119 0.303604
O O14 0.057525 0.102223 0.619090
O O15 0.222015 0.277986 0.777986
O O16 0.520009 0.020009 0.607283
#
# Coordination Sequence:
#
# PCOD9067383 Si02
#       8
#     2   2   2   2   2   2   2   2
#     4   8  15  28  46  68  93 121 151 183 223 273
#     4  10  18  28  48  74  95 117 148 192 235 266
#     4   9  17  31  51  70  90 121 156 187 223 272
#     4   9  17  31  51  70  90 121 156 187 223 272
#     4   8  15  28  46  68  93 121 151 183 223 273
#     4  10  18  28  48  74  95 117 148 192 235 266
#     4   9  18  32  48  67  92 123 158 190 223 269
#     4   9  18  32  48  67  92 123 158 190 223 269
#
# _framework density 27.699522999999999
#
# number of rings (size 3 to 8) (size 9 to 14) (size 15 to 20)
#    0.000    3.000    0.000    3.000    0.000    4.500 
#    0.000    2.500    0.000    6.750    0.000    0.000 
#    0.000    0.000    0.000    0.000    0.000    0.000 
#
# Total GULP energy -89530.517941 kJ/mol
# GULP energy per Si atom -5595.657371 kJ/mol
# Density = 2.763648 g / cm^3
# Si number density = 27.699523 Si / 1000 Ang^3
#
#
#
# Elastic Constant Matrix: (Units=GPa)
#
#
# Indices 1 2 3 4 5 6 
#
# 1 106.9562 27.1677 39.8280 -7.9217 15.8769 -17.9997
# 2 27.1677 182.5591 38.7465 -39.4665 3.9748 -8.8950
# 3 39.8280 38.7465 98.5883 -2.2175 4.1349 -14.4608
# 4 -7.9217 -39.4665 -2.2175 43.1793 -13.4506 18.7607
# 5 15.8769 3.9748 4.1349 -13.4506 45.3632 -15.7442
# 6 -17.9997 -8.8950 -14.4608 18.7607 -15.7442 51.4759
#
#
#
# Elastic Compliance Matrix: (Units=1/GPa)
#
#
# Indices 1 2 3 4 5 6 
#
# 1 0.011849 -0.000915 -0.003991 -0.000809 -0.003185 0.002185
# 2 -0.000915 0.007919 -0.002968 0.008442 0.001574 -0.002381
# 3 -0.003991 -0.002968 0.013320 -0.004137 0.000420 0.003470
# 4 -0.000809 0.008442 -0.004137 0.037755 0.007098 -0.011575
# 5 -0.003185 0.001574 0.000420 0.007098 0.026781 0.004881
# 6 0.002185 -0.002381 0.003470 -0.011575 0.004881 0.026465
#
#
# Mechanical properties :
#
#
# Convention : Reuss Voigt Hill
#
# Bulk Modulus (GPa) = 57.67275 66.62087 62.14681
# Shear Modulus (GPa) = 34.33668 46.82779 40.58223
#
# Velocity S-wave (km/s) = 3.52463 4.11611 3.83180
# Velocity P-wave (km/s) = 6.11801 6.83325 6.48550
#
# Compressibility (1/GPa) = 0.01733921
#
# Stress axis : x y z
#
# Youngs Moduli (GPa) = 84.39666 126.28654 75.07418
#
# Poissons Ratio (x) = 0.11559 0.29963
# Poissons Ratio (y) = 0.07725 0.22279
# Poissons Ratio (z) = 0.33684 0.37477
#
# Static dielectric constant tensor:
#      x y z
#    x 2.236070 0.001430 0.143410 
#    y 0.001430 2.146190 -0.055620 
#    z 0.143410 -0.055620 2.042200 
# 
# From -- ./inp_files/186094.got.cif
#   From: 2010.05.17/outbox.cif.g08.bks.cpg/sg2_94_cif.got.tgz:186094.got - 2010.06.03 11:33:40.
