data_PCOD9067457
_publ_section_title
;
Structure prediction by ZEFSAII (Michael W. Deem and Ramdas Pophale) SiO2 
 PCOD9067457
Probable space group: P -1
;
_chemical_formula_sum "Si O2"
_cell_formula_units_Z 16
_cell_length_a 11.232761
_cell_length_b 17.997626
_cell_length_c 9.862166
_cell_angle_alpha 41.212611
_cell_angle_beta 139.875297
_cell_angle_gamma 148.234459
_cell_volume 645.026143
_symmetry_space_group_name_H-M "P -1"
_symmetry_group_IT_number 2
_symmetry_cell_setting 'triclinic'
loop_
_space_group_symop_operation_xyz
x,y,z
-x,-y,-z
loop_
_atom_site_type_symbol
_atom_site_label
_atom_site_fract_x
_atom_site_fract_y
_atom_site_fract_z
Si Si1 0.034537 0.378250 0.035258
Si Si2 0.485836 0.418302 0.465829
Si Si3 0.222850 0.850020 0.116251
Si Si4 0.728925 0.852281 0.934630
Si Si5 0.231697 0.706306 0.795047
Si Si6 0.769147 0.885643 0.325797
Si Si7 0.907427 0.683211 0.333914
Si Si8 0.287916 0.069360 0.484626
O O1 0.256524 0.377621 0.241440
O O2 0.892346 0.324978 0.126353
O O3 0.151551 0.549668 0.886103
O O4 0.855939 0.260316 0.926043
O O5 0.500000 0.500000 0.500000
O O6 0.449956 0.278813 0.683725
O O7 0.740914 0.726068 0.151063
O O8 0.280999 0.489196 0.555435
O O9 0.492467 0.926978 0.297149
O O10 0.031035 0.745507 0.210816
O O11 0.520910 0.829553 0.870421
O O12 0.665384 0.847228 0.728562
O O13 0.217260 0.979224 0.891847
O O14 0.000000 0.000000 0.000000
O O15 0.121589 0.754655 0.530103
O O16 0.742728 0.871072 0.486024
O O17 0.011102 0.917973 0.440034
#
# Coordination Sequence:
#
# PCOD9067457 Si02
#       8
#     2   2   2   2   2   2   2   2
#     4  11  26  48  83 117 157 210 263 325 392 474
#     4  12  27  49  80 114 161 209 262 319 397 469
#     4  12  27  51  82 118 156 206 267 324 393 467
#     4  12  28  50  79 113 158 210 264 324 393 471
#     4  11  26  52  75 119 160 204 264 325 397 464
#     4  11  27  49  77 115 160 204 262 327 390 470
#     4  12  27  50  78 114 156 206 258 326 392 461
#     4  11  25  49  78 112 154 208 263 319 395 462
#
# _framework density 24.805195999999999
#
# number of rings (size 3 to 8) (size 9 to 14) (size 15 to 20)
#    0.000    0.500    5.000    1.875    3.500    5.500 
#    4.500    0.000    0.000    0.000    0.000    0.000 
#    0.000    0.000    0.000    0.000    0.000    0.000 
#
# Total GULP energy -89653.933323 kJ/mol
# GULP energy per Si atom -5603.370833 kJ/mol
# Density = 2.474874 g / cm^3
# Si number density = 24.805196 Si / 1000 Ang^3
#
#
#
# Elastic Constant Matrix: (Units=GPa)
#
#
# Indices 1 2 3 4 5 6 
#
# 1 118.0814 52.7162 55.7915 -2.7439 -1.7845 20.4558
# 2 52.7162 119.9469 47.8715 -16.0288 7.0497 13.9090
# 3 55.7915 47.8715 149.1514 11.4190 -0.1555 3.8120
# 4 -2.7439 -16.0288 11.4190 31.6630 18.3414 5.9918
# 5 -1.7845 7.0497 -0.1555 18.3414 50.0578 9.7965
# 6 20.4558 13.9090 3.8120 5.9918 9.7965 52.0003
#
#
#
# Elastic Compliance Matrix: (Units=1/GPa)
#
#
# Indices 1 2 3 4 5 6 
#
# 1 0.012449 -0.003738 -0.003368 0.000187 0.001671 -0.003987
# 2 -0.003738 0.013719 -0.003868 0.011911 -0.006020 -0.002154
# 3 -0.003368 -0.003868 0.009759 -0.007851 0.002941 0.001994
# 4 0.000187 0.011911 -0.007851 0.053089 -0.020168 -0.005002
# 5 0.001671 -0.006020 0.002941 -0.020168 0.028744 -0.002354
# 6 -0.003987 -0.002154 0.001994 -0.005002 -0.002354 0.022249
#
#
# Mechanical properties :
#
#
# Convention : Reuss Voigt Hill
#
# Bulk Modulus (GPa) = 71.53456 77.77090 74.65273
# Shear Modulus (GPa) = 30.00923 42.13092 36.07007
#
# Velocity S-wave (km/s) = 3.48199 4.12572 3.81745
# Velocity P-wave (km/s) = 6.71318 7.35637 7.04212
#
# Compressibility (1/GPa) = 0.01397926
#
# Stress axis : x y z
#
# Youngs Moduli (GPa) = 80.32774 72.89218 102.47092
#
# Poissons Ratio (x) = 0.27248 0.34508
# Poissons Ratio (y) = 0.30028 0.39636
# Poissons Ratio (z) = 0.27051 0.28195
#
# Static dielectric constant tensor:
#      x y z
#    x 1.910730 -0.020290 0.017010 
#    y -0.020290 2.095890 0.015310 
#    z 0.017010 0.015310 1.975740 
# 
# From -- ./inp_files/282931.got.cif
#   From: 2010.05.17/outbox.cif.g08.bks.cpg/sg2_142_cif.got.tgz:282931.got - 2010.06.03 11:33:40.
