data_PCOD9067434
_publ_section_title
;
Structure prediction by ZEFSAII (Michael W. Deem and Ramdas Pophale) SiO2 
 PCOD9067434
Probable space group: P -1
;
_chemical_formula_sum "Si O2"
_cell_formula_units_Z 12
_cell_length_a 8.900857
_cell_length_b 12.636538
_cell_length_c 5.383759
_cell_angle_alpha 90.002380
_cell_angle_beta 121.687053
_cell_angle_gamma 73.849749
_cell_volume 486.972520
_symmetry_space_group_name_H-M "P -1"
_symmetry_group_IT_number 2
_symmetry_cell_setting 'triclinic'
loop_
_space_group_symop_operation_xyz
x,y,z
-x,-y,-z
loop_
_atom_site_type_symbol
_atom_site_label
_atom_site_fract_x
_atom_site_fract_y
_atom_site_fract_z
Si Si1 0.591076 0.622930 0.856687
Si Si2 0.532655 0.927770 0.278521
Si Si3 0.161823 0.238340 0.714168
Si Si4 0.665132 0.230092 0.718370
Si Si5 0.975179 0.071952 0.727921
Si Si6 0.219388 0.623981 0.834715
O O1 0.514968 0.666987 0.518308
O O2 0.404101 0.623084 0.841611
O O3 0.691230 0.708142 0.045259
O O4 0.733110 0.497788 0.002331
O O5 0.737329 0.835329 0.435347
O O6 0.392182 0.856785 0.164452
O O7 0.500000 0.000000 0.500000
O O8 0.500000 0.000000 0.000000
O O9 0.110022 0.146891 0.835186
O O10 0.969780 0.335961 0.485790
O O11 0.766328 0.160347 0.567661
O O12 0.802361 0.282118 0.975500
O O13 0.000000 0.000000 0.500000
O O14 0.000000 0.000000 0.000000
#
# Coordination Sequence:
#
# PCOD9067434 Si02
#       6
#     2   2   2   2   2   2
#     4  11  25  49  76 112 154 200 256 325 390 456
#     4  12  27  47  76 115 155 203 261 319 383 465
#     4  12  25  50  80 114 148 206 259 314 386 470
#     4  12  25  48  74 108 158 202 249 318 398 448
#     4  12  27  47  76 115 155 203 261 319 383 465
#     4  11  25  49  76 112 154 200 256 325 390 456
#
# _framework density 24.642046000000001
#
# number of rings (size 3 to 8) (size 9 to 14) (size 15 to 20)
#    0.000    0.333    3.333    5.000    0.000    4.000 
#    0.000    1.667    0.000    0.000    0.000    0.000 
#    0.000    0.000    0.000    0.000    0.000    0.000 
#
# Total GULP energy -67259.793276 kJ/mol
# GULP energy per Si atom -5604.982773 kJ/mol
# Density = 2.458596 g / cm^3
# Si number density = 24.642046 Si / 1000 Ang^3
#
#
#
# Elastic Constant Matrix: (Units=GPa)
#
#
# Indices 1 2 3 4 5 6 
#
# 1 107.5943 39.9196 15.8865 -2.4552 0.8196 6.7488
# 2 39.9196 90.3078 3.6547 -10.6882 -14.7466 20.4014
# 3 15.8865 3.6547 76.5517 -8.0662 -1.6052 13.0036
# 4 -2.4552 -10.6882 -8.0662 41.2979 -1.7336 1.0400
# 5 0.8196 -14.7466 -1.6052 -1.7336 46.6100 -3.9168
# 6 6.7488 20.4014 13.0036 1.0400 -3.9168 46.7820
#
#
#
# Elastic Compliance Matrix: (Units=1/GPa)
#
#
# Indices 1 2 3 4 5 6 
#
# 1 0.011779 -0.005955 -0.002611 -0.001477 -0.002112 0.001480
# 2 -0.005955 0.016491 0.002175 0.004716 0.005016 -0.006622
# 3 -0.002611 0.002175 0.014672 0.003431 0.000977 -0.004645
# 4 -0.001477 0.004716 0.003431 0.026196 0.002343 -0.003184
# 5 -0.002112 0.005016 0.000977 0.002343 0.023177 -0.000266
# 6 0.001480 -0.006622 -0.004645 -0.003184 -0.000266 0.025390
#
#
# Mechanical properties :
#
#
# Convention : Reuss Voigt Hill
#
# Bulk Modulus (GPa) = 33.15629 43.70840 38.43235
# Shear Modulus (GPa) = 35.57732 41.27084 38.42408
#
# Velocity S-wave (km/s) = 3.80381 4.09689 3.95307
# Velocity P-wave (km/s) = 5.72507 6.33681 6.03869
#
# Compressibility (1/GPa) = 0.03016019
#
# Stress axis : x y z
#
# Youngs Moduli (GPa) = 84.89919 60.64030 68.15626
#
# Poissons Ratio (x) = 0.36110 0.17798
# Poissons Ratio (y) = 0.50556 -0.14827
# Poissons Ratio (z) = 0.22170 -0.13192
#
# Static dielectric constant tensor:
#      x y z
#    x 1.985050 -0.044000 0.005180 
#    y -0.044000 1.960000 -0.026590 
#    z 0.005180 -0.026590 1.953330 
# 
# From -- ./inp_files/27984.got.cif
#   From: 2010.05.17/outbox.cif.g08.bks.cpg/sg2_14_cif.got.tgz:27984.got - 2010.06.03 11:33:40.
