data_PCOD9067835
_publ_section_title
;
Structure prediction by ZEFSAII (Michael W. Deem and Ramdas Pophale) SiO2 
 PCOD9067835
Probable space group: P -1
;
_chemical_formula_sum "Si O2"
_cell_formula_units_Z 13
_cell_length_a 6.844732
_cell_length_b 13.830129
_cell_length_c 9.309267
_cell_angle_alpha 39.626900
_cell_angle_beta 95.431064
_cell_angle_gamma 81.640883
_cell_volume 525.420481
_symmetry_space_group_name_H-M "P -1"
_symmetry_group_IT_number 2
_symmetry_cell_setting 'triclinic'
loop_
_space_group_symop_operation_xyz
x,y,z
-x,-y,-z
loop_
_atom_site_type_symbol
_atom_site_label
_atom_site_fract_x
_atom_site_fract_y
_atom_site_fract_z
Si Si1 0.439220 0.423641 0.271697
Si Si2 0.761897 0.888998 0.586224
Si Si3 0.755968 0.972014 0.183824
Si Si4 0.155612 0.836440 0.538526
Si Si5 0.700409 0.635289 0.066744
Si Si6 0.000000 0.500000 0.000000
Si Si7 0.619200 0.730415 0.268086
O O1 0.244933 0.433325 0.149808
O O2 0.645583 0.285665 0.382788
O O3 0.499199 0.583719 0.086239
O O4 0.398393 0.386736 0.473904
O O5 0.660624 0.932218 0.373604
O O6 0.791364 0.042787 0.487242
O O7 0.668386 0.804582 0.793054
O O8 0.735856 0.846564 0.208620
O O9 0.992096 0.940883 0.287237
O O10 0.615225 0.149140 0.924392
O O11 0.999173 0.762848 0.703203
O O12 0.722901 0.648255 0.223300
O O13 0.908612 0.515216 0.146399
#
# Coordination Sequence:
#
# PCOD9067835 Si02
#       7
#     2   2   2   2   2   1   2
#     4  12  28  51  74 111 154 203 251 315 378 457
#     4   9  21  46  83 117 146 195 263 314 373 448
#     4   9  22  47  74 117 150 196 248 313 378 448
#     4   9  22  46  82 113 152 195 259 317 373 443
#     4  12  27  49  78 110 153 204 248 317 375 454
#     4  12  30  50  78 104 150 202 266 308 370 442
#     4  11  26  45  75 114 160 196 247 311 389 450
#
# _framework density 24.742089
#
# number of rings (size 3 to 8) (size 9 to 14) (size 15 to 20)
#    0.923    0.615    0.000    2.769    8.615    3.077 
#    2.769    0.000    0.000    0.923    0.000    0.000 
#    0.000    0.000    0.000    0.000    0.000    0.000 
#
# Total GULP energy -72648.217444 kJ/mol
# GULP energy per Si atom -5588.324419 kJ/mol
# Density = 2.468577 g / cm^3
# Si number density = 24.742089 Si / 1000 Ang^3
#
#
#
# Elastic Constant Matrix: (Units=GPa)
#
#
# Indices 1 2 3 4 5 6 
#
# 1 123.5936 63.8522 49.2522 13.6809 6.2396 -12.4566
# 2 63.8522 168.0354 35.4979 46.0509 -4.2124 -7.3364
# 3 49.2522 35.4979 139.6859 29.0516 -6.6217 -2.0725
# 4 13.6809 46.0509 29.0516 39.3667 -0.6695 -0.4839
# 5 6.2396 -4.2124 -6.6217 -0.6695 48.5984 -2.1561
# 6 -12.4566 -7.3364 -2.0725 -0.4839 -2.1561 34.0766
#
#
#
# Elastic Compliance Matrix: (Units=1/GPa)
#
#
# Indices 1 2 3 4 5 6 
#
# 1 0.012182 -0.004941 -0.004048 0.004531 -0.002346 0.003059
# 2 -0.004941 0.010892 0.001591 -0.012163 0.001653 0.000567
# 3 -0.004048 0.001591 0.009866 -0.007710 0.001872 -0.000528
# 4 0.004531 -0.012163 -0.007710 0.043698 -0.002127 -0.000945
# 5 -0.002346 0.001653 0.001872 -0.002127 0.021288 0.000929
# 6 0.003059 0.000567 -0.000528 -0.000945 0.000929 0.030599
#
#
# Mechanical properties :
#
#
# Convention : Reuss Voigt Hill
#
# Bulk Modulus (GPa) = 55.11446 80.94662 68.03054
# Shear Modulus (GPa) = 33.47382 43.25585 38.36483
#
# Velocity S-wave (km/s) = 3.68218 4.18577 3.94203
# Velocity P-wave (km/s) = 6.35625 7.49320 6.94802
#
# Compressibility (1/GPa) = 0.01814406
#
# Stress axis : x y z
#
# Youngs Moduli (GPa) = 82.08875 91.80807 101.35499
#
# Poissons Ratio (x) = 0.45363 0.41027
# Poissons Ratio (y) = 0.40560 -0.16122
# Poissons Ratio (z) = 0.33228 -0.14603
#
# Static dielectric constant tensor:
#      x y z
#    x 1.979010 -0.074160 -0.018020 
#    y -0.074160 1.880180 0.014410 
#    z -0.018020 0.014410 1.910080 
# 
# From -- ./inp_files/161556.got.cif
#   From: 2010.05.17/outbox.cif.g08.bks.cpg/sg2_81_cif.got.tgz:161556.got - 2010.06.03 11:33:40.
