data_PCOD9067566
_publ_section_title
;
Structure prediction by ZEFSAII (Michael W. Deem and Ramdas Pophale) SiO2 
 PCOD9067566
Probable space group: P -1
;
_chemical_formula_sum "Si O2"
_cell_formula_units_Z 10
_cell_length_a 5.542139
_cell_length_b 18.073660
_cell_length_c 10.247081
_cell_angle_alpha 21.885504
_cell_angle_beta 65.083751
_cell_angle_gamma 70.432309
_cell_volume 342.193583
_symmetry_space_group_name_H-M "P -1"
_symmetry_group_IT_number 2
_symmetry_cell_setting 'triclinic'
loop_
_space_group_symop_operation_xyz
x,y,z
-x,-y,-z
loop_
_atom_site_type_symbol
_atom_site_label
_atom_site_fract_x
_atom_site_fract_y
_atom_site_fract_z
Si Si1 0.882261 0.625563 0.435208
Si Si2 0.986733 0.060883 0.555443
Si Si3 0.246791 0.376289 0.176267
Si Si4 0.573084 0.957910 0.200513
Si Si5 0.356604 0.589188 0.507314
O O1 0.037634 0.535126 0.664899
O O2 0.000000 0.500000 0.500000
O O3 0.557581 0.572662 0.607216
O O4 0.943709 0.852670 0.991045
O O5 0.706232 0.141616 0.507052
O O6 0.223962 0.226376 0.293039
O O7 0.000000 0.000000 0.500000
O O8 0.199302 0.179442 0.608463
O O9 0.500000 0.500000 0.000000
O O10 0.000000 0.500000 0.000000
O O11 0.500000 0.000000 0.000000
O O12 0.629353 0.172892 0.904825
O O13 0.500000 0.500000 0.500000
#
# Coordination Sequence:
#
# PCOD9067566 Si02
#       5
#     2   2   2   2   2
#     4   9  18  38  64  99 138 179 238 315 381 439
#     4  11  25  50  79 113 159 209 268 333 403 480
#     4  12  26  54  76 116 166 224 264 324 410 496
#     4  11  25  50  79 113 159 209 268 333 403 480
#     4   9  18  38  64  99 138 179 238 315 381 439
#
# _framework density 29.223223999999998
#
# number of rings (size 3 to 8) (size 9 to 14) (size 15 to 20)
#    0.000    1.600    4.000    0.000    0.000    1.600 
#   21.600    0.000    0.000    0.000    0.000    0.000 
#    0.000    0.000    0.000    0.000    0.000    0.000 
#
# Total GULP energy -55738.162892 kJ/mol
# GULP energy per Si atom -5573.816289 kJ/mol
# Density = 2.915671 g / cm^3
# Si number density = 29.223224 Si / 1000 Ang^3
#
#
#
# Elastic Constant Matrix: (Units=GPa)
#
#
# Indices 1 2 3 4 5 6 
#
# 1 254.2492 72.7384 38.9130 14.0843 46.6279 22.7685
# 2 72.7384 207.8884 70.4862 -13.3543 21.5611 26.7500
# 3 38.9130 70.4862 156.8768 -31.6725 9.4779 23.1988
# 4 14.0843 -13.3543 -31.6725 62.9667 3.2766 21.3546
# 5 46.6279 21.5611 9.4779 3.2766 82.2422 -4.0805
# 6 22.7685 26.7500 23.1988 21.3546 -4.0805 54.8630
#
#
#
# Elastic Compliance Matrix: (Units=1/GPa)
#
#
# Indices 1 2 3 4 5 6 
#
# 1 0.004981 -0.001239 -0.000669 -0.001298 -0.002413 -0.000854
# 2 -0.001239 0.006385 -0.001795 0.001644 -0.000957 -0.002551
# 3 -0.000669 -0.001795 0.009490 0.006419 -0.000769 -0.005416
# 4 -0.001298 0.001644 0.006419 0.024095 -0.002015 -0.012506
# 5 -0.002413 -0.000957 -0.000769 -0.002015 0.014127 0.003628
# 6 -0.000854 -0.002551 -0.005416 -0.012506 0.003628 0.027253
#
#
# Mechanical properties :
#
#
# Convention : Reuss Voigt Hill
#
# Bulk Modulus (GPa) = 74.34343 109.25437 91.79890
# Shear Modulus (GPa) = 50.90571 69.13950 60.02260
#
# Velocity S-wave (km/s) = 4.17821 4.86934 4.53695
# Velocity P-wave (km/s) = 6.98367 8.31151 7.67636
#
# Compressibility (1/GPa) = 0.01345109
#
# Stress axis : x y z
#
# Youngs Moduli (GPa) = 200.76612 156.60512 105.37367
#
# Poissons Ratio (x) = 0.19408 0.07046
# Poissons Ratio (y) = 0.24881 0.18912
# Poissons Ratio (z) = 0.13424 0.28107
#
# Static dielectric constant tensor:
#      x y z
#    x 2.618900 0.049110 -0.271600 
#    y 0.049110 2.344280 -0.080060 
#    z -0.271600 -0.080060 2.270230 
# 
# From -- ./inp_files/370216.got.cif
#   From: 2010.05.17/outbox.cif.g08.bks.cpg/sg2_186_cif.got.tgz:370216.got - 2010.06.03 11:33:40.
