data_PCOD9067748
_publ_section_title
;
Structure prediction by ZEFSAII (Michael W. Deem and Ramdas Pophale) SiO2 
 PCOD9067748
Probable space group: P -1
;
_chemical_formula_sum "Si O2"
_cell_formula_units_Z 16
_cell_length_a 9.179795
_cell_length_b 4.939670
_cell_length_c 18.950989
_cell_angle_alpha 75.876133
_cell_angle_beta 120.931599
_cell_angle_gamma 128.519742
_cell_volume 572.999953
_symmetry_space_group_name_H-M "P -1"
_symmetry_group_IT_number 2
_symmetry_cell_setting 'triclinic'
loop_
_space_group_symop_operation_xyz
x,y,z
-x,-y,-z
loop_
_atom_site_type_symbol
_atom_site_label
_atom_site_fract_x
_atom_site_fract_y
_atom_site_fract_z
Si Si1 0.707254 0.552036 0.019999
Si Si2 0.225653 0.801908 0.322208
Si Si3 0.339053 0.504174 0.261187
Si Si4 0.898649 0.655075 0.422729
Si Si5 0.707254 0.552036 0.519999
Si Si6 0.101351 0.344925 0.077271
Si Si7 0.774347 0.198093 0.177792
Si Si8 0.660948 0.495827 0.238813
O O1 0.730450 0.284268 0.084582
O O2 0.500000 0.500000 0.000000
O O3 0.707552 0.545498 0.935445
O O4 0.925511 0.932003 0.065068
O O5 0.389557 0.797674 0.310668
O O6 0.269550 0.715732 0.415418
O O7 0.000000 0.500001 0.250000
O O8 0.241225 0.148787 0.302346
O O9 0.179986 0.481658 0.165871
O O10 0.500000 0.500000 0.250000
O O11 0.707553 0.545499 0.435446
O O12 0.820014 0.518342 0.334129
O O13 0.000000 0.500000 0.500000
O O14 0.074489 0.067997 0.434932
O O15 0.500000 0.500000 0.500000
O O16 0.000000 0.500000 0.000000
O O17 0.610443 0.202327 0.189332
O O18 0.758775 0.851214 0.197654
#
# Coordination Sequence:
#
# PCOD9067748 Si02
#       8
#     2   2   2   2   2   2   2   2
#     4  11  26  45  70 101 139 185 231 286 350 415
#     4  12  25  47  72 101 140 184 234 286 348 414
#     4  12  27  46  73 103 140 184 234 289 348 415
#     4  11  26  45  69 101 142 181 230 291 347 413
#     4  11  26  45  70 101 139 185 231 286 350 415
#     4  11  26  45  69 101 142 181 230 291 347 413
#     4  12  25  47  72 101 140 184 234 286 348 414
#     4  12  27  46  73 103 140 184 234 289 348 415
#
# _framework density 27.923214999999999
#
# number of rings (size 3 to 8) (size 9 to 14) (size 15 to 20)
#    0.000    0.500    2.500    4.500   10.500    1.000 
#    0.000    0.000    0.000    0.000    0.000    0.000 
#    0.000    0.000    0.000    0.000    0.000    0.000 
#
# Total GULP energy -89839.063717 kJ/mol
# GULP energy per Si atom -5614.941482 kJ/mol
# Density = 2.785966 g / cm^3
# Si number density = 27.923215 Si / 1000 Ang^3
#
#
#
# Elastic Constant Matrix: (Units=GPa)
#
#
# Indices 1 2 3 4 5 6 
#
# 1 173.4084 23.5212 38.5378 -12.7590 -16.3070 14.7220
# 2 23.5212 110.3026 53.6710 -29.6490 -1.2707 -12.5891
# 3 38.5378 53.6710 193.2734 -29.7071 -17.9507 -1.2574
# 4 -12.7590 -29.6490 -29.7071 46.8373 -8.5883 1.5466
# 5 -16.3070 -1.2707 -17.9507 -8.5883 68.2149 -1.7279
# 6 14.7220 -12.5891 -1.2574 1.5466 -1.7279 50.8707
#
#
#
# Elastic Compliance Matrix: (Units=1/GPa)
#
#
# Indices 1 2 3 4 5 6 
#
# 1 0.006448 -0.000968 -0.000748 0.000996 0.001399 -0.002107
# 2 -0.000968 0.012363 -0.002264 0.006069 0.000246 0.003107
# 3 -0.000748 -0.002264 0.006566 0.002876 0.001864 -0.000206
# 4 0.000996 0.006069 0.002876 0.028123 0.004663 0.000588
# 5 0.001399 0.000246 0.001864 0.004663 0.016079 0.000107
# 6 -0.002107 0.003107 -0.000206 0.000588 0.000107 0.021017
#
#
# Mechanical properties :
#
#
# Convention : Reuss Voigt Hill
#
# Bulk Modulus (GPa) = 57.41635 78.71605 68.06620
# Shear Modulus (GPa) = 47.91095 57.26821 52.58958
#
# Velocity S-wave (km/s) = 4.14673 4.53362 4.34448
# Velocity P-wave (km/s) = 6.59803 7.46032 7.04238
#
# Compressibility (1/GPa) = 0.01741664
#
# Stress axis : x y z
#
# Youngs Moduli (GPa) = 155.09144 80.88764 152.30741
#
# Poissons Ratio (x) = 0.07829 0.11388
# Poissons Ratio (y) = 0.15011 0.34487
# Poissons Ratio (z) = 0.11596 0.18315
#
# Static dielectric constant tensor:
#      x y z
#    x 2.427560 0.144950 0.014670 
#    y 0.144950 2.164780 0.002690 
#    z 0.014670 0.002690 2.070130 
# 
# From -- ./inp_files/47942.got.cif
#   From: 2010.05.17/outbox.cif.g08.bks.cpg/sg2_24_cif.got.tgz:47942.got - 2010.06.03 11:33:40.
