data_PCOD9067322
_publ_section_title
;
Structure prediction by ZEFSAII (Michael W. Deem and Ramdas Pophale) SiO2 
 PCOD9067322
Probable space group: P -1
;
_chemical_formula_sum "Si O2"
_cell_formula_units_Z 14
_cell_length_a 16.847014
_cell_length_b 8.084617
_cell_length_c 8.443521
_cell_angle_alpha 53.787646
_cell_angle_beta 134.461560
_cell_angle_gamma 138.659108
_cell_volume 537.003210
_symmetry_space_group_name_H-M "P -1"
_symmetry_group_IT_number 2
_symmetry_cell_setting 'triclinic'
loop_
_space_group_symop_operation_xyz
x,y,z
-x,-y,-z
loop_
_atom_site_type_symbol
_atom_site_label
_atom_site_fract_x
_atom_site_fract_y
_atom_site_fract_z
Si Si1 0.745577 0.252888 0.441279
Si Si2 0.332497 0.659445 0.390690
Si Si3 0.311180 0.881818 0.913789
Si Si4 0.506327 0.469457 0.839546
Si Si5 0.931066 0.816787 0.823653
Si Si6 0.026222 0.806702 0.557278
Si Si7 0.788321 0.873381 0.854822
O O1 0.654616 0.229834 0.478343
O O2 0.895665 0.517768 0.526142
O O3 0.707786 0.252265 0.205786
O O4 0.740984 0.004022 0.601414
O O5 0.173234 0.421810 0.291565
O O6 0.576102 0.444785 0.419218
O O7 0.354996 0.811375 0.175436
O O8 0.426946 0.173768 0.871370
O O9 0.165552 0.837106 0.778060
O O10 0.663461 0.661682 0.902395
O O11 0.500000 0.500000 0.000000
O O12 0.855082 0.757880 0.917775
O O13 0.945054 0.065390 0.646158
O O14 0.083688 0.895476 0.999434
O O15 0.000000 0.000000 0.500000
#
# Coordination Sequence:
#
# PCOD9067322 Si02
#       7
#     2   2   2   2   2   2   2
#     4  12  26  47  79 118 160 205 269 334 390 476
#     4  12  28  51  81 118 157 210 270 323 407 472
#     4  12  28  51  81 119 161 213 268 330 399 480
#     4  12  29  55  80 116 166 214 263 330 402 481
#     4  11  25  48  78 117 153 209 266 334 397 470
#     4  12  24  46  80 117 163 208 267 337 403 462
#     4  11  27  47  80 113 160 210 267 330 402 473
#
# _framework density 26.070608
#
# number of rings (size 3 to 8) (size 9 to 14) (size 15 to 20)
#    0.000    0.286    4.286    2.143   10.000    5.714 
#    0.000    2.143    0.000    0.000    0.000    0.000 
#    0.000    0.000    0.000    0.000    0.000    0.000 
#
# Total GULP energy -78399.781578 kJ/mol
# GULP energy per Si atom -5599.984398 kJ/mol
# Density = 2.601127 g / cm^3
# Si number density = 26.070608 Si / 1000 Ang^3
#
#
#
# Elastic Constant Matrix: (Units=GPa)
#
#
# Indices 1 2 3 4 5 6 
#
# 1 147.5166 80.1951 77.4110 1.0454 -28.5461 18.0893
# 2 80.1951 161.6376 66.5672 10.3044 -7.8286 23.9595
# 3 77.4110 66.5672 184.8899 -13.9234 -0.9372 16.6152
# 4 1.0454 10.3044 -13.9234 50.6111 2.0100 -4.4249
# 5 -28.5461 -7.8286 -0.9372 2.0100 32.6214 -4.2019
# 6 18.0893 23.9595 16.6152 -4.4249 -4.2019 39.0366
#
#
#
# Elastic Compliance Matrix: (Units=1/GPa)
#
#
# Indices 1 2 3 4 5 6 
#
# 1 0.013337 -0.004279 -0.003990 -0.000992 0.010482 -0.000840
# 2 -0.004279 0.009558 -0.001515 -0.002528 -0.001817 -0.003721
# 3 -0.003990 -0.001515 0.007866 0.002649 -0.003880 -0.000687
# 4 -0.000992 -0.002528 0.002649 0.021382 -0.002322 0.003057
# 5 0.010482 -0.001817 -0.003880 -0.002322 0.039670 0.001917
# 6 -0.000840 -0.003721 -0.000687 0.003057 0.001917 0.029135
#
#
# Mechanical properties :
#
#
# Convention : Reuss Voigt Hill
#
# Bulk Modulus (GPa) = 89.32829 104.71006 97.01917
# Shear Modulus (GPa) = 34.66297 42.44520 38.55408
#
# Velocity S-wave (km/s) = 3.65030 4.03933 3.84973
# Velocity P-wave (km/s) = 7.21835 7.87440 7.55350
#
# Compressibility (1/GPa) = 0.01119466
#
# Stress axis : x y z
#
# Youngs Moduli (GPa) = 74.97965 104.62361 127.12890
#
# Poissons Ratio (x) = 0.44763 0.50720
# Poissons Ratio (y) = 0.32080 0.19261
# Poissons Ratio (z) = 0.29914 0.15851
#
# Static dielectric constant tensor:
#      x y z
#    x 2.144310 -0.031520 -0.060400 
#    y -0.031520 2.037120 0.050620 
#    z -0.060400 0.050620 2.105460 
# 
# From -- ./inp_files/343344.got.cif
#   From: 2010.05.17/outbox.cif.g08.bks.cpg/sg2_172_cif.got.tgz:343344.got - 2010.06.03 11:33:40.
