data_PCOD9067395
_publ_section_title
;
Structure prediction by ZEFSAII (Michael W. Deem and Ramdas Pophale) SiO2 
 PCOD9067395
Probable space group: P -1
;
_chemical_formula_sum "Si O2"
_cell_formula_units_Z 16
_cell_length_a 11.947587
_cell_length_b 12.063890
_cell_length_c 11.255674
_cell_angle_alpha 117.801864
_cell_angle_beta 88.840437
_cell_angle_gamma 38.171039
_cell_volume 626.529957
_symmetry_space_group_name_H-M "P -1"
_symmetry_group_IT_number 2
_symmetry_cell_setting 'triclinic'
loop_
_space_group_symop_operation_xyz
x,y,z
-x,-y,-z
loop_
_atom_site_type_symbol
_atom_site_label
_atom_site_fract_x
_atom_site_fract_y
_atom_site_fract_z
Si Si1 0.041874 0.333195 0.259668
Si Si2 0.676873 0.350067 0.755597
Si Si3 0.191813 0.096226 0.895484
Si Si4 0.356954 0.662697 0.707176
Si Si5 0.977617 0.764195 0.300036
Si Si6 0.861941 0.023158 0.812215
Si Si7 0.640953 0.945257 0.563889
Si Si8 0.584429 0.858976 0.090067
O O1 0.332537 0.088810 0.134433
O O2 0.860315 0.629148 0.447343
O O3 0.038194 0.218293 0.290980
O O4 0.996611 0.330511 0.123577
O O5 0.540429 0.420994 0.682886
O O6 0.871654 0.264764 0.677731
O O7 0.825536 0.112998 0.726477
O O8 0.427090 0.667653 0.979356
O O9 0.100514 0.143003 0.790886
O O10 0.340017 0.828528 0.811961
O O11 0.353964 0.057862 0.848338
O O12 0.500000 0.500000 0.500000
O O13 0.071661 0.894885 0.814744
O O14 0.761912 0.936001 0.481886
O O15 0.176028 0.448489 0.129604
O O16 0.470067 0.148513 0.783389
O O17 0.500000 0.000000 0.500000
#
# Coordination Sequence:
#
# PCOD9067395 Si02
#       8
#     2   2   2   2   2   2   2   2
#     4  12  26  45  77 108 148 201 251 317 377 461
#     4  11  25  50  78 105 149 197 256 319 369 455
#     4  12  24  46  74 104 154 199 248 310 385 451
#     4  12  28  46  73 110 150 202 250 315 379 447
#     4  12  24  49  77 111 151 203 253 312 384 454
#     4  11  25  49  74 109 143 196 264 298 382 443
#     4  12  27  46  71 112 151 196 249 311 379 457
#     4  12  25  47  72 114 148 197 251 310 386 453
#
# _framework density 25.537488
#
# number of rings (size 3 to 8) (size 9 to 14) (size 15 to 20)
#    0.000    0.250    6.250    2.250    3.500    1.500 
#    4.500    0.000    0.000    0.000    0.000    0.000 
#    0.000    0.000    0.000    0.000    0.000    0.000 
#
# Total GULP energy -89697.737830 kJ/mol
# GULP energy per Si atom -5606.108614 kJ/mol
# Density = 2.547936 g / cm^3
# Si number density = 25.537488 Si / 1000 Ang^3
#
#
#
# Elastic Constant Matrix: (Units=GPa)
#
#
# Indices 1 2 3 4 5 6 
#
# 1 132.4063 63.0598 36.4613 -2.2673 -21.1982 11.0613
# 2 63.0598 176.5404 6.0537 -5.4411 -5.5503 -2.4643
# 3 36.4613 6.0537 67.9692 -13.1490 -3.1489 6.4317
# 4 -2.2673 -5.4411 -13.1490 26.7774 -1.9421 3.5640
# 5 -21.1982 -5.5503 -3.1489 -1.9421 40.0913 0.5091
# 6 11.0613 -2.4643 6.4317 3.5640 0.5091 47.5345
#
#
#
# Elastic Compliance Matrix: (Units=1/GPa)
#
#
# Indices 1 2 3 4 5 6 
#
# 1 0.012167 -0.004064 -0.006134 -0.002142 0.005312 -0.002108
# 2 -0.004064 0.007094 0.001755 0.001763 -0.000956 0.000954
# 3 -0.006134 0.001755 0.019874 0.009780 -0.000941 -0.001894
# 4 -0.002142 0.001763 0.009780 0.043000 0.002013 -0.003979
# 5 0.005312 -0.000956 -0.000941 0.002013 0.027663 -0.001605
# 6 -0.002108 0.000954 -0.001894 -0.003979 -0.001605 0.022149
#
#
# Mechanical properties :
#
#
# Convention : Reuss Voigt Hill
#
# Bulk Modulus (GPa) = 44.94602 65.34062 55.14332
# Shear Modulus (GPa) = 32.00007 40.97004 36.48506
#
# Velocity S-wave (km/s) = 3.54370 4.00973 3.78390
# Velocity P-wave (km/s) = 5.86362 6.86141 6.38204
#
# Compressibility (1/GPa) = 0.02224891
#
# Stress axis : x y z
#
# Youngs Moduli (GPa) = 82.18920 140.97310 50.31644
#
# Poissons Ratio (x) = 0.57294 0.30862
# Poissons Ratio (y) = 0.33403 -0.08830
# Poissons Ratio (z) = 0.50412 -0.24738
#
# Static dielectric constant tensor:
#      x y z
#    x 1.964750 -0.009440 0.009810 
#    y -0.009440 2.096970 -0.012830 
#    z 0.009810 -0.012830 2.054360 
# 
# From -- ./inp_files/428554.got.cif
#   From: 2010.05.17/outbox.cif.g08.bks.cpg/sg2_215_cif.got.tgz:428554.got - 2010.06.03 11:33:40.
