data_PCOD9067285
_publ_section_title
;
Structure prediction by ZEFSAII (Michael W. Deem and Ramdas Pophale) SiO2 
 PCOD9067285
Probable space group: P -1
;
_chemical_formula_sum "Si O2"
_cell_formula_units_Z 14
_cell_length_a 4.998369
_cell_length_b 16.187900
_cell_length_c 8.773762
_cell_angle_alpha 68.263223
_cell_angle_beta 87.352045
_cell_angle_gamma 111.176858
_cell_volume 601.480470
_symmetry_space_group_name_H-M "P -1"
_symmetry_group_IT_number 2
_symmetry_cell_setting 'triclinic'
loop_
_space_group_symop_operation_xyz
x,y,z
-x,-y,-z
loop_
_atom_site_type_symbol
_atom_site_label
_atom_site_fract_x
_atom_site_fract_y
_atom_site_fract_z
Si Si1 0.310713 0.699288 0.736585
Si Si2 0.646868 0.567393 0.809692
Si Si3 0.233020 0.942815 0.658179
Si Si4 0.648991 0.199909 0.021013
Si Si5 0.779489 0.767812 0.203712
Si Si6 0.682310 0.450295 0.613424
Si Si7 0.808368 0.861816 0.454406
O O1 0.433958 0.620020 0.735630
O O2 0.328356 0.888898 0.824460
O O3 0.477024 0.792180 0.560759
O O4 0.375164 0.729641 0.892094
O O5 0.700862 0.491350 0.752288
O O6 0.500000 0.500000 0.000000
O O7 0.962895 0.654010 0.764831
O O8 0.985257 0.870273 0.601579
O O9 0.500000 0.000000 0.500000
O O10 0.142184 0.027881 0.660917
O O11 0.368131 0.175274 0.936192
O O12 0.950880 0.242536 0.885429
O O13 0.504461 0.664530 0.307092
O O14 0.883572 0.816245 0.333020
O O15 0.500000 0.500000 0.500000
O O16 0.000000 0.500000 0.500000
#
# Coordination Sequence:
#
# PCOD9067285 Si02
#       7
#     2   2   2   2   2   2   2
#     4  12  24  45  72  99 138 192 241 283 348 425
#     4  12  25  42  69 103 138 185 240 292 344 416
#     4  11  25  48  77 102 142 188 250 291 359 440
#     4  12  26  46  71 106 149 186 231 308 359 421
#     4  12  28  46  71 110 148 185 237 298 374 417
#     4  12  25  46  70 101 146 190 236 293 354 425
#     4  11  26  46  74 106 139 191 246 294 354 445
#
# _framework density 23.275903
#
# number of rings (size 3 to 8) (size 9 to 14) (size 15 to 20)
#    0.000    0.286    1.429    8.143    4.000    1.143 
#    0.000    0.000    0.000    0.000    0.000    0.000 
#    0.000    0.000    0.000    0.000    0.000    0.000 
#
# Total GULP energy -78352.033999 kJ/mol
# GULP energy per Si atom -5596.573857 kJ/mol
# Density = 2.322293 g / cm^3
# Si number density = 23.275903 Si / 1000 Ang^3
#
#
#
# Elastic Constant Matrix: (Units=GPa)
#
#
# Indices 1 2 3 4 5 6 
#
# 1 107.5817 7.1448 16.1892 -6.2173 -11.7568 -2.2017
# 2 7.1448 113.6925 34.7044 7.0208 -3.9984 -8.5561
# 3 16.1892 34.7044 94.6539 9.7285 -13.5486 -1.9829
# 4 -6.2173 7.0208 9.7285 47.5076 -15.4812 -1.0300
# 5 -11.7568 -3.9984 -13.5486 -15.4812 49.2976 -2.3757
# 6 -2.2017 -8.5561 -1.9829 -1.0300 -2.3757 35.0055
#
#
#
# Elastic Compliance Matrix: (Units=1/GPa)
#
#
# Indices 1 2 3 4 5 6 
#
# 1 0.010003 -0.000175 -0.001493 0.002572 0.002805 0.000768
# 2 -0.000175 0.010110 -0.003596 -0.000854 -0.000372 0.002206
# 3 -0.001493 -0.003596 0.012625 -0.001487 0.002348 -0.000142
# 4 0.002572 -0.000854 -0.001487 0.024399 0.007852 0.001120
# 5 0.002805 -0.000372 0.002348 0.007852 0.024135 0.002088
# 6 0.000768 0.002206 -0.000142 0.001120 0.002088 0.029321
#
#
# Mechanical properties :
#
#
# Convention : Reuss Voigt Hill
#
# Bulk Modulus (GPa) = 45.02827 48.00055 46.51441
# Shear Modulus (GPa) = 38.90302 43.55477 41.22890
#
# Velocity S-wave (km/s) = 4.09269 4.33047 4.21326
# Velocity P-wave (km/s) = 6.45918 6.75805 6.61030
#
# Compressibility (1/GPa) = 0.02220827
#
# Stress axis : x y z
#
# Youngs Moduli (GPa) = 99.97493 98.91158 79.21004
#
# Poissons Ratio (x) = 0.01732 0.11828
# Poissons Ratio (y) = 0.01751 0.28485
# Poissons Ratio (z) = 0.14929 0.35570
#
# Static dielectric constant tensor:
#      x y z
#    x 1.908720 0.008490 0.026870 
#    y 0.008490 1.877630 -0.016640 
#    z 0.026870 -0.016640 1.836500 
# 
# From -- ./inp_files/135125.got.cif
#   From: 2010.05.17/outbox.cif.g08.bks.cpg/sg2_68_cif.got.tgz:135125.got - 2010.06.03 11:33:40.
