data_PCOD9067347
_publ_section_title
;
Structure prediction by ZEFSAII (Michael W. Deem and Ramdas Pophale) SiO2 
 PCOD9067347
Probable space group: P -1
;
_chemical_formula_sum "Si O2"
_cell_formula_units_Z 16
_cell_length_a 12.019384
_cell_length_b 6.471831
_cell_length_c 14.471712
_cell_angle_alpha 105.058531
_cell_angle_beta 132.766660
_cell_angle_gamma 57.504591
_cell_volume 686.937031
_symmetry_space_group_name_H-M "P -1"
_symmetry_group_IT_number 2
_symmetry_cell_setting 'triclinic'
loop_
_space_group_symop_operation_xyz
x,y,z
-x,-y,-z
loop_
_atom_site_type_symbol
_atom_site_label
_atom_site_fract_x
_atom_site_fract_y
_atom_site_fract_z
Si Si1 0.435440 0.534099 0.182781
Si Si2 0.384460 0.880434 0.637096
Si Si3 0.363431 0.264176 0.404028
Si Si4 0.092142 0.536764 0.967071
Si Si5 0.126717 0.836027 0.371088
Si Si6 0.473712 0.183894 0.868210
Si Si7 0.786770 0.862178 0.151679
Si Si8 0.833257 0.005621 0.792246
O O1 0.600389 0.316881 0.302295
O O2 0.500249 0.601282 0.135146
O O3 0.319750 0.776158 0.208789
O O4 0.299684 0.435371 0.082878
O O5 0.529354 0.726352 0.622094
O O6 0.201625 0.978984 0.491271
O O7 0.442499 0.054445 0.743947
O O8 0.260076 0.535345 0.425263
O O9 0.500000 0.000000 0.500000
O O10 0.225227 0.192975 0.282677
O O11 0.082345 0.368430 0.863668
O O12 0.012967 0.821756 0.925547
O O13 0.000000 0.500000 0.000000
O O14 0.141954 0.889928 0.277637
O O15 0.921394 0.930254 0.283352
O O16 0.309524 0.227353 0.842309
O O17 0.639553 0.046307 0.016690
#
# Coordination Sequence:
#
# PCOD9067347 Si02
#       8
#     2   2   2   2   2   2   2   2
#     4  12  23  41  69  99 135 182 224 272 343 411
#     4  12  24  42  67 102 139 176 230 274 335 419
#     4  12  22  40  66 100 144 178 216 276 351 412
#     4  12  23  42  71 104 138 173 223 290 350 405
#     4  12  25  42  69 104 139 176 224 287 349 399
#     4  11  26  48  70  92 134 190 231 280 334 395
#     4  11  25  49  68  97 137 176 236 286 329 408
#     4  12  22  38  67 101 139 175 216 284 353 403
#
# _framework density 23.291802000000001
#
# number of rings (size 3 to 8) (size 9 to 14) (size 15 to 20)
#    0.000    0.250    6.250    4.500    0.000    1.000 
#    2.250    0.625    0.000    0.000    0.000    0.000 
#    0.000    0.000    0.000    0.000    0.000    0.000 
#
# Total GULP energy -89291.901231 kJ/mol
# GULP energy per Si atom -5580.743827 kJ/mol
# Density = 2.323879 g / cm^3
# Si number density = 23.291802 Si / 1000 Ang^3
#
#
#
# Elastic Constant Matrix: (Units=GPa)
#
#
# Indices 1 2 3 4 5 6 
#
# 1 121.5105 10.0742 48.2924 -12.6241 5.0688 31.4754
# 2 10.0742 38.1171 19.6933 -1.5811 -1.9353 14.9411
# 3 48.2924 19.6933 100.6766 -0.1739 13.9073 11.0905
# 4 -12.6241 -1.5811 -0.1739 40.8166 16.1184 -2.1601
# 5 5.0688 -1.9353 13.9073 16.1184 37.8029 -1.0137
# 6 31.4754 14.9411 11.0905 -2.1601 -1.0137 34.1691
#
#
#
# Elastic Compliance Matrix: (Units=1/GPa)
#
#
# Indices 1 2 3 4 5 6 
#
# 1 0.014076 0.004461 -0.005975 0.004507 -0.001725 -0.012744
# 2 0.004461 0.036002 -0.007762 0.000474 0.003437 -0.017201
# 3 -0.005975 -0.007762 0.014543 0.000045 -0.004858 0.004036
# 4 0.004507 0.000474 0.000045 0.031299 -0.014018 -0.002811
# 5 -0.001725 0.003437 -0.004858 -0.014018 0.034672 0.001805
# 6 -0.012744 -0.017201 0.004036 -0.002811 0.001805 0.047093
#
#
# Mechanical properties :
#
#
# Convention : Reuss Voigt Hill
#
# Bulk Modulus (GPa) = 21.70512 46.26932 33.98722
# Shear Modulus (GPa) = 23.63025 34.70734 29.16880
#
# Velocity S-wave (km/s) = 3.18863 3.86438 3.54265
# Velocity P-wave (km/s) = 4.78492 6.31027 5.59977
#
# Compressibility (1/GPa) = 0.04607208
#
# Stress axis : x y z
#
# Youngs Moduli (GPa) = 71.04445 27.77586 68.75946
#
# Poissons Ratio (x) = -0.12392 0.41081
# Poissons Ratio (y) = -0.31696 0.53368
# Poissons Ratio (z) = 0.42446 0.21558
#
# Static dielectric constant tensor:
#      x y z
#    x 1.856270 -0.009790 0.179070 
#    y -0.009790 1.956260 0.054200 
#    z 0.179070 0.054200 3.123460 
# 
# From -- ./inp_files/123625.got.cif
#   From: 2010.05.17/outbox.cif.g08.bks.cpg/sg2_62_cif.got.tgz:123625.got - 2010.06.03 11:33:40.
