data_PCOD9067753
_publ_section_title
;
Structure prediction by ZEFSAII (Michael W. Deem and Ramdas Pophale) SiO2 
 PCOD9067753
Probable space group: P -1
;
_chemical_formula_sum "Si O2"
_cell_formula_units_Z 14
_cell_length_a 20.382882
_cell_length_b 8.576623
_cell_length_c 6.458703
_cell_angle_alpha 107.889824
_cell_angle_beta 83.906664
_cell_angle_gamma 44.687080
_cell_volume 660.821280
_symmetry_space_group_name_H-M "P -1"
_symmetry_group_IT_number 2
_symmetry_cell_setting 'triclinic'
loop_
_space_group_symop_operation_xyz
x,y,z
-x,-y,-z
loop_
_atom_site_type_symbol
_atom_site_label
_atom_site_fract_x
_atom_site_fract_y
_atom_site_fract_z
Si Si1 0.084277 0.904272 0.096600
Si Si2 0.930437 0.475732 0.492547
Si Si3 0.384782 0.308700 0.178266
Si Si4 0.272178 0.736886 0.737435
Si Si5 0.778128 0.628365 0.931580
Si Si6 0.769709 0.884787 0.381570
Si Si7 0.614440 0.358301 0.942699
O O1 0.137136 0.659129 0.111236
O O2 0.180330 0.816546 0.919689
O O3 0.013093 0.166635 0.359868
O O4 0.000000 0.000000 0.000000
O O5 0.841105 0.626791 0.758137
O O6 0.872776 0.604468 0.341640
O O7 0.000000 0.500000 0.500000
O O8 0.345701 0.467803 0.471244
O O9 0.302196 0.328705 0.150035
O O10 0.382747 0.465257 0.084228
O O11 0.500000 0.000000 0.000000
O O12 0.216568 0.975640 0.698588
O O13 0.345197 0.694901 0.858452
O O14 0.724842 0.837052 0.218612
O O15 0.694126 0.088170 0.676067
O O16 0.500000 0.500000 0.000000
#
# Coordination Sequence:
#
# PCOD9067753 Si02
#       7
#     2   2   2   2   2   2   2
#     4  12  24  45  70 102 142 191 231 293 356 404
#     4  12  27  43  71 102 142 193 236 280 350 421
#     4  11  28  45  75 105 139 184 231 295 361 409
#     4  11  26  49  69 103 145 181 239 289 348 433
#     4  12  26  46  70 107 145 179 239 297 343 427
#     4  11  26  45  70 102 142 184 236 286 348 424
#     4  11  26  47  73 100 140 189 234 292 355 419
#
# _framework density 21.185759000000001
#
# number of rings (size 3 to 8) (size 9 to 14) (size 15 to 20)
#    0.000    0.571    2.857    3.857   10.000    2.857 
#    0.000    0.000    0.000    0.000    0.000    0.000 
#    0.000    0.000    0.000    0.000    0.000    0.000 
#
# Total GULP energy -78296.223108 kJ/mol
# GULP energy per Si atom -5592.587365 kJ/mol
# Density = 2.113754 g / cm^3
# Si number density = 21.185759 Si / 1000 Ang^3
#
#
#
# Elastic Constant Matrix: (Units=GPa)
#
#
# Indices 1 2 3 4 5 6 
#
# 1 128.6083 28.8449 44.0168 -7.8468 9.2412 -21.5225
# 2 28.8449 111.6211 48.5939 6.7784 -2.1718 -0.6186
# 3 44.0168 48.5939 123.2449 7.2207 26.8892 -6.2982
# 4 -7.8468 6.7784 7.2207 37.1147 7.0841 9.1193
# 5 9.2412 -2.1718 26.8892 7.0841 40.6195 0.7152
# 6 -21.5225 -0.6186 -6.2982 9.1193 0.7152 33.3363
#
#
#
# Elastic Compliance Matrix: (Units=1/GPa)
#
#
# Indices 1 2 3 4 5 6 
#
# 1 0.010131 -0.001598 -0.002568 0.001776 -0.001098 0.005564
# 2 -0.001598 0.011782 -0.005049 -0.002090 0.004723 -0.001297
# 3 -0.002568 -0.005049 0.012893 -0.000853 -0.008091 0.001091
# 4 0.001776 -0.002090 -0.000853 0.030654 -0.005168 -0.007328
# 5 -0.001098 0.004723 -0.008091 -0.005168 0.031403 -0.001410
# 6 0.005564 -0.001297 0.001091 -0.007328 -0.001410 0.035806
#
#
# Mechanical properties :
#
#
# Convention : Reuss Voigt Hill
#
# Bulk Modulus (GPa) = 61.06947 67.37616 64.22282
# Shear Modulus (GPa) = 31.93700 38.34867 35.14284
#
# Velocity S-wave (km/s) = 3.88683 4.25916 4.07725
# Velocity P-wave (km/s) = 7.00226 7.48725 7.24881
#
# Compressibility (1/GPa) = 0.01637479
#
# Stress axis : x y z
#
# Youngs Moduli (GPa) = 98.70247 84.87874 77.56255
#
# Poissons Ratio (x) = 0.13567 0.19921
# Poissons Ratio (y) = 0.15776 0.39159
# Poissons Ratio (z) = 0.25351 0.42853
#
# Static dielectric constant tensor:
#      x y z
#    x 1.719380 -0.029070 0.003790 
#    y -0.029070 1.747350 -0.019840 
#    z 0.003790 -0.019840 1.797830 
# 
# From -- ./inp_files/27546.got.cif
#   From: 2010.05.17/outbox.cif.g08.bks.cpg/sg2_14_cif.got.tgz:27546.got - 2010.06.03 11:33:40.
