data_PCOD9067330
_publ_section_title
;
Structure prediction by ZEFSAII (Michael W. Deem and Ramdas Pophale) SiO2 
 PCOD9067330
Probable space group: P -1
;
_chemical_formula_sum "Si O2"
_cell_formula_units_Z 16
_cell_length_a 16.781649
_cell_length_b 8.719016
_cell_length_c 9.683545
_cell_angle_alpha 77.370015
_cell_angle_beta 45.432008
_cell_angle_gamma 111.684411
_cell_volume 649.011798
_symmetry_space_group_name_H-M "P -1"
_symmetry_group_IT_number 2
_symmetry_cell_setting 'triclinic'
loop_
_space_group_symop_operation_xyz
x,y,z
-x,-y,-z
loop_
_atom_site_type_symbol
_atom_site_label
_atom_site_fract_x
_atom_site_fract_y
_atom_site_fract_z
Si Si1 0.004589 0.067325 0.682032
Si Si2 0.845106 0.213749 0.728391
Si Si3 0.265561 0.377363 0.073130
Si Si4 0.591437 0.607847 0.513909
Si Si5 0.318600 0.846593 0.321702
Si Si6 0.206007 0.871222 0.738697
Si Si7 0.327527 0.798442 0.832929
Si Si8 0.868453 0.659167 0.253994
O O1 0.912085 0.123882 0.724730
O O2 0.177064 0.243069 0.351020
O O3 0.044576 0.134197 0.779397
O O4 0.874345 0.799183 0.841963
O O5 0.782963 0.149169 0.660932
O O6 0.000000 0.500000 0.500000
O O7 0.690915 0.107955 0.032431
O O8 0.432363 0.448023 0.842060
O O9 0.309493 0.605755 0.952677
O O10 0.500000 0.500000 0.500000
O O11 0.691736 0.876674 0.364649
O O12 0.305295 0.912378 0.475999
O O13 0.218750 0.576458 0.511108
O O14 0.500000 0.000000 0.000000
O O15 0.191994 0.718792 0.900948
O O16 0.018105 0.740332 0.965389
O O17 0.280965 0.401422 0.622766
O O18 0.500000 0.000000 0.500000
#
# Coordination Sequence:
#
# PCOD9067330 Si02
#       8
#     2   2   2   2   2   2   2   2
#     4  11  25  48  79 111 155 205 257 323 394 469
#     4  12  23  48  78 106 154 202 258 317 384 465
#     4  11  26  45  77 116 150 208 258 318 394 469
#     4  12  30  50  76 108 158 205 263 318 395 471
#     4  12  29  47  77 118 155 204 263 328 385 462
#     4  12  27  51  80 115 155 208 258 328 399 464
#     4  12  23  44  80 113 152 196 262 323 384 460
#     4  12  27  52  74 112 157 201 264 321 394 460
#
# _framework density 24.652866
#
# number of rings (size 3 to 8) (size 9 to 14) (size 15 to 20)
#    0.000    0.250    5.000    2.250    5.250    3.500 
#    0.000    0.000    0.000    0.000    0.000    0.000 
#    0.000    0.000    0.000    0.000    0.000    0.000 
#
# Total GULP energy -89715.707898 kJ/mol
# GULP energy per Si atom -5607.231744 kJ/mol
# Density = 2.459676 g / cm^3
# Si number density = 24.652866 Si / 1000 Ang^3
#
#
#
# Elastic Constant Matrix: (Units=GPa)
#
#
# Indices 1 2 3 4 5 6 
#
# 1 126.9686 6.5445 18.7815 12.8547 -23.3299 20.2639
# 2 6.5445 61.9517 16.9935 10.8324 -1.6846 16.4026
# 3 18.7815 16.9935 165.7647 11.3732 -27.3547 -1.6336
# 4 12.8547 10.8324 11.3732 38.2751 1.6045 6.1472
# 5 -23.3299 -1.6846 -27.3547 1.6045 39.9795 6.5357
# 6 20.2639 16.4026 -1.6336 6.1472 6.5357 34.7676
#
#
#
# Elastic Compliance Matrix: (Units=1/GPa)
#
#
# Indices 1 2 3 4 5 6 
#
# 1 0.010832 0.001749 0.000029 -0.003178 0.007859 -0.008053
# 2 0.001749 0.019919 -0.001625 -0.004206 0.002590 -0.010236
# 3 0.000029 -0.001625 0.007131 -0.001955 0.004820 0.000524
# 4 -0.003178 -0.004206 -0.001955 0.029247 -0.004446 -0.000590
# 5 0.007859 0.002590 0.004820 -0.004446 0.035044 -0.011378
# 6 -0.008053 -0.010236 0.000524 -0.000590 -0.011378 0.040553
#
#
# Mechanical properties :
#
#
# Convention : Reuss Voigt Hill
#
# Bulk Modulus (GPa) = 26.18618 48.81378 37.49998
# Shear Modulus (GPa) = 32.22714 43.42880 37.82797
#
# Velocity S-wave (km/s) = 3.61950 4.20171 3.92142
# Velocity P-wave (km/s) = 5.30214 6.58655 5.97893
#
# Compressibility (1/GPa) = 0.03818808
#
# Stress axis : x y z
#
# Youngs Moduli (GPa) = 92.31502 50.20404 140.23929
#
# Poissons Ratio (x) = -0.08782 -0.00405
# Poissons Ratio (y) = -0.16148 0.22788
# Poissons Ratio (z) = -0.00266 0.08158
#
# Static dielectric constant tensor:
#      x y z
#    x 1.940360 0.001060 -0.016310 
#    y 0.001060 1.992000 -0.026830 
#    z -0.016310 -0.026830 2.019940 
# 
# From -- ./inp_files/353826.got.cif
#   From: 2010.05.17/outbox.cif.g08.bks.cpg/sg2_177_cif.got.tgz:353826.got - 2010.06.03 11:33:40.
