data_PCOD9067936
_publ_section_title
;
Structure prediction by ZEFSAII (Michael W. Deem and Ramdas Pophale) SiO2 
 PCOD9067936
Probable space group: P -1
;
_chemical_formula_sum "Si O2"
_cell_formula_units_Z 14
_cell_length_a 22.064729
_cell_length_b 17.907560
_cell_length_c 18.046838
_cell_angle_alpha 164.102127
_cell_angle_beta 17.304896
_cell_angle_gamma 161.491240
_cell_volume 540.040548
_symmetry_space_group_name_H-M "P -1"
_symmetry_group_IT_number 2
_symmetry_cell_setting 'triclinic'
loop_
_space_group_symop_operation_xyz
x,y,z
-x,-y,-z
loop_
_atom_site_type_symbol
_atom_site_label
_atom_site_fract_x
_atom_site_fract_y
_atom_site_fract_z
Si Si1 0.126540 0.297700 0.183358
Si Si2 0.686473 0.797811 0.649683
Si Si3 0.610665 0.730079 0.346266
Si Si4 0.034971 0.105761 0.274731
Si Si5 0.184883 0.707928 0.152521
Si Si6 0.807208 0.311747 0.111354
Si Si7 0.516324 0.232757 0.869780
O O1 0.104803 0.262429 0.263169
O O2 0.000000 0.500000 0.500000
O O3 0.372669 0.507162 0.071116
O O4 0.000000 0.000000 0.000000
O O5 0.790641 0.550227 0.298250
O O6 0.752870 0.993693 0.685132
O O7 0.421282 0.673876 0.848348
O O8 0.781874 0.016177 0.816075
O O9 0.418545 0.740229 0.631879
O O10 0.556876 0.419208 0.075368
O O11 0.837061 0.812929 0.203744
O O12 0.620837 0.984967 0.518214
O O13 0.257070 0.077998 0.016065
O O14 0.928818 0.247626 0.596281
O O15 0.999424 0.452440 0.080214
#
# Coordination Sequence:
#
# PCOD9067936 Si02
#       7
#     2   2   2   2   2   2   2
#     4  12  25  49  75 103 145 187 233 292 358 422
#     4  11  27  48  71 105 147 189 237 299 350 424
#     4  12  26  46  74 107 145 186 236 299 350 423
#     4  12  26  47  77 105 146 188 238 296 356 420
#     4  11  26  46  74 109 140 191 244 289 360 422
#     4  12  25  48  74 102 147 191 237 293 360 415
#     4  12  26  49  72 107 144 186 238 290 358 425
#
# _framework density 25.92398
#
# number of rings (size 3 to 8) (size 9 to 14) (size 15 to 20)
#    0.000    0.286    5.714    2.143    0.000    6.857 
#    0.000    2.857    0.000    0.000    0.000    0.000 
#    0.000    0.000    0.000    0.000    0.000    0.000 
#
# Total GULP energy -78495.565067 kJ/mol
# GULP energy per Si atom -5606.826076 kJ/mol
# Density = 2.586498 g / cm^3
# Si number density = 25.923980 Si / 1000 Ang^3
#
#
#
# Elastic Constant Matrix: (Units=GPa)
#
#
# Indices 1 2 3 4 5 6 
#
# 1 130.9405 65.2935 48.8769 -5.9630 14.8850 11.9568
# 2 65.2935 166.5446 45.4662 -26.7687 -12.6972 12.2162
# 3 48.8769 45.4662 127.5309 3.1438 -5.3210 22.9456
# 4 -5.9630 -26.7687 3.1438 53.4961 -6.3731 -9.6447
# 5 14.8850 -12.6972 -5.3210 -6.3731 41.6607 -31.7624
# 6 11.9568 12.2162 22.9456 -9.6447 -31.7624 55.9899
#
#
#
# Elastic Compliance Matrix: (Units=1/GPa)
#
#
# Indices 1 2 3 4 5 6 
#
# 1 0.014177 -0.006463 -0.001627 -0.005639 -0.016865 -0.011489
# 2 -0.006463 0.010962 -0.002727 0.008210 0.013598 0.009235
# 3 -0.001627 -0.002727 0.010537 -0.003905 -0.004561 -0.006636
# 4 -0.005639 0.008210 -0.003905 0.028500 0.022720 0.018811
# 5 -0.016865 0.013598 -0.004561 0.022720 0.073937 0.048361
# 6 -0.011489 0.009235 -0.006636 0.018811 0.048361 0.051694
#
#
# Mechanical properties :
#
#
# Convention : Reuss Voigt Hill
#
# Bulk Modulus (GPa) = 71.22089 82.69877 76.95983
# Shear Modulus (GPa) = 23.13520 47.92129 35.52825
#
# Velocity S-wave (km/s) = 2.99059 4.30412 3.70601
# Velocity P-wave (km/s) = 6.28152 7.52797 6.93281
#
# Compressibility (1/GPa) = 0.01404082
#
# Stress axis : x y z
#
# Youngs Moduli (GPa) = 70.53901 91.22595 94.90476
#
# Poissons Ratio (x) = 0.58961 0.15437
# Poissons Ratio (y) = 0.45591 0.25885
# Poissons Ratio (z) = 0.11473 0.24882
#
# Static dielectric constant tensor:
#      x y z
#    x 2.070030 -0.143490 0.003590 
#    y -0.143490 2.184200 -0.053640 
#    z 0.003590 -0.053640 1.939970 
# 
# From -- ./inp_files/578423.got.cif
#   From: 2010.05.17/outbox.cif.g08.bks.cpg/sg2_290_cif.got.tgz:578423.got - 2010.06.03 11:33:40.
