data_PCOD9067406
_publ_section_title
;
Structure prediction by ZEFSAII (Michael W. Deem and Ramdas Pophale) SiO2 
 PCOD9067406
Probable space group: P -1
;
_chemical_formula_sum "Si O2"
_cell_formula_units_Z 14
_cell_length_a 8.206485
_cell_length_b 18.394654
_cell_length_c 6.997319
_cell_angle_alpha 101.942971
_cell_angle_beta 123.844108
_cell_angle_gamma 47.575292
_cell_volume 622.569738
_symmetry_space_group_name_H-M "P -1"
_symmetry_group_IT_number 2
_symmetry_cell_setting 'triclinic'
loop_
_space_group_symop_operation_xyz
x,y,z
-x,-y,-z
loop_
_atom_site_type_symbol
_atom_site_label
_atom_site_fract_x
_atom_site_fract_y
_atom_site_fract_z
Si Si1 0.227833 0.587150 0.992469
Si Si2 0.995148 0.030406 0.231586
Si Si3 0.228067 0.050442 0.728111
Si Si4 0.032268 0.722552 0.266332
Si Si5 0.207858 0.385575 0.486667
Si Si6 0.454257 0.261829 0.949993
Si Si7 0.569626 0.590535 0.723152
O O1 0.159836 0.679708 0.113338
O O2 0.243490 0.523553 0.141296
O O3 0.500000 0.500000 0.000000
O O4 0.975157 0.632535 0.724213
O O5 0.231707 0.014005 0.493629
O O6 0.927236 0.973614 0.272915
O O7 0.739259 0.152276 0.130760
O O8 0.000000 0.000000 0.000000
O O9 0.057505 0.170688 0.686970
O O10 0.500000 0.000000 0.000000
O O11 0.268150 0.639107 0.522662
O O12 0.775494 0.736292 0.133618
O O13 0.409429 0.295976 0.719714
O O14 0.345424 0.393858 0.409356
O O15 0.000000 0.500000 0.500000
O O16 0.420674 0.347815 0.082660
#
# Coordination Sequence:
#
# PCOD9067406 Si02
#       7
#     2   2   2   2   2   2   2
#     4  12  25  44  70 108 145 189 240 290 350 423
#     4  11  27  47  76 105 142 186 239 302 364 433
#     4  11  25  49  75 105 144 186 241 300 366 425
#     4  12  25  45  72 102 143 187 232 297 353 421
#     4  12  24  42  70 100 142 190 234 284 344 419
#     4  12  25  46  71 103 140 188 233 285 361 423
#     4  12  25  46  70 100 147 187 233 288 348 421
#
# _framework density 22.487439999999999
#
# number of rings (size 3 to 8) (size 9 to 14) (size 15 to 20)
#    0.000    0.286    5.714    3.429    2.000    1.714 
#    2.571    0.000    0.000    0.000    0.000    0.000 
#    0.000    0.000    0.000    0.000    0.000    0.000 
#
# Total GULP energy -78257.079698 kJ/mol
# GULP energy per Si atom -5589.791407 kJ/mol
# Density = 2.243626 g / cm^3
# Si number density = 22.487440 Si / 1000 Ang^3
#
#
#
# Elastic Constant Matrix: (Units=GPa)
#
#
# Indices 1 2 3 4 5 6 
#
# 1 63.3691 -3.1277 37.4074 15.1080 3.0667 -1.1300
# 2 -3.1277 70.4069 18.9988 26.2532 4.6976 11.5895
# 3 37.4074 18.9988 151.1449 30.5928 17.8805 0.5195
# 4 15.1080 26.2532 30.5928 36.0673 6.9307 8.6820
# 5 3.0667 4.6976 17.8805 6.9307 42.8119 1.3919
# 6 -1.1300 11.5895 0.5195 8.6820 1.3919 20.2939
#
#
#
# Elastic Compliance Matrix: (Units=1/GPa)
#
#
# Indices 1 2 3 4 5 6 
#
# 1 0.020706 0.005207 -0.003903 -0.009959 0.001108 0.002464
# 2 0.005207 0.021407 -0.000777 -0.015938 0.000349 -0.005121
# 3 -0.003903 -0.000777 0.009126 -0.005663 -0.002614 0.002595
# 4 -0.009959 -0.015938 -0.005663 0.052137 -0.003178 -0.013395
# 5 0.001108 0.000349 -0.002614 -0.003178 0.024860 -0.000417
# 6 0.002464 -0.005121 0.002595 -0.013395 -0.000417 0.058030
#
#
# Mechanical properties :
#
#
# Convention : Reuss Voigt Hill
#
# Bulk Modulus (GPa) = 19.12298 43.49756 31.31027
# Shear Modulus (GPa) = 24.67386 35.27746 29.97566
#
# Velocity S-wave (km/s) = 3.31604 3.96506 3.65498
# Velocity P-wave (km/s) = 4.81495 6.35195 5.63609
#
# Compressibility (1/GPa) = 0.05229312
#
# Stress axis : x y z
#
# Youngs Moduli (GPa) = 48.29475 46.71416 109.57286
#
# Poissons Ratio (x) = -0.24324 0.42765
# Poissons Ratio (y) = -0.25147 0.08517
# Poissons Ratio (z) = 0.18849 0.03631
#
# Static dielectric constant tensor:
#      x y z
#    x 1.842490 -0.026950 0.009670 
#    y -0.026950 1.805190 0.048270 
#    z 0.009670 0.048270 1.875440 
# 
# From -- ./inp_files/46432.got.cif
#   From: 2010.05.17/outbox.cif.g08.bks.cpg/sg2_24_cif.got.tgz:46432.got - 2010.06.03 11:33:40.
