data_PCOD9067645
_publ_section_title
;
Structure prediction by ZEFSAII (Michael W. Deem and Ramdas Pophale) SiO2 
 PCOD9067645
Probable space group: P -1
;
_chemical_formula_sum "Si O2"
_cell_formula_units_Z 16
_cell_length_a 14.839662
_cell_length_b 8.970319
_cell_length_c 10.088062
_cell_angle_alpha 104.097987
_cell_angle_beta 58.113925
_cell_angle_gamma 143.634547
_cell_volume 630.482980
_symmetry_space_group_name_H-M "P -1"
_symmetry_group_IT_number 2
_symmetry_cell_setting 'triclinic'
loop_
_space_group_symop_operation_xyz
x,y,z
-x,-y,-z
loop_
_atom_site_type_symbol
_atom_site_label
_atom_site_fract_x
_atom_site_fract_y
_atom_site_fract_z
Si Si1 0.946130 0.166346 0.052796
Si Si2 0.420267 0.200346 0.311466
Si Si3 0.381925 0.018419 0.810634
Si Si4 0.368555 0.403031 0.193500
Si Si5 0.782305 0.727389 0.266657
Si Si6 0.013996 0.141996 0.403995
Si Si7 0.733908 0.281008 0.624447
Si Si8 0.295509 0.687736 0.035971
O O1 0.089998 0.383165 0.101394
O O2 0.812706 0.152909 0.131582
O O3 0.823435 0.878212 0.136678
O O4 0.083148 0.263465 0.851144
O O5 0.334267 0.225424 0.285835
O O6 0.564688 0.427134 0.361785
O O7 0.261204 0.897171 0.425916
O O8 0.562037 0.269327 0.122814
O O9 0.511287 0.322043 0.772154
O O10 0.541862 0.090069 0.652642
O O11 0.321548 0.871938 0.966490
O O12 0.199935 0.287471 0.226080
O O13 0.500000 0.500000 0.000000
O O14 0.850136 0.911201 0.376735
O O15 0.092862 0.396949 0.460936
O O16 0.000000 0.000000 0.500000
O O17 0.692458 0.263864 0.808685
#
# Coordination Sequence:
#
# PCOD9067645 Si02
#       8
#     2   2   2   2   2   2   2   2
#     4  10  18  30  52  84 119 147 185 234 288 336
#     4  10  19  34  55  83 113 147 189 235 285 333
#     4  10  18  28  48  82 118 144 184 228 281 339
#     4  11  20  33  60  88 114 147 194 234 275 340
#     4  10  20  34  55  81 115 151 187 237 290 335
#     4  11  24  42  60  82 115 155 193 235 286 342
#     4  10  20  35  54  79 115 151 186 233 284 337
#     4  10  18  30  50  84 122 150 176 233 295 334
#
# _framework density 25.377371
#
# number of rings (size 3 to 8) (size 9 to 14) (size 15 to 20)
#    0.000    1.750    2.500    4.875    1.750    0.000 
#    0.000    1.875    0.000    0.000    0.000    0.000 
#    0.000    0.000    0.000    0.000    0.000    0.000 
#
# Total GULP energy -89224.950164 kJ/mol
# GULP energy per Si atom -5576.559385 kJ/mol
# Density = 2.531961 g / cm^3
# Si number density = 25.377371 Si / 1000 Ang^3
#
#
#
# Elastic Constant Matrix: (Units=GPa)
#
#
# Indices 1 2 3 4 5 6 
#
# 1 145.9056 47.6240 5.5944 -9.7646 -9.5134 4.2858
# 2 47.6240 161.3264 13.1698 -22.9895 10.6756 -0.8600
# 3 5.5944 13.1698 25.8726 1.9960 6.0190 0.8132
# 4 -9.7646 -22.9895 1.9960 34.6037 -6.9361 8.1136
# 5 -9.5134 10.6756 6.0190 -6.9361 32.9893 -16.3418
# 6 4.2858 -0.8600 0.8132 8.1136 -16.3418 44.9444
#
#
#
# Elastic Compliance Matrix: (Units=1/GPa)
#
#
# Indices 1 2 3 4 5 6 
#
# 1 0.007995 -0.002263 -0.001593 0.001531 0.003816 0.000334
# 2 -0.002263 0.007948 -0.003358 0.004676 -0.002238 -0.001229
# 3 -0.001593 -0.003358 0.043717 -0.006505 -0.010347 -0.003291
# 4 0.001531 0.004676 -0.006505 0.034887 0.005319 -0.004303
# 5 0.003816 -0.002238 -0.010347 0.005319 0.042152 0.014147
# 6 0.000334 -0.001229 -0.003291 -0.004303 0.014147 0.028174
#
#
# Mechanical properties :
#
#
# Convention : Reuss Voigt Hill
#
# Bulk Modulus (GPa) = 22.10806 51.76455 36.93630
# Shear Modulus (GPa) = 25.72283 40.28855 33.00569
#
# Velocity S-wave (km/s) = 3.18718 3.98876 3.61029
# Velocity P-wave (km/s) = 4.71962 6.45413 5.65379
#
# Compressibility (1/GPa) = 0.04523237
#
# Stress axis : x y z
#
# Youngs Moduli (GPa) = 125.08111 125.81021 22.87417
#
# Poissons Ratio (x) = 0.28465 0.03645
# Poissons Ratio (y) = 0.28300 0.07682
# Poissons Ratio (z) = 0.19931 0.42250
#
# Static dielectric constant tensor:
#      x y z
#    x 2.002670 0.016920 -0.048400 
#    y 0.016920 2.075650 -0.092530 
#    z -0.048400 -0.092530 2.102300 
# 
# From -- ./inp_files/180200.got.cif
#   From: 2010.05.17/outbox.cif.g08.bks.cpg/sg2_91_cif.got.tgz:180200.got - 2010.06.03 11:33:40.
