data_PCOD9067074
_publ_section_title
;
Structure prediction by ZEFSAII (Michael W. Deem and Ramdas Pophale) SiO2 
 PCOD9067074
Probable space group: P -1
;
_chemical_formula_sum "Si O2"
_cell_formula_units_Z 12
_cell_length_a 10.995238
_cell_length_b 9.387513
_cell_length_c 7.501768
_cell_angle_alpha 104.624254
_cell_angle_beta 141.119013
_cell_angle_gamma 80.252627
_cell_volume 469.822710
_symmetry_space_group_name_H-M "P -1"
_symmetry_group_IT_number 2
_symmetry_cell_setting 'triclinic'
loop_
_space_group_symop_operation_xyz
x,y,z
-x,-y,-z
loop_
_atom_site_type_symbol
_atom_site_label
_atom_site_fract_x
_atom_site_fract_y
_atom_site_fract_z
Si Si1 0.306217 0.091664 0.830705
Si Si2 0.873998 0.402078 0.686837
Si Si3 0.725480 0.885297 0.773781
Si Si4 0.528932 0.577953 0.364793
Si Si5 0.832049 0.107923 0.690368
Si Si6 0.825336 0.593175 0.250394
O O1 0.293259 0.260035 0.793839
O O2 0.159313 0.997659 0.505085
O O3 0.500000 0.000000 0.000000
O O4 0.283842 0.090318 0.018155
O O5 0.712779 0.505132 0.455921
O O6 0.756863 0.263966 0.595405
O O7 0.039103 0.337923 0.732976
O O8 0.000000 0.500000 0.000000
O O9 0.592485 0.746342 0.518391
O O10 0.702436 0.026635 0.666586
O O11 0.951885 0.853991 0.979151
O O12 0.500000 0.500000 0.500000
O O13 0.333460 0.532353 0.026700
O O14 0.000000 0.500000 0.500000
#
# Coordination Sequence:
#
# PCOD9067074 Si02
#       6
#     2   2   2   2   2   2
#     4  12  26  51  78 119 163 214 275 343 409 490
#     4  12  23  48  82 112 160 213 273 338 411 488
#     4  11  25  48  79 115 155 216 269 337 411 487
#     4  12  23  50  82 112 159 214 278 333 410 496
#     4  11  25  47  77 113 161 207 274 334 416 485
#     4  12  29  50  80 122 164 214 275 345 418 486
#
# _framework density 25.541549
#
# number of rings (size 3 to 8) (size 9 to 14) (size 15 to 20)
#    0.000    0.333    6.667    1.500    2.333    1.333 
#    3.000    0.000    0.000    0.000    0.000    0.000 
#    0.000    0.000    0.000    0.000    0.000    0.000 
#
# Total GULP energy -67087.701611 kJ/mol
# GULP energy per Si atom -5590.641801 kJ/mol
# Density = 2.548342 g / cm^3
# Si number density = 25.541549 Si / 1000 Ang^3
#
#
#
# Elastic Constant Matrix: (Units=GPa)
#
#
# Indices 1 2 3 4 5 6 
#
# 1 94.9231 53.0423 32.7871 9.0730 12.6256 -6.5471
# 2 53.0423 213.7191 82.8427 22.7181 1.1289 4.9933
# 3 32.7871 82.8427 200.3501 15.9267 18.4493 0.3527
# 4 9.0730 22.7181 15.9267 46.9484 1.6599 18.0176
# 5 12.6256 1.1289 18.4493 1.6599 44.9605 -9.6093
# 6 -6.5471 4.9933 0.3527 18.0176 -9.6093 40.8748
#
#
#
# Elastic Compliance Matrix: (Units=1/GPa)
#
#
# Indices 1 2 3 4 5 6 
#
# 1 0.013055 -0.002876 -0.000552 -0.001853 -0.002739 0.002620
# 2 -0.002876 0.006431 -0.002189 -0.001859 0.001606 -0.000030
# 3 -0.000552 -0.002189 0.006271 -0.000861 -0.002341 -0.000046
# 4 -0.001853 -0.001859 -0.000861 0.027970 -0.002907 -0.013075
# 5 -0.002739 0.001606 -0.002341 -0.002907 0.025460 0.006652
# 6 0.002620 -0.000030 -0.000046 -0.013075 0.006652 0.032216
#
#
# Mechanical properties :
#
#
# Convention : Reuss Voigt Hill
#
# Bulk Modulus (GPa) = 68.85725 94.03738 81.44731
# Shear Modulus (GPa) = 39.22281 49.24475 44.23378
#
# Velocity S-wave (km/s) = 3.92298 4.39569 4.16605
# Velocity P-wave (km/s) = 6.89472 7.91582 7.42285
#
# Compressibility (1/GPa) = 0.01452280
#
# Stress axis : x y z
#
# Youngs Moduli (GPa) = 76.60132 155.49888 159.47054
#
# Poissons Ratio (x) = 0.44716 0.08810
# Poissons Ratio (y) = 0.22028 0.34902
# Poissons Ratio (z) = 0.04232 0.34033
#
# Static dielectric constant tensor:
#      x y z
#    x 2.171940 0.104700 -0.078150 
#    y 0.104700 2.080060 -0.102510 
#    z -0.078150 -0.102510 1.992200 
# 
# From -- ./inp_files/240823.got.cif
#   From: 2010.05.17/outbox.cif.g08.bks.cpg/sg2_121_cif.got.tgz:240823.got - 2010.06.03 11:33:40.
