data_PCOD9067600
_publ_section_title
;
Structure prediction by ZEFSAII (Michael W. Deem and Ramdas Pophale) SiO2 
 PCOD9067600
Probable space group: P -1
;
_chemical_formula_sum "Si O2"
_cell_formula_units_Z 14
_cell_length_a 25.012825
_cell_length_b 8.394827
_cell_length_c 12.607543
_cell_angle_alpha 130.256570
_cell_angle_beta 156.252874
_cell_angle_gamma 35.897083
_cell_volume 571.928806
_symmetry_space_group_name_H-M "P -1"
_symmetry_group_IT_number 2
_symmetry_cell_setting 'triclinic'
loop_
_space_group_symop_operation_xyz
x,y,z
-x,-y,-z
loop_
_atom_site_type_symbol
_atom_site_label
_atom_site_fract_x
_atom_site_fract_y
_atom_site_fract_z
Si Si1 0.437712 0.333726 0.321201
Si Si2 0.030210 0.821534 0.874107
Si Si3 0.786168 0.335195 0.478444
Si Si4 0.594273 0.292496 0.929610
Si Si5 0.305325 0.126595 0.243653
Si Si6 0.901316 0.635273 0.697064
Si Si7 0.492549 0.807926 0.829115
O O1 0.500000 0.500000 0.500000
O O2 0.252117 0.532845 0.141513
O O3 0.619595 0.032872 0.577026
O O4 0.372507 0.325195 0.084165
O O5 0.942719 0.686145 0.675268
O O6 0.000000 0.000000 0.000000
O O7 0.939906 0.051906 0.711665
O O8 0.596994 0.593952 0.317832
O O9 0.854879 0.456456 0.583615
O O10 0.715801 0.241640 0.225768
O O11 0.720405 0.018555 0.958326
O O12 0.524168 0.568661 0.852538
O O13 0.500000 0.000000 0.500000
O O14 0.104810 0.459104 0.041002
O O15 0.706439 0.976263 0.500777
O O16 0.500000 0.000000 0.000000
#
# Coordination Sequence:
#
# PCOD9067600 Si02
#       7
#     2   2   2   2   2   2   2
#     4  12  25  46  76 104 151 204 251 314 387 449
#     4  12  26  48  75 115 157 198 256 325 384 464
#     4  11  26  45  77 109 146 205 249 309 398 445
#     4  11  25  51  73 104 163 195 255 323 385 458
#     4  12  27  47  71 110 151 198 259 320 379 461
#     4  12  27  46  76 112 150 199 260 314 381 471
#     4  12  26  49  77 112 151 202 260 317 386 463
#
# _framework density 24.478570000000001
#
# number of rings (size 3 to 8) (size 9 to 14) (size 15 to 20)
#    0.000    0.286    5.714    2.571    2.000    2.857 
#    0.000    1.429    0.000    0.000    0.000    0.000 
#    0.000    0.000    0.000    0.000    0.000    0.000 
#
# Total GULP energy -78083.070076 kJ/mol
# GULP energy per Si atom -5577.362148 kJ/mol
# Density = 2.442286 g / cm^3
# Si number density = 24.478570 Si / 1000 Ang^3
#
#
#
# Elastic Constant Matrix: (Units=GPa)
#
#
# Indices 1 2 3 4 5 6 
#
# 1 101.5901 26.0437 30.8168 9.1169 -9.2545 0.9883
# 2 26.0437 94.4794 42.3285 -10.0553 -19.4763 9.4176
# 3 30.8168 42.3285 123.1205 -27.4152 -20.4943 -0.7310
# 4 9.1169 -10.0553 -27.4152 42.5986 2.5375 -12.4929
# 5 -9.2545 -19.4763 -20.4943 2.5375 45.8199 2.6640
# 6 0.9883 9.4176 -0.7310 -12.4929 2.6640 51.5683
#
#
#
# Elastic Compliance Matrix: (Units=1/GPa)
#
#
# Indices 1 2 3 4 5 6 
#
# 1 0.012013 -0.002158 -0.003491 -0.005726 0.000340 -0.001290
# 2 -0.002158 0.013879 -0.003464 0.000496 0.004040 -0.002631
# 3 -0.003491 -0.003464 0.012612 0.008713 0.002816 0.002844
# 4 -0.005726 0.000496 0.008713 0.032743 0.000671 0.008040
# 5 0.000340 0.004040 0.002816 0.000671 0.024939 -0.001830
# 6 -0.001290 -0.002631 0.002844 0.008040 -0.001830 0.021980
#
#
# Mechanical properties :
#
#
# Convention : Reuss Voigt Hill
#
# Bulk Modulus (GPa) = 49.31399 57.50757 53.41078
# Shear Modulus (GPa) = 34.92803 42.66410 38.79606
#
# Velocity S-wave (km/s) = 3.78151 4.17935 3.98540
# Velocity P-wave (km/s) = 6.26545 6.84349 6.56084
#
# Compressibility (1/GPa) = 0.02027822
#
# Stress axis : x y z
#
# Youngs Moduli (GPa) = 83.24286 72.05132 79.28659
#
# Poissons Ratio (x) = 0.15550 0.27678
# Poissons Ratio (y) = 0.17966 0.27465
# Poissons Ratio (z) = 0.29059 0.24959
#
# Static dielectric constant tensor:
#      x y z
#    x 2.075680 0.002010 0.074500 
#    y 0.002010 1.986760 0.070320 
#    z 0.074500 0.070320 1.916900 
# 
# From -- ./inp_files/476262.got.cif
#   From: 2010.05.17/outbox.cif.g08.bks.cpg/sg2_239_cif.got.tgz:476262.got - 2010.06.03 11:33:40.
