data_PCOD9067223
_publ_section_title
;
Structure prediction by ZEFSAII (Michael W. Deem and Ramdas Pophale) SiO2 
 PCOD9067223
Probable space group: P -1
;
_chemical_formula_sum "Si O2"
_cell_formula_units_Z 10
_cell_length_a 6.272839
_cell_length_b 14.468014
_cell_length_c 4.892775
_cell_angle_alpha 90.631849
_cell_angle_beta 130.110314
_cell_angle_gamma 93.535500
_cell_volume 338.212557
_symmetry_space_group_name_H-M "P -1"
_symmetry_group_IT_number 2
_symmetry_cell_setting 'triclinic'
loop_
_space_group_symop_operation_xyz
x,y,z
-x,-y,-z
loop_
_atom_site_type_symbol
_atom_site_label
_atom_site_fract_x
_atom_site_fract_y
_atom_site_fract_z
Si Si1 0.215136 0.439454 0.810524
Si Si2 0.134039 0.102468 0.236126
Si Si3 0.456795 0.714881 0.943711
Si Si4 0.061323 0.695268 0.088967
Si Si5 0.371797 0.905560 0.767321
O O1 0.000000 0.500000 0.500000
O O2 0.136059 0.401471 0.045002
O O3 0.500000 0.500000 0.000000
O O4 0.268202 0.334007 0.763949
O O5 0.463560 0.100459 0.394706
O O6 0.953254 0.102938 0.381101
O O7 0.058198 0.203005 0.044911
O O8 0.000000 0.000000 0.000000
O O9 0.298871 0.701542 0.524095
O O10 0.499753 0.822876 0.030264
O O11 0.235630 0.675187 0.971963
O O12 0.500000 0.000000 0.000000
#
# Coordination Sequence:
#
# PCOD9067223 Si02
#       5
#     2   2   2   2   2
#     4  12  26  50  78 112 152 206 264 328 400 470
#     4   9  18  38  66 102 145 193 250 308 386 464
#     4  11  25  48  74 107 153 198 256 325 390 471
#     4  11  25  48  74 107 153 198 256 325 390 471
#     4   9  18  38  66 102 145 193 250 308 386 464
#
# _framework density 29.567202999999999
#
# number of rings (size 3 to 8) (size 9 to 14) (size 15 to 20)
#    0.000    1.600    4.000    0.000    0.000    3.200 
#    0.000   18.000    0.000    0.000    0.000    0.000 
#    0.000    0.000    0.000    0.000    0.000    0.000 
#
# Total GULP energy -55690.113730 kJ/mol
# GULP energy per Si atom -5569.011373 kJ/mol
# Density = 2.949991 g / cm^3
# Si number density = 29.567203 Si / 1000 Ang^3
#
#
#
# Elastic Constant Matrix: (Units=GPa)
#
#
# Indices 1 2 3 4 5 6 
#
# 1 223.2049 47.3265 92.2913 -0.7033 7.2332 10.5877
# 2 47.3265 196.6836 53.8720 -47.0164 4.6944 13.1113
# 3 92.2913 53.8720 131.5541 -30.3409 12.4214 -8.2013
# 4 -0.7033 -47.0164 -30.3409 67.3770 -1.0495 4.5402
# 5 7.2332 4.6944 12.4214 -1.0495 55.8476 -0.2708
# 6 10.5877 13.1113 -8.2013 4.5402 -0.2708 84.2524
#
#
#
# Elastic Compliance Matrix: (Units=1/GPa)
#
#
# Indices 1 2 3 4 5 6 
#
# 1 0.006833 -0.000816 -0.005190 -0.002757 0.000281 -0.001087
# 2 -0.000816 0.006723 -0.001286 0.004190 -0.000101 -0.001295
# 3 -0.005190 -0.001286 0.013194 0.004832 -0.002054 0.001870
# 4 -0.002757 0.004190 0.004832 0.019963 -0.000699 -0.000913
# 5 0.000281 -0.000101 -0.002054 -0.000699 0.018321 -0.000123
# 6 -0.001087 -0.001295 0.001870 -0.000913 -0.000123 0.012438
#
#
# Mechanical properties :
#
#
# Convention : Reuss Voigt Hill
#
# Bulk Modulus (GPa) = 82.18909 104.26912 93.22911
# Shear Modulus (GPa) = 52.02368 65.35892 58.69130
#
# Velocity S-wave (km/s) = 4.19920 4.70672 4.46018
# Velocity P-wave (km/s) = 7.16720 8.05477 7.62391
#
# Compressibility (1/GPa) = 0.01216706
#
# Stress axis : x y z
#
# Youngs Moduli (GPa) = 146.35230 148.74234 75.79435
#
# Poissons Ratio (x) = 0.12138 0.39334
# Poissons Ratio (y) = 0.11943 0.09743
# Poissons Ratio (z) = 0.75951 0.19121
#
# Static dielectric constant tensor:
#      x y z
#    x 2.796700 0.206910 -0.052980 
#    y 0.206910 2.422290 0.127220 
#    z -0.052980 0.127220 2.403210 
# 
# From -- ./inp_files/2585.got.cif
#   From: 2010.05.17/outbox.cif.g08.bks.cpg/sg2_2_cif.got.tgz:2585.got - 2010.06.03 11:33:40.
