data_PCOD9067981
_publ_section_title
;
Structure prediction by ZEFSAII (Michael W. Deem and Ramdas Pophale) SiO2 
 PCOD9067981
Probable space group: P -1
;
_chemical_formula_sum "Si O2"
_cell_formula_units_Z 10
_cell_length_a 9.226596
_cell_length_b 5.707398
_cell_length_c 16.327018
_cell_angle_alpha 59.865470
_cell_angle_beta 138.609746
_cell_angle_gamma 132.514660
_cell_volume 419.001567
_symmetry_space_group_name_H-M "P -1"
_symmetry_group_IT_number 2
_symmetry_cell_setting 'triclinic'
loop_
_space_group_symop_operation_xyz
x,y,z
-x,-y,-z
loop_
_atom_site_type_symbol
_atom_site_label
_atom_site_fract_x
_atom_site_fract_y
_atom_site_fract_z
Si Si1 0.686828 0.557911 0.281412
Si Si2 0.404009 0.640587 0.544422
Si Si3 0.918720 0.760313 0.928280
Si Si4 0.221292 0.403013 0.864879
Si Si5 0.092058 0.302474 0.310423
O O1 0.710294 0.427611 0.401160
O O2 0.739853 0.453652 0.235017
O O3 0.884742 0.932760 0.297225
O O4 0.388277 0.443304 0.169147
O O5 0.207992 0.428657 0.428078
O O6 0.652870 0.607050 0.648737
O O7 0.500000 0.000000 0.500000
O O8 0.050531 0.022053 0.865928
O O9 0.000000 0.500000 0.000000
O O10 0.000000 0.000000 0.000000
O O11 0.057329 0.531692 0.816099
O O12 0.500000 0.500000 0.000000
#
# Coordination Sequence:
#
# PCOD9067981 Si02
#       5
#     2   2   2   2   2
#     4  12  26  44  77 106 152 199 258 318 389 458
#     4  11  26  50  74 108 151 198 258 320 390 464
#     4  12  28  48  76 111 160 210 259 320 391 463
#     4  12  27  48  73 111 152 201 258 315 387 466
#     4  11  26  46  77 107 150 196 260 317 391 460
#
# _framework density 23.866257000000001
#
# number of rings (size 3 to 8) (size 9 to 14) (size 15 to 20)
#    0.000    0.400    2.000    5.400    5.600    8.000 
#    0.000    0.000    0.000    0.000    0.000    0.000 
#    0.000    0.000    0.000    0.000    0.000    0.000 
#
# Total GULP energy -55953.048757 kJ/mol
# GULP energy per Si atom -5595.304876 kJ/mol
# Density = 2.381194 g / cm^3
# Si number density = 23.866257 Si / 1000 Ang^3
#
#
#
# Elastic Constant Matrix: (Units=GPa)
#
#
# Indices 1 2 3 4 5 6 
#
# 1 150.8947 29.5455 68.6482 -7.5081 -6.3311 9.2020
# 2 29.5455 85.8302 39.7369 14.2052 7.7222 12.4527
# 3 68.6482 39.7369 105.4963 13.4857 25.7895 -4.7264
# 4 -7.5081 14.2052 13.4857 63.1531 4.0328 -0.0150
# 5 -6.3311 7.7222 25.7895 4.0328 73.0723 3.3487
# 6 9.2020 12.4527 -4.7264 -0.0150 3.3487 42.5534
#
#
#
# Elastic Compliance Matrix: (Units=1/GPa)
#
#
# Indices 1 2 3 4 5 6 
#
# 1 0.011187 -0.000110 -0.008782 0.002968 0.004085 -0.003683
# 2 -0.000110 0.015485 -0.005899 -0.002289 0.000802 -0.005227
# 3 -0.008782 -0.005899 0.019928 -0.003507 -0.007271 0.006409
# 4 0.002968 -0.002289 -0.003507 0.017400 0.000796 -0.000418
# 5 0.004085 0.000802 -0.007271 0.000796 0.016625 -0.003234
# 6 -0.003683 -0.005227 0.006409 -0.000418 -0.003234 0.026792
#
#
# Mechanical properties :
#
#
# Convention : Reuss Voigt Hill
#
# Bulk Modulus (GPa) = 58.75450 68.67582 63.71516
# Shear Modulus (GPa) = 35.04583 49.37513 42.21048
#
# Velocity S-wave (km/s) = 3.83616 4.55337 4.21007
# Velocity P-wave (km/s) = 6.65531 7.51545 7.09842
#
# Compressibility (1/GPa) = 0.01701997
#
# Stress axis : x y z
#
# Youngs Moduli (GPa) = 89.38608 64.58013 50.18077
#
# Poissons Ratio (x) = 0.00710 0.44066
# Poissons Ratio (y) = 0.00983 0.29599
# Poissons Ratio (z) = 0.78495 0.38093
#
# Static dielectric constant tensor:
#      x y z
#    x 2.041660 -0.086700 -0.066520 
#    y -0.086700 1.853150 0.019990 
#    z -0.066520 0.019990 1.934060 
# 
# From -- ./inp_files/129988.got.cif
#   From: 2010.05.17/outbox.cif.g08.bks.cpg/sg2_65_cif.got.tgz:129988.got - 2010.06.03 11:33:40.
