data_PCOD9067350
_publ_section_title
;
Structure prediction by ZEFSAII (Michael W. Deem and Ramdas Pophale) SiO2 
 PCOD9067350
Probable space group: P -1
;
_chemical_formula_sum "Si O2"
_cell_formula_units_Z 13
_cell_length_a 8.465679
_cell_length_b 11.565121
_cell_length_c 11.789452
_cell_angle_alpha 62.978348
_cell_angle_beta 48.773033
_cell_angle_gamma 100.371666
_cell_volume 540.197803
_symmetry_space_group_name_H-M "P -1"
_symmetry_group_IT_number 2
_symmetry_cell_setting 'triclinic'
loop_
_space_group_symop_operation_xyz
x,y,z
-x,-y,-z
loop_
_atom_site_type_symbol
_atom_site_label
_atom_site_fract_x
_atom_site_fract_y
_atom_site_fract_z
Si Si1 0.264275 0.349656 0.855480
Si Si2 0.881939 0.358435 0.451948
Si Si3 0.625255 0.165016 0.282667
Si Si4 0.812574 0.037851 0.621951
Si Si5 0.546617 0.255149 0.890711
Si Si6 0.451388 0.276433 0.494486
Si Si7 0.000000 0.000000 0.000000
O O1 0.373726 0.312929 0.925017
O O2 0.527061 0.560122 0.596048
O O3 0.162739 0.208309 0.867165
O O4 0.980010 0.310421 0.040075
O O5 0.653702 0.258859 0.712687
O O6 0.699497 0.327020 0.442478
O O7 0.154788 0.575163 0.255596
O O8 0.976447 0.249482 0.446013
O O9 0.474161 0.072404 0.275337
O O10 0.522231 0.253709 0.346271
O O11 0.500000 0.000000 0.500000
O O12 0.670221 0.938522 0.854846
O O13 0.000000 0.000000 0.500000
O O14 0.141495 0.078070 0.771106
#
# Coordination Sequence:
#
# PCOD9067350 Si02
#       7
#     2   2   2   2   2   2   1
#     4  12  26  46  74 106 141 187 237 293 353 419
#     4  11  25  49  70 102 143 183 234 292 347 423
#     4  12  24  48  73 103 142 186 242 292 347 414
#     4  12  27  47  72 102 143 189 232 290 351 421
#     4  11  27  46  70 105 141 188 228 288 357 422
#     4  12  26  47  74 107 139 187 239 295 351 412
#     4  12  24  42  74 104 142 176 238 294 342 422
#
# _framework density 24.065259999999999
#
# number of rings (size 3 to 8) (size 9 to 14) (size 15 to 20)
#    0.000    0.308    4.615    3.231    2.154    0.615 
#    5.538    0.000    0.000    0.000    0.000    0.000 
#    0.000    0.000    0.000    0.000    0.000    0.000 
#
# Total GULP energy -72583.748180 kJ/mol
# GULP energy per Si atom -5583.365245 kJ/mol
# Density = 2.401049 g / cm^3
# Si number density = 24.065260 Si / 1000 Ang^3
#
#
#
# Elastic Constant Matrix: (Units=GPa)
#
#
# Indices 1 2 3 4 5 6 
#
# 1 68.9660 -13.2979 3.5926 -6.0189 18.8681 6.8988
# 2 -13.2979 81.3477 -10.0621 -10.9972 6.1339 -5.8065
# 3 3.5926 -10.0621 63.4372 -6.8841 4.9713 -6.9032
# 4 -6.0189 -10.9972 -6.8841 35.9281 -12.6183 9.7686
# 5 18.8681 6.1339 4.9713 -12.6183 26.0916 -0.2762
# 6 6.8988 -5.8065 -6.9032 9.7686 -0.2762 33.9717
#
#
#
# Elastic Compliance Matrix: (Units=1/GPa)
#
#
# Indices 1 2 3 4 5 6 
#
# 1 0.019862 0.004243 0.000406 0.000240 -0.015358 -0.003419
# 2 0.004243 0.014302 0.002945 0.003484 -0.005295 0.001136
# 3 0.000406 0.002945 0.017046 0.002276 -0.003099 0.003205
# 4 0.000240 0.003484 0.002276 0.037937 0.016817 -0.009763
# 5 -0.015358 -0.005295 -0.003099 0.016817 0.059372 -0.002769
# 6 -0.003419 0.001136 0.003205 -0.009763 -0.002769 0.033761
#
#
# Mechanical properties :
#
#
# Convention : Reuss Voigt Hill
#
# Bulk Modulus (GPa) = 15.06062 19.35733 17.20898
# Shear Modulus (GPa) = 26.42362 34.76617 30.59489
#
# Velocity S-wave (km/s) = 3.31720 3.80499 3.56944
# Velocity P-wave (km/s) = 4.57642 5.23117 4.91471
#
# Compressibility (1/GPa) = 0.06639831
#
# Stress axis : x y z
#
# Youngs Moduli (GPa) = 50.34826 69.91911 58.66348
#
# Poissons Ratio (x) = -0.29669 -0.02380
# Poissons Ratio (y) = -0.21365 -0.17276
# Poissons Ratio (z) = -0.02043 -0.20591
#
# Static dielectric constant tensor:
#      x y z
#    x 1.940430 -0.018350 -0.033770 
#    y -0.018350 1.943620 0.021050 
#    z -0.033770 0.021050 1.904910 
# 
# From -- ./inp_files/240422.got.cif
#   From: 2010.05.17/outbox.cif.g08.bks.cpg/sg2_121_cif.got.tgz:240422.got - 2010.06.03 11:33:40.
