data_PCOD9067590
_publ_section_title
;
Structure prediction by ZEFSAII (Michael W. Deem and Ramdas Pophale) SiO2 
 PCOD9067590
Probable space group: P -1
;
_chemical_formula_sum "Si O2"
_cell_formula_units_Z 11
_cell_length_a 10.346006
_cell_length_b 10.296388
_cell_length_c 6.801150
_cell_angle_alpha 117.307259
_cell_angle_beta 45.508367
_cell_angle_gamma 130.413807
_cell_volume 393.488985
_symmetry_space_group_name_H-M "P -1"
_symmetry_group_IT_number 2
_symmetry_cell_setting 'triclinic'
loop_
_space_group_symop_operation_xyz
x,y,z
-x,-y,-z
loop_
_atom_site_type_symbol
_atom_site_label
_atom_site_fract_x
_atom_site_fract_y
_atom_site_fract_z
Si Si1 0.560336 0.760071 0.121539
Si Si2 0.647014 0.555287 0.575309
Si Si3 0.500000 0.000000 0.000000
Si Si4 0.053818 0.781810 0.107380
Si Si5 0.872310 0.300017 0.454748
Si Si6 0.794654 0.960674 0.382220
O O1 0.444594 0.601206 0.284550
O O2 0.370074 0.785637 0.266378
O O3 0.722826 0.907838 0.194373
O O4 0.636558 0.699586 0.813790
O O5 0.500000 0.500000 0.500000
O O6 0.884189 0.619737 0.301098
O O7 0.936472 0.167506 0.375972
O O8 0.418190 0.095883 0.310619
O O9 0.916185 0.869750 0.265155
O O10 0.264662 0.908152 0.083583
O O11 0.112879 0.720047 0.805772
O O12 0.000000 0.500000 0.500000
#
# Coordination Sequence:
#
# PCOD9067590 Si02
#       6
#     2   2   1   2   2   2
#     4  11  26  51  86 125 176 226 286 361 434 528
#     4  11  25  50  88 132 175 224 291 363 443 512
#     4  12  30  52  80 130 170 226 292 356 430 528
#     4  12  28  53  89 124 171 233 285 365 438 517
#     4  12  29  52  82 123 171 229 294 359 432 519
#     4  12  28  53  84 125 174 226 295 357 437 517
#
# _framework density 27.955038999999999
#
# number of rings (size 3 to 8) (size 9 to 14) (size 15 to 20)
#    0.000    0.364    3.636    2.727    7.636    3.636 
#    0.000    0.000    0.000    0.000    0.000    0.000 
#    0.000    0.000    0.000    0.000    0.000    0.000 
#
# Total GULP energy -61611.407236 kJ/mol
# GULP energy per Si atom -5601.037021 kJ/mol
# Density = 2.789141 g / cm^3
# Si number density = 27.955039 Si / 1000 Ang^3
#
#
#
# Elastic Constant Matrix: (Units=GPa)
#
#
# Indices 1 2 3 4 5 6 
#
# 1 164.6608 43.5757 22.2961 35.4267 -12.9104 23.4746
# 2 43.5757 161.7739 30.6767 25.0901 -5.2484 12.5057
# 3 22.2961 30.6767 197.0037 23.2942 -17.0908 31.3792
# 4 35.4267 25.0901 23.2942 55.3357 10.9097 -0.7914
# 5 -12.9104 -5.2484 -17.0908 10.9097 48.4759 0.2286
# 6 23.4746 12.5057 31.3792 -0.7914 0.2286 64.4565
#
#
#
# Elastic Compliance Matrix: (Units=1/GPa)
#
#
# Indices 1 2 3 4 5 6 
#
# 1 0.008286 -0.001088 0.000773 -0.005915 0.003708 -0.003269
# 2 -0.001088 0.007037 -0.000484 -0.002471 0.000861 -0.000767
# 3 0.000773 -0.000484 0.006294 -0.003604 0.003199 -0.003308
# 4 -0.005915 -0.002471 -0.003604 0.026351 -0.009066 0.004744
# 5 0.003708 0.000861 0.003199 -0.009066 0.024893 -0.003275
# 6 -0.003269 -0.000767 -0.003308 0.004744 -0.003275 0.018534
#
#
# Mechanical properties :
#
#
# Convention : Reuss Voigt Hill
#
# Bulk Modulus (GPa) = 49.94989 79.61505 64.78247
# Shear Modulus (GPa) = 50.16837 62.11295 56.14066
#
# Velocity S-wave (km/s) = 4.24088 4.71880 4.48621
# Velocity P-wave (km/s) = 6.47200 7.63092 7.07523
#
# Compressibility (1/GPa) = 0.02002006
#
# Stress axis : x y z
#
# Youngs Moduli (GPa) = 120.69172 142.11079 158.87322
#
# Poissons Ratio (x) = 0.15464 -0.12287
# Poissons Ratio (y) = 0.13134 0.07682
# Poissons Ratio (z) = -0.09334 0.06871
#
# Static dielectric constant tensor:
#      x y z
#    x 1.955030 0.083220 -0.098940 
#    y 0.083220 2.133020 0.001530 
#    z -0.098940 0.001530 2.071130 
# 
# From -- ./inp_files/74901.got.cif
#   From: 2010.05.17/outbox.cif.g08.bks.cpg/sg2_38_cif.got.tgz:74901.got - 2010.06.03 11:33:40.
