data_PCOD9067423
_publ_section_title
;
Structure prediction by ZEFSAII (Michael W. Deem and Ramdas Pophale) SiO2 
 PCOD9067423
Probable space group: P -1
;
_chemical_formula_sum "Si O2"
_cell_formula_units_Z 12
_cell_length_a 11.575896
_cell_length_b 7.616895
_cell_length_c 9.486658
_cell_angle_alpha 49.291706
_cell_angle_beta 49.205217
_cell_angle_gamma 51.864025
_cell_volume 452.538862
_symmetry_space_group_name_H-M "P -1"
_symmetry_group_IT_number 2
_symmetry_cell_setting 'triclinic'
loop_
_space_group_symop_operation_xyz
x,y,z
-x,-y,-z
loop_
_atom_site_type_symbol
_atom_site_label
_atom_site_fract_x
_atom_site_fract_y
_atom_site_fract_z
Si Si1 0.328817 0.090458 0.008319
Si Si2 0.850076 0.286856 0.575782
Si Si3 0.500000 0.500000 0.000000
Si Si4 0.000000 0.500000 0.500000
Si Si5 0.814062 0.418359 0.968537
Si Si6 0.156400 0.899619 0.627764
Si Si7 0.511960 0.015602 0.647674
O O1 0.217633 0.324184 0.059194
O O2 0.357909 0.169268 0.785814
O O3 0.500000 0.000000 0.000000
O O4 0.255633 0.867432 0.195188
O O5 0.815806 0.547453 0.534112
O O6 0.866325 0.237993 0.424182
O O7 0.032953 0.180072 0.557812
O O8 0.354417 0.606368 0.938476
O O9 0.540033 0.752524 0.831555
O O10 0.925743 0.408963 0.752320
O O11 0.885532 0.212574 0.138914
O O12 0.339288 0.890600 0.486053
O O13 0.500000 0.000000 0.500000
#
# Coordination Sequence:
#
# PCOD9067423 Si02
#       7
#     2   2   1   1   2   2   2
#     4  12  25  49  76 108 156 201 250 317 394 461
#     4  11  25  49  76 107 156 199 257 329 381 467
#     4  12  22  46  80 110 162 190 260 320 378 460
#     4  12  28  48  78 112 150 204 262 320 388 456
#     4  12  27  48  75 115 150 209 257 319 390 462
#     4  11  25  50  76 112 155 203 261 317 398 462
#     4  12  25  47  75 114 153 206 254 317 384 461
#
# _framework density 26.517061999999999
#
# number of rings (size 3 to 8) (size 9 to 14) (size 15 to 20)
#    0.000    0.333    5.000    4.000    0.000    4.000 
#   12.000    0.000    0.000    0.000    0.000    0.000 
#    0.000    0.000    0.000    0.000    0.000    0.000 
#
# Total GULP energy -66894.204269 kJ/mol
# GULP energy per Si atom -5574.517022 kJ/mol
# Density = 2.645671 g / cm^3
# Si number density = 26.517062 Si / 1000 Ang^3
#
#
#
# Elastic Constant Matrix: (Units=GPa)
#
#
# Indices 1 2 3 4 5 6 
#
# 1 172.0789 44.4850 79.2934 8.4652 9.9460 46.7272
# 2 44.4850 70.6340 51.5188 15.7443 10.4338 20.6335
# 3 79.2934 51.5188 217.1530 24.1473 28.9997 24.2060
# 4 8.4652 15.7443 24.1473 55.9902 12.0321 12.8088
# 5 9.9460 10.4338 28.9997 12.0321 65.2731 -4.3041
# 6 46.7272 20.6335 24.2060 12.8088 -4.3041 47.3386
#
#
#
# Elastic Compliance Matrix: (Units=1/GPa)
#
#
# Indices 1 2 3 4 5 6 
#
# 1 0.009536 -0.002481 -0.002114 0.002210 -0.001049 -0.007944
# 2 -0.002481 0.019803 -0.002859 -0.002749 -0.001280 -0.004093
# 3 -0.002114 -0.002859 0.006416 -0.001309 -0.001814 0.000241
# 4 0.002210 -0.002749 -0.001309 0.021095 -0.003623 -0.006352
# 5 -0.001049 -0.001280 -0.001814 -0.003623 0.017494 0.005092
# 6 -0.007944 -0.004093 0.000241 -0.006352 0.005092 0.032808
#
#
# Mechanical properties :
#
#
# Convention : Reuss Voigt Hill
#
# Bulk Modulus (GPa) = 47.96907 90.05113 69.01010
# Shear Modulus (GPa) = 38.75695 52.69162 45.72428
#
# Velocity S-wave (km/s) = 3.82722 4.46251 4.15702
# Velocity P-wave (km/s) = 6.13672 7.78366 7.00873
#
# Compressibility (1/GPa) = 0.02084677
#
# Stress axis : x y z
#
# Youngs Moduli (GPa) = 104.87117 50.49705 155.85673
#
# Poissons Ratio (x) = 0.12529 0.32941
# Poissons Ratio (y) = 0.26020 0.44565
# Poissons Ratio (z) = 0.22165 0.14439
#
# Static dielectric constant tensor:
#      x y z
#    x 2.498690 -0.627720 -0.294260 
#    y -0.627720 3.628290 0.523770 
#    z -0.294260 0.523770 2.195760 
# 
# From -- ./inp_files/190108.got.cif
#   From: 2010.05.17/outbox.cif.g08.bks.cpg/sg2_96_cif.got.tgz:190108.got - 2010.06.03 11:33:40.
