data_PCOD9067287
_publ_section_title
;
Structure prediction by ZEFSAII (Michael W. Deem and Ramdas Pophale) SiO2 
 PCOD9067287
Probable space group: P -1
;
_chemical_formula_sum "Si O2"
_cell_formula_units_Z 16
_cell_length_a 19.028254
_cell_length_b 6.834253
_cell_length_c 9.652813
_cell_angle_alpha 129.178036
_cell_angle_beta 123.630944
_cell_angle_gamma 61.364644
_cell_volume 793.773171
_symmetry_space_group_name_H-M "P -1"
_symmetry_group_IT_number 2
_symmetry_cell_setting 'triclinic'
loop_
_space_group_symop_operation_xyz
x,y,z
-x,-y,-z
loop_
_atom_site_type_symbol
_atom_site_label
_atom_site_fract_x
_atom_site_fract_y
_atom_site_fract_z
Si Si1 0.967847 0.278641 0.275477
Si Si2 0.220848 0.786988 0.869381
Si Si3 0.759996 0.625921 0.823281
Si Si4 0.569603 0.989868 0.449471
Si Si5 0.676177 0.464060 0.383506
Si Si6 0.477175 0.771114 0.785310
Si Si7 0.051900 0.688314 0.061847
Si Si8 0.347012 0.596558 0.168051
O O1 0.871790 0.267263 0.216065
O O2 0.000000 0.500000 0.500000
O O3 0.965132 0.331952 0.130794
O O4 0.023126 0.984930 0.213662
O O5 0.252066 0.687462 0.707443
O O6 0.291740 0.640315 0.988940
O O7 0.220279 0.090010 0.016552
O O8 0.718258 0.583600 0.611801
O O9 0.847611 0.417765 0.847611
O O10 0.694406 0.575840 0.848207
O O11 0.524508 0.146098 0.339260
O O12 0.647770 0.127466 0.638941
O O13 0.500000 0.000000 0.500000
O O14 0.613089 0.694565 0.336766
O O15 0.614750 0.284779 0.297845
O O16 0.552927 0.531406 0.794935
O O17 0.500000 0.000000 0.000000
O O18 0.000000 0.500000 0.000000
#
# Coordination Sequence:
#
# PCOD9067287 Si02
#       8
#     2   2   2   2   2   2   2   2
#     4  11  27  48  74 109 146 181 232 290 357 433
#     4  12  27  45  70 107 140 180 232 294 349 414
#     4  12  25  47  71 103 140 182 235 291 346 417
#     4  12  24  43  69  94 134 192 235 282 348 403
#     4  12  27  43  70 103 139 186 234 288 349 408
#     4  12  26  43  64  98 139 184 236 283 343 415
#     4  11  25  48  77 103 143 191 227 285 364 426
#     4  12  24  44  69  96 140 181 234 291 341 406
#
# _framework density 20.156891000000002
#
# number of rings (size 3 to 8) (size 9 to 14) (size 15 to 20)
#    0.000    0.250    6.250    2.625    3.500    3.500 
#    2.250    0.000    0.000    0.000    0.000    0.000 
#    0.000    0.000    0.000    0.000    0.000    0.000 
#
# Total GULP energy -89497.172398 kJ/mol
# GULP energy per Si atom -5593.573275 kJ/mol
# Density = 2.011101 g / cm^3
# Si number density = 20.156891 Si / 1000 Ang^3
#
#
#
# Elastic Constant Matrix: (Units=GPa)
#
#
# Indices 1 2 3 4 5 6 
#
# 1 113.2564 36.5642 33.4258 14.5255 -4.6959 19.2890
# 2 36.5642 107.8995 43.5432 8.4738 -6.3044 6.1307
# 3 33.4258 43.5432 92.5203 28.2614 1.9898 16.4847
# 4 14.5255 8.4738 28.2614 32.0874 0.1352 5.5827
# 5 -4.6959 -6.3044 1.9898 0.1352 28.1972 6.3103
# 6 19.2890 6.1307 16.4847 5.5827 6.3103 37.9049
#
#
#
# Elastic Compliance Matrix: (Units=1/GPa)
#
#
# Indices 1 2 3 4 5 6 
#
# 1 0.011316 -0.002720 -0.001244 -0.002480 0.002455 -0.004821
# 2 -0.002720 0.012488 -0.006097 0.003094 0.002498 0.001145
# 3 -0.001244 -0.006097 0.019218 -0.013986 -0.001883 -0.004365
# 4 -0.002480 0.003094 -0.013986 0.043743 0.001004 0.000234
# 5 0.002455 0.002498 -0.001883 0.001004 0.038203 -0.007342
# 6 -0.004821 0.001145 -0.004365 0.000234 -0.007342 0.031736
#
#
# Mechanical properties :
#
#
# Convention : Reuss Voigt Hill
#
# Bulk Modulus (GPa) = 43.67218 60.08251 51.87735
# Shear Modulus (GPa) = 27.10593 32.98078 30.04335
#
# Velocity S-wave (km/s) = 3.67106 4.04939 3.86486
# Velocity P-wave (km/s) = 6.29937 7.19274 6.76083
#
# Compressibility (1/GPa) = 0.02289787
#
# Stress axis : x y z
#
# Youngs Moduli (GPa) = 88.37136 80.07462 52.03476
#
# Poissons Ratio (x) = 0.21784 0.06474
# Poissons Ratio (y) = 0.24041 0.31728
# Poissons Ratio (z) = 0.10996 0.48825
#
# Static dielectric constant tensor:
#      x y z
#    x 1.695950 -0.022150 -0.021300 
#    y -0.022150 1.791320 0.044160 
#    z -0.021300 0.044160 1.758340 
# 
# From -- ./inp_files/107485.got.cif
#   From: 2010.05.17/outbox.cif.g08.bks.cpg/sg2_54_cif.got.tgz:107485.got - 2010.06.03 11:33:40.
