data_PCOD9067056
_publ_section_title
;
Structure prediction by ZEFSAII (Michael W. Deem and Ramdas Pophale) SiO2 
 PCOD9067056
Probable space group: P -1
;
_chemical_formula_sum "Si O2"
_cell_formula_units_Z 14
_cell_length_a 9.687029
_cell_length_b 5.152561
_cell_length_c 17.874007
_cell_angle_alpha 104.309785
_cell_angle_beta 61.619509
_cell_angle_gamma 65.430247
_cell_volume 593.385091
_symmetry_space_group_name_H-M "P -1"
_symmetry_group_IT_number 2
_symmetry_cell_setting 'triclinic'
loop_
_space_group_symop_operation_xyz
x,y,z
-x,-y,-z
loop_
_atom_site_type_symbol
_atom_site_label
_atom_site_fract_x
_atom_site_fract_y
_atom_site_fract_z
Si Si1 0.044408 0.246327 0.035715
Si Si2 0.876389 0.490272 0.255741
Si Si3 0.191996 0.946500 0.240169
Si Si4 0.481538 0.730210 0.952886
Si Si5 0.306375 0.286425 0.326780
Si Si6 0.447033 0.697315 0.367791
Si Si7 0.910671 0.914771 0.401824
O O1 0.914760 0.483837 0.157608
O O2 0.000000 0.500000 0.000000
O O3 0.000000 0.000000 0.000000
O O4 0.274113 0.966094 0.980216
O O5 0.671171 0.543246 0.321814
O O6 0.879331 0.747266 0.327462
O O7 0.070440 0.121809 0.208477
O O8 0.334565 0.541862 0.167504
O O9 0.019290 0.064731 0.353582
O O10 0.327232 0.053885 0.236451
O O11 0.500000 0.500000 0.000000
O O12 0.500000 0.000000 0.000000
O O13 0.432702 0.426349 0.309512
O O14 0.073716 0.625030 0.398691
O O15 0.359990 0.037608 0.365213
O O16 0.299421 0.816831 0.484621
#
# Coordination Sequence:
#
# PCOD9067056 Si02
#       7
#     2   2   2   2   2   2   2
#     4  12  29  51  76 111 152 190 249 320 384 437
#     4  11  28  48  73 111 152 197 249 307 378 451
#     4  11  26  47  78 106 149 201 250 305 370 455
#     4  12  26  50  78 107 142 194 254 309 372 450
#     4  11  26  46  70 110 150 194 250 300 369 437
#     4  12  27  45  75 111 154 195 243 310 371 439
#     4  11  25  47  77 107 151 199 251 297 371 452
#
# _framework density 23.593449
#
# number of rings (size 3 to 8) (size 9 to 14) (size 15 to 20)
#    0.000    0.571    2.857    3.000   12.000    1.714 
#    0.000    0.000    0.000    0.000    0.000    0.000 
#    0.000    0.000    0.000    0.000    0.000    0.000 
#
# Total GULP energy -78369.311476 kJ/mol
# GULP energy per Si atom -5597.807963 kJ/mol
# Density = 2.353975 g / cm^3
# Si number density = 23.593449 Si / 1000 Ang^3
#
#
#
# Elastic Constant Matrix: (Units=GPa)
#
#
# Indices 1 2 3 4 5 6 
#
# 1 192.9406 58.9919 18.6731 12.1662 12.5409 0.8969
# 2 58.9919 139.9983 23.5504 -11.1602 9.6991 15.7324
# 3 18.6731 23.5504 62.4863 -1.2497 4.8578 -12.1012
# 4 12.1662 -11.1602 -1.2497 31.5364 2.3156 -0.4757
# 5 12.5409 9.6991 4.8578 2.3156 24.2766 3.9360
# 6 0.8969 15.7324 -12.1012 -0.4757 3.9360 37.5190
#
#
#
# Elastic Compliance Matrix: (Units=1/GPa)
#
#
# Indices 1 2 3 4 5 6 
#
# 1 0.006448 -0.002874 -0.000563 -0.003371 -0.001915 0.001027
# 2 -0.002874 0.010010 -0.003708 0.004528 -0.001374 -0.005123
# 3 -0.000563 -0.003708 0.019426 0.000052 -0.003448 0.008196
# 4 -0.003371 0.004528 0.000052 0.034836 -0.003235 -0.001020
# 5 -0.001915 -0.001374 -0.003448 -0.003235 0.044573 -0.005207
# 6 0.001027 -0.005123 0.008196 -0.001020 -0.005207 0.031954
#
#
# Mechanical properties :
#
#
# Convention : Reuss Voigt Hill
#
# Bulk Modulus (GPa) = 46.31264 66.42844 56.37054
# Shear Modulus (GPa) = 29.63205 38.28039 33.95622
#
# Velocity S-wave (km/s) = 3.54777 4.03240 3.79782
# Velocity P-wave (km/s) = 6.03774 7.06377 6.57082
#
# Compressibility (1/GPa) = 0.02159238
#
# Stress axis : x y z
#
# Youngs Moduli (GPa) = 155.07592 99.90426 51.47738
#
# Poissons Ratio (x) = 0.28712 0.02900
# Poissons Ratio (y) = 0.44568 0.19090
# Poissons Ratio (z) = 0.08737 0.37049
#
# Static dielectric constant tensor:
#      x y z
#    x 1.816240 0.015590 0.023200 
#    y 0.015590 1.891980 -0.040090 
#    z 0.023200 -0.040090 1.918960 
# 
# From -- ./inp_files/48342.got.cif
#   From: 2010.05.17/outbox.cif.g08.bks.cpg/sg2_25_cif.got.tgz:48342.got - 2010.06.03 11:33:40.
