data_PCOD9067867
_publ_section_title
;
Structure prediction by ZEFSAII (Michael W. Deem and Ramdas Pophale) SiO2 
 PCOD9067867
Probable space group: P -1
;
_chemical_formula_sum "Si O2"
_cell_formula_units_Z 16
_cell_length_a 7.892224
_cell_length_b 9.126565
_cell_length_c 10.263366
_cell_angle_alpha 112.228729
_cell_angle_beta 83.792887
_cell_angle_gamma 117.094524
_cell_volume 607.368057
_symmetry_space_group_name_H-M "P -1"
_symmetry_group_IT_number 2
_symmetry_cell_setting 'triclinic'
loop_
_space_group_symop_operation_xyz
x,y,z
-x,-y,-z
loop_
_atom_site_type_symbol
_atom_site_label
_atom_site_fract_x
_atom_site_fract_y
_atom_site_fract_z
Si Si1 0.403912 0.422391 0.348185
Si Si2 0.667013 0.834460 0.915604
Si Si3 0.172113 0.443619 0.188861
Si Si4 0.780841 0.642188 0.225551
Si Si5 0.662405 0.146870 0.745902
Si Si6 0.224551 0.009314 0.778760
Si Si7 0.219633 0.696745 0.961266
Si Si8 0.069345 0.854480 0.481701
O O1 0.500000 0.500000 0.500000
O O2 0.331967 0.212006 0.254674
O O3 0.226977 0.460903 0.343345
O O4 0.573749 0.533637 0.269794
O O5 0.733051 0.683998 0.904856
O O6 0.445133 0.790882 0.938007
O O7 0.787951 0.986569 0.061114
O O8 0.285091 0.645353 0.201945
O O9 0.950435 0.349724 0.142036
O O10 0.791763 0.817002 0.215642
O O11 0.815108 0.508272 0.081183
O O12 0.924192 0.687831 0.352654
O O13 0.439502 0.038399 0.748797
O O14 0.733329 0.089881 0.592827
O O15 0.782345 0.172712 0.879242
O O16 0.096597 0.859234 0.635972
O O17 0.000000 0.000000 0.500000
#
# Coordination Sequence:
#
# PCOD9067867 Si02
#       8
#     2   2   2   2   2   2   2   2
#     4   9  19  34  52  75  99 128 165 209 258 292
#     4   8  19  31  50  73 103 126 161 207 253 296
#     4  10  18  28  52  72  98 133 159 201 257 287
#     4  10  18  32  48  73 109 126 164 204 251 292
#     4  11  18  29  47  73 105 132 165 198 240 310
#     4  10  18  33  46  71 104 139 162 194 242 302
#     4  10  18  28  49  77 100 131 161 201 252 306
#     4  10  22  28  44  69 106 140 162 198 238 295
#
# _framework density 26.343169
#
# number of rings (size 3 to 8) (size 9 to 14) (size 15 to 20)
#    0.750    1.500    2.500    1.500    3.500    2.500 
#    0.000    2.500    0.000    0.750    0.000    0.875 
#    0.000    0.000    0.000    0.000    0.000    0.000 
#
# Total GULP energy -89148.199928 kJ/mol
# GULP energy per Si atom -5571.762495 kJ/mol
# Density = 2.628321 g / cm^3
# Si number density = 26.343169 Si / 1000 Ang^3
#
#
#
# Elastic Constant Matrix: (Units=GPa)
#
#
# Indices 1 2 3 4 5 6 
#
# 1 110.9648 9.0905 29.0795 -9.0759 22.8700 2.5262
# 2 9.0905 51.5620 15.9792 10.7406 -1.0117 1.3868
# 3 29.0795 15.9792 215.5141 4.2173 37.7230 -6.1066
# 4 -9.0759 10.7406 4.2173 23.0332 -8.3062 0.1371
# 5 22.8700 -1.0117 37.7230 -8.3062 55.5899 1.3672
# 6 2.5262 1.3868 -6.1066 0.1371 1.3672 15.0137
#
#
#
# Elastic Compliance Matrix: (Units=1/GPa)
#
#
# Indices 1 2 3 4 5 6 
#
# 1 0.010463 -0.002513 -0.000811 0.004330 -0.003113 -0.001614
# 2 -0.002513 0.022611 -0.001314 -0.011012 0.000745 -0.002167
# 3 -0.000811 -0.001314 0.005660 -0.002178 -0.003929 0.002938
# 4 0.004330 -0.011012 -0.002178 0.053376 0.007515 -0.001769
# 5 -0.003113 0.000745 -0.003929 0.007515 0.023154 -0.003320
# 6 -0.001614 -0.002167 0.002938 -0.001769 -0.003320 0.068591
#
#
# Mechanical properties :
#
#
# Convention : Reuss Voigt Hill
#
# Bulk Modulus (GPa) = 33.94533 54.03770 43.99151
# Shear Modulus (GPa) = 24.63657 40.32013 32.47835
#
# Velocity S-wave (km/s) = 3.06145 3.91650 3.51507
# Velocity P-wave (km/s) = 5.04087 6.40386 5.76281
#
# Compressibility (1/GPa) = 0.02945914
#
# Stress axis : x y z
#
# Youngs Moduli (GPa) = 95.57684 44.22624 176.66294
#
# Poissons Ratio (x) = 0.11114 0.14327
# Poissons Ratio (y) = 0.24017 0.23208
# Poissons Ratio (z) = 0.07751 0.05810
#
# Static dielectric constant tensor:
#      x y z
#    x 2.063480 -0.035870 0.025860 
#    y -0.035870 2.295300 -0.108530 
#    z 0.025860 -0.108530 2.220600 
# 
# From -- ./inp_files/284936.got.cif
#   From: 2010.05.17/outbox.cif.g08.bks.cpg/sg2_143_cif.got.tgz:284936.got - 2010.06.03 11:33:40.
