data_PCOD9067742
_publ_section_title
;
Structure prediction by ZEFSAII (Michael W. Deem and Ramdas Pophale) SiO2 
 PCOD9067742
Probable space group: P -1
;
_chemical_formula_sum "Si O2"
_cell_formula_units_Z 13
_cell_length_a 10.956305
_cell_length_b 8.547330
_cell_length_c 8.750021
_cell_angle_alpha 107.711025
_cell_angle_beta 128.295905
_cell_angle_gamma 52.372819
_cell_volume 505.694253
_symmetry_space_group_name_H-M "P -1"
_symmetry_group_IT_number 2
_symmetry_cell_setting 'triclinic'
loop_
_space_group_symop_operation_xyz
x,y,z
-x,-y,-z
loop_
_atom_site_type_symbol
_atom_site_label
_atom_site_fract_x
_atom_site_fract_y
_atom_site_fract_z
Si Si1 0.306338 0.191269 0.461167
Si Si2 0.289229 0.063589 0.893694
Si Si3 0.500000 0.500000 0.000000
Si Si4 0.187498 0.403113 0.723325
Si Si5 0.370089 0.713637 0.652643
Si Si6 0.759173 0.481236 0.724333
Si Si7 0.076030 0.132706 0.057162
O O1 0.327688 0.226822 0.662108
O O2 0.237985 0.384484 0.364301
O O3 0.500000 0.000000 0.500000
O O4 0.152042 0.149897 0.283541
O O5 0.165238 0.293028 0.815644
O O6 0.234069 0.038577 0.015028
O O7 0.263597 0.923717 0.718861
O O8 0.500000 0.000000 0.000000
O O9 0.696918 0.500994 0.118511
O O10 0.566305 0.445554 0.210506
O O11 0.000000 0.500000 0.500000
O O12 0.565852 0.647745 0.707784
O O13 0.259809 0.681192 0.427808
O O14 0.921768 0.348668 0.932231
O O15 0.000000 0.000000 0.000000
#
# Coordination Sequence:
#
# PCOD9067742 Si02
#       7
#     2   2   1   2   2   2   2
#     4  12  27  50  76 111 158 209 261 330 408 489
#     4  12  26  51  78 112 157 214 260 334 403 483
#     4  12  26  48  80 118 156 208 270 330 402 482
#     4  12  28  49  80 116 156 208 266 334 403 482
#     4  11  26  44  81 110 158 204 271 321 411 481
#     4  11  26  50  74 116 157 212 259 335 407 482
#     4  12  31  49  79 117 162 208 277 336 401 477
#
# _framework density 25.707232999999999
#
# number of rings (size 3 to 8) (size 9 to 14) (size 15 to 20)
#    0.000    0.308    3.077    4.154   10.769    0.615 
#    0.000    0.000    0.000    0.000    0.000    0.000 
#    0.000    0.000    0.000    0.000    0.000    0.000 
#
# Total GULP energy -72470.121049 kJ/mol
# GULP energy per Si atom -5574.624696 kJ/mol
# Density = 2.564872 g / cm^3
# Si number density = 25.707233 Si / 1000 Ang^3
#
#
#
# Elastic Constant Matrix: (Units=GPa)
#
#
# Indices 1 2 3 4 5 6 
#
# 1 133.8172 33.6196 12.5126 -0.9479 -17.3450 16.3096
# 2 33.6196 82.2175 28.2756 -1.1303 10.2569 -9.6823
# 3 12.5126 28.2756 110.5480 -10.1520 14.9496 7.8195
# 4 -0.9479 -1.1303 -10.1520 37.1505 -0.1320 -4.6538
# 5 -17.3450 10.2569 14.9496 -0.1320 46.5242 -3.5428
# 6 16.3096 -9.6823 7.8195 -4.6538 -3.5428 33.8694
#
#
#
# Elastic Compliance Matrix: (Units=1/GPa)
#
#
# Indices 1 2 3 4 5 6 
#
# 1 0.010161 -0.005442 -0.000001 -0.000650 0.004525 -0.006065
# 2 -0.005442 0.017128 -0.003761 0.000344 -0.003985 0.008016
# 3 -0.000001 -0.003761 0.010877 0.002401 -0.002931 -0.003563
# 4 -0.000650 0.000344 0.002401 0.028020 -0.000734 0.003630
# 5 0.004525 -0.003985 -0.002931 -0.000734 0.024989 -0.000128
# 6 -0.006065 0.008016 -0.003563 0.003630 -0.000128 0.036045
#
#
# Mechanical properties :
#
#
# Convention : Reuss Voigt Hill
#
# Bulk Modulus (GPa) = 50.61512 52.82203 51.71857
# Shear Modulus (GPa) = 32.84831 40.32047 36.58439
#
# Velocity S-wave (km/s) = 3.57849 3.96466 3.77651
# Velocity P-wave (km/s) = 6.06679 6.44594 6.25924
#
# Compressibility (1/GPa) = 0.01975694
#
# Stress axis : x y z
#
# Youngs Moduli (GPa) = 98.41218 58.38469 91.93893
#
# Poissons Ratio (x) = 0.31776 0.00006
# Poissons Ratio (y) = 0.53561 0.34581
# Poissons Ratio (z) = 0.00007 0.21960
#
# Static dielectric constant tensor:
#      x y z
#    x 2.131630 -0.058210 0.036550 
#    y -0.058210 2.169000 -0.001100 
#    z 0.036550 -0.001100 1.963830 
# 
# From -- ./inp_files/240730.got.cif
#   From: 2010.05.17/outbox.cif.g08.bks.cpg/sg2_121_cif.got.tgz:240730.got - 2010.06.03 11:33:40.
