data_PCOD9067626
_publ_section_title
;
Structure prediction by ZEFSAII (Michael W. Deem and Ramdas Pophale) SiO2 
 PCOD9067626
Probable space group: P -1
;
_chemical_formula_sum "Si O2"
_cell_formula_units_Z 14
_cell_length_a 7.947662
_cell_length_b 10.402422
_cell_length_c 10.523129
_cell_angle_alpha 87.732611
_cell_angle_beta 57.597318
_cell_angle_gamma 124.793731
_cell_volume 523.068103
_symmetry_space_group_name_H-M "P -1"
_symmetry_group_IT_number 2
_symmetry_cell_setting 'triclinic'
loop_
_space_group_symop_operation_xyz
x,y,z
-x,-y,-z
loop_
_atom_site_type_symbol
_atom_site_label
_atom_site_fract_x
_atom_site_fract_y
_atom_site_fract_z
Si Si1 0.794853 0.789006 0.047947
Si Si2 0.734717 0.468037 0.134368
Si Si3 0.940067 0.002847 0.302647
Si Si4 0.229621 0.691405 0.276714
Si Si5 0.504574 0.155582 0.100103
Si Si6 0.591905 0.393678 0.474748
Si Si7 0.619361 0.030597 0.595267
O O1 0.472593 0.692471 0.184093
O O2 0.663947 0.808523 0.365673
O O3 0.932894 0.835165 0.851049
O O4 0.000000 0.000000 0.000000
O O5 0.539262 0.324348 0.108864
O O6 0.615524 0.367881 0.319458
O O7 0.790570 0.644496 0.112546
O O8 0.000000 0.500000 0.000000
O O9 0.859340 0.036709 0.463798
O O10 0.173052 0.997994 0.218799
O O11 0.099733 0.485803 0.597405
O O12 0.260216 0.792847 0.385354
O O13 0.322527 0.797637 0.098344
O O14 0.570371 0.109581 0.205551
O O15 0.500000 0.500000 0.500000
O O16 0.500000 0.000000 0.500000
#
# Coordination Sequence:
#
# PCOD9067626 Si02
#       7
#     2   2   2   2   2   2   2
#     4  11  27  53  80 117 164 224 277 342 413 507
#     4  12  27  50  85 115 167 220 286 337 419 505
#     4  11  26  47  79 116 165 211 277 347 418 488
#     4  11  27  50  83 119 168 223 283 337 420 508
#     4  11  25  51  82 116 158 227 284 334 418 509
#     4  12  26  48  78 124 166 217 274 351 420 495
#     4  12  26  45  78 122 166 211 272 348 419 490
#
# _framework density 26.765159000000001
#
# number of rings (size 3 to 8) (size 9 to 14) (size 15 to 20)
#    0.000    0.571    2.857    3.429    6.000    4.571 
#    2.571    3.571    0.000    0.000    0.000    0.000 
#    0.000    0.000    0.000    0.000    0.000    0.000 
#
# Total GULP energy -78250.631414 kJ/mol
# GULP energy per Si atom -5589.330815 kJ/mol
# Density = 2.670424 g / cm^3
# Si number density = 26.765159 Si / 1000 Ang^3
#
#
#
# Elastic Constant Matrix: (Units=GPa)
#
#
# Indices 1 2 3 4 5 6 
#
# 1 155.2209 80.7066 64.3446 -9.9168 -14.2321 10.9943
# 2 80.7066 141.9563 67.6280 3.1639 -9.7389 10.1298
# 3 64.3446 67.6280 176.5366 -0.6034 1.5374 15.7787
# 4 -9.9168 3.1639 -0.6034 59.6631 2.7127 -2.9334
# 5 -14.2321 -9.7389 1.5374 2.7127 60.6403 -1.8551
# 6 10.9943 10.1298 15.7787 -2.9334 -1.8551 44.8524
#
#
#
# Elastic Compliance Matrix: (Units=1/GPa)
#
#
# Indices 1 2 3 4 5 6 
#
# 1 0.009905 -0.004681 -0.001773 0.001780 0.001521 -0.000568
# 2 -0.004681 0.011009 -0.002475 -0.001448 0.000781 -0.000530
# 3 -0.001773 -0.002475 0.007417 -0.000123 -0.001047 -0.001667
# 4 0.001780 -0.001448 -0.000123 0.017208 -0.000550 0.001037
# 5 0.001521 0.000781 -0.001047 -0.000550 0.017039 0.000488
# 6 -0.000568 -0.000530 -0.001667 0.001037 0.000488 0.023229
#
#
# Mechanical properties :
#
#
# Convention : Reuss Voigt Hill
#
# Bulk Modulus (GPa) = 95.50484 99.89689 97.70087
# Shear Modulus (GPa) = 46.66076 50.43348 48.54712
#
# Velocity S-wave (km/s) = 4.17986 4.34556 4.26351
# Velocity P-wave (km/s) = 7.68472 7.91094 7.79865
#
# Compressibility (1/GPa) = 0.01047067
#
# Stress axis : x y z
#
# Youngs Moduli (GPa) = 100.96050 90.83620 134.82853
#
# Poissons Ratio (x) = 0.42523 0.23909
# Poissons Ratio (y) = 0.47262 0.33375
# Poissons Ratio (z) = 0.17903 0.22485
#
# Static dielectric constant tensor:
#      x y z
#    x 2.260090 -0.012260 -0.025950 
#    y -0.012260 2.038830 -0.102920 
#    z -0.025950 -0.102920 2.049150 
# 
# From -- ./inp_files/170303.got.cif
#   From: 2010.05.17/outbox.cif.g08.bks.cpg/sg2_86_cif.got.tgz:170303.got - 2010.06.03 11:33:40.
