data_PCOD9067069
_publ_section_title
;
Structure prediction by ZEFSAII (Michael W. Deem and Ramdas Pophale) SiO2 
 PCOD9067069
Probable space group: P -1
;
_chemical_formula_sum "Si O2"
_cell_formula_units_Z 12
_cell_length_a 7.587096
_cell_length_b 14.480531
_cell_length_c 5.321130
_cell_angle_alpha 101.479650
_cell_angle_beta 63.592550
_cell_angle_gamma 72.818684
_cell_volume 461.444953
_symmetry_space_group_name_H-M "P -1"
_symmetry_group_IT_number 2
_symmetry_cell_setting 'triclinic'
loop_
_space_group_symop_operation_xyz
x,y,z
-x,-y,-z
loop_
_atom_site_type_symbol
_atom_site_label
_atom_site_fract_x
_atom_site_fract_y
_atom_site_fract_z
Si Si1 0.290266 0.838923 0.226490
Si Si2 0.587478 0.567976 0.222221
Si Si3 0.788873 0.604818 0.619762
Si Si4 0.784422 0.332731 0.126043
Si Si5 0.131971 0.039354 0.124938
Si Si6 0.255185 0.211696 0.959267
O O1 0.059413 0.879074 0.534088
O O2 0.286044 0.937872 0.129204
O O3 0.288956 0.752055 0.986488
O O4 0.496220 0.808654 0.268064
O O5 0.712851 0.593377 0.385496
O O6 0.690700 0.441891 0.094265
O O7 0.336145 0.626641 0.505050
O O8 0.635060 0.602217 0.944500
O O9 0.797935 0.714711 0.717696
O O10 0.000000 0.500000 0.500000
O O11 0.045858 0.279749 0.957353
O O12 0.246095 0.102434 0.951991
O O13 0.000000 0.000000 0.000000
#
# Coordination Sequence:
#
# PCOD9067069 Si02
#       6
#     2   2   2   2   2   2
#     4  11  26  50  74 110 148 196 251 320 384 457
#     4  11  27  48  75 113 163 201 254 322 372 462
#     4  12  26  47  73 116 154 205 261 310 385 460
#     4  11  25  47  77 112 150 205 252 315 382 458
#     4  11  26  50  75 108 147 191 258 316 387 455
#     4  12  26  45  78 107 147 202 249 319 381 459
#
# _framework density 26.005268999999998
#
# number of rings (size 3 to 8) (size 9 to 14) (size 15 to 20)
#    0.000    0.667    5.000    1.000    4.667    3.333 
#    3.000    0.000    0.000    0.000    0.000    0.000 
#    0.000    0.000    0.000    0.000    0.000    0.000 
#
# Total GULP energy -67229.363606 kJ/mol
# GULP energy per Si atom -5602.446967 kJ/mol
# Density = 2.594608 g / cm^3
# Si number density = 26.005269 Si / 1000 Ang^3
#
#
#
# Elastic Constant Matrix: (Units=GPa)
#
#
# Indices 1 2 3 4 5 6 
#
# 1 155.8855 51.8928 30.9380 9.2916 9.3719 -1.8252
# 2 51.8928 117.9032 36.7893 14.0304 -11.9498 15.0058
# 3 30.9380 36.7893 70.6685 4.0976 8.1161 -0.9685
# 4 9.2916 14.0304 4.0976 35.8980 0.1828 -0.3289
# 5 9.3719 -11.9498 8.1161 0.1828 28.8646 10.7170
# 6 -1.8252 15.0058 -0.9685 -0.3289 10.7170 51.1893
#
#
#
# Elastic Compliance Matrix: (Units=1/GPa)
#
#
# Indices 1 2 3 4 5 6 
#
# 1 0.008352 -0.004250 -0.000788 -0.000360 -0.005220 0.002619
# 2 -0.004250 0.015429 -0.007487 -0.004209 0.012683 -0.007498
# 3 -0.000788 -0.007487 0.019557 0.000992 -0.010076 0.004653
# 4 -0.000360 -0.004209 0.000992 0.029515 -0.002843 0.002025
# 5 -0.005220 0.012683 -0.010076 -0.002843 0.049843 -0.014548
# 6 0.002619 -0.007498 0.004653 0.002025 -0.014548 0.024974
#
#
# Mechanical properties :
#
#
# Convention : Reuss Voigt Hill
#
# Bulk Modulus (GPa) = 54.67912 64.85525 59.76719
# Shear Modulus (GPa) = 27.96216 38.17952 33.07084
#
# Velocity S-wave (km/s) = 3.28266 3.83580 3.56996
# Velocity P-wave (km/s) = 5.95312 6.67916 6.32656
#
# Compressibility (1/GPa) = 0.01828852
#
# Stress axis : x y z
#
# Youngs Moduli (GPa) = 119.73286 64.81432 51.13365
#
# Poissons Ratio (x) = 0.27543 0.04029
# Poissons Ratio (y) = 0.50882 0.38283
# Poissons Ratio (z) = 0.09433 0.48526
#
# Static dielectric constant tensor:
#      x y z
#    x 2.083400 -0.000660 -0.052110 
#    y -0.000660 2.085150 0.006600 
#    z -0.052110 0.006600 2.087100 
# 
# From -- ./inp_files/30222.got.cif
#   From: 2010.05.17/outbox.cif.g08.bks.cpg/sg2_16_cif.got.tgz:30222.got - 2010.06.03 11:33:40.
