data_PCOD9067411
_publ_section_title
;
Structure prediction by ZEFSAII (Michael W. Deem and Ramdas Pophale) SiO2 
 PCOD9067411
Probable space group: P -1
;
_chemical_formula_sum "Si O2"
_cell_formula_units_Z 14
_cell_length_a 21.938343
_cell_length_b 13.647503
_cell_length_c 5.476833
_cell_angle_alpha 82.396664
_cell_angle_beta 92.558745
_cell_angle_gamma 21.479938
_cell_volume 527.773214
_symmetry_space_group_name_H-M "P -1"
_symmetry_group_IT_number 2
_symmetry_cell_setting 'triclinic'
loop_
_space_group_symop_operation_xyz
x,y,z
-x,-y,-z
loop_
_atom_site_type_symbol
_atom_site_label
_atom_site_fract_x
_atom_site_fract_y
_atom_site_fract_z
Si Si1 0.403159 0.268759 0.132348
Si Si2 0.879324 0.781014 0.428234
Si Si3 0.392204 0.927348 0.396078
Si Si4 0.618238 0.405970 0.431294
Si Si5 0.781663 0.650627 0.085805
Si Si6 0.917787 0.091027 0.205809
Si Si7 0.195053 0.925061 0.936619
O O1 0.471619 0.194998 0.437983
O O2 0.602017 0.946384 0.135057
O O3 0.270431 0.376180 0.032542
O O4 0.288600 0.542943 0.949800
O O5 0.000000 0.500000 0.500000
O O6 0.014802 0.646431 0.654637
O O7 0.695537 0.016334 0.444601
O O8 0.837302 0.909205 0.136251
O O9 0.510403 0.673834 0.332282
O O10 0.230217 0.239133 0.139471
O O11 0.500000 0.500000 0.500000
O O12 0.662100 0.311236 0.190626
O O13 0.771712 0.171398 0.756827
O O14 0.960356 0.909035 0.256409
O O15 0.000000 0.000000 0.500000
O O16 0.000000 0.000000 0.000000
#
# Coordination Sequence:
#
# PCOD9067411 Si02
#       7
#     2   2   2   2   2   2   2
#     4  11  25  49  75 109 144 202 253 314 379 457
#     4  12  27  46  73 113 153 201 250 315 378 458
#     4  12  25  46  78 107 150 198 256 311 383 455
#     4  12  26  45  79 109 149 200 252 317 383 455
#     4  11  26  47  74 107 154 198 256 307 382 455
#     4  12  27  48  77 109 150 198 255 317 381 451
#     4  12  27  49  74 112 153 196 258 316 384 451
#
# _framework density 26.526547000000001
#
# number of rings (size 3 to 8) (size 9 to 14) (size 15 to 20)
#    0.000    0.286    4.286    3.857    4.000    2.286 
#    0.000    0.000    0.000    0.000    0.000    0.000 
#    0.000    0.000    0.000    0.000    0.000    0.000 
#
# Total GULP energy -78185.908571 kJ/mol
# GULP energy per Si atom -5584.707755 kJ/mol
# Density = 2.646617 g / cm^3
# Si number density = 26.526547 Si / 1000 Ang^3
#
#
#
# Elastic Constant Matrix: (Units=GPa)
#
#
# Indices 1 2 3 4 5 6 
#
# 1 171.5182 27.8420 27.2952 9.7544 -1.7838 5.2391
# 2 27.8420 115.4061 7.8428 23.9256 -5.3603 18.7593
# 3 27.2952 7.8428 103.5853 -4.7618 7.9139 -3.1663
# 4 9.7544 23.9256 -4.7618 27.5766 1.6425 -4.7959
# 5 -1.7838 -5.3603 7.9139 1.6425 58.1028 -1.1036
# 6 5.2391 18.7593 -3.1663 -4.7959 -1.1036 43.4577
#
#
#
# Elastic Compliance Matrix: (Units=1/GPa)
#
#
# Indices 1 2 3 4 5 6 
#
# 1 0.006390 -0.000883 -0.001759 -0.001948 0.000396 -0.000722
# 2 -0.000883 0.012716 -0.001624 -0.012280 0.001585 -0.006816
# 3 -0.001759 -0.001624 0.010637 0.004341 -0.001735 0.002123
# 4 -0.001948 -0.012280 0.004341 0.050508 -0.002996 0.011350
# 5 0.000396 0.001585 -0.001735 -0.002996 0.017676 -0.000740
# 6 -0.000722 -0.006816 0.002123 0.011350 -0.000740 0.027429
#
#
# Mechanical properties :
#
#
# Convention : Reuss Voigt Hill
#
# Bulk Modulus (GPa) = 47.14253 57.38551 52.26402
# Shear Modulus (GPa) = 35.47142 47.66272 41.56707
#
# Velocity S-wave (km/s) = 3.66075 4.24346 3.96283
# Velocity P-wave (km/s) = 5.97315 6.75940 6.37840
#
# Compressibility (1/GPa) = 0.02121227
#
# Stress axis : x y z
#
# Youngs Moduli (GPa) = 156.48443 78.64210 94.00851
#
# Poissons Ratio (x) = 0.06941 0.16535
# Poissons Ratio (y) = 0.13811 0.15268
# Poissons Ratio (z) = 0.27524 0.12773
#
# Static dielectric constant tensor:
#      x y z
#    x 2.233830 -0.057820 -0.039080 
#    y -0.057820 2.190790 -0.093840 
#    z -0.039080 -0.093840 2.605720 
# 
# From -- ./inp_files/85441.got.cif
#   From: 2010.05.17/outbox.cif.g08.bks.cpg/sg2_43_cif.got.tgz:85441.got - 2010.06.03 11:33:40.
