data_PCOD9067726
_publ_section_title
;
Structure prediction by ZEFSAII (Michael W. Deem and Ramdas Pophale) SiO2 
 PCOD9067726
Probable space group: P -1
;
_chemical_formula_sum "Si O2"
_cell_formula_units_Z 14
_cell_length_a 14.870209
_cell_length_b 9.121796
_cell_length_c 7.723852
_cell_angle_alpha 68.711322
_cell_angle_beta 52.473201
_cell_angle_gamma 39.524766
_cell_volume 516.815284
_symmetry_space_group_name_H-M "P -1"
_symmetry_group_IT_number 2
_symmetry_cell_setting 'triclinic'
loop_
_space_group_symop_operation_xyz
x,y,z
-x,-y,-z
loop_
_atom_site_type_symbol
_atom_site_label
_atom_site_fract_x
_atom_site_fract_y
_atom_site_fract_z
Si Si1 0.295828 0.101047 0.265144
Si Si2 0.308571 0.745812 0.304714
Si Si3 0.370424 0.775851 0.838783
Si Si4 0.043631 0.234108 0.892211
Si Si5 0.978157 0.224712 0.618177
Si Si6 0.843533 0.517966 0.334970
Si Si7 0.581820 0.919590 0.218742
O O1 0.379324 0.846734 0.229142
O O2 0.104218 0.247334 0.450607
O O3 0.390981 0.070990 0.331307
O O4 0.322913 0.184995 0.033483
O O5 0.451825 0.480654 0.317787
O O6 0.117052 0.949682 0.517573
O O7 0.306624 0.744839 0.096989
O O8 0.219651 0.953592 0.802544
O O9 0.969560 0.302467 0.142927
O O10 0.397991 0.923757 0.811171
O O11 0.081582 0.382620 0.768368
O O12 0.931399 0.275364 0.852451
O O13 0.841075 0.412870 0.554106
O O14 0.673310 0.718614 0.337794
#
# Coordination Sequence:
#
# PCOD9067726 Si02
#       7
#     2   2   2   2   2   2   2
#     4   8  16  30  46  76  98 125 161 201 243 293
#     4   8  16  29  49  70 101 123 162 202 241 285
#     4   9  15  29  47  73  96 128 160 203 239 286
#     4  10  18  28  49  71 100 126 163 203 245 278
#     4  10  18  31  49  75  98 126 163 205 240 289
#     4  10  18  31  46  75 100 128 161 204 240 293
#     4   9  16  29  52  71 101 128 157 200 252 284
#
# _framework density 27.088982999999999
#
# number of rings (size 3 to 8) (size 9 to 14) (size 15 to 20)
#    0.857    2.000    1.429    2.143    0.000    0.571 
#    0.000    2.857    0.000    4.286    7.429    1.000 
#    0.000    0.000    0.000    0.000    0.000    0.000 
#
# Total GULP energy -78337.589744 kJ/mol
# GULP energy per Si atom -5595.542125 kJ/mol
# Density = 2.702733 g / cm^3
# Si number density = 27.088983 Si / 1000 Ang^3
#
#
#
# Elastic Constant Matrix: (Units=GPa)
#
#
# Indices 1 2 3 4 5 6 
#
# 1 59.4107 21.5485 30.1198 -20.5980 10.5982 2.3778
# 2 21.5485 206.0793 37.7278 -11.3920 24.4984 -3.9724
# 3 30.1198 37.7278 85.3972 -13.9004 26.4071 0.2462
# 4 -20.5980 -11.3920 -13.9004 38.0877 -5.9587 1.7430
# 5 10.5982 24.4984 26.4071 -5.9587 43.3571 -11.9401
# 6 2.3778 -3.9724 0.2462 1.7430 -11.9401 23.5823
#
#
#
# Elastic Compliance Matrix: (Units=1/GPa)
#
#
# Indices 1 2 3 4 5 6 
#
# 1 0.024283 -0.000747 -0.006025 0.010662 -0.001496 -0.004057
# 2 -0.000747 0.005454 -0.001483 0.000382 -0.001945 -0.000003
# 3 -0.006025 -0.001483 0.017711 0.001481 -0.009594 -0.004794
# 4 0.010662 0.000382 0.001481 0.032808 -0.000192 -0.003548
# 5 -0.001496 -0.001945 -0.009594 -0.000192 0.035242 0.017781
# 6 -0.004057 -0.000003 -0.004794 -0.003548 0.017781 0.052128
#
#
# Mechanical properties :
#
#
# Convention : Reuss Voigt Hill
#
# Bulk Modulus (GPa) = 32.32094 58.85327 45.58710
# Shear Modulus (GPa) = 25.71353 38.43816 32.07584
#
# Velocity S-wave (km/s) = 3.08429 3.77099 3.44480
# Velocity P-wave (km/s) = 4.96398 6.38229 5.71729
#
# Compressibility (1/GPa) = 0.03093969
#
# Stress axis : x y z
#
# Youngs Moduli (GPa) = 41.18074 183.34200 56.46080
#
# Poissons Ratio (x) = 0.13698 0.34017
# Poissons Ratio (y) = 0.03077 0.08371
# Poissons Ratio (z) = 0.24811 0.27182
#
# Static dielectric constant tensor:
#      x y z
#    x 2.115350 -0.011690 -0.025280 
#    y -0.011690 2.101310 0.048520 
#    z -0.025280 0.048520 2.223520 
# 
# From -- ./inp_files/344246.got.cif
#   From: 2010.05.17/outbox.cif.g08.bks.cpg/sg2_173_cif.got.tgz:344246.got - 2010.06.03 11:33:40.
