data_PCOD9067713
_publ_section_title
;
Structure prediction by ZEFSAII (Michael W. Deem and Ramdas Pophale) SiO2 
 PCOD9067713
Probable space group: P -1
;
_chemical_formula_sum "Si O2"
_cell_formula_units_Z 16
_cell_length_a 5.077295
_cell_length_b 9.469628
_cell_length_c 21.496945
_cell_angle_alpha 57.283250
_cell_angle_beta 77.402933
_cell_angle_gamma 53.339737
_cell_volume 689.154609
_symmetry_space_group_name_H-M "P -1"
_symmetry_group_IT_number 2
_symmetry_cell_setting 'triclinic'
loop_
_space_group_symop_operation_xyz
x,y,z
-x,-y,-z
loop_
_atom_site_type_symbol
_atom_site_label
_atom_site_fract_x
_atom_site_fract_y
_atom_site_fract_z
Si Si1 0.293649 0.768230 0.272010
Si Si2 0.634720 0.120361 0.936392
Si Si3 0.663323 0.257092 0.038729
Si Si4 0.408971 0.527218 0.570302
Si Si5 0.401867 0.983137 0.796630
Si Si6 0.829974 0.497025 0.217790
Si Si7 0.453067 0.743422 0.729425
Si Si8 0.624455 0.776127 0.571651
O O1 0.316555 0.693816 0.358574
O O2 0.620481 0.563387 0.275428
O O3 0.370074 0.937722 0.226731
O O4 0.987805 0.823145 0.231399
O O5 0.377353 0.306529 0.862025
O O6 0.661666 0.225240 0.971894
O O7 0.952104 0.937630 0.925336
O O8 0.500000 0.000000 0.000000
O O9 0.502498 0.185532 0.114084
O O10 0.500000 0.500000 0.000000
O O11 0.500000 0.500000 0.500000
O O12 0.458498 0.690612 0.559857
O O13 0.024112 0.614643 0.580401
O O14 0.396551 0.901793 0.747767
O O15 0.811901 0.311371 0.239636
O O16 0.183835 0.450133 0.221745
O O17 0.508860 0.793236 0.645390
O O18 0.500000 0.000000 0.500000
#
# Coordination Sequence:
#
# PCOD9067713 Si02
#       8
#     2   2   2   2   2   2   2   2
#     4  12  24  46  71  99 142 179 237 287 339 423
#     4  11  26  44  72  98 139 192 232 295 367 419
#     4  11  26  46  67 104 142 184 239 298 360 431
#     4  12  27  46  73 105 140 187 229 284 351 415
#     4  12  27  44  71 104 139 183 235 294 349 413
#     4  12  24  47  73  97 139 185 238 285 346 420
#     4  12  26  46  72 104 137 188 231 289 351 412
#     4  12  26  47  71 104 145 182 230 285 348 422
#
# _framework density 23.216850999999998
#
# number of rings (size 3 to 8) (size 9 to 14) (size 15 to 20)
#    0.000    0.250    3.750    4.500    8.750    0.500 
#    0.000    0.000    0.000    0.000    0.000    0.000 
#    0.000    0.000    0.000    0.000    0.000    0.000 
#
# Total GULP energy -89353.903571 kJ/mol
# GULP energy per Si atom -5584.618973 kJ/mol
# Density = 2.316401 g / cm^3
# Si number density = 23.216851 Si / 1000 Ang^3
#
#
#
# Elastic Constant Matrix: (Units=GPa)
#
#
# Indices 1 2 3 4 5 6 
#
# 1 61.8720 21.2975 15.6378 -3.5292 -2.0752 17.6650
# 2 21.2975 111.2773 6.8382 -2.5535 -7.6233 19.4247
# 3 15.6378 6.8382 155.1456 -18.9353 -4.6782 11.3797
# 4 -3.5292 -2.5535 -18.9353 36.0753 3.8891 1.6617
# 5 -2.0752 -7.6233 -4.6782 3.8891 33.3099 -7.3642
# 6 17.6650 19.4247 11.3797 1.6617 -7.3642 36.4671
#
#
#
# Elastic Compliance Matrix: (Units=1/GPa)
#
#
# Indices 1 2 3 4 5 6 
#
# 1 0.019662 -0.002304 -0.001103 0.001727 -0.001502 -0.008335
# 2 -0.002304 0.010245 0.000206 0.000669 0.001226 -0.004189
# 3 -0.001103 0.000206 0.007151 0.003738 0.000114 -0.001954
# 4 0.001727 0.000669 0.003738 0.030513 -0.003774 -0.004512
# 5 -0.001502 0.001226 0.000114 -0.003774 0.032147 0.006702
# 6 -0.008335 -0.004189 -0.001954 -0.004512 0.006702 0.035860
#
#
# Mechanical properties :
#
#
# Convention : Reuss Voigt Hill
#
# Bulk Modulus (GPa) = 32.61906 46.20465 39.41185
# Shear Modulus (GPa) = 32.85218 40.13854 36.49536
#
# Velocity S-wave (km/s) = 3.76575 4.16246 3.96906
# Velocity P-wave (km/s) = 5.74352 6.56094 6.16579
#
# Compressibility (1/GPa) = 0.03065692
#
# Stress axis : x y z
#
# Youngs Moduli (GPa) = 50.85923 97.60577 139.84802
#
# Poissons Ratio (x) = 0.22484 0.15431
# Poissons Ratio (y) = 0.11716 -0.02888
# Poissons Ratio (z) = 0.05612 -0.02015
#
# Static dielectric constant tensor:
#      x y z
#    x 1.991540 -0.159270 -0.014280 
#    y -0.159270 2.095050 0.099490 
#    z -0.014280 0.099490 2.050720 
# 
# From -- ./inp_files/553447.got.cif
#   From: 2010.05.17/outbox.cif.g08.bks.cpg/sg2_277_cif.got.tgz:553447.got - 2010.06.03 11:33:40.
