data_PCOD9067731
_publ_section_title
;
Structure prediction by ZEFSAII (Michael W. Deem and Ramdas Pophale) SiO2 
 PCOD9067731
Probable space group: P -1
;
_chemical_formula_sum "Si O2"
_cell_formula_units_Z 12
_cell_length_a 18.021970
_cell_length_b 4.963679
_cell_length_c 7.450282
_cell_angle_alpha 119.998378
_cell_angle_beta 125.881573
_cell_angle_gamma 85.455676
_cell_volume 445.415199
_symmetry_space_group_name_H-M "P -1"
_symmetry_group_IT_number 2
_symmetry_cell_setting 'triclinic'
loop_
_space_group_symop_operation_xyz
x,y,z
-x,-y,-z
loop_
_atom_site_type_symbol
_atom_site_label
_atom_site_fract_x
_atom_site_fract_y
_atom_site_fract_z
Si Si1 0.910290 0.209136 0.862994
Si Si2 0.218819 0.388750 0.343102
Si Si3 0.609523 0.826522 0.618797
Si Si4 0.722984 0.522633 0.131387
Si Si5 0.453253 0.267106 0.093850
Si Si6 0.940037 0.748128 0.472797
O O1 0.827505 0.352724 0.720895
O O2 0.855326 0.987171 0.881489
O O3 0.937283 0.910349 0.712007
O O4 0.000000 0.500000 0.000000
O O5 0.309887 0.353865 0.352758
O O6 0.251392 0.515828 0.635480
O O7 0.527268 0.634463 0.298607
O O8 0.562338 0.785258 0.733585
O O9 0.663699 0.211013 0.827535
O O10 0.827693 0.647384 0.228316
O O11 0.652767 0.745757 0.124315
O O12 0.500000 0.000000 0.000000
O O13 0.000000 0.500000 0.500000
O O14 0.000000 0.000000 0.500000
#
# Coordination Sequence:
#
# PCOD9067731 Si02
#       6
#     2   2   2   2   2   2
#     4  11  26  47  75 111 156 203 260 321 386 458
#     4  11  27  46  78 113 158 203 258 322 393 459
#     4  11  27  45  78 111 149 207 262 311 404 461
#     4  11  27  47  75 108 158 201 258 324 389 463
#     4  11  27  49  79 112 156 199 265 327 394 463
#     4  11  26  44  74 110 149 197 253 312 385 456
#
# _framework density 26.941154000000001
#
# number of rings (size 3 to 8) (size 9 to 14) (size 15 to 20)
#    0.000    1.000    0.000    4.000   18.667    4.000 
#    0.000    0.000    0.000    0.000    0.000    0.000 
#    0.000    0.000    0.000    0.000    0.000    0.000 
#
# Total GULP energy -67002.253737 kJ/mol
# GULP energy per Si atom -5583.521145 kJ/mol
# Density = 2.687984 g / cm^3
# Si number density = 26.941154 Si / 1000 Ang^3
#
#
#
# Elastic Constant Matrix: (Units=GPa)
#
#
# Indices 1 2 3 4 5 6 
#
# 1 203.1128 81.1245 56.0379 9.3358 21.8348 -45.8680
# 2 81.1245 154.4590 25.3172 -7.3808 23.2991 -36.2266
# 3 56.0379 25.3172 105.0552 15.7000 33.9974 -10.1246
# 4 9.3358 -7.3808 15.7000 29.9239 0.2379 9.0159
# 5 21.8348 23.2991 33.9974 0.2379 61.0040 0.8252
# 6 -45.8680 -36.2266 -10.1246 9.0159 0.8252 68.1791
#
#
#
# Elastic Compliance Matrix: (Units=1/GPa)
#
#
# Indices 1 2 3 4 5 6 
#
# 1 0.007793 -0.002897 -0.002573 -0.002911 -0.000288 0.003710
# 2 -0.002897 0.009088 0.000072 0.002341 -0.002519 0.002612
# 3 -0.002573 0.000072 0.014380 -0.007110 -0.007113 0.001469
# 4 -0.002911 0.002341 -0.007110 0.040775 0.004049 -0.007212
# 5 -0.000288 -0.002519 -0.007113 0.004049 0.021451 -0.003383
# 6 0.003710 0.002612 0.001469 -0.007212 -0.003383 0.019764
#
#
# Mechanical properties :
#
#
# Convention : Reuss Voigt Hill
#
# Bulk Modulus (GPa) = 48.86295 87.50956 68.18626
# Shear Modulus (GPa) = 38.20666 51.83124 45.01895
#
# Velocity S-wave (km/s) = 3.76992 4.39095 4.09223
# Velocity P-wave (km/s) = 6.09311 7.63279 6.90600
#
# Compressibility (1/GPa) = 0.02046540
#
# Stress axis : x y z
#
# Youngs Moduli (GPa) = 128.32468 110.03299 69.54223
#
# Poissons Ratio (x) = 0.31874 0.17893
# Poissons Ratio (y) = 0.37172 -0.00501
# Poissons Ratio (z) = 0.33017 -0.00793
#
# Static dielectric constant tensor:
#      x y z
#    x 2.115910 0.095960 0.045540 
#    y 0.095960 2.098550 0.046740 
#    z 0.045540 0.046740 2.367050 
# 
# From -- ./inp_files/323147.got.cif
#   From: 2010.05.17/outbox.cif.g08.bks.cpg/sg2_162_cif.got.tgz:323147.got - 2010.06.03 11:33:40.
