data_PCOD9067610
_publ_section_title
;
Structure prediction by ZEFSAII (Michael W. Deem and Ramdas Pophale) SiO2 
 PCOD9067610
Probable space group: P -1
;
_chemical_formula_sum "Si O2"
_cell_formula_units_Z 10
_cell_length_a 11.328328
_cell_length_b 5.057835
_cell_length_c 7.774113
_cell_angle_alpha 63.488289
_cell_angle_beta 72.023293
_cell_angle_gamma 80.274366
_cell_volume 378.879057
_symmetry_space_group_name_H-M "P -1"
_symmetry_group_IT_number 2
_symmetry_cell_setting 'triclinic'
loop_
_space_group_symop_operation_xyz
x,y,z
-x,-y,-z
loop_
_atom_site_type_symbol
_atom_site_label
_atom_site_fract_x
_atom_site_fract_y
_atom_site_fract_z
Si Si1 0.467483 0.816293 0.342802
Si Si2 0.223633 0.941937 0.558826
Si Si3 0.140054 0.361839 0.175004
Si Si4 0.124050 0.308930 0.807061
Si Si5 0.382731 0.719229 0.029312
O O1 0.500000 0.500000 0.500000
O O2 0.389528 0.786551 0.208831
O O3 0.370610 0.994204 0.458335
O O4 0.586680 0.989890 0.177118
O O5 0.153137 0.114975 0.386972
O O6 0.162213 0.060188 0.726746
O O7 0.207001 0.593111 0.655482
O O8 0.260057 0.558807 0.080192
O O9 0.016053 0.564145 0.194593
O O10 0.136929 0.224970 0.025412
O O11 0.500000 0.500000 0.000000
#
# Coordination Sequence:
#
# PCOD9067610 Si02
#       5
#     2   2   2   2   2
#     4  11  28  49  78 115 158 210 266 327 398 475
#     4  12  26  51  79 116 159 205 267 328 393 472
#     4  11  26  52  79 114 161 203 264 329 393 474
#     4  11  29  49  82 118 154 212 262 326 399 475
#     4  11  25  51  76 113 156 210 260 330 397 465
#
# _framework density 26.393642
#
# number of rings (size 3 to 8) (size 9 to 14) (size 15 to 20)
#    0.000    0.800    2.000    2.400    2.800   12.000 
#    0.000    1.000    0.000    0.000    0.000    0.000 
#    0.000    0.000    0.000    0.000    0.000    0.000 
#
# Total GULP energy -56263.876266 kJ/mol
# GULP energy per Si atom -5626.387627 kJ/mol
# Density = 2.633357 g / cm^3
# Si number density = 26.393642 Si / 1000 Ang^3
#
#
#
# Elastic Constant Matrix: (Units=GPa)
#
#
# Indices 1 2 3 4 5 6 
#
# 1 97.4529 11.1365 36.4417 6.8461 -3.3790 -17.5994
# 2 11.1365 82.6382 46.5870 4.1578 1.1748 -9.6590
# 3 36.4417 46.5870 169.7449 -7.5922 27.4120 -8.3344
# 4 6.8461 4.1578 -7.5922 54.2577 -3.6827 -16.6750
# 5 -3.3790 1.1748 27.4120 -3.6827 55.8211 -3.7647
# 6 -17.5994 -9.6590 -8.3344 -16.6750 -3.7647 32.4751
#
#
#
# Elastic Compliance Matrix: (Units=1/GPa)
#
#
# Indices 1 2 3 4 5 6 
#
# 1 0.012584 0.000727 -0.002999 0.000166 0.002680 0.006662
# 2 0.000727 0.014933 -0.004445 -0.000598 0.002118 0.003634
# 3 -0.002999 -0.004445 0.008472 0.001465 -0.004186 -0.000507
# 4 0.000166 -0.000598 0.001465 0.022458 0.001595 0.012005
# 5 0.002680 0.002118 -0.004186 0.001595 0.020476 0.004200
# 6 0.006662 0.003634 -0.000507 0.012005 0.004200 0.042005
#
#
# Mechanical properties :
#
#
# Convention : Reuss Voigt Hill
#
# Bulk Modulus (GPa) = 44.33595 59.79626 52.06611
# Shear Modulus (GPa) = 35.24070 45.55549 40.39809
#
# Velocity S-wave (km/s) = 3.65800 4.15903 3.91653
# Velocity P-wave (km/s) = 5.88861 6.76521 6.34207
#
# Compressibility (1/GPa) = 0.02255506
#
# Stress axis : x y z
#
# Youngs Moduli (GPa) = 79.46396 66.96355 118.04012
#
# Poissons Ratio (x) = -0.04870 0.35406
# Poissons Ratio (y) = -0.05780 0.52470
# Poissons Ratio (z) = 0.23835 0.29766
#
# Static dielectric constant tensor:
#      x y z
#    x 2.041270 0.011000 0.010610 
#    y 0.011000 2.032550 0.015830 
#    z 0.010610 0.015830 2.043380 
# 
# From -- ./inp_files/228452.got.cif
#   From: 2010.05.17/outbox.cif.g08.bks.cpg/sg2_115_cif.got.tgz:228452.got - 2010.06.03 11:33:40.
