data_PCOD9067750
_publ_section_title
;
Structure prediction by ZEFSAII (Michael W. Deem and Ramdas Pophale) SiO2 
 PCOD9067750
Probable space group: P -1
;
_chemical_formula_sum "Si O2"
_cell_formula_units_Z 16
_cell_length_a 8.303990
_cell_length_b 10.095359
_cell_length_c 16.492785
_cell_angle_alpha 90.647321
_cell_angle_beta 148.183042
_cell_angle_gamma 89.055006
_cell_volume 728.818137
_symmetry_space_group_name_H-M "P -1"
_symmetry_group_IT_number 2
_symmetry_cell_setting 'triclinic'
loop_
_space_group_symop_operation_xyz
x,y,z
-x,-y,-z
loop_
_atom_site_type_symbol
_atom_site_label
_atom_site_fract_x
_atom_site_fract_y
_atom_site_fract_z
Si Si1 0.892837 0.625311 0.904390
Si Si2 0.765180 0.120653 0.896978
Si Si3 0.403375 0.129856 0.911355
Si Si4 0.762656 0.189452 0.565458
Si Si5 0.750262 0.934363 0.451267
Si Si6 0.737749 0.427359 0.437198
Si Si7 0.760844 0.674720 0.550256
Si Si8 0.255682 0.617231 0.890708
O O1 0.531062 0.624866 0.735303
O O2 0.042838 0.619993 0.879259
O O3 0.000000 0.500000 0.000000
O O4 0.029616 0.749932 0.010129
O O5 0.549710 0.122926 0.884118
O O6 0.547992 0.105248 0.726937
O O7 0.000000 0.000000 0.000000
O O8 0.044982 0.155671 0.744821
O O9 0.553320 0.249468 0.024147
O O10 0.500000 0.000000 0.000000
O O11 0.852890 0.302757 0.539267
O O12 0.481767 0.255406 0.493394
O O13 0.676878 0.051767 0.484459
O O14 0.865685 0.796740 0.539497
O O15 0.000000 0.000000 0.500000
O O16 0.614569 0.549849 0.440816
O O17 0.000000 0.500000 0.500000
O O18 0.042174 0.614827 0.721020
O O19 0.500000 0.500000 0.000000
#
# Coordination Sequence:
#
# PCOD9067750 Si02
#       8
#     2   2   2   2   2   2   2   2
#     4  11  26  47  69 104 143 187 240 292 361 428
#     4  11  26  46  69 102 145 185 238 296 359 427
#     4  11  26  45  69 103 143 188 236 294 360 423
#     4  12  25  47  74 103 147 189 246 298 352 434
#     4  12  25  47  74 107 144 191 243 293 357 428
#     4  12  27  47  76 104 144 190 244 300 360 428
#     4  12  27  46  75 106 142 193 242 299 363 425
#     4  11  26  46  70 104 146 186 236 294 364 429
#
# _framework density 21.95335
#
# number of rings (size 3 to 8) (size 9 to 14) (size 15 to 20)
#    0.000    0.500    2.500    4.500   10.500    1.000 
#    0.000    0.000    0.000    0.000    0.000    0.000 
#    0.000    0.000    0.000    0.000    0.000    0.000 
#
# Total GULP energy -89630.782305 kJ/mol
# GULP energy per Si atom -5601.923894 kJ/mol
# Density = 2.190338 g / cm^3
# Si number density = 21.953350 Si / 1000 Ang^3
#
#
#
# Elastic Constant Matrix: (Units=GPa)
#
#
# Indices 1 2 3 4 5 6 
#
# 1 28.4128 17.2713 29.6922 6.5930 7.9116 7.1479
# 2 17.2713 166.5996 54.6331 1.1308 -0.7644 22.7840
# 3 29.6922 54.6331 159.0586 -0.3838 8.7885 20.9381
# 4 6.5930 1.1308 -0.3838 52.0733 -1.7586 -6.5929
# 5 7.9116 -0.7644 8.7885 -1.7586 26.0813 -9.1213
# 6 7.1479 22.7840 20.9381 -6.5929 -9.1213 41.5702
#
#
#
# Elastic Compliance Matrix: (Units=1/GPa)
#
#
# Indices 1 2 3 4 5 6 
#
# 1 0.053088 -0.001885 -0.007004 -0.008579 -0.017818 -0.009838
# 2 -0.001885 0.007146 -0.001780 -0.000249 0.000442 -0.002638
# 3 -0.007004 -0.001780 0.008616 0.000627 -0.001635 -0.002419
# 4 -0.008579 -0.000249 0.000627 0.021254 0.005902 0.005961
# 5 -0.017818 0.000442 -0.001635 0.005902 0.050159 0.015587
# 6 -0.009838 -0.002638 -0.002419 0.005961 0.015587 0.032777
#
#
# Mechanical properties :
#
#
# Convention : Reuss Voigt Hill
#
# Bulk Modulus (GPa) = 21.04743 61.91823 41.48283
# Shear Modulus (GPa) = 23.78502 40.77659 32.28081
#
# Velocity S-wave (km/s) = 3.29513 4.31445 3.83878
# Velocity P-wave (km/s) = 4.90768 7.28595 6.21170
#
# Compressibility (1/GPa) = 0.04751174
#
# Stress axis : x y z
#
# Youngs Moduli (GPa) = 18.83676 139.93431 116.06038
#
# Poissons Ratio (x) = 0.26376 0.81288
# Poissons Ratio (y) = 0.03551 0.20663
# Poissons Ratio (z) = 0.13193 0.24914
#
# Static dielectric constant tensor:
#      x y z
#    x 1.856410 -0.010430 0.038350 
#    y -0.010430 1.764930 -0.028660 
#    z 0.038350 -0.028660 1.935860 
# 
# From -- ./inp_files/557285.got.cif
#   From: 2010.05.17/outbox.cif.g08.bks.cpg/sg2_279_cif.got.tgz:557285.got - 2010.06.03 11:33:40.
