data_PCOD9067341
_publ_section_title
;
Structure prediction by ZEFSAII (Michael W. Deem and Ramdas Pophale) SiO2 
 PCOD9067341
Probable space group: P -1
;
_chemical_formula_sum "Si O2"
_cell_formula_units_Z 14
_cell_length_a 15.849303
_cell_length_b 7.612392
_cell_length_c 10.242429
_cell_angle_alpha 48.103374
_cell_angle_beta 36.883355
_cell_angle_gamma 58.935416
_cell_volume 551.621483
_symmetry_space_group_name_H-M "P -1"
_symmetry_group_IT_number 2
_symmetry_cell_setting 'triclinic'
loop_
_space_group_symop_operation_xyz
x,y,z
-x,-y,-z
loop_
_atom_site_type_symbol
_atom_site_label
_atom_site_fract_x
_atom_site_fract_y
_atom_site_fract_z
Si Si1 0.152492 0.627629 0.252800
Si Si2 0.556398 0.896406 0.691767
Si Si3 0.164028 0.522014 0.750410
Si Si4 0.156634 0.905655 0.368662
Si Si5 0.562833 0.564311 0.082075
Si Si6 0.368526 0.292682 0.803527
Si Si7 0.158660 0.048433 0.829908
O O1 0.176777 0.711062 0.328473
O O2 0.000000 0.500000 0.500000
O O3 0.272250 0.461605 0.138706
O O4 0.169530 0.857968 0.026451
O O5 0.510011 0.676723 0.764438
O O6 0.716975 0.970897 0.420100
O O7 0.459104 0.119899 0.688951
O O8 0.526609 0.787197 0.927106
O O9 0.186081 0.776482 0.531136
O O10 0.267912 0.467833 0.766468
O O11 0.179467 0.308561 0.735248
O O12 0.000000 0.500000 0.000000
O O13 0.000000 0.000000 0.500000
O O14 0.261640 0.119192 0.100447
O O15 0.538710 0.592054 0.251818
O O16 0.000000 0.000000 0.000000
#
# Coordination Sequence:
#
# PCOD9067341 Si02
#       7
#     2   2   2   2   2   2   2
#     4  12  24  46  76 113 154 207 268 327 395 470
#     4  11  26  53  79 115 163 205 269 330 396 485
#     4  12  26  47  77 119 159 206 269 333 393 470
#     4  12  23  46  77 110 164 207 263 330 389 469
#     4  11  25  48  81 115 159 214 260 322 406 474
#     4  12  26  51  79 119 161 212 266 325 403 474
#     4  12  27  49  80 114 154 208 268 335 403 474
#
# _framework density 25.379722000000001
#
# number of rings (size 3 to 8) (size 9 to 14) (size 15 to 20)
#    0.000    0.286    4.286    3.857    4.000    3.429 
#    2.571    1.429    0.000    0.000    0.000    0.000 
#    0.000    0.000    0.000    0.000    0.000    0.000 
#
# Total GULP energy -78586.582701 kJ/mol
# GULP energy per Si atom -5613.327336 kJ/mol
# Density = 2.532196 g / cm^3
# Si number density = 25.379722 Si / 1000 Ang^3
#
#
#
# Elastic Constant Matrix: (Units=GPa)
#
#
# Indices 1 2 3 4 5 6 
#
# 1 134.5282 38.3418 50.8289 -12.8631 14.8580 -15.7794
# 2 38.3418 107.7857 54.8161 2.1544 9.8601 -24.3218
# 3 50.8289 54.8161 177.7835 -7.4150 -8.9995 -29.6494
# 4 -12.8631 2.1544 -7.4150 54.4949 -13.6799 5.0415
# 5 14.8580 9.8601 -8.9995 -13.6799 43.8134 -10.8558
# 6 -15.7794 -24.3218 -29.6494 5.0415 -10.8558 52.1293
#
#
#
# Elastic Compliance Matrix: (Units=1/GPa)
#
#
# Indices 1 2 3 4 5 6 
#
# 1 0.009218 -0.001989 -0.002111 0.001288 -0.002717 -0.000029
# 2 -0.001989 0.012524 -0.002993 -0.002345 -0.002697 0.003204
# 3 -0.002111 -0.002993 0.007972 0.001482 0.004295 0.003250
# 4 0.001288 -0.002345 0.001482 0.020683 0.006740 -0.000458
# 5 -0.002717 -0.002697 0.004295 0.006740 0.028751 0.005698
# 6 -0.000029 0.003204 0.003250 -0.000458 0.005698 0.023749
#
#
# Mechanical properties :
#
#
# Convention : Reuss Voigt Hill
#
# Bulk Modulus (GPa) = 64.39721 78.67456 71.53588
# Shear Modulus (GPa) = 40.89724 48.49490 44.69607
#
# Velocity S-wave (km/s) = 4.01860 4.37598 4.20109
# Velocity P-wave (km/s) = 6.85279 7.52320 7.19581
#
# Compressibility (1/GPa) = 0.01552862
#
# Stress axis : x y z
#
# Youngs Moduli (GPa) = 108.48797 79.84734 125.43428
#
# Poissons Ratio (x) = 0.15883 0.26474
# Poissons Ratio (y) = 0.21581 0.37540
# Poissons Ratio (z) = 0.22897 0.23896
#
# Static dielectric constant tensor:
#      x y z
#    x 2.049530 -0.005950 0.003620 
#    y -0.005950 1.984690 -0.021570 
#    z 0.003620 -0.021570 2.001000 
# 
# From -- ./inp_files/447806.got.cif
#   From: 2010.05.17/outbox.cif.g08.bks.cpg/sg2_224_cif.got.tgz:447806.got - 2010.06.03 11:33:40.
