data_PCOD9067265
_publ_section_title
;
Structure prediction by ZEFSAII (Michael W. Deem and Ramdas Pophale) SiO2 
 PCOD9067265
Probable space group: P -1
;
_chemical_formula_sum "Si O2"
_cell_formula_units_Z 13
_cell_length_a 20.458585
_cell_length_b 5.067815
_cell_length_c 5.384963
_cell_angle_alpha 91.449139
_cell_angle_beta 99.105159
_cell_angle_gamma 121.070047
_cell_volume 468.400161
_symmetry_space_group_name_H-M "P -1"
_symmetry_group_IT_number 2
_symmetry_cell_setting 'triclinic'
loop_
_space_group_symop_operation_xyz
x,y,z
-x,-y,-z
loop_
_atom_site_type_symbol
_atom_site_label
_atom_site_fract_x
_atom_site_fract_y
_atom_site_fract_z
Si Si1 0.171677 0.630376 0.576348
Si Si2 0.362584 0.696311 0.423957
Si Si3 0.327207 0.140394 0.720778
Si Si4 0.454751 0.159056 0.090595
Si Si5 0.000000 0.500000 0.500000
Si Si6 0.049872 0.862308 0.118579
Si Si7 0.795638 0.622845 0.916319
O O1 0.082485 0.513292 0.558633
O O2 0.180708 0.521699 0.304175
O O3 0.235070 0.002269 0.653301
O O4 0.196715 0.499591 0.818654
O O5 0.372277 0.468749 0.610016
O O6 0.292677 0.470559 0.188795
O O7 0.332995 0.880722 0.566633
O O8 0.435329 0.983648 0.338332
O O9 0.368973 0.120146 0.991968
O O10 0.500000 0.500000 0.000000
O O11 0.500000 0.000000 0.000000
O O12 0.048202 0.846808 0.410297
O O13 0.135126 0.020501 0.060827
O O14 0.000000 0.500000 0.000000
O O15 0.000000 0.000000 0.000000
#
# Coordination Sequence:
#
# PCOD9067265 Si02
#       7
#     2   2   2   2   1   2   2
#     4  11  25  48  79 113 157 209 269 334 396 476
#     4  11  25  48  76 106 155 203 258 320 390 474
#     4  11  25  49  73 111 150 210 254 322 393 471
#     4  12  26  45  75 117 153 198 256 322 392 477
#     4  12  26  44  76 110 154 200 264 328 398 452
#     4  12  27  46  71 106 148 200 254 326 390 459
#     4  11  25  50  76 111 155 211 271 325 402 473
#
# _framework density 27.754045999999999
#
# number of rings (size 3 to 8) (size 9 to 14) (size 15 to 20)
#    0.000    0.615    3.077    3.692    2.154    6.154 
#    0.000    0.000    0.000    0.000    0.000    0.000 
#    0.000    0.000    0.000    0.000    0.000    0.000 
#
# Total GULP energy -72404.800572 kJ/mol
# GULP energy per Si atom -5569.600044 kJ/mol
# Density = 2.769088 g / cm^3
# Si number density = 27.754046 Si / 1000 Ang^3
#
#
#
# Elastic Constant Matrix: (Units=GPa)
#
#
# Indices 1 2 3 4 5 6 
#
# 1 135.1199 33.2471 55.9729 -11.0034 21.8790 -15.9922
# 2 33.2471 185.6752 50.3007 -43.5295 11.0643 -13.7215
# 3 55.9729 50.3007 118.6644 -31.0192 24.1398 -4.8814
# 4 -11.0034 -43.5295 -31.0192 54.4505 -1.7807 0.8505
# 5 21.8790 11.0643 24.1398 -1.7807 47.9731 -15.5978
# 6 -15.9922 -13.7215 -4.8814 0.8505 -15.5978 54.9699
#
#
#
# Elastic Compliance Matrix: (Units=1/GPa)
#
#
# Indices 1 2 3 4 5 6 
#
# 1 0.009672 -0.000601 -0.004158 -0.000977 -0.001614 0.001852
# 2 -0.000601 0.007088 -0.001430 0.004708 -0.000014 0.001391
# 3 -0.004158 -0.001430 0.013348 0.005490 -0.004889 -0.001854
# 4 -0.000977 0.004708 0.005490 0.024976 -0.002372 0.000319
# 5 -0.001614 -0.000014 -0.004889 -0.002372 0.026080 0.006530
# 6 0.001852 0.001391 -0.001854 0.000319 0.006530 0.020761
#
#
# Mechanical properties :
#
#
# Convention : Reuss Voigt Hill
#
# Bulk Modulus (GPa) = 56.40423 79.83342 68.11883
# Shear Modulus (GPa) = 41.59219 51.47465 46.53342
#
# Velocity S-wave (km/s) = 3.87537 4.31126 4.09912
# Velocity P-wave (km/s) = 6.35545 7.32186 6.85571
#
# Compressibility (1/GPa) = 0.01772917
#
# Stress axis : x y z
#
# Youngs Moduli (GPa) = 103.38779 141.07854 74.91702
#
# Poissons Ratio (x) = 0.08485 0.31152
# Poissons Ratio (y) = 0.06218 0.10715
# Poissons Ratio (z) = 0.42990 0.20177
#
# Static dielectric constant tensor:
#      x y z
#    x 1.827190 -0.127520 -0.629440 
#    y -0.127520 2.201480 -0.219740 
#    z -0.629440 -0.219740 1.175320 
# 
# From -- ./inp_files/114040.got.cif
#   From: 2010.05.17/outbox.cif.g08.bks.cpg/sg2_58_cif.got.tgz:114040.got - 2010.06.03 11:33:40.
