data_PCOD9067546
_publ_section_title
;
Structure prediction by ZEFSAII (Michael W. Deem and Ramdas Pophale) SiO2 
 PCOD9067546
Probable space group: P -1
;
_chemical_formula_sum "Si O2"
_cell_formula_units_Z 13
_cell_length_a 9.518650
_cell_length_b 12.515249
_cell_length_c 8.286988
_cell_angle_alpha 67.933749
_cell_angle_beta 122.178080
_cell_angle_gamma 144.956046
_cell_volume 476.080502
_symmetry_space_group_name_H-M "P -1"
_symmetry_group_IT_number 2
_symmetry_cell_setting 'triclinic'
loop_
_space_group_symop_operation_xyz
x,y,z
-x,-y,-z
loop_
_atom_site_type_symbol
_atom_site_label
_atom_site_fract_x
_atom_site_fract_y
_atom_site_fract_z
Si Si1 0.318539 0.161722 0.099700
Si Si2 0.341143 0.297810 0.362950
Si Si3 0.997441 0.651723 0.232915
Si Si4 0.825801 0.167397 0.112290
Si Si5 0.000000 0.000000 0.500000
Si Si6 0.268161 0.302685 0.740201
Si Si7 0.756919 0.261338 0.333123
O O1 0.407581 0.268194 0.258809
O O2 0.437162 0.100120 0.198378
O O3 0.419056 0.283394 0.935215
O O4 0.000000 0.000000 0.000000
O O5 0.531032 0.511164 0.349987
O O6 0.010243 0.148023 0.253783
O O7 0.330196 0.202341 0.555208
O O8 0.204604 0.759821 0.449873
O O9 0.819556 0.661265 0.186189
O O10 0.876207 0.455914 0.279391
O O11 0.068718 0.717576 0.053555
O O12 0.890964 0.263885 0.268766
O O13 0.500000 0.000000 0.000000
O O14 0.976606 0.890195 0.395667
#
# Coordination Sequence:
#
# PCOD9067546 Si02
#       7
#     2   2   2   2   1   2   2
#     4  12  23  47  77 105 149 203 255 308 376 456
#     4  12  25  49  75 111 151 201 254 313 389 456
#     4  11  25  50  78 107 152 203 248 318 389 452
#     4  12  27  47  74 113 157 201 252 314 387 462
#     4  12  28  42  76 116 148 186 256 326 372 456
#     4  12  25  49  80 108 152 202 257 314 386 459
#     4  11  26  47  75 113 147 199 258 312 381 456
#
# _framework density 27.306303
#
# number of rings (size 3 to 8) (size 9 to 14) (size 15 to 20)
#    0.000    0.308    4.615    4.154    0.000    1.846 
#    0.000    0.000    0.000    0.000    0.000    0.000 
#    0.000    0.000    0.000    0.000    0.000    0.000 
#
# Total GULP energy -72496.108946 kJ/mol
# GULP energy per Si atom -5576.623765 kJ/mol
# Density = 2.724415 g / cm^3
# Si number density = 27.306303 Si / 1000 Ang^3
#
#
#
# Elastic Constant Matrix: (Units=GPa)
#
#
# Indices 1 2 3 4 5 6 
#
# 1 151.7879 28.4349 56.5663 4.5627 -23.7066 -3.0507
# 2 28.4349 149.9276 11.5027 -7.4300 -27.8596 -2.6716
# 3 56.5663 11.5027 117.7105 -30.1279 -18.3096 7.3216
# 4 4.5627 -7.4300 -30.1279 34.7134 8.0565 -13.2750
# 5 -23.7066 -27.8596 -18.3096 8.0565 57.4412 5.2720
# 6 -3.0507 -2.6716 7.3216 -13.2750 5.2720 48.0202
#
#
#
# Elastic Compliance Matrix: (Units=1/GPa)
#
#
# Indices 1 2 3 4 5 6 
#
# 1 0.009720 -0.001293 -0.006073 -0.007810 0.002634 -0.000977
# 2 -0.001293 0.007526 0.000838 0.001952 0.003072 0.000411
# 3 -0.006073 0.000838 0.015017 0.014374 0.000553 0.001284
# 4 -0.007810 0.001952 0.014374 0.048368 -0.005525 0.011399
# 5 0.002634 0.003072 0.000553 -0.005525 0.021268 -0.003608
# 6 -0.000977 0.000411 0.001284 0.011399 -0.003608 0.024137
#
#
# Mechanical properties :
#
#
# Convention : Reuss Voigt Hill
#
# Bulk Modulus (GPa) = 52.06575 68.04821 60.05698
# Shear Modulus (GPa) = 34.36547 49.56309 41.96428
#
# Velocity S-wave (km/s) = 3.55141 4.26500 3.92445
# Velocity P-wave (km/s) = 5.99378 7.01627 6.52508
#
# Compressibility (1/GPa) = 0.01920648
#
# Stress axis : x y z
#
# Youngs Moduli (GPa) = 102.87977 132.87839 66.59046
#
# Poissons Ratio (x) = 0.17175 0.40442
# Poissons Ratio (y) = 0.13298 -0.05578
# Poissons Ratio (z) = 0.62482 -0.11130
#
# Static dielectric constant tensor:
#      x y z
#    x 2.151060 0.063030 0.035180 
#    y 0.063030 1.991690 0.337040 
#    z 0.035180 0.337040 1.891900 
# 
# From -- ./inp_files/178134.got.cif
#   From: 2010.05.17/outbox.cif.g08.bks.cpg/sg2_90_cif.got.tgz:178134.got - 2010.06.03 11:33:40.
