data_PCOD9067227
_publ_section_title
;
Structure prediction by ZEFSAII (Michael W. Deem and Ramdas Pophale) SiO2 
 PCOD9067227
Probable space group: P -1
;
_chemical_formula_sum "Si O2"
_cell_formula_units_Z 12
_cell_length_a 5.421336
_cell_length_b 9.351484
_cell_length_c 13.028545
_cell_angle_alpha 59.983763
_cell_angle_beta 101.046902
_cell_angle_gamma 72.858535
_cell_volume 498.533719
_symmetry_space_group_name_H-M "P -1"
_symmetry_group_IT_number 2
_symmetry_cell_setting 'triclinic'
loop_
_space_group_symop_operation_xyz
x,y,z
-x,-y,-z
loop_
_atom_site_type_symbol
_atom_site_label
_atom_site_fract_x
_atom_site_fract_y
_atom_site_fract_z
Si Si1 0.258222 0.129053 0.010871
Si Si2 0.033880 0.910577 0.177809
Si Si3 0.425013 0.832961 0.549866
Si Si4 0.790181 0.490396 0.071156
Si Si5 0.886271 0.115182 0.287176
Si Si6 0.790492 0.484225 0.572520
O O1 0.246895 0.005160 0.150943
O O2 0.272573 0.321384 0.943053
O O3 0.979783 0.155620 0.916696
O O4 0.500000 0.000000 0.000000
O O5 0.072144 0.721511 0.299322
O O6 0.812496 0.060214 0.188966
O O7 0.343872 0.809367 0.667718
O O8 0.677184 0.651069 0.586245
O O9 0.500000 0.000000 0.500000
O O10 0.142217 0.925456 0.421590
O O11 0.945753 0.291039 0.210329
O O12 0.500000 0.500000 0.000000
O O13 0.000000 0.500000 0.000000
O O14 0.500000 0.500000 0.500000
O O15 0.000000 0.500000 0.500000
#
# Coordination Sequence:
#
# PCOD9067227 Si02
#       6
#     2   2   2   2   2   2
#     4  11  27  45  76 111 149 203 257 314 384 456
#     4  11  25  48  74 108 155 200 256 318 383 456
#     4  11  27  45  76 111 149 203 257 314 384 456
#     4  12  28  49  79 112 152 202 256 314 386 454
#     4  11  25  48  74 108 155 200 256 318 383 456
#     4  12  28  49  79 112 152 202 256 314 386 454
#
# _framework density 24.070587
#
# number of rings (size 3 to 8) (size 9 to 14) (size 15 to 20)
#    0.000    0.667    3.333    2.000   14.000    1.333 
#    0.000    0.000    0.000    0.000    0.000    0.000 
#    0.000    0.000    0.000    0.000    0.000    0.000 
#
# Total GULP energy -66838.329291 kJ/mol
# GULP energy per Si atom -5569.860774 kJ/mol
# Density = 2.401580 g / cm^3
# Si number density = 24.070587 Si / 1000 Ang^3
#
#
#
# Elastic Constant Matrix: (Units=GPa)
#
#
# Indices 1 2 3 4 5 6 
#
# 1 101.0939 39.8426 27.7911 0.2951 -44.9389 2.1351
# 2 39.8426 246.5281 42.9750 -22.3016 -30.8454 0.2326
# 3 27.7911 42.9750 82.7595 -28.2926 -53.3990 0.2541
# 4 0.2951 -22.3016 -28.2926 45.5383 12.2910 -9.1373
# 5 -44.9389 -30.8454 -53.3990 12.2910 54.0860 5.3437
# 6 2.1351 0.2326 0.2541 -9.1373 5.3437 52.0787
#
#
#
# Elastic Compliance Matrix: (Units=1/GPa)
#
#
# Indices 1 2 3 4 5 6 
#
# 1 0.019851 -0.001945 0.011280 -0.002300 0.027447 -0.004080
# 2 -0.001945 0.004704 -0.002382 0.001377 -0.001645 0.000481
# 3 0.011280 -0.002382 0.048650 0.013864 0.053263 -0.003722
# 4 -0.002300 0.001377 0.013864 0.030884 0.005057 0.004920
# 5 0.027447 -0.001645 0.053263 0.005057 0.092782 -0.010011
# 6 -0.004080 0.000481 -0.003722 0.004920 -0.010011 0.021275
#
#
# Mechanical properties :
#
#
# Convention : Reuss Voigt Hill
#
# Bulk Modulus (GPa) = 11.47954 72.39989 41.93971
# Shear Modulus (GPa) = 21.43366 51.65879 36.54623
#
# Velocity S-wave (km/s) = 2.98728 4.63767 3.90076
# Velocity P-wave (km/s) = 4.08386 7.66947 6.14405
#
# Compressibility (1/GPa) = 0.08711151
#
# Stress axis : x y z
#
# Youngs Moduli (GPa) = 50.37497 212.58034 20.55500
#
# Poissons Ratio (x) = 0.41337 -0.23185
# Poissons Ratio (y) = 0.09796 0.04896
# Poissons Ratio (z) = -0.56820 0.50632
#
# Static dielectric constant tensor:
#      x y z
#    x 2.125520 -0.141510 -0.032040 
#    y -0.141510 2.001630 0.080220 
#    z -0.032040 0.080220 2.149030 
# 
# From -- ./inp_files/25915.got.cif
#   From: 2010.05.17/outbox.cif.g08.bks.cpg/sg2_13_cif.got.tgz:25915.got - 2010.06.03 11:33:40.
