data_PCOD9067934
_publ_section_title
;
Structure prediction by ZEFSAII (Michael W. Deem and Ramdas Pophale) SiO2 
 PCOD9067934
Probable space group: P -1
;
_chemical_formula_sum "Si O2"
_cell_formula_units_Z 15
_cell_length_a 10.536283
_cell_length_b 9.331040
_cell_length_c 8.821953
_cell_angle_alpha 133.476997
_cell_angle_beta 56.571967
_cell_angle_gamma 109.776134
_cell_volume 524.075654
_symmetry_space_group_name_H-M "P -1"
_symmetry_group_IT_number 2
_symmetry_cell_setting 'triclinic'
loop_
_space_group_symop_operation_xyz
x,y,z
-x,-y,-z
loop_
_atom_site_type_symbol
_atom_site_label
_atom_site_fract_x
_atom_site_fract_y
_atom_site_fract_z
Si Si1 0.698275 0.928635 0.335865
Si Si2 0.612542 0.605294 0.612079
Si Si3 0.907487 0.426947 0.858030
Si Si4 0.569215 0.342704 0.717707
Si Si5 0.684504 0.175897 0.959489
Si Si6 0.000000 0.500000 0.500000
Si Si7 0.860445 0.939420 0.941109
Si Si8 0.841719 0.819435 0.436397
O O1 0.559937 0.792473 0.364338
O O2 0.836138 0.823927 0.262068
O O3 0.683843 0.159703 0.557140
O O4 0.722904 0.916278 0.132247
O O5 0.500000 0.500000 0.500000
O O6 0.653442 0.463803 0.623502
O O7 0.758950 0.645531 0.449435
O O8 0.497273 0.785327 0.874201
O O9 0.741394 0.376844 0.991724
O O10 0.929504 0.512635 0.737938
O O11 0.988308 0.202367 0.633520
O O12 0.000000 0.500000 0.000000
O O13 0.500000 0.500000 0.000000
O O14 0.786825 0.100137 0.984534
O O15 0.723196 0.995244 0.691635
O O16 0.921863 0.725375 0.683503
O O17 0.000000 0.000000 0.000000
#
# Coordination Sequence:
#
# PCOD9067934 Si02
#       8
#     2   2   2   2   2   1   2   2
#     4  11  26  47  73 111 154 196 255 324 388 462
#     4  12  25  46  73 109 147 198 250 307 389 463
#     4  12  27  51  77 113 154 206 264 324 389 473
#     4  11  26  46  74 107 149 202 253 313 386 471
#     4  12  27  48  76 108 153 200 252 319 393 459
#     4  12  28  48  80 114 148 208 270 310 394 470
#     4  12  28  49  75 111 154 199 259 326 387 468
#     4  12  25  48  73 107 152 197 252 315 390 467
#
# _framework density 28.621822000000002
#
# number of rings (size 3 to 8) (size 9 to 14) (size 15 to 20)
#    0.000    0.267    2.667    5.600    7.467    2.133 
#    0.000    0.000    0.000    0.000    0.000    0.000 
#    0.000    0.000    0.000    0.000    0.000    0.000 
#
# Total GULP energy -83705.703691 kJ/mol
# GULP energy per Si atom -5580.380246 kJ/mol
# Density = 2.855668 g / cm^3
# Si number density = 28.621822 Si / 1000 Ang^3
#
#
#
# Elastic Constant Matrix: (Units=GPa)
#
#
# Indices 1 2 3 4 5 6 
#
# 1 88.5847 47.8657 6.4103 -3.8788 -0.8804 -28.8594
# 2 47.8657 196.6606 68.0531 -20.4955 5.2399 -37.2113
# 3 6.4103 68.0531 144.3224 -9.4297 0.7857 -1.8543
# 4 -3.8788 -20.4955 -9.4297 57.0743 -6.6378 -0.0511
# 5 -0.8804 5.2399 0.7857 -6.6378 48.2646 -1.8689
# 6 -28.8594 -37.2113 -1.8543 -0.0511 -1.8689 59.8767
#
#
#
# Elastic Compliance Matrix: (Units=1/GPa)
#
#
# Indices 1 2 3 4 5 6 
#
# 1 0.014480 -0.002778 0.000744 0.000206 0.000787 0.005300
# 2 -0.002778 0.007789 -0.003373 0.002004 -0.000435 0.003385
# 3 0.000744 -0.003373 0.008484 0.000265 0.000221 -0.001467
# 4 0.000206 0.002004 0.000265 0.018578 0.002393 0.001443
# 5 0.000787 -0.000435 0.000221 0.002393 0.021136 0.000778
# 6 0.005300 0.003385 -0.001467 0.001443 0.000778 0.021339
#
#
# Mechanical properties :
#
#
# Convention : Reuss Voigt Hill
#
# Bulk Modulus (GPa) = 50.15448 74.91396 62.53422
# Shear Modulus (GPa) = 45.76004 53.52570 49.64287
#
# Velocity S-wave (km/s) = 4.00281 4.32916 4.16918
# Velocity P-wave (km/s) = 6.23896 7.15677 6.71357
#
# Compressibility (1/GPa) = 0.01993840
#
# Stress axis : x y z
#
# Youngs Moduli (GPa) = 69.06300 128.38305 117.87573
#
# Poissons Ratio (x) = 0.35671 -0.08773
# Poissons Ratio (y) = 0.19189 0.39756
# Poissons Ratio (z) = -0.05140 0.43300
#
# Static dielectric constant tensor:
#      x y z
#    x 2.187040 0.230580 0.067410 
#    y 0.230580 2.354650 -0.036330 
#    z 0.067410 -0.036330 2.510180 
# 
# From -- ./inp_files/245770.got.cif
#   From: 2010.05.17/outbox.cif.g08.bks.cpg/sg2_123_cif.got.tgz:245770.got - 2010.06.03 11:33:40.
