data_PCOD9067817
_publ_section_title
;
Structure prediction by ZEFSAII (Michael W. Deem and Ramdas Pophale) SiO2 
 PCOD9067817
Probable space group: P -1
;
_chemical_formula_sum "Si O2"
_cell_formula_units_Z 14
_cell_length_a 5.320933
_cell_length_b 11.142749
_cell_length_c 14.454446
_cell_angle_alpha 50.743715
_cell_angle_beta 111.283399
_cell_angle_gamma 104.522064
_cell_volume 618.073055
_symmetry_space_group_name_H-M "P -1"
_symmetry_group_IT_number 2
_symmetry_cell_setting 'triclinic'
loop_
_space_group_symop_operation_xyz
x,y,z
-x,-y,-z
loop_
_atom_site_type_symbol
_atom_site_label
_atom_site_fract_x
_atom_site_fract_y
_atom_site_fract_z
Si Si1 0.395483 0.807254 0.039777
Si Si2 0.796918 0.952800 0.878698
Si Si3 0.362060 0.153146 0.283205
Si Si4 0.359197 0.710843 0.287972
Si Si5 0.856222 0.100990 0.508243
Si Si6 0.688648 0.503287 0.933273
Si Si7 0.867481 0.591358 0.524013
O O1 0.460396 0.761014 0.176054
O O2 0.388168 0.644999 0.064464
O O3 0.630401 0.909971 0.971007
O O4 0.094414 0.879564 0.955455
O O5 0.612410 0.879534 0.806795
O O6 0.804192 0.138868 0.776015
O O7 0.584635 0.129990 0.401974
O O8 0.319990 0.333511 0.198809
O O9 0.148161 0.017334 0.348463
O O10 0.598911 0.671525 0.409885
O O11 0.193407 0.547591 0.343766
O O12 0.967011 0.267157 0.476509
O O13 0.000000 0.000000 0.500000
O O14 0.500000 0.500000 0.000000
O O15 0.000000 0.500000 0.000000
O O16 0.000000 0.500000 0.500000
#
# Coordination Sequence:
#
# PCOD9067817 Si02
#       7
#     2   2   2   2   2   2   2
#     4  12  27  46  76 112 149 198 250 305 376 450
#     4  12  26  49  77 110 152 198 245 313 376 452
#     4  11  26  45  74 108 148 187 254 304 380 439
#     4  11  28  46  75 109 149 193 257 302 377 448
#     4  11  27  46  78 106 143 198 254 314 370 445
#     4  12  25  45  71 109 149 195 239 307 375 444
#     4  11  27  49  75 106 151 199 246 318 372 443
#
# _framework density 22.651042
#
# number of rings (size 3 to 8) (size 9 to 14) (size 15 to 20)
#    0.000    0.571    2.857    2.571   14.000    2.286 
#    0.000    0.000    0.000    0.000    0.000    0.000 
#    0.000    0.000    0.000    0.000    0.000    0.000 
#
# Total GULP energy -78180.919459 kJ/mol
# GULP energy per Si atom -5584.351390 kJ/mol
# Density = 2.259949 g / cm^3
# Si number density = 22.651042 Si / 1000 Ang^3
#
#
#
# Elastic Constant Matrix: (Units=GPa)
#
#
# Indices 1 2 3 4 5 6 
#
# 1 82.5693 29.2341 49.8013 -17.8129 -2.8545 -11.7184
# 2 29.2341 168.0173 55.9617 -33.4149 -10.4785 7.2378
# 3 49.8013 55.9617 170.4051 -40.4931 -2.8389 -6.7449
# 4 -17.8129 -33.4149 -40.4931 51.2890 -6.0133 -4.0090
# 5 -2.8545 -10.4785 -2.8389 -6.0133 35.0728 -3.1303
# 6 -11.7184 7.2378 -6.7449 -4.0090 -3.1303 33.2413
#
#
#
# Elastic Compliance Matrix: (Units=1/GPa)
#
#
# Indices 1 2 3 4 5 6 
#
# 1 0.016054 -0.001274 -0.003372 0.002723 0.001632 0.005734
# 2 -0.001274 0.007549 -0.001266 0.003642 0.002524 -0.001673
# 3 -0.003372 -0.001266 0.008529 0.004977 0.001026 0.001514
# 4 0.002723 0.003642 0.004977 0.027969 0.006972 0.005207
# 5 0.001632 0.002524 0.001026 0.006972 0.031034 0.003997
# 6 0.005734 -0.001673 0.001514 0.005207 0.003997 0.033780
#
#
# Mechanical properties :
#
#
# Convention : Reuss Voigt Hill
#
# Bulk Modulus (GPa) = 49.24094 76.77621 63.00857
# Shear Modulus (GPa) = 34.84127 42.98693 38.91410
#
# Velocity S-wave (km/s) = 3.92621 4.36109 4.14935
# Velocity P-wave (km/s) = 6.50689 7.70244 7.12977
#
# Compressibility (1/GPa) = 0.02030830
#
# Stress axis : x y z
#
# Youngs Moduli (GPa) = 62.29125 132.47446 117.24434
#
# Poissons Ratio (x) = 0.16875 0.39537
# Poissons Ratio (y) = 0.07935 0.14837
# Poissons Ratio (z) = 0.21006 0.16765
#
# Static dielectric constant tensor:
#      x y z
#    x 2.318530 0.305960 -0.399090 
#    y 0.305960 1.983000 -0.266520 
#    z -0.399090 -0.266520 2.077440 
# 
# From -- ./inp_files/482561.got.cif
#   From: 2010.05.17/outbox.cif.g08.bks.cpg/sg2_242_cif.got.tgz:482561.got - 2010.06.03 11:33:40.
