data_PCOD9067787
_publ_section_title
;
Structure prediction by ZEFSAII (Michael W. Deem and Ramdas Pophale) SiO2 
 PCOD9067787
Probable space group: P -1
;
_chemical_formula_sum "Si O2"
_cell_formula_units_Z 16
_cell_length_a 6.331796
_cell_length_b 11.218906
_cell_length_c 13.249234
_cell_angle_alpha 89.267699
_cell_angle_beta 72.413768
_cell_angle_gamma 51.563772
_cell_volume 683.180940
_symmetry_space_group_name_H-M "P -1"
_symmetry_group_IT_number 2
_symmetry_cell_setting 'triclinic'
loop_
_space_group_symop_operation_xyz
x,y,z
-x,-y,-z
loop_
_atom_site_type_symbol
_atom_site_label
_atom_site_fract_x
_atom_site_fract_y
_atom_site_fract_z
Si Si1 0.119504 0.935117 0.769667
Si Si2 0.662587 0.565779 0.458208
Si Si3 0.850441 0.856479 0.967667
Si Si4 0.214369 0.501972 0.900310
Si Si5 0.114251 0.058847 0.402701
Si Si6 0.749617 0.725116 0.621799
Si Si7 0.874385 0.268163 0.845271
Si Si8 0.658113 0.729818 0.286860
O O1 0.462776 0.839374 0.727625
O O2 0.001467 0.912095 0.886281
O O3 0.080204 0.875609 0.671516
O O4 0.938218 0.120055 0.784174
O O5 0.500000 0.500000 0.500000
O O6 0.704057 0.635710 0.547999
O O7 0.526063 0.702511 0.398329
O O8 0.965011 0.422142 0.363441
O O9 0.014102 0.684237 0.897187
O O10 0.954091 0.804212 0.070567
O O11 0.500000 0.000000 0.000000
O O12 0.532807 0.416594 0.903846
O O13 0.308311 0.379146 0.801735
O O14 0.000000 0.500000 0.000000
O O15 0.160305 0.176754 0.437759
O O16 0.426154 0.915740 0.310824
O O17 0.000000 0.000000 0.500000
O O18 0.030287 0.314147 0.754413
#
# Coordination Sequence:
#
# PCOD9067787 Si02
#       8
#     2   2   2   2   2   2   2   2
#     4  12  26  45  75 106 148 194 251 313 379 449
#     4  11  27  47  70 107 151 193 250 312 382 455
#     4  12  28  49  77 109 153 198 255 316 382 461
#     4  12  27  48  76 109 153 199 252 315 384 453
#     4  12  26  48  74 108 148 196 255 316 372 456
#     4  11  26  45  72 107 145 196 248 310 387 447
#     4  12  26  50  74 111 150 200 257 309 386 455
#     4  12  26  45  75 104 149 195 249 311 377 457
#
# _framework density 23.419857
#
# number of rings (size 3 to 8) (size 9 to 14) (size 15 to 20)
#    0.000    0.250    3.750    4.500    7.000    2.000 
#    0.000    0.000    0.000    0.000    0.000    0.000 
#    0.000    0.000    0.000    0.000    0.000    0.000 
#
# Total GULP energy -89262.317278 kJ/mol
# GULP energy per Si atom -5578.894830 kJ/mol
# Density = 2.336655 g / cm^3
# Si number density = 23.419857 Si / 1000 Ang^3
#
#
#
# Elastic Constant Matrix: (Units=GPa)
#
#
# Indices 1 2 3 4 5 6 
#
# 1 117.0136 61.4672 41.3107 9.5477 -24.5999 20.1377
# 2 61.4672 144.5392 34.3245 38.6648 -26.0167 -4.7816
# 3 41.3107 34.3245 78.9104 6.8862 -26.7059 -6.7382
# 4 9.5477 38.6648 6.8862 50.0168 -0.5222 -17.5166
# 5 -24.5999 -26.0167 -26.7059 -0.5222 47.6962 11.3210
# 6 20.1377 -4.7816 -6.7382 -17.5166 11.3210 52.4172
#
#
#
# Elastic Compliance Matrix: (Units=1/GPa)
#
#
# Indices 1 2 3 4 5 6 
#
# 1 0.015123 -0.004154 -0.005085 -0.001900 0.004681 -0.008488
# 2 -0.004154 0.011919 -0.001008 -0.008661 0.003985 -0.001201
# 3 -0.005085 -0.001008 0.018118 0.000356 0.006275 0.002955
# 4 -0.001900 -0.008661 0.000356 0.031170 -0.008045 0.012139
# 5 0.004681 0.003985 0.006275 -0.008045 0.031375 -0.010093
# 6 -0.008488 -0.001201 0.002955 0.012139 -0.010093 0.028845
#
#
# Mechanical properties :
#
#
# Convention : Reuss Voigt Hill
#
# Bulk Modulus (GPa) = 40.54199 68.29645 54.41922
# Shear Modulus (GPa) = 30.25425 43.58345 36.91885
#
# Velocity S-wave (km/s) = 3.59809 4.31857 3.97469
# Velocity P-wave (km/s) = 5.88304 7.35471 6.65965
#
# Compressibility (1/GPa) = 0.02466578
#
# Stress axis : x y z
#
# Youngs Moduli (GPa) = 66.12333 83.90109 55.19350
#
# Poissons Ratio (x) = 0.34851 0.28068
# Poissons Ratio (y) = 0.27467 0.05564
# Poissons Ratio (z) = 0.33626 0.08457
#
# Static dielectric constant tensor:
#      x y z
#    x 1.991560 -0.013880 0.036460 
#    y -0.013880 1.929680 0.010430 
#    z 0.036460 0.010430 1.877630 
# 
# From -- ./inp_files/482837.got.cif
#   From: 2010.05.17/outbox.cif.g08.bks.cpg/sg2_242_cif.got.tgz:482837.got - 2010.06.03 11:33:40.
