data_PCOD9067771
_publ_section_title
;
Structure prediction by ZEFSAII (Michael W. Deem and Ramdas Pophale) SiO2 
 PCOD9067771
Probable space group: P -1
;
_chemical_formula_sum "Si O2"
_cell_formula_units_Z 15
_cell_length_a 7.506627
_cell_length_b 11.694033
_cell_length_c 11.614845
_cell_angle_alpha 47.821478
_cell_angle_beta 94.699567
_cell_angle_gamma 125.454512
_cell_volume 529.600923
_symmetry_space_group_name_H-M "P -1"
_symmetry_group_IT_number 2
_symmetry_cell_setting 'triclinic'
loop_
_space_group_symop_operation_xyz
x,y,z
-x,-y,-z
loop_
_atom_site_type_symbol
_atom_site_label
_atom_site_fract_x
_atom_site_fract_y
_atom_site_fract_z
Si Si1 0.866757 0.615584 0.850495
Si Si2 0.555987 0.854950 0.739238
Si Si3 0.623082 0.818365 0.153751
Si Si4 0.187455 0.589666 0.714269
Si Si5 0.000000 0.500000 0.500000
Si Si6 0.068211 0.900946 0.232185
Si Si7 0.345485 0.032214 0.718535
Si Si8 0.443207 0.400607 0.333184
O O1 0.757455 0.686875 0.718826
O O2 0.006576 0.570241 0.808678
O O3 0.629202 0.385772 0.052032
O O4 0.062862 0.799342 0.831479
O O5 0.467248 0.808398 0.634700
O O6 0.836158 0.998177 0.703222
O O7 0.498469 0.985167 0.702888
O O8 0.529011 0.874925 0.209868
O O9 0.452275 0.566527 0.289792
O O10 0.869163 0.902095 0.174660
O O11 0.700393 0.939641 0.955235
O O12 0.270271 0.458787 0.795945
O O13 0.076652 0.558606 0.604879
O O14 0.035935 0.334273 0.619593
O O15 0.387561 0.224744 0.533489
#
# Coordination Sequence:
#
# PCOD9067771 Si02
#       8
#     2   2   2   2   1   2   2   2
#     4  11  27  48  77 113 146 200 248 308 370 445
#     4  11  26  49  75 107 148 200 250 300 382 438
#     4  11  26  47  70 108 156 188 256 303 367 450
#     4  11  27  48  77 108 155 185 254 308 364 453
#     4  12  26  44  76 108 144 194 244 312 370 430
#     4  11  26  45  71 109 142 203 242 307 376 433
#     4  11  26  45  74 108 151 197 247 309 367 445
#     4  12  25  49  73 113 148 199 246 305 379 433
#
# _framework density 28.323214
#
# number of rings (size 3 to 8) (size 9 to 14) (size 15 to 20)
#    0.000    0.800    2.667    3.200    7.467    8.000 
#    0.000    0.000    0.000    0.000    0.000    0.000 
#    0.000    0.000    0.000    0.000    0.000    0.000 
#
# Total GULP energy -83777.288925 kJ/mol
# GULP energy per Si atom -5585.152595 kJ/mol
# Density = 2.825875 g / cm^3
# Si number density = 28.323214 Si / 1000 Ang^3
#
#
#
# Elastic Constant Matrix: (Units=GPa)
#
#
# Indices 1 2 3 4 5 6 
#
# 1 109.3462 16.1174 26.9103 5.2553 25.0120 -1.2792
# 2 16.1174 215.3730 30.8306 19.1809 1.5385 -9.1129
# 3 26.9103 30.8306 106.2619 4.1208 12.0999 -12.9278
# 4 5.2553 19.1809 4.1208 54.4373 -2.4196 3.7460
# 5 25.0120 1.5385 12.0999 -2.4196 35.2414 11.9067
# 6 -1.2792 -9.1129 -12.9278 3.7460 11.9067 55.0359
#
#
#
# Elastic Compliance Matrix: (Units=1/GPa)
#
#
# Indices 1 2 3 4 5 6 
#
# 1 0.011589 -0.000384 -0.001613 -0.001350 -0.008328 0.001720
# 2 -0.000384 0.005023 -0.001239 -0.001674 0.000157 0.000612
# 3 -0.001613 -0.001239 0.011012 -0.000625 -0.003702 0.003188
# 4 -0.001350 -0.001674 -0.000625 0.019464 0.003435 -0.002523
# 5 -0.008328 0.000157 -0.003702 0.003435 0.039072 -0.009724
# 6 0.001720 0.000612 0.003188 -0.002523 -0.009724 0.021335
#
#
# Mechanical properties :
#
#
# Convention : Reuss Voigt Hill
#
# Bulk Modulus (GPa) = 47.27600 64.29974 55.78787
# Shear Modulus (GPa) = 41.31623 52.75110 47.03366
#
# Velocity S-wave (km/s) = 3.82349 4.32031 4.07947
# Velocity P-wave (km/s) = 6.01830 6.90205 6.47527
#
# Compressibility (1/GPa) = 0.02115238
#
# Stress axis : x y z
#
# Youngs Moduli (GPa) = 86.28900 199.08377 90.80800
#
# Poissons Ratio (x) = 0.07640 0.14652
# Poissons Ratio (y) = 0.03312 0.11248
# Poissons Ratio (z) = 0.13923 0.24660
#
# Static dielectric constant tensor:
#      x y z
#    x 2.394580 -0.009480 -0.266840 
#    y -0.009480 2.171370 0.004410 
#    z -0.266840 0.004410 2.419470 
# 
# From -- ./inp_files/389132.got.cif
#   From: 2010.05.17/outbox.cif.g08.bks.cpg/sg2_195_cif.got.tgz:389132.got - 2010.06.03 11:33:40.
