data_PCOD9067679
_publ_section_title
;
Structure prediction by ZEFSAII (Michael W. Deem and Ramdas Pophale) SiO2 
 PCOD9067679
Probable space group: P -1
;
_chemical_formula_sum "Si O2"
_cell_formula_units_Z 11
_cell_length_a 13.700870
_cell_length_b 9.046061
_cell_length_c 5.302172
_cell_angle_alpha 53.024760
_cell_angle_beta 56.006298
_cell_angle_gamma 60.323500
_cell_volume 422.571450
_symmetry_space_group_name_H-M "P -1"
_symmetry_group_IT_number 2
_symmetry_cell_setting 'triclinic'
loop_
_space_group_symop_operation_xyz
x,y,z
-x,-y,-z
loop_
_atom_site_type_symbol
_atom_site_label
_atom_site_fract_x
_atom_site_fract_y
_atom_site_fract_z
Si Si1 0.752430 0.871240 0.019337
Si Si2 0.412302 0.438620 0.989480
Si Si3 0.021102 0.187542 0.910653
Si Si4 0.416090 0.808385 0.334813
Si Si5 0.827132 0.558377 0.848902
Si Si6 0.500000 0.000000 0.500000
O O1 0.759209 0.672365 0.069691
O O2 0.704317 0.037875 0.713120
O O3 0.651793 0.937711 0.311129
O O4 0.883473 0.868539 0.943330
O O5 0.394215 0.602133 0.633131
O O6 0.492002 0.228633 0.005510
O O7 0.500000 0.500000 0.000000
O O8 0.273166 0.438956 0.226925
O O9 0.901323 0.343662 0.010770
O O10 0.083599 0.311916 0.502476
O O11 0.000000 0.000000 0.000000
O O12 0.488499 0.865993 0.400705
#
# Coordination Sequence:
#
# PCOD9067679 Si02
#       6
#     2   2   2   2   2   1
#     4  12  26  47  78 110 153 202 258 320 388 454
#     4  11  26  46  74 114 158 198 250 317 390 466
#     4  11  29  52  79 106 150 208 265 323 379 456
#     4  11  26  43  73 115 153 200 250 315 392 461
#     4  11  27  52  74 113 154 204 257 318 387 455
#     4  12  24  44  72 112 150 194 250 314 384 460
#
# _framework density 26.031101
#
# number of rings (size 3 to 8) (size 9 to 14) (size 15 to 20)
#    0.000    0.727    1.818    3.273   15.273    0.727 
#    3.273    0.000    0.000    0.000    0.000    0.000 
#    0.000    0.000    0.000    0.000    0.000    0.000 
#
# Total GULP energy -61457.217127 kJ/mol
# GULP energy per Si atom -5587.019739 kJ/mol
# Density = 2.597185 g / cm^3
# Si number density = 26.031101 Si / 1000 Ang^3
#
#
#
# Elastic Constant Matrix: (Units=GPa)
#
#
# Indices 1 2 3 4 5 6 
#
# 1 213.4090 106.3757 15.6341 -1.9893 6.0231 -13.7855
# 2 106.3757 237.1727 37.2678 -7.6928 -7.7321 -16.5312
# 3 15.6341 37.2678 55.9377 -2.7884 -3.5100 3.6011
# 4 -1.9893 -7.6928 -2.7884 60.9692 5.4455 5.7923
# 5 6.0231 -7.7321 -3.5100 5.4455 39.5898 -2.3733
# 6 -13.7855 -16.5312 3.6011 5.7923 -2.3733 62.9719
#
#
#
# Elastic Compliance Matrix: (Units=1/GPa)
#
#
# Indices 1 2 3 4 5 6 
#
# 1 0.006140 -0.002762 -0.000006 -0.000075 -0.001429 0.000572
# 2 -0.002762 0.006108 -0.003276 0.000295 0.001355 0.001210
# 3 -0.000006 -0.003276 0.020283 0.000623 0.000951 -0.002043
# 4 -0.000075 0.000295 0.000623 0.016822 -0.002286 -0.001608
# 5 -0.001429 0.001355 0.000951 -0.002286 0.026211 0.001186
# 6 0.000572 0.001210 -0.002043 -0.001608 0.001186 0.016633
#
#
# Mechanical properties :
#
#
# Convention : Reuss Voigt Hill
#
# Bulk Modulus (GPa) = 48.91523 91.67496 70.29509
# Shear Modulus (GPa) = 45.00535 55.85563 50.43049
#
# Velocity S-wave (km/s) = 4.16252 4.63722 4.40627
# Velocity P-wave (km/s) = 6.47565 7.99786 7.27667
#
# Compressibility (1/GPa) = 0.02044353
#
# Stress axis : x y z
#
# Youngs Moduli (GPa) = 162.87734 163.72377 49.30155
#
# Poissons Ratio (x) = 0.45218 0.00031
# Poissons Ratio (y) = 0.44985 0.16149
# Poissons Ratio (z) = 0.00101 0.53629
#
# Static dielectric constant tensor:
#      x y z
#    x 1.895180 0.071530 -0.247930 
#    y 0.071530 1.890690 0.285960 
#    z -0.247930 0.285960 1.626110 
# 
# From -- ./inp_files/58836.got.cif
#   From: 2010.05.17/outbox.cif.g08.bks.cpg/sg2_30_cif.got.tgz:58836.got - 2010.06.03 11:33:40.
