data_PCOD9067690
_publ_section_title
;
Structure prediction by ZEFSAII (Michael W. Deem and Ramdas Pophale) SiO2 
 PCOD9067690
Probable space group: P -1
;
_chemical_formula_sum "Si O2"
_cell_formula_units_Z 14
_cell_length_a 15.340638
_cell_length_b 15.401811
_cell_length_c 10.090821
_cell_angle_alpha 132.121982
_cell_angle_beta 48.469179
_cell_angle_gamma 162.432649
_cell_volume 530.778784
_symmetry_space_group_name_H-M "P -1"
_symmetry_group_IT_number 2
_symmetry_cell_setting 'triclinic'
loop_
_space_group_symop_operation_xyz
x,y,z
-x,-y,-z
loop_
_atom_site_type_symbol
_atom_site_label
_atom_site_fract_x
_atom_site_fract_y
_atom_site_fract_z
Si Si1 0.498431 0.802574 0.723304
Si Si2 0.859947 0.054831 0.200622
Si Si3 0.273015 0.629456 0.330161
Si Si4 0.149606 0.213926 0.820673
Si Si5 0.758719 0.659504 0.639436
Si Si6 0.978851 0.675893 0.092565
Si Si7 0.412257 0.923572 0.732779
O O1 0.362202 0.562726 0.546192
O O2 0.549284 0.953038 0.722132
O O3 0.258934 0.614879 0.883224
O O4 0.797673 0.057612 0.757865
O O5 0.969860 0.284559 0.281950
O O6 0.014985 0.173610 0.304949
O O7 0.979859 0.080976 0.993022
O O8 0.514545 0.750307 0.237518
O O9 0.282986 0.725836 0.542048
O O10 0.367319 0.784346 0.261917
O O11 0.465227 0.451943 0.772852
O O12 0.171557 0.358165 0.872450
O O13 0.947697 0.935198 0.660616
O O14 0.179379 0.779913 0.905821
#
# Coordination Sequence:
#
# PCOD9067690 Si02
#       7
#     2   2   2   2   2   2   2
#     4  12  28  48  74 105 149 197 243 293 354 428
#     4  12  24  48  73 112 147 184 240 302 374 426
#     4  11  26  43  81 106 151 185 230 309 370 433
#     4  12  26  47  76 106 145 189 244 301 360 428
#     4  12  26  47  76 106 145 189 244 301 360 428
#     4  12  28  48  74 105 149 197 243 293 354 428
#     4  11  26  50  74 112 144 189 242 300 366 430
#
# _framework density 26.376339000000002
#
# number of rings (size 3 to 8) (size 9 to 14) (size 15 to 20)
#    0.000    0.286    2.857    5.143    4.000    8.000 
#    0.000    0.000    0.000    0.000    0.000    0.000 
#    0.000    0.000    0.000    0.000    0.000    0.000 
#
# Total GULP energy -78630.579962 kJ/mol
# GULP energy per Si atom -5616.469997 kJ/mol
# Density = 2.631631 g / cm^3
# Si number density = 26.376339 Si / 1000 Ang^3
#
#
#
# Elastic Constant Matrix: (Units=GPa)
#
#
# Indices 1 2 3 4 5 6 
#
# 1 116.9727 9.8381 38.2181 -9.2207 0.7583 0.1877
# 2 9.8381 95.2606 8.5910 1.7413 1.6649 5.3169
# 3 38.2181 8.5910 115.1505 -8.0162 -7.0620 6.8723
# 4 -9.2207 1.7413 -8.0162 47.3153 3.0042 -4.0078
# 5 0.7583 1.6649 -7.0620 3.0042 33.7120 1.7698
# 6 0.1877 5.3169 6.8723 -4.0078 1.7698 48.2041
#
#
#
# Elastic Compliance Matrix: (Units=1/GPa)
#
#
# Indices 1 2 3 4 5 6 
#
# 1 0.009779 -0.000770 -0.003185 0.001515 -0.001019 0.000664
# 2 -0.000770 0.010712 -0.000556 -0.000703 -0.000506 -0.001139
# 3 -0.003185 -0.000556 0.010059 0.000848 0.002203 -0.001371
# 4 0.001515 -0.000703 0.000848 0.021874 -0.001867 0.001838
# 5 -0.001019 -0.000506 0.002203 -0.001867 0.030419 -0.001526
# 6 0.000664 -0.001139 -0.001371 0.001838 -0.001526 0.021272
#
#
# Mechanical properties :
#
#
# Convention : Reuss Voigt Hill
#
# Bulk Modulus (GPa) = 46.44736 48.96428 47.70582
# Shear Modulus (GPa) = 41.55826 43.89538 42.72682
#
# Velocity S-wave (km/s) = 3.97367 4.08388 4.02915
# Velocity P-wave (km/s) = 6.22103 6.39073 6.30645
#
# Compressibility (1/GPa) = 0.02152975
#
# Stress axis : x y z
#
# Youngs Moduli (GPa) = 102.25629 93.34983 99.41602
#
# Poissons Ratio (x) = 0.07185 0.31664
# Poissons Ratio (y) = 0.07871 0.05525
# Poissons Ratio (z) = 0.32568 0.05187
#
# Static dielectric constant tensor:
#      x y z
#    x 2.064420 -0.019270 0.016570 
#    y -0.019270 1.987660 0.005440 
#    z 0.016570 0.005440 2.088100 
# 
# From -- ./inp_files/454945.got.cif
#   From: 2010.05.17/outbox.cif.g08.bks.cpg/sg2_228_cif.got.tgz:454945.got - 2010.06.03 11:33:40.
