data_PCOD9067929
_publ_section_title
;
Structure prediction by ZEFSAII (Michael W. Deem and Ramdas Pophale) SiO2 
 PCOD9067929
Probable space group: P -1
;
_chemical_formula_sum "Si O2"
_cell_formula_units_Z 16
_cell_length_a 8.775499
_cell_length_b 15.349458
_cell_length_c 9.501365
_cell_angle_alpha 37.475030
_cell_angle_beta 76.004668
_cell_angle_gamma 62.869920
_cell_volume 675.743438
_symmetry_space_group_name_H-M "P -1"
_symmetry_group_IT_number 2
_symmetry_cell_setting 'triclinic'
loop_
_space_group_symop_operation_xyz
x,y,z
-x,-y,-z
loop_
_atom_site_type_symbol
_atom_site_label
_atom_site_fract_x
_atom_site_fract_y
_atom_site_fract_z
Si Si1 0.681297 0.847254 0.691525
Si Si2 0.703352 0.800455 0.344390
Si Si3 0.415914 0.166647 0.977010
Si Si4 0.064960 0.013767 0.625533
Si Si5 0.909009 0.249928 0.587298
Si Si6 0.679210 0.291108 0.864064
Si Si7 0.182325 0.504098 0.947179
Si Si8 0.624233 0.521638 0.824607
O O1 0.705230 0.838552 0.863970
O O2 0.836207 0.874150 0.554603
O O3 0.500000 0.000000 0.500000
O O4 0.680056 0.682239 0.859350
O O5 0.622115 0.692536 0.574750
O O6 0.899306 0.763660 0.395862
O O7 0.573077 0.987090 0.156972
O O8 0.694075 0.772888 0.216406
O O9 0.513931 0.269876 0.871142
O O10 0.930521 0.099595 0.675405
O O11 0.000000 0.000000 0.500000
O O12 0.207932 0.847922 0.870919
O O13 0.800607 0.271647 0.726259
O O14 0.811424 0.397740 0.314030
O O15 0.618385 0.449307 0.768482
O O16 0.196875 0.574385 0.004587
O O17 0.000000 0.500000 0.000000
O O18 0.500000 0.500000 0.000000
#
# Coordination Sequence:
#
# PCOD9067929 Si02
#       8
#     2   2   2   2   2   2   2   2
#     4  12  24  47  77 101 145 199 256 302 363 454
#     4  11  26  48  74 103 149 196 245 305 370 444
#     4  11  26  46  74 105 141 200 248 300 373 442
#     4  12  26  44  75 111 148 194 251 308 372 438
#     4  12  26  49  73 107 153 192 248 307 370 451
#     4  12  28  45  74 109 151 195 246 311 374 437
#     4  12  25  48  75 104 148 196 246 308 373 440
#     4  12  28  48  72 109 150 192 251 309 370 442
#
# _framework density 23.677626
#
# number of rings (size 3 to 8) (size 9 to 14) (size 15 to 20)
#    0.000    0.250    5.000    2.625    7.000    2.000 
#    0.000    0.000    0.000    0.000    0.000    0.000 
#    0.000    0.000    0.000    0.000    0.000    0.000 
#
# Total GULP energy -89477.337526 kJ/mol
# GULP energy per Si atom -5592.333595 kJ/mol
# Density = 2.362373 g / cm^3
# Si number density = 23.677626 Si / 1000 Ang^3
#
#
#
# Elastic Constant Matrix: (Units=GPa)
#
#
# Indices 1 2 3 4 5 6 
#
# 1 70.6801 41.7053 13.7206 9.9603 2.7302 22.6950
# 2 41.7053 117.0402 22.7727 30.6357 12.5124 24.3916
# 3 13.7206 22.7727 91.1552 18.9293 16.1970 15.4412
# 4 9.9603 30.6357 18.9293 57.6395 -0.1343 4.8298
# 5 2.7302 12.5124 16.1970 -0.1343 37.7665 13.2149
# 6 22.6950 24.3916 15.4412 4.8298 13.2149 39.7676
#
#
#
# Elastic Compliance Matrix: (Units=1/GPa)
#
#
# Indices 1 2 3 4 5 6 
#
# 1 0.020448 -0.005790 -0.000926 0.000627 0.004052 -0.009181
# 2 -0.005790 0.013043 -0.000218 -0.005615 -0.002777 -0.003006
# 3 -0.000926 -0.000218 0.013214 -0.003870 -0.004688 -0.002441
# 4 0.000627 -0.005615 -0.003870 0.021427 0.003232 0.000912
# 5 0.004052 -0.002777 -0.004688 0.003232 0.032636 -0.010026
# 6 -0.009181 -0.003006 -0.002441 0.000912 -0.010026 0.036398
#
#
# Mechanical properties :
#
#
# Convention : Reuss Voigt Hill
#
# Bulk Modulus (GPa) = 30.45464 48.36362 39.40913
# Shear Modulus (GPa) = 30.86808 40.41318 35.64063
#
# Velocity S-wave (km/s) = 3.61457 4.13584 3.88396
# Velocity P-wave (km/s) = 5.50548 6.57853 6.06578
#
# Compressibility (1/GPa) = 0.03283572
#
# Stress axis : x y z
#
# Youngs Moduli (GPa) = 48.90569 76.67136 75.67573
#
# Poissons Ratio (x) = 0.44391 0.07010
# Poissons Ratio (y) = 0.28316 0.01652
# Poissons Ratio (z) = 0.04530 0.01674
#
# Static dielectric constant tensor:
#      x y z
#    x 1.769260 -0.049630 0.034200 
#    y -0.049630 2.008680 -0.017290 
#    z 0.034200 -0.017290 1.918110 
# 
# From -- ./inp_files/205161.got.cif
#   From: 2010.05.17/outbox.cif.g08.bks.cpg/sg2_103_cif.got.tgz:205161.got - 2010.06.03 11:33:40.
