data_PCOD9067947
_publ_section_title
;
Structure prediction by ZEFSAII (Michael W. Deem and Ramdas Pophale) SiO2 
 PCOD9067947
Probable space group: P -1
;
_chemical_formula_sum "Si O2"
_cell_formula_units_Z 16
_cell_length_a 18.134797
_cell_length_b 9.525637
_cell_length_c 11.705843
_cell_angle_alpha 130.076948
_cell_angle_beta 132.712582
_cell_angle_gamma 89.155062
_cell_volume 751.308910
_symmetry_space_group_name_H-M "P -1"
_symmetry_group_IT_number 2
_symmetry_cell_setting 'triclinic'
loop_
_space_group_symop_operation_xyz
x,y,z
-x,-y,-z
loop_
_atom_site_type_symbol
_atom_site_label
_atom_site_fract_x
_atom_site_fract_y
_atom_site_fract_z
Si Si1 0.633675 0.327592 0.790317
Si Si2 0.602319 0.652449 0.071196
Si Si3 0.901765 0.133818 0.739098
Si Si4 0.128679 0.673817 0.629039
Si Si5 0.060265 0.463743 0.854360
Si Si6 0.521289 0.741623 0.635245
Si Si7 0.437933 0.709619 0.769711
Si Si8 0.134135 0.257814 0.353016
O O1 0.565959 0.324627 0.604337
O O2 0.500000 0.000000 0.500000
O O3 0.639573 0.498917 0.981293
O O4 0.790352 0.429823 0.986286
O O5 0.744910 0.967646 0.426706
O O6 0.500000 0.500000 0.000000
O O7 0.540282 0.688064 0.919157
O O8 0.019682 0.305842 0.848501
O O9 0.872800 0.889716 0.625622
O O10 0.924737 0.306419 0.959067
O O11 0.128176 0.460207 0.484627
O O12 0.000000 0.500000 0.500000
O O13 0.067417 0.701595 0.467222
O O14 0.299012 0.959960 0.002381
O O15 0.500000 0.500000 0.500000
O O16 0.425152 0.687392 0.610051
O O17 0.284637 0.455374 0.540456
O O18 0.500000 0.000000 0.000000
O O19 0.000000 0.000000 0.000000
#
# Coordination Sequence:
#
# PCOD9067947 Si02
#       8
#     2   2   2   2   2   2   2   2
#     4  12  29  46  73 110 151 192 247 302 379 439
#     4  12  26  47  74 105 144 193 246 305 369 448
#     4  11  26  46  75 104 148 191 249 300 381 438
#     4  12  28  48  75 107 153 193 250 308 377 442
#     4  11  27  48  74 109 149 197 244 308 370 456
#     4  12  28  50  73 107 148 199 247 308 368 444
#     4  12  27  47  77 106 148 193 256 306 372 442
#     4  12  27  46  73 109 145 196 248 305 370 445
#
# _framework density 21.296164999999998
#
# number of rings (size 3 to 8) (size 9 to 14) (size 15 to 20)
#    0.000    0.250    5.000    2.250   10.500    0.500 
#    0.000    0.000    0.000    0.000    0.000    0.000 
#    0.000    0.000    0.000    0.000    0.000    0.000 
#
# Total GULP energy -89224.746109 kJ/mol
# GULP energy per Si atom -5576.546632 kJ/mol
# Density = 2.124769 g / cm^3
# Si number density = 21.296165 Si / 1000 Ang^3
#
#
#
# Elastic Constant Matrix: (Units=GPa)
#
#
# Indices 1 2 3 4 5 6 
#
# 1 91.1406 24.5944 6.5031 -6.5550 -7.1914 3.4979
# 2 24.5944 101.5982 20.4522 6.9907 2.0120 9.6498
# 3 6.5031 20.4522 67.2786 -7.1073 -6.5989 -7.4421
# 4 -6.5550 6.9907 -7.1073 37.6555 2.5285 -7.6979
# 5 -7.1914 2.0120 -6.5989 2.5285 40.2839 -0.5735
# 6 3.4979 9.6498 -7.4421 -7.6979 -0.5735 29.9410
#
#
#
# Elastic Compliance Matrix: (Units=1/GPa)
#
#
# Indices 1 2 3 4 5 6 
#
# 1 0.012194 -0.003313 0.000395 0.002763 0.002241 0.000494
# 2 -0.003313 0.012600 -0.004900 -0.004989 -0.001799 -0.006209
# 3 0.000395 -0.004900 0.018051 0.005726 0.003020 0.007550
# 4 0.002763 -0.004989 0.005726 0.031249 -0.000128 0.010740
# 5 0.002241 -0.001799 0.003020 -0.000128 0.025838 0.001531
# 6 0.000494 -0.006209 0.007550 0.010740 0.001531 0.040010
#
#
# Mechanical properties :
#
#
# Convention : Reuss Voigt Hill
#
# Bulk Modulus (GPa) = 36.75304 40.34632 38.54968
# Shear Modulus (GPa) = 30.36772 35.47394 32.92083
#
# Velocity S-wave (km/s) = 3.78030 4.08578 3.93600
# Velocity P-wave (km/s) = 6.02908 6.42220 6.22874
#
# Compressibility (1/GPa) = 0.02720864
#
# Stress axis : x y z
#
# Youngs Moduli (GPa) = 82.00478 79.36668 55.39746
#
# Poissons Ratio (x) = 0.26293 -0.02187
# Poissons Ratio (y) = 0.27167 0.27146
# Poissons Ratio (z) = -0.03237 0.38892
#
# Static dielectric constant tensor:
#      x y z
#    x 1.670410 0.028440 0.025320 
#    y 0.028440 1.815500 -0.051850 
#    z 0.025320 -0.051850 1.791730 
# 
# From -- ./inp_files/462481.got.cif
#   From: 2010.05.17/outbox.cif.g08.bks.cpg/sg2_232_cif.got.tgz:462481.got - 2010.06.03 11:33:40.
