data_PCOD9067284
_publ_section_title
;
Structure prediction by ZEFSAII (Michael W. Deem and Ramdas Pophale) SiO2 
 PCOD9067284
Probable space group: P -1
;
_chemical_formula_sum "Si O2"
_cell_formula_units_Z 10
_cell_length_a 9.074691
_cell_length_b 10.017679
_cell_length_c 7.781772
_cell_angle_alpha 118.865229
_cell_angle_beta 87.173101
_cell_angle_gamma 51.134463
_cell_volume 413.032705
_symmetry_space_group_name_H-M "P -1"
_symmetry_group_IT_number 2
_symmetry_cell_setting 'triclinic'
loop_
_space_group_symop_operation_xyz
x,y,z
-x,-y,-z
loop_
_atom_site_type_symbol
_atom_site_label
_atom_site_fract_x
_atom_site_fract_y
_atom_site_fract_z
Si Si1 0.384770 0.189158 0.985262
Si Si2 0.116396 0.520565 0.841256
Si Si3 0.214182 0.622109 0.255232
Si Si4 0.504763 0.621903 0.424280
Si Si5 0.271149 0.048806 0.497991
O O1 0.325763 0.395199 0.204741
O O2 0.144096 0.299519 0.037967
O O3 0.500000 0.000000 0.000000
O O4 0.553804 0.088771 0.754471
O O5 0.241266 0.523185 0.694677
O O6 0.210443 0.274781 0.668859
O O7 0.177821 0.571211 0.039367
O O8 0.386751 0.623844 0.271934
O O9 0.964711 0.847240 0.470450
O O10 0.500000 0.500000 0.500000
O O11 0.372136 0.884648 0.558990
#
# Coordination Sequence:
#
# PCOD9067284 Si02
#       5
#     2   2   2   2   2
#     4  11  26  44  78 110 140 188 247 294 349 425
#     4  11  26  47  77 103 145 190 241 289 356 427
#     4  11  26  46  73 108 144 187 237 290 363 420
#     4  12  28  46  73 107 149 187 236 297 359 419
#     4  11  25  48  77 100 147 192 236 293 357 423
#
# _framework density 24.21116
#
# number of rings (size 3 to 8) (size 9 to 14) (size 15 to 20)
#    0.000    0.800    2.000    4.200    8.400    1.600 
#    0.000    2.000    0.000    0.000    0.000    0.000 
#    0.000    0.000    0.000    0.000    0.000    0.000 
#
# Total GULP energy -55734.769540 kJ/mol
# GULP energy per Si atom -5573.476954 kJ/mol
# Density = 2.415605 g / cm^3
# Si number density = 24.211160 Si / 1000 Ang^3
#
#
#
# Elastic Constant Matrix: (Units=GPa)
#
#
# Indices 1 2 3 4 5 6 
#
# 1 175.6175 33.1877 77.0857 7.3785 -19.2527 20.1109
# 2 33.1877 159.6686 64.5114 14.1734 -28.1566 26.6620
# 3 77.0857 64.5114 122.8990 7.9903 -31.7614 -2.0328
# 4 7.3785 14.1734 7.9903 31.9932 -1.6420 -11.9818
# 5 -19.2527 -28.1566 -31.7614 -1.6420 52.4023 -7.8595
# 6 20.1109 26.6620 -2.0328 -11.9818 -7.8595 38.5721
#
#
#
# Elastic Compliance Matrix: (Units=1/GPa)
#
#
# Indices 1 2 3 4 5 6 
#
# 1 0.009687 0.002915 -0.007711 -0.005136 -0.001103 -0.009292
# 2 0.002915 0.011611 -0.007391 -0.008603 0.000690 -0.012467
# 3 -0.007711 -0.007391 0.018377 0.005742 0.006494 0.013205
# 4 -0.005136 -0.008603 0.005742 0.043439 0.001748 0.022777
# 5 -0.001103 0.000690 0.006494 0.001748 0.023918 0.005857
# 6 -0.009292 -0.012467 0.013205 0.022777 0.005857 0.048352
#
#
# Mechanical properties :
#
#
# Convention : Reuss Voigt Hill
#
# Bulk Modulus (GPa) = 65.36171 89.75054 77.55612
# Shear Modulus (GPa) = 27.04789 43.48685 35.26737
#
# Velocity S-wave (km/s) = 3.34603 4.24270 3.82076
# Velocity P-wave (km/s) = 6.47943 7.81991 7.18102
#
# Compressibility (1/GPa) = 0.01529948
#
# Stress axis : x y z
#
# Youngs Moduli (GPa) = 103.23217 86.12789 54.41726
#
# Poissons Ratio (x) = -0.25107 0.41960
# Poissons Ratio (y) = -0.30093 0.40223
# Poissons Ratio (z) = 0.79601 0.63661
#
# Static dielectric constant tensor:
#      x y z
#    x 1.947050 -0.009360 0.037250 
#    y -0.009360 2.040570 -0.014050 
#    z 0.037250 -0.014050 2.008390 
# 
# From -- ./inp_files/148404.got.cif
#   From: 2010.05.17/outbox.cif.g08.bks.cpg/sg2_75_cif.got.tgz:148404.got - 2010.06.03 11:33:40.
