data_PCOD9067491
_publ_section_title
;
Structure prediction by ZEFSAII (Michael W. Deem and Ramdas Pophale) SiO2 
 PCOD9067491
Probable space group: P -1
;
_chemical_formula_sum "Si O2"
_cell_formula_units_Z 13
_cell_length_a 8.742187
_cell_length_b 9.397835
_cell_length_c 8.582238
_cell_angle_alpha 95.327845
_cell_angle_beta 121.131527
_cell_angle_gamma 68.986543
_cell_volume 559.621113
_symmetry_space_group_name_H-M "P -1"
_symmetry_group_IT_number 2
_symmetry_cell_setting 'triclinic'
loop_
_space_group_symop_operation_xyz
x,y,z
-x,-y,-z
loop_
_atom_site_type_symbol
_atom_site_label
_atom_site_fract_x
_atom_site_fract_y
_atom_site_fract_z
Si Si1 0.387974 0.422169 0.543240
Si Si2 0.641072 0.093217 0.602335
Si Si3 0.996630 0.519578 0.816128
Si Si4 0.797855 0.825728 0.100724
Si Si5 0.617009 0.117154 0.236599
Si Si6 0.695973 0.390439 0.170420
Si Si7 0.000000 0.000000 0.000000
O O1 0.500000 0.500000 0.500000
O O2 0.532827 0.254270 0.649960
O O3 0.301636 0.530622 0.654972
O O4 0.215282 0.405034 0.353084
O O5 0.673433 0.132207 0.444972
O O6 0.500000 0.000000 0.500000
O O7 0.829740 0.004986 0.788350
O O8 0.092342 0.343547 0.791573
O O9 0.128004 0.611582 0.841577
O O10 0.000000 0.500000 0.000000
O O11 0.710657 0.944704 0.207100
O O12 0.612223 0.827272 0.903868
O O13 0.931930 0.887048 0.072705
O O14 0.690064 0.223709 0.176444
O O15 0.500000 0.500000 0.000000
#
# Coordination Sequence:
#
# PCOD9067491 Si02
#       7
#     2   2   2   2   2   2   1
#     4  12  26  49  72 107 152 192 251 310 376 452
#     4  12  27  49  77 109 152 197 248 313 375 442
#     4  12  27  48  74 109 148 195 253 308 378 449
#     4  11  26  46  74 110 148 194 254 307 368 459
#     4  11  25  50  71 108 153 198 246 313 378 443
#     4  12  26  46  74 109 150 200 248 310 380 441
#     4  12  28  46  78 110 146 198 256 304 378 448
#
# _framework density 23.230001000000001
#
# number of rings (size 3 to 8) (size 9 to 14) (size 15 to 20)
#    0.000    0.308    4.615    3.231    6.462    0.615 
#    0.000    0.000    0.000    0.000    0.000    0.000 
#    0.000    0.000    0.000    0.000    0.000    0.000 
#
# Total GULP energy -72643.361402 kJ/mol
# GULP energy per Si atom -5587.950877 kJ/mol
# Density = 2.317713 g / cm^3
# Si number density = 23.230001 Si / 1000 Ang^3
#
#
#
# Elastic Constant Matrix: (Units=GPa)
#
#
# Indices 1 2 3 4 5 6 
#
# 1 124.0037 6.6359 27.7035 1.2396 23.4890 38.1562
# 2 6.6359 80.7287 -11.5736 3.2024 0.7265 4.1028
# 3 27.7035 -11.5736 121.9107 3.6566 14.5729 2.3577
# 4 1.2396 3.2024 3.6566 24.1186 4.4365 -4.1115
# 5 23.4890 0.7265 14.5729 4.4365 31.9999 13.3236
# 6 38.1562 4.1028 2.3577 -4.1115 13.3236 46.2607
#
#
#
# Elastic Compliance Matrix: (Units=1/GPa)
#
#
# Indices 1 2 3 4 5 6 
#
# 1 0.012027 -0.000781 -0.002120 -0.000907 -0.004124 -0.008636
# 2 -0.000781 0.012779 0.001438 -0.002061 0.000255 -0.000819
# 3 -0.002120 0.001438 0.009211 -0.000477 -0.003485 0.002113
# 4 -0.000907 -0.002061 -0.000477 0.044628 -0.008302 0.007312
# 5 -0.004124 0.000255 -0.003485 -0.008302 0.040719 -0.008909
# 6 -0.008636 -0.000819 0.002113 0.007312 -0.008909 0.031920
#
#
# Mechanical properties :
#
#
# Convention : Reuss Voigt Hill
#
# Bulk Modulus (GPa) = 32.16393 41.35275 36.75834
# Shear Modulus (GPa) = 30.38164 40.73433 35.55799
#
# Velocity S-wave (km/s) = 3.62036 4.19205 3.91665
# Velocity P-wave (km/s) = 5.59928 6.42426 6.02591
#
# Compressibility (1/GPa) = 0.03109072
#
# Stress axis : x y z
#
# Youngs Moduli (GPa) = 83.14570 78.25608 108.56598
#
# Poissons Ratio (x) = 0.06109 0.23016
# Poissons Ratio (y) = 0.06490 -0.15609
# Poissons Ratio (z) = 0.17627 -0.11251
#
# Static dielectric constant tensor:
#      x y z
#    x 1.900960 -0.055900 -0.031480 
#    y -0.055900 1.889900 0.042070 
#    z -0.031480 0.042070 1.822540 
# 
# From -- ./inp_files/156417.got.cif
#   From: 2010.05.17/outbox.cif.g08.bks.cpg/sg2_79_cif.got.tgz:156417.got - 2010.06.03 11:33:40.
