data_PCOD9067294
_publ_section_title
;
Structure prediction by ZEFSAII (Michael W. Deem and Ramdas Pophale) SiO2 
 PCOD9067294
Probable space group: P -1
;
_chemical_formula_sum "Si O2"
_cell_formula_units_Z 10
_cell_length_a 12.025406
_cell_length_b 9.652384
_cell_length_c 19.095784
_cell_angle_alpha 150.461597
_cell_angle_beta 27.249401
_cell_angle_gamma 131.944847
_cell_volume 442.845573
_symmetry_space_group_name_H-M "P -1"
_symmetry_group_IT_number 2
_symmetry_cell_setting 'triclinic'
loop_
_space_group_symop_operation_xyz
x,y,z
-x,-y,-z
loop_
_atom_site_type_symbol
_atom_site_label
_atom_site_fract_x
_atom_site_fract_y
_atom_site_fract_z
Si Si1 0.774205 0.645543 0.899948
Si Si2 0.782053 0.474219 0.302527
Si Si3 0.291138 0.826344 0.354737
Si Si4 0.704928 0.187222 0.081690
Si Si5 0.181202 0.667505 0.497147
O O1 0.883899 0.318112 0.651435
O O2 0.998299 0.712743 0.842906
O O3 0.576377 0.655475 0.077633
O O4 0.635124 0.929838 0.047012
O O5 0.500000 0.500000 0.500000
O O6 0.805316 0.349092 0.156076
O O7 0.794067 0.805836 0.441185
O O8 0.303878 0.738574 0.389761
O O9 0.433565 0.441253 0.305917
O O10 0.961055 0.984612 0.798563
O O11 0.000000 0.500000 0.500000
#
# Coordination Sequence:
#
# PCOD9067294 Si02
#       5
#     2   2   2   2   2
#     4  11  25  48  77 109 147 202 257 305 367 453
#     4  12  26  46  77 112 152 194 252 317 375 439
#     4  11  27  45  78 108 151 197 257 305 372 446
#     4  12  27  48  79 107 151 200 246 309 382 439
#     4  12  28  49  77 110 154 198 250 310 379 450
#
# _framework density 22.581236000000001
#
# number of rings (size 3 to 8) (size 9 to 14) (size 15 to 20)
#    0.000    0.400    4.000    3.000    5.600    3.200 
#    0.000    0.000    0.000    0.000    0.000    0.000 
#    0.000    0.000    0.000    0.000    0.000    0.000 
#
# Total GULP energy -55938.897977 kJ/mol
# GULP energy per Si atom -5593.889798 kJ/mol
# Density = 2.252984 g / cm^3
# Si number density = 22.581236 Si / 1000 Ang^3
#
#
#
# Elastic Constant Matrix: (Units=GPa)
#
#
# Indices 1 2 3 4 5 6 
#
# 1 162.7650 36.1095 75.4964 4.1538 7.4191 0.3956
# 2 36.1095 84.9427 19.9412 0.1920 3.8437 -19.4421
# 3 75.4964 19.9412 119.3071 -3.2109 18.9571 -1.0163
# 4 4.1538 0.1920 -3.2109 47.6157 4.8182 14.7109
# 5 7.4191 3.8437 18.9571 4.8182 56.5506 6.3175
# 6 0.3956 -19.4421 -1.0163 14.7109 6.3175 41.4450
#
#
#
# Elastic Compliance Matrix: (Units=1/GPa)
#
#
# Indices 1 2 3 4 5 6 
#
# 1 0.009429 -0.003082 -0.005664 -0.000825 0.001115 -0.001552
# 2 -0.003082 0.015071 -0.000366 -0.002181 -0.001211 0.008049
# 3 -0.005664 -0.000366 0.012650 0.001669 -0.003632 0.000154
# 4 -0.000825 -0.002181 0.001669 0.024224 -0.001320 -0.009371
# 5 0.001115 -0.001211 -0.003632 -0.001320 0.019300 -0.003141
# 6 -0.001552 0.008049 0.000154 -0.009371 -0.003141 0.031728
#
#
# Mechanical properties :
#
#
# Convention : Reuss Voigt Hill
#
# Bulk Modulus (GPa) = 52.83988 70.01211 61.42599
# Shear Modulus (GPa) = 36.51371 44.82010 40.66690
#
# Velocity S-wave (km/s) = 4.02555 4.45999 4.24832
# Velocity P-wave (km/s) = 6.71248 7.58906 7.16419
#
# Compressibility (1/GPa) = 0.01892510
#
# Stress axis : x y z
#
# Youngs Moduli (GPa) = 106.05867 66.35294 79.04959
#
# Poissons Ratio (x) = 0.20452 0.44772
# Poissons Ratio (y) = 0.32691 0.02896
# Poissons Ratio (z) = 0.60070 0.02431
#
# Static dielectric constant tensor:
#      x y z
#    x 1.883000 0.020770 -0.004250 
#    y 0.020770 1.862310 0.037840 
#    z -0.004250 0.037840 1.879140 
# 
# From -- ./inp_files/15792.got.cif
#   From: 2010.05.17/outbox.cif.g08.bks.cpg/sg2_8_cif.got.tgz:15792.got - 2010.06.03 11:33:40.
