data_PCOD9067158
_publ_section_title
;
Structure prediction by ZEFSAII (Michael W. Deem and Ramdas Pophale) SiO2 
 PCOD9067158
Probable space group: P -1
;
_chemical_formula_sum "Si O2"
_cell_formula_units_Z 12
_cell_length_a 24.716115
_cell_length_b 22.027519
_cell_length_c 8.599380
_cell_angle_alpha 36.844482
_cell_angle_beta 144.175183
_cell_angle_gamma 169.686134
_cell_volume 490.478071
_symmetry_space_group_name_H-M "P -1"
_symmetry_group_IT_number 2
_symmetry_cell_setting 'triclinic'
loop_
_space_group_symop_operation_xyz
x,y,z
-x,-y,-z
loop_
_atom_site_type_symbol
_atom_site_label
_atom_site_fract_x
_atom_site_fract_y
_atom_site_fract_z
Si Si1 0.615463 0.731552 0.347510
Si Si2 0.726829 0.003700 0.569652
Si Si3 0.126873 0.374470 0.022628
Si Si4 0.237442 0.695137 0.775211
Si Si5 0.192591 0.582041 0.243148
Si Si6 0.251530 0.179442 0.175578
O O1 0.500000 0.500000 0.500000
O O2 0.358568 0.549732 0.099787
O O3 0.646697 0.758933 0.549142
O O4 0.930454 0.096175 0.250189
O O5 0.899553 0.258497 0.331425
O O6 0.369709 0.661550 0.452361
O O7 0.808360 0.978655 0.748059
O O8 0.877667 0.165960 0.757074
O O9 0.298038 0.645743 0.950473
O O10 0.000000 0.500000 0.500000
O O11 0.545417 0.081828 0.739389
O O12 0.105807 0.538426 0.963802
O O13 0.500000 0.500000 0.000000
O O14 0.000000 0.000000 0.000000
#
# Coordination Sequence:
#
# PCOD9067158 Si02
#       6
#     2   2   2   2   2   2
#     4  12  25  45  68 101 135 178 233 285 348 413
#     4  12  24  46  68 102 139 183 232 284 356 410
#     4  12  25  43  71 101 136 182 228 288 344 414
#     4  11  25  48  71 106 142 187 236 286 352 414
#     4  11  26  46  70 101 143 184 230 291 341 420
#     4  12  24  42  68  98 136 181 229 290 349 412
#
# _framework density 24.465926
#
# number of rings (size 3 to 8) (size 9 to 14) (size 15 to 20)
#    0.000    0.333    1.667    7.500    0.000    4.667 
#    0.000    0.000    0.000    0.000    0.000    0.000 
#    0.000    0.000    0.000    0.000    0.000    0.000 
#
# Total GULP energy -67223.733967 kJ/mol
# GULP energy per Si atom -5601.977831 kJ/mol
# Density = 2.441024 g / cm^3
# Si number density = 24.465926 Si / 1000 Ang^3
#
#
#
# Elastic Constant Matrix: (Units=GPa)
#
#
# Indices 1 2 3 4 5 6 
#
# 1 131.0595 39.3846 30.2342 -6.6360 32.2034 -14.6334
# 2 39.3846 70.9184 26.3535 -7.9981 0.7986 8.1207
# 3 30.2342 26.3535 89.9532 13.1553 -2.0960 -8.8327
# 4 -6.6360 -7.9981 13.1553 48.5230 -4.1633 1.8828
# 5 32.2034 0.7986 -2.0960 -4.1633 72.7324 3.5876
# 6 -14.6334 8.1207 -8.8327 1.8828 3.5876 61.7621
#
#
#
# Elastic Compliance Matrix: (Units=1/GPa)
#
#
# Indices 1 2 3 4 5 6 
#
# 1 0.011612 -0.005987 -0.002005 0.000555 -0.005276 0.003541
# 2 -0.005987 0.020329 -0.005013 0.004328 0.002783 -0.005102
# 3 -0.002005 -0.005013 0.014236 -0.004968 0.000955 0.002316
# 4 0.000555 0.004328 -0.004968 0.022902 0.000968 -0.001902
# 5 -0.005276 0.002783 0.000955 0.000968 0.016259 -0.002453
# 6 0.003541 -0.005102 0.002316 -0.001902 -0.002453 0.018233
#
#
# Mechanical properties :
#
#
# Convention : Reuss Voigt Hill
#
# Bulk Modulus (GPa) = 49.58589 53.76397 51.67493
# Shear Modulus (GPa) = 36.68335 49.66742 43.17538
#
# Velocity S-wave (km/s) = 3.87636 4.51051 4.20541
# Velocity P-wave (km/s) = 6.35187 7.01064 6.68937
#
# Compressibility (1/GPa) = 0.02016703
#
# Stress axis : x y z
#
# Youngs Moduli (GPa) = 86.11938 49.19016 70.24659
#
# Poissons Ratio (x) = 0.29450 0.14086
# Poissons Ratio (y) = 0.51560 0.35212
# Poissons Ratio (z) = 0.17269 0.24657
#
# Static dielectric constant tensor:
#      x y z
#    x 1.953770 0.005650 0.167630 
#    y 0.005650 1.944000 0.095840 
#    z 0.167630 0.095840 2.116540 
# 
# From -- ./inp_files/33426.got.cif
#   From: 2010.05.17/outbox.cif.g08.bks.cpg/sg2_17_cif.got.tgz:33426.got - 2010.06.03 11:33:40.
