data_PCOD9067228
_publ_section_title
;
Structure prediction by ZEFSAII (Michael W. Deem and Ramdas Pophale) SiO2 
 PCOD9067228
Probable space group: P -1
;
_chemical_formula_sum "Si O2"
_cell_formula_units_Z 16
_cell_length_a 8.200006
_cell_length_b 8.836310
_cell_length_c 23.599773
_cell_angle_alpha 33.284502
_cell_angle_beta 49.285569
_cell_angle_gamma 52.404130
_cell_volume 702.621473
_symmetry_space_group_name_H-M "P -1"
_symmetry_group_IT_number 2
_symmetry_cell_setting 'triclinic'
loop_
_space_group_symop_operation_xyz
x,y,z
-x,-y,-z
loop_
_atom_site_type_symbol
_atom_site_label
_atom_site_fract_x
_atom_site_fract_y
_atom_site_fract_z
Si Si1 0.219170 0.279589 0.502935
Si Si2 0.062190 0.305672 0.769167
Si Si3 0.239563 0.251396 0.868526
Si Si4 0.842495 0.759771 0.978721
Si Si5 0.704933 0.771035 0.715323
Si Si6 0.515368 0.256087 0.341840
Si Si7 0.477872 0.650499 0.397797
Si Si8 0.446394 0.640426 0.029198
O O1 0.297130 0.233711 0.434549
O O2 0.410767 0.430757 0.438087
O O3 0.000000 0.500000 0.500000
O O4 0.275244 0.967977 0.615038
O O5 0.093758 0.325676 0.823307
O O6 0.296894 0.257287 0.701819
O O7 0.923455 0.602138 0.692175
O O8 0.931185 0.054042 0.862802
O O9 0.435527 0.429692 0.760986
O O10 0.167918 0.312417 0.929973
O O11 0.289749 0.919281 0.960440
O O12 0.626147 0.761374 0.989742
O O13 0.000000 0.500000 0.000000
O O14 0.527980 0.799760 0.696397
O O15 0.636254 0.582195 0.840810
O O16 0.707884 0.079257 0.641073
O O17 0.500000 0.500000 0.500000
O O18 0.500000 0.500000 0.000000
#
# Coordination Sequence:
#
# PCOD9067228 Si02
#       8
#     2   2   2   2   2   2   2   2
#     4  11  27  50  76 105 143 192 249 310 378 431
#     4  12  28  47  73 109 150 198 247 304 375 436
#     4  12  24  48  70 106 155 189 244 309 363 441
#     4  12  25  44  73 106 147 197 246 298 369 440
#     4  12  26  46  76 105 148 197 239 301 375 433
#     4  11  25  48  74 109 147 187 246 309 368 442
#     4  12  27  50  71 107 145 186 249 312 363 447
#     4  12  26  47  72 108 154 197 246 300 362 443
#
# _framework density 22.771863
#
# number of rings (size 3 to 8) (size 9 to 14) (size 15 to 20)
#    0.000    0.250    5.000    3.750    5.250    0.500 
#    2.250    0.000    0.000    0.000    0.000    0.000 
#    0.000    0.000    0.000    0.000    0.000    0.000 
#
# Total GULP energy -89408.529029 kJ/mol
# GULP energy per Si atom -5588.033064 kJ/mol
# Density = 2.272003 g / cm^3
# Si number density = 22.771863 Si / 1000 Ang^3
#
#
#
# Elastic Constant Matrix: (Units=GPa)
#
#
# Indices 1 2 3 4 5 6 
#
# 1 74.1441 13.6048 15.4199 13.2957 16.3055 19.0294
# 2 13.6048 127.7713 30.5511 3.2207 21.7823 5.6507
# 3 15.4199 30.5511 88.6587 0.6021 22.2521 4.7113
# 4 13.2957 3.2207 0.6021 38.2254 5.2396 5.1370
# 5 16.3055 21.7823 22.2521 5.2396 36.9316 -5.3494
# 6 19.0294 5.6507 4.7113 5.1370 -5.3494 46.8517
#
#
#
# Elastic Compliance Matrix: (Units=1/GPa)
#
#
# Indices 1 2 3 4 5 6 
#
# 1 0.018162 0.000076 -0.000687 -0.004142 -0.008192 -0.007798
# 2 0.000076 0.009107 -0.001961 0.000039 -0.004438 -0.001443
# 3 -0.000687 -0.001961 0.014045 0.001466 -0.007488 -0.001913
# 4 -0.004142 0.000039 0.001466 0.028301 -0.003377 -0.001958
# 5 -0.008192 -0.004438 -0.007488 -0.003377 0.039680 0.009516
# 6 -0.007798 -0.001443 -0.001913 -0.001958 0.009516 0.026179
#
#
# Mechanical properties :
#
#
# Convention : Reuss Voigt Hill
#
# Bulk Modulus (GPa) = 27.64669 45.52508 36.58588
# Shear Modulus (GPa) = 32.74961 39.80162 36.27561
#
# Velocity S-wave (km/s) = 3.79642 4.18526 3.99557
# Velocity P-wave (km/s) = 5.60216 6.58714 6.11451
#
# Compressibility (1/GPa) = 0.03617070
#
# Stress axis : x y z
#
# Youngs Moduli (GPa) = 55.06114 109.80980 71.19742
#
# Poissons Ratio (x) = -0.00836 0.04888
# Poissons Ratio (y) = -0.00419 0.13963
# Poissons Ratio (z) = 0.03780 0.21535
#
# Static dielectric constant tensor:
#      x y z
#    x 1.714080 0.009120 -0.019340 
#    y 0.009120 1.727940 -0.001230 
#    z -0.019340 -0.001230 1.815540 
# 
# From -- ./inp_files/606548.got.cif
#   From: 2010.05.17/outbox.cif.g08.bks.cpg/sg2_304_cif.got.tgz:606548.got - 2010.06.03 11:33:40.
