data_PCOD9067273
_publ_section_title
;
Structure prediction by ZEFSAII (Michael W. Deem and Ramdas Pophale) SiO2 
 PCOD9067273
Probable space group: P -1
;
_chemical_formula_sum "Si O2"
_cell_formula_units_Z 14
_cell_length_a 8.574950
_cell_length_b 13.802514
_cell_length_c 10.738870
_cell_angle_alpha 144.603025
_cell_angle_beta 121.404047
_cell_angle_gamma 49.511117
_cell_volume 559.818840
_symmetry_space_group_name_H-M "P -1"
_symmetry_group_IT_number 2
_symmetry_cell_setting 'triclinic'
loop_
_space_group_symop_operation_xyz
x,y,z
-x,-y,-z
loop_
_atom_site_type_symbol
_atom_site_label
_atom_site_fract_x
_atom_site_fract_y
_atom_site_fract_z
Si Si1 0.476990 0.010617 0.348943
Si Si2 0.309358 0.508772 0.505297
Si Si3 0.393666 0.680557 0.943072
Si Si4 0.839337 0.438070 0.940185
Si Si5 0.412581 0.906316 0.764561
Si Si6 0.947172 0.064415 0.731351
Si Si7 0.104749 0.285447 0.584393
O O1 0.614153 0.051862 0.351809
O O2 0.244032 0.169716 0.406765
O O3 0.500000 0.000000 0.500000
O O4 0.487127 0.822156 0.099845
O O5 0.500000 0.500000 0.500000
O O6 0.265991 0.649965 0.748800
O O7 0.403082 0.301366 0.377028
O O8 0.119557 0.570832 0.400656
O O9 0.609065 0.491906 0.852334
O O10 0.235699 0.790552 0.103019
O O11 0.937052 0.219407 0.788253
O O12 0.000000 0.500000 0.000000
O O13 0.792373 0.587411 0.189556
O O14 0.181051 0.963719 0.772939
O O15 0.500000 0.000000 0.000000
O O16 0.908410 0.878444 0.507981
#
# Coordination Sequence:
#
# PCOD9067273 Si02
#       7
#     2   2   2   2   2   2   2
#     4  11  25  48  76 110 155 198 256 321 386 457
#     4  12  25  47  74 109 148 198 263 317 378 458
#     4  11  26  47  75 107 155 195 256 321 383 462
#     4  12  25  47  75 108 153 197 257 317 385 463
#     4  12  27  48  79 112 154 206 261 318 393 467
#     4  11  27  46  74 109 148 200 254 313 393 450
#     4  11  26  47  74 107 155 200 254 317 390 460
#
# _framework density 25.008088000000001
#
# number of rings (size 3 to 8) (size 9 to 14) (size 15 to 20)
#    0.000    0.571    2.857    3.857    4.000    4.571 
#    0.000    0.000    0.000    0.000    0.000    0.000 
#    0.000    0.000    0.000    0.000    0.000    0.000 
#
# Total GULP energy -78005.957411 kJ/mol
# GULP energy per Si atom -5571.854101 kJ/mol
# Density = 2.495117 g / cm^3
# Si number density = 25.008088 Si / 1000 Ang^3
#
#
#
# Elastic Constant Matrix: (Units=GPa)
#
#
# Indices 1 2 3 4 5 6 
#
# 1 94.4622 43.5645 2.5519 3.4575 -5.3433 -2.1961
# 2 43.5645 99.7082 27.4977 13.2270 -5.1738 -4.1285
# 3 2.5519 27.4977 93.5843 5.5374 15.7032 21.6054
# 4 3.4575 13.2270 5.5374 43.7936 -4.2183 2.9818
# 5 -5.3433 -5.1738 15.7032 -4.2183 36.3147 4.4890
# 6 -2.1961 -4.1285 21.6054 2.9818 4.4890 43.9677
#
#
#
# Elastic Compliance Matrix: (Units=1/GPa)
#
#
# Indices 1 2 3 4 5 6 
#
# 1 0.013498 -0.006438 0.001567 0.000792 0.000584 -0.000813
# 2 -0.006438 0.015051 -0.005343 -0.003356 0.002664 0.003673
# 3 0.001567 -0.005343 0.014913 -0.000506 -0.006162 -0.007088
# 4 0.000792 -0.003356 -0.000506 0.024265 0.002920 -0.001970
# 5 0.000584 0.002664 -0.006162 0.002920 0.031013 -0.000057
# 6 -0.000813 0.003673 -0.007088 -0.001970 -0.000057 0.026671
#
#
# Mechanical properties :
#
#
# Convention : Reuss Voigt Hill
#
# Bulk Modulus (GPa) = 43.41619 48.33144 45.87381
# Shear Modulus (GPa) = 32.56923 39.09123 35.83023
#
# Velocity S-wave (km/s) = 3.61272 3.95795 3.78927
# Velocity P-wave (km/s) = 5.89923 6.34472 6.12602
#
# Compressibility (1/GPa) = 0.02303288
#
# Stress axis : x y z
#
# Youngs Moduli (GPa) = 74.08374 66.43958 67.05439
#
# Poissons Ratio (x) = 0.42775 -0.10505
# Poissons Ratio (y) = 0.47696 0.35829
# Poissons Ratio (z) = -0.11606 0.35501
#
# Static dielectric constant tensor:
#      x y z
#    x 2.035720 0.117730 0.039460 
#    y 0.117730 1.840770 -0.149110 
#    z 0.039460 -0.149110 1.906520 
# 
# From -- ./inp_files/343812.got.cif
#   From: 2010.05.17/outbox.cif.g08.bks.cpg/sg2_172_cif.got.tgz:343812.got - 2010.06.03 11:33:40.
