data_PCOD9067188
_publ_section_title
;
Structure prediction by ZEFSAII (Michael W. Deem and Ramdas Pophale) SiO2 
 PCOD9067188
Probable space group: P -1
;
_chemical_formula_sum "Si O2"
_cell_formula_units_Z 13
_cell_length_a 14.761049
_cell_length_b 6.451860
_cell_length_c 9.829499
_cell_angle_alpha 76.296759
_cell_angle_beta 48.152682
_cell_angle_gamma 58.580419
_cell_volume 585.969020
_symmetry_space_group_name_H-M "P -1"
_symmetry_group_IT_number 2
_symmetry_cell_setting 'triclinic'
loop_
_space_group_symop_operation_xyz
x,y,z
-x,-y,-z
loop_
_atom_site_type_symbol
_atom_site_label
_atom_site_fract_x
_atom_site_fract_y
_atom_site_fract_z
Si Si1 0.379291 0.177025 0.697401
Si Si2 0.190374 0.912081 0.404519
Si Si3 0.853108 0.970246 0.074891
Si Si4 0.505020 0.795837 0.128307
Si Si5 0.792334 0.348623 0.847596
Si Si6 0.000000 0.500000 0.500000
Si Si7 0.841407 0.288640 0.267258
O O1 0.446149 0.176018 0.775020
O O2 0.290011 0.452177 0.682975
O O3 0.500000 0.000000 0.500000
O O4 0.266181 0.087526 0.840037
O O5 0.352155 0.826671 0.282361
O O6 0.174245 0.839702 0.280059
O O7 0.151069 0.757743 0.572601
O O8 0.092776 0.201224 0.480198
O O9 0.010353 0.747901 0.927189
O O10 0.841322 0.193971 0.960877
O O11 0.830181 0.070067 0.236251
O O12 0.625491 0.531289 0.995549
O O13 0.500000 0.000000 0.000000
O O14 0.867016 0.506368 0.716894
#
# Coordination Sequence:
#
# PCOD9067188 Si02
#       7
#     2   2   2   2   2   1   2
#     4  12  28  46  71 106 144 187 236 291 349 420
#     4  12  27  46  75 105 143 186 235 293 360 414
#     4  11  25  48  73 101 140 189 233 288 357 411
#     4  12  26  47  71 104 144 189 237 293 348 423
#     4  12  26  47  75 104 140 188 234 295 354 420
#     4  12  26  48  70 108 146 170 246 292 350 420
#     4  11  26  47  70 105 138 189 234 293 348 419
#
# _framework density 22.185473999999999
#
# number of rings (size 3 to 8) (size 9 to 14) (size 15 to 20)
#    0.000    0.308    4.615    3.231    4.308    2.462 
#    0.000    0.000    0.000    0.000    0.000    0.000 
#    0.000    0.000    0.000    0.000    0.000    0.000 
#
# Total GULP energy -72570.619596 kJ/mol
# GULP energy per Si atom -5582.355354 kJ/mol
# Density = 2.213498 g / cm^3
# Si number density = 22.185474 Si / 1000 Ang^3
#
#
#
# Elastic Constant Matrix: (Units=GPa)
#
#
# Indices 1 2 3 4 5 6 
#
# 1 80.5640 15.5632 29.0775 1.1113 -15.3589 -13.7996
# 2 15.5632 101.1831 36.7905 10.5047 -2.3002 -36.3962
# 3 29.0775 36.7905 93.7487 20.3100 -10.8078 -15.8107
# 4 1.1113 10.5047 20.3100 33.2692 -11.1706 -16.1979
# 5 -15.3589 -2.3002 -10.8078 -11.1706 38.7359 -5.1939
# 6 -13.7996 -36.3962 -15.8107 -16.1979 -5.1939 36.4022
#
#
#
# Elastic Compliance Matrix: (Units=1/GPa)
#
#
# Indices 1 2 3 4 5 6 
#
# 1 0.018892 0.004205 -0.006351 0.014153 0.012284 0.016658
# 2 0.004205 0.019449 -0.006529 0.012492 0.007941 0.024896
# 3 -0.006351 -0.006529 0.016225 -0.012486 -0.003036 -0.007877
# 4 0.014153 0.012492 -0.012486 0.064403 0.027478 0.045010
# 5 0.012284 0.007941 -0.003036 0.027478 0.042194 0.029525
# 6 0.016658 0.024896 -0.007877 0.045010 0.029525 0.079497
#
#
# Mechanical properties :
#
#
# Convention : Reuss Voigt Hill
#
# Bulk Modulus (GPa) = 26.86879 48.70649 37.78764
# Shear Modulus (GPa) = 18.49012 34.61910 26.55461
#
# Velocity S-wave (km/s) = 2.89006 3.95453 3.46343
# Velocity P-wave (km/s) = 4.82430 6.54621 5.75008
#
# Compressibility (1/GPa) = 0.03721790
#
# Stress axis : x y z
#
# Youngs Moduli (GPa) = 52.93211 51.41657 61.63211
#
# Poissons Ratio (x) = -0.21622 0.39140
# Poissons Ratio (y) = -0.22259 0.40239
# Poissons Ratio (z) = 0.33615 0.33570
#
# Static dielectric constant tensor:
#      x y z
#    x 1.783300 0.016450 0.003750 
#    y 0.016450 1.792450 0.022320 
#    z 0.003750 0.022320 1.786290 
# 
# From -- ./inp_files/26180.got.cif
#   From: 2010.05.17/outbox.cif.g08.bks.cpg/sg2_14_cif.got.tgz:26180.got - 2010.06.03 11:33:40.
