data_PCOD9067669
_publ_section_title
;
Structure prediction by ZEFSAII (Michael W. Deem and Ramdas Pophale) SiO2 
 PCOD9067669
Probable space group: P -1
;
_chemical_formula_sum "Si O2"
_cell_formula_units_Z 13
_cell_length_a 14.810555
_cell_length_b 12.944279
_cell_length_c 5.050234
_cell_angle_alpha 69.954117
_cell_angle_beta 88.031404
_cell_angle_gamma 141.059069
_cell_volume 491.823590
_symmetry_space_group_name_H-M "P -1"
_symmetry_group_IT_number 2
_symmetry_cell_setting 'triclinic'
loop_
_space_group_symop_operation_xyz
x,y,z
-x,-y,-z
loop_
_atom_site_type_symbol
_atom_site_label
_atom_site_fract_x
_atom_site_fract_y
_atom_site_fract_z
Si Si1 0.783842 0.672321 0.980024
Si Si2 0.254362 0.718750 0.133146
Si Si3 0.579768 0.759113 0.726581
Si Si4 0.433303 0.108421 0.892578
Si Si5 0.904996 0.021504 0.703607
Si Si6 0.973986 0.673394 0.201199
Si Si7 0.000000 0.500000 0.000000
O O1 0.845826 0.843669 0.978201
O O2 0.588460 0.481367 0.103714
O O3 0.823637 0.600362 0.192403
O O4 0.912062 0.797218 0.608373
O O5 0.407275 0.799295 0.116655
O O6 0.090276 0.489544 0.457474
O O7 0.201750 0.678922 0.869660
O O8 0.285421 0.867768 0.133033
O O9 0.568932 0.847271 0.441617
O O10 0.765541 0.898396 0.594985
O O11 0.565004 0.789346 0.997742
O O12 0.909939 0.124070 0.826258
O O13 0.032681 0.661815 0.957034
#
# Coordination Sequence:
#
# PCOD9067669 Si02
#       7
#     2   2   2   2   2   2   1
#     4  11  26  51  78 110 154 203 262 326 392 456
#     4  11  26  43  68 106 152 207 255 317 385 469
#     4  12  26  51  77 116 154 204 259 326 389 469
#     4  11  27  46  75 109 159 205 256 320 394 465
#     4  11  27  48  79 113 149 208 262 323 389 465
#     4  12  24  46  70 110 155 198 257 322 388 465
#     4  12  26  40  72 106 148 204 248 320 384 464
#
# _framework density 26.432244000000001
#
# number of rings (size 3 to 8) (size 9 to 14) (size 15 to 20)
#    0.000    0.615    1.538    5.077    8.615    1.231 
#    0.000    1.538    0.000    0.000    0.000    0.000 
#    0.000    0.000    0.000    0.000    0.000    0.000 
#
# Total GULP energy -72523.167213 kJ/mol
# GULP energy per Si atom -5578.705170 kJ/mol
# Density = 2.637208 g / cm^3
# Si number density = 26.432244 Si / 1000 Ang^3
#
#
#
# Elastic Constant Matrix: (Units=GPa)
#
#
# Indices 1 2 3 4 5 6 
#
# 1 -18.9016 228.8385 -73.8839 -39.6824 -227.6520 -65.3494
# 2 228.8385 24.5025 136.4192 -1.3911 247.7215 74.3305
# 3 -73.8839 136.4192 8.3410 -44.1980 -128.5823 -34.9865
# 4 -39.6824 -1.3911 -44.1980 29.6676 -43.0768 1.3566
# 5 -227.6520 247.7215 -128.5823 -43.0768 -329.1936 -115.8535
# 6 -65.3494 74.3305 -34.9865 1.3566 -115.8535 34.0088
#
#
#
# Elastic Compliance Matrix: (Units=1/GPa)
#
#
# Indices 1 2 3 4 5 6 
#
# 1 0.008516 -0.002307 0.000774 0.002007 -0.007265 -0.002628
# 2 -0.002307 0.006400 -0.002651 0.002820 0.006621 0.001296
# 3 0.000774 -0.002651 0.035111 0.030602 -0.015960 -0.012187
# 4 0.002007 0.002820 0.030602 0.063835 -0.013163 -0.018212
# 5 -0.007265 0.006621 -0.015960 -0.013163 0.013882 0.002965
# 6 -0.002628 0.001296 -0.012187 -0.018212 0.002965 0.019809
#
#
# Mechanical properties :
#
#
# Convention : Reuss Voigt Hill
#
# Bulk Modulus (GPa) = 24.00357 66.29885 45.15121
# Shear Modulus (GPa) = 29.44532 -71.59891 -21.07679
#
# Velocity S-wave (km/s) = 3.34127 -5.21023 -2.82687
# Velocity P-wave (km/s) = 4.89759 3.32541 2.54244
#
# Compressibility (1/GPa) = 0.04166047
#
# Stress axis : x y z
#
# Youngs Moduli (GPa) = 117.42526 156.25240 28.48145
#
# Poissons Ratio (x) = 0.36044 -0.02206
# Poissons Ratio (y) = 0.27087 0.07550
# Poissons Ratio (z) = -0.09094 0.41417
#
# Static dielectric constant tensor:
#      x y z
#    x 2.169530 0.071410 0.051930 
#    y 0.071410 2.146700 0.102940 
#    z 0.051930 0.102940 2.279300 
# 
# From -- ./inp_files/93408.got.cif
#   From: 2010.05.17/outbox.cif.g08.bks.cpg/sg2_47_cif.got.tgz:93408.got - 2010.06.03 11:33:40.
