data_PCOD9067535
_publ_section_title
;
Structure prediction by ZEFSAII (Michael W. Deem and Ramdas Pophale) SiO2 
 PCOD9067535
Probable space group: P -1
;
_chemical_formula_sum "Si O2"
_cell_formula_units_Z 13
_cell_length_a 5.736535
_cell_length_b 9.017289
_cell_length_c 16.285476
_cell_angle_alpha 53.121055
_cell_angle_beta 49.803667
_cell_angle_gamma 67.844905
_cell_volume 514.641562
_symmetry_space_group_name_H-M "P -1"
_symmetry_group_IT_number 2
_symmetry_cell_setting 'triclinic'
loop_
_space_group_symop_operation_xyz
x,y,z
-x,-y,-z
loop_
_atom_site_type_symbol
_atom_site_label
_atom_site_fract_x
_atom_site_fract_y
_atom_site_fract_z
Si Si1 0.244108 0.244340 0.412419
Si Si2 0.653143 0.790560 0.868129
Si Si3 0.423714 0.702913 0.417153
Si Si4 0.917710 0.407209 0.962344
Si Si5 0.500000 0.000000 0.000000
Si Si6 0.559328 0.338877 0.764914
Si Si7 0.753085 0.970103 0.349987
O O1 0.309135 0.459971 0.309658
O O2 0.310924 0.175069 0.513108
O O3 0.879919 0.222676 0.493047
O O4 0.491614 0.124335 0.348906
O O5 0.773487 0.584195 0.891628
O O6 0.311752 0.768742 0.916314
O O7 0.590043 0.843227 0.959750
O O8 0.929697 0.926415 0.734725
O O9 0.500000 0.500000 0.500000
O O10 0.367818 0.689577 0.337505
O O11 0.703196 0.841652 0.325253
O O12 0.198129 0.344834 0.864194
O O13 0.000000 0.500000 0.000000
O O14 0.349552 0.836624 0.145001
#
# Coordination Sequence:
#
# PCOD9067535 Si02
#       7
#     2   2   2   2   1   2   2
#     4  11  25  50  76 113 157 210 265 324 396 471
#     4  11  26  46  77 112 151 203 263 322 390 471
#     4  12  27  47  82 119 161 206 261 334 406 464
#     4  11  25  52  74 110 157 207 260 321 393 470
#     4  12  28  46  76 114 160 202 264 320 394 468
#     4  12  26  50  76 113 157 206 262 324 398 466
#     4  11  25  50  79 116 156 209 268 323 394 483
#
# _framework density 25.260297999999999
#
# number of rings (size 3 to 8) (size 9 to 14) (size 15 to 20)
#    0.000    0.615    4.615    1.846    4.308    3.077 
#    5.538    0.000    0.000    0.000    0.000    0.000 
#    0.000    0.000    0.000    0.000    0.000    0.000 
#
# Total GULP energy -72448.958117 kJ/mol
# GULP energy per Si atom -5572.996778 kJ/mol
# Density = 2.520280 g / cm^3
# Si number density = 25.260298 Si / 1000 Ang^3
#
#
#
# Elastic Constant Matrix: (Units=GPa)
#
#
# Indices 1 2 3 4 5 6 
#
# 1 51.3558 26.3186 57.8774 -13.9399 -33.8808 -1.9291
# 2 26.3186 116.0758 54.5030 -14.6275 -24.4490 -5.5275
# 3 57.8774 54.5030 163.0054 -28.8566 -18.8846 -6.2734
# 4 -13.9399 -14.6275 -28.8566 56.3767 -2.6635 -7.3556
# 5 -33.8808 -24.4490 -18.8846 -2.6635 49.1469 2.7724
# 6 -1.9291 -5.5275 -6.2734 -7.3556 2.7724 29.3075
#
#
#
# Elastic Compliance Matrix: (Units=1/GPa)
#
#
# Indices 1 2 3 4 5 6 
#
# 1 0.072316 0.003662 -0.019839 0.010744 0.044652 -0.000323
# 2 0.003662 0.011388 -0.003838 0.002415 0.006759 0.001534
# 3 -0.019839 -0.003838 0.013460 0.000758 -0.010488 0.002034
# 4 0.010744 0.002415 0.000758 0.022666 0.009784 0.006088
# 5 0.044652 0.006759 -0.010488 0.009784 0.051015 -0.000401
# 6 -0.000323 0.001534 0.002034 0.006088 -0.000401 0.036390
#
#
# Mechanical properties :
#
#
# Convention : Reuss Voigt Hill
#
# Bulk Modulus (GPa) = 17.50275 67.53723 42.51999
# Shear Modulus (GPa) = 18.77521 39.74875 29.26198
#
# Velocity S-wave (km/s) = 2.72925 3.97112 3.40725
# Velocity P-wave (km/s) = 4.10801 6.91527 5.68756
#
# Compressibility (1/GPa) = 0.05713386
#
# Stress axis : x y z
#
# Youngs Moduli (GPa) = 13.82825 87.81078 74.29652
#
# Poissons Ratio (x) = -0.32158 1.47394
# Poissons Ratio (y) = -0.05064 0.28518
# Poissons Ratio (z) = 0.27433 0.33706
#
# Static dielectric constant tensor:
#      x y z
#    x 2.098510 -0.088040 -0.019520 
#    y -0.088040 1.971450 0.046780 
#    z -0.019520 0.046780 1.975490 
# 
# From -- ./inp_files/546844.got.cif
#   From: 2010.05.17/outbox.cif.g08.bks.cpg/sg2_274_cif.got.tgz:546844.got - 2010.06.03 11:33:40.
