data_PCOD9067042
_publ_section_title
;
Structure prediction by ZEFSAII (Michael W. Deem and Ramdas Pophale) SiO2 
 PCOD9067042
Probable space group: P -1
;
_chemical_formula_sum "Si O2"
_cell_formula_units_Z 13
_cell_length_a 9.405694
_cell_length_b 17.334410
_cell_length_c 14.333299
_cell_angle_alpha 161.186543
_cell_angle_beta 140.523347
_cell_angle_gamma 41.417780
_cell_volume 477.013268
_symmetry_space_group_name_H-M "P -1"
_symmetry_group_IT_number 2
_symmetry_cell_setting 'triclinic'
loop_
_space_group_symop_operation_xyz
x,y,z
-x,-y,-z
loop_
_atom_site_type_symbol
_atom_site_label
_atom_site_fract_x
_atom_site_fract_y
_atom_site_fract_z
Si Si1 0.236248 0.341816 0.942663
Si Si2 0.000000 0.000000 0.000000
Si Si3 0.456940 0.550772 0.928285
Si Si4 0.006807 0.252760 0.024470
Si Si5 0.480159 0.957362 0.721216
Si Si6 0.941902 0.261499 0.467833
Si Si7 0.507449 0.307993 0.399475
O O1 0.363422 0.299581 0.860139
O O2 0.402703 0.477617 0.249860
O O3 0.000000 0.500000 0.000000
O O4 0.256925 0.088553 0.713636
O O5 0.723908 0.045572 0.925471
O O6 0.973291 0.846109 0.711456
O O7 0.489719 0.302668 0.607497
O O8 0.204169 0.670080 0.927008
O O9 0.500000 0.500000 0.000000
O O10 0.987157 0.462433 0.174169
O O11 0.241839 0.309357 0.254751
O O12 0.003915 0.962235 0.687338
O O13 0.437465 0.921598 0.767842
O O14 0.671297 0.298862 0.383893
#
# Coordination Sequence:
#
# PCOD9067042 Si02
#       7
#     2   1   2   2   2   2   2
#     4  11  28  47  75 110 152 207 260 321 392 473
#     4  12  22  44  76 112 152 194 258 322 394 460
#     4  11  28  48  74 109 155 208 262 322 393 472
#     4  12  26  49  76 119 148 207 259 328 387 467
#     4  11  25  47  76 109 150 203 258 325 394 462
#     4  12  27  43  77 113 161 198 254 323 394 465
#     4  11  27  45  75 113 151 201 259 326 394 462
#
# _framework density 27.252911000000001
#
# number of rings (size 3 to 8) (size 9 to 14) (size 15 to 20)
#    0.000    0.615    3.077    2.769    4.308    7.385 
#    0.000    0.000    0.000    0.000    0.000    0.000 
#    0.000    0.000    0.000    0.000    0.000    0.000 
#
# Total GULP energy -72403.169494 kJ/mol
# GULP energy per Si atom -5569.474576 kJ/mol
# Density = 2.719088 g / cm^3
# Si number density = 27.252911 Si / 1000 Ang^3
#
#
#
# Elastic Constant Matrix: (Units=GPa)
#
#
# Indices 1 2 3 4 5 6 
#
# 1 192.2636 64.9988 11.4937 0.1297 8.3773 -31.1798
# 2 64.9988 149.5404 37.9534 27.4334 28.2559 -33.1031
# 3 11.4937 37.9534 84.6321 11.3852 25.8602 -13.7773
# 4 0.1297 27.4334 11.3852 51.1481 3.1433 3.9049
# 5 8.3773 28.2559 25.8602 3.1433 38.3811 -1.7017
# 6 -31.1798 -33.1031 -13.7773 3.9049 -1.7017 58.6813
#
#
#
# Elastic Compliance Matrix: (Units=1/GPa)
#
#
# Indices 1 2 3 4 5 6 
#
# 1 0.006396 -0.002756 0.000403 0.001208 0.000345 0.001868
# 2 -0.002756 0.011605 -0.001271 -0.005923 -0.006379 0.004993
# 3 0.000403 -0.001271 0.016153 -0.002562 -0.009685 0.003179
# 4 0.001208 -0.005923 -0.002562 0.023431 0.003694 -0.004753
# 5 0.000345 -0.006379 -0.009685 0.003694 0.036682 -0.004871
# 6 0.001868 0.004993 0.003179 -0.004753 -0.004871 0.021772
#
#
# Mechanical properties :
#
#
# Convention : Reuss Voigt Hill
#
# Bulk Modulus (GPa) = 37.16557 72.81419 54.98988
# Shear Modulus (GPa) = 37.80602 50.44145 44.12374
#
# Velocity S-wave (km/s) = 3.72859 4.30684 4.02810
# Velocity P-wave (km/s) = 5.67481 7.17689 6.46959
#
# Compressibility (1/GPa) = 0.02690662
#
# Stress axis : x y z
#
# Youngs Moduli (GPa) = 156.35278 86.17151 61.90958
#
# Poissons Ratio (x) = 0.23745 -0.02498
# Poissons Ratio (y) = 0.43084 0.07869
# Poissons Ratio (z) = -0.06307 0.10953
#
# Static dielectric constant tensor:
#      x y z
#    x 2.141220 0.083910 0.062210 
#    y 0.083910 2.204670 0.048690 
#    z 0.062210 0.048690 2.238880 
# 
# From -- ./inp_files/171900.got.cif
#   From: 2010.05.17/outbox.cif.g08.bks.cpg/sg2_86_cif.got.tgz:171900.got - 2010.06.03 11:33:40.
