data_PCOD9067250
_publ_section_title
;
Structure prediction by ZEFSAII (Michael W. Deem and Ramdas Pophale) SiO2 
 PCOD9067250
Probable space group: P -1
;
_chemical_formula_sum "Si O2"
_cell_formula_units_Z 12
_cell_length_a 9.365534
_cell_length_b 4.872064
_cell_length_c 24.642909
_cell_angle_alpha 110.497415
_cell_angle_beta 151.482129
_cell_angle_gamma 77.121486
_cell_volume 493.735252
_symmetry_space_group_name_H-M "P -1"
_symmetry_group_IT_number 2
_symmetry_cell_setting 'triclinic'
loop_
_space_group_symop_operation_xyz
x,y,z
-x,-y,-z
loop_
_atom_site_type_symbol
_atom_site_label
_atom_site_fract_x
_atom_site_fract_y
_atom_site_fract_z
Si Si1 0.344219 0.221438 0.892790
Si Si2 0.292363 0.339975 0.765065
Si Si3 0.156087 0.148312 0.008334
Si Si4 0.828814 0.935435 0.780485
Si Si5 0.922388 0.333933 0.378681
Si Si6 0.439968 0.340823 0.633715
O O1 0.205267 0.321879 0.797880
O O2 0.098059 0.011832 0.832631
O O3 0.602732 0.047074 0.946634
O O4 0.500000 0.500000 0.000000
O O5 0.635315 0.530117 0.888869
O O6 0.082431 0.511397 0.670442
O O7 0.262374 0.002918 0.711070
O O8 0.927976 0.132548 0.880660
O O9 0.000000 0.000000 0.000000
O O10 0.532813 0.037336 0.663282
O O11 0.742236 0.591562 0.744375
O O12 0.242298 0.312348 0.511224
O O13 0.753693 0.530051 0.375800
#
# Coordination Sequence:
#
# PCOD9067250 Si02
#       6
#     2   2   2   2   2   2
#     4  12  27  49  73 109 160 198 235 296 379 449
#     4  12  25  46  76 107 149 191 244 303 368 429
#     4  12  28  47  78 115 146 191 247 311 367 439
#     4  12  26  46  76 108 148 195 244 297 375 440
#     4  11  25  48  75 109 146 195 246 317 352 428
#     4  11  26  47  76 106 149 195 252 296 373 427
#
# _framework density 24.304523
#
# number of rings (size 3 to 8) (size 9 to 14) (size 15 to 20)
#    0.000    0.333    3.333    4.500    4.667    4.667 
#    0.000    5.833    0.000    0.000    0.000    0.000 
#    0.000    0.000    0.000    0.000    0.000    0.000 
#
# Total GULP energy -67368.087752 kJ/mol
# GULP energy per Si atom -5614.007313 kJ/mol
# Density = 2.424920 g / cm^3
# Si number density = 24.304523 Si / 1000 Ang^3
#
#
#
# Elastic Constant Matrix: (Units=GPa)
#
#
# Indices 1 2 3 4 5 6 
#
# 1 133.7792 13.7256 31.6926 -10.3097 -11.0410 15.3064
# 2 13.7256 94.3108 5.6820 -4.9022 -13.3747 0.8792
# 3 31.6926 5.6820 94.2746 -13.0535 -31.0249 5.6918
# 4 -10.3097 -4.9022 -13.0535 47.4253 10.5745 -8.0737
# 5 -11.0410 -13.3747 -31.0249 10.5745 39.0420 -12.5730
# 6 15.3064 0.8792 5.6918 -8.0737 -12.5730 38.9206
#
#
#
# Elastic Compliance Matrix: (Units=1/GPa)
#
#
# Indices 1 2 3 4 5 6 
#
# 1 0.008627 -0.001243 -0.003086 0.000712 -0.001698 -0.003314
# 2 -0.001243 0.011431 0.001361 0.000452 0.005094 0.001771
# 3 -0.003086 0.001361 0.015783 0.001528 0.012792 0.003324
# 4 0.000712 0.000452 0.001528 0.023053 -0.003682 0.003079
# 5 -0.001698 0.005094 0.012792 -0.003682 0.041710 0.011392
# 6 -0.003314 0.001771 0.003324 0.003079 0.011392 0.030790
#
#
# Mechanical properties :
#
#
# Convention : Reuss Voigt Hill
#
# Bulk Modulus (GPa) = 33.43648 47.17389 40.30519
# Shear Modulus (GPa) = 33.94465 43.16185 38.55325
#
# Velocity S-wave (km/s) = 3.74122 4.21869 3.98711
# Velocity P-wave (km/s) = 5.69644 6.57126 6.14943
#
# Compressibility (1/GPa) = 0.02990745
#
# Stress axis : x y z
#
# Youngs Moduli (GPa) = 115.90943 87.47780 63.35817
#
# Poissons Ratio (x) = 0.10870 0.19549
# Poissons Ratio (y) = 0.14403 -0.08621
# Poissons Ratio (z) = 0.35764 -0.11903
#
# Static dielectric constant tensor:
#      x y z
#    x 1.890010 -0.020890 0.006390 
#    y -0.020890 1.924530 -0.043830 
#    z 0.006390 -0.043830 1.946160 
# 
# From -- ./inp_files/605718.got.cif
#   From: 2010.05.17/outbox.cif.g08.bks.cpg/sg2_303_cif.got.tgz:605718.got - 2010.06.03 11:33:40.
