data_PCOD9067031
_publ_section_title
;
Structure prediction by ZEFSAII (Michael W. Deem and Ramdas Pophale) SiO2 
 PCOD9067031
Probable space group: P -1
;
_chemical_formula_sum "Si O2"
_cell_formula_units_Z 14
_cell_length_a 8.482724
_cell_length_b 7.516570
_cell_length_c 13.210964
_cell_angle_alpha 63.693552
_cell_angle_beta 129.757423
_cell_angle_gamma 121.909795
_cell_volume 542.522347
_symmetry_space_group_name_H-M "P -1"
_symmetry_group_IT_number 2
_symmetry_cell_setting 'triclinic'
loop_
_space_group_symop_operation_xyz
x,y,z
-x,-y,-z
loop_
_atom_site_type_symbol
_atom_site_label
_atom_site_fract_x
_atom_site_fract_y
_atom_site_fract_z
Si Si1 0.921570 0.135428 0.222923
Si Si2 0.006596 0.901521 0.136199
Si Si3 0.714564 0.461201 0.058980
Si Si4 0.333118 0.515104 0.205837
Si Si5 0.910612 0.161080 0.499127
Si Si6 0.718344 0.430008 0.491695
Si Si7 0.556945 0.131195 0.682489
O O1 0.131930 0.339362 0.224311
O O2 0.737108 0.235134 0.145584
O O3 0.985846 0.998500 0.368520
O O4 0.875338 0.982687 0.144032
O O5 0.909733 0.648166 0.147255
O O6 0.905586 0.655699 0.532807
O O7 0.263937 0.971353 0.248892
O O8 0.500000 0.500000 0.000000
O O9 0.722754 0.490387 0.933677
O O10 0.000000 0.000000 0.000000
O O11 0.552736 0.466813 0.332693
O O12 0.379311 0.746057 0.216303
O O13 0.839488 0.282907 0.530368
O O14 0.684688 0.034412 0.383667
O O15 0.586235 0.313385 0.564459
#
# Coordination Sequence:
#
# PCOD9067031 Si02
#       7
#     2   2   2   2   2   2   2
#     4  12  24  51  80 111 158 212 270 324 402 479
#     4  12  25  47  81 112 153 212 266 321 401 470
#     4  12  30  52  77 115 159 208 271 342 390 474
#     4  12  25  48  79 113 158 211 268 322 398 479
#     4  11  26  46  79 118 163 208 262 326 405 476
#     4  11  25  47  75 120 163 209 266 325 395 483
#     4  12  24  48  79 118 163 210 259 328 401 474
#
# _framework density 25.805389999999999
#
# number of rings (size 3 to 8) (size 9 to 14) (size 15 to 20)
#    0.000    0.286    5.714    3.000    2.000    1.143 
#    2.571    0.000    0.000    0.000    0.000    0.000 
#    0.000    0.000    0.000    0.000    0.000    0.000 
#
# Total GULP energy -78619.918410 kJ/mol
# GULP energy per Si atom -5615.708458 kJ/mol
# Density = 2.574666 g / cm^3
# Si number density = 25.805390 Si / 1000 Ang^3
#
#
#
# Elastic Constant Matrix: (Units=GPa)
#
#
# Indices 1 2 3 4 5 6 
#
# 1 147.3073 59.0205 41.3535 -5.5674 15.4981 -29.6878
# 2 59.0205 145.5869 59.1565 13.8337 -6.7398 -8.0043
# 3 41.3535 59.1565 93.8650 -1.4528 4.7069 2.7475
# 4 -5.5674 13.8337 -1.4528 46.7923 -13.7397 -0.4306
# 5 15.4981 -6.7398 4.7069 -13.7397 45.5724 -0.4989
# 6 -29.6878 -8.0043 2.7475 -0.4306 -0.4989 62.8446
#
#
#
# Elastic Compliance Matrix: (Units=1/GPa)
#
#
# Indices 1 2 3 4 5 6 
#
# 1 0.009962 -0.003076 -0.002401 0.001118 -0.003209 0.004401
# 2 -0.003076 0.010807 -0.005624 -0.003057 0.002305 0.000167
# 3 -0.002401 -0.005624 0.015412 0.001484 -0.001187 -0.002524
# 4 0.001118 -0.003057 0.001484 0.024321 0.006350 0.000291
# 5 -0.003209 0.002305 -0.001187 0.006350 0.025403 -0.000925
# 6 0.004401 0.000167 -0.002524 0.000291 -0.000925 0.018118
#
#
# Mechanical properties :
#
#
# Convention : Reuss Voigt Hill
#
# Bulk Modulus (GPa) = 71.53038 78.42446 74.97742
# Shear Modulus (GPa) = 38.20199 46.19045 42.19622
#
# Velocity S-wave (km/s) = 3.85176 4.23537 4.04811
# Velocity P-wave (km/s) = 6.89643 7.37391 7.13916
#
# Compressibility (1/GPa) = 0.01398007
#
# Stress axis : x y z
#
# Youngs Moduli (GPa) = 100.38291 92.53180 64.88464
#
# Poissons Ratio (x) = 0.28460 0.15579
# Poissons Ratio (y) = 0.30875 0.36489
# Poissons Ratio (z) = 0.24102 0.52037
#
# Static dielectric constant tensor:
#      x y z
#    x 2.059390 -0.015400 -0.017680 
#    y -0.015400 2.002610 0.008480 
#    z -0.017680 0.008480 2.007080 
# 
# From -- ./inp_files/378829.got.cif
#   From: 2010.05.17/outbox.cif.g08.bks.cpg/sg2_190_cif.got.tgz:378829.got - 2010.06.03 11:33:40.
