data_PCOD9067292
_publ_section_title
;
Structure prediction by ZEFSAII (Michael W. Deem and Ramdas Pophale) SiO2 
 PCOD9067292
Probable space group: P -1
;
_chemical_formula_sum "Si O2"
_cell_formula_units_Z 10
_cell_length_a 9.612583
_cell_length_b 8.858314
_cell_length_c 5.566593
_cell_angle_alpha 79.206913
_cell_angle_beta 69.871237
_cell_angle_gamma 113.042533
_cell_volume 380.046410
_symmetry_space_group_name_H-M "P -1"
_symmetry_group_IT_number 2
_symmetry_cell_setting 'triclinic'
loop_
_space_group_symop_operation_xyz
x,y,z
-x,-y,-z
loop_
_atom_site_type_symbol
_atom_site_label
_atom_site_fract_x
_atom_site_fract_y
_atom_site_fract_z
Si Si1 0.031313 0.188794 0.325370
Si Si2 0.398662 0.944885 0.829536
Si Si3 0.339417 0.489505 0.348715
Si Si4 0.820576 0.347173 0.240780
Si Si5 0.688542 0.763593 0.174311
O O1 0.173823 0.361352 0.330374
O O2 0.864764 0.208223 0.388950
O O3 0.131073 0.214645 0.009224
O O4 0.000000 0.000000 0.500000
O O5 0.283153 0.738080 0.916448
O O6 0.500000 0.000000 0.500000
O O7 0.291659 0.045990 0.872878
O O8 0.500000 0.000000 0.000000
O O9 0.277434 0.589085 0.543880
O O10 0.531979 0.643378 0.119823
O O11 0.368907 0.343882 0.514431
O O12 0.000000 0.500000 0.000000
#
# Coordination Sequence:
#
# PCOD9067292 Si02
#       5
#     2   2   2   2   2
#     4  12  28  45  77 114 157 199 259 331 400 459
#     4  12  30  51  80 115 158 210 263 324 397 479
#     4  11  25  48  77 107 154 206 268 313 393 474
#     4  12  27  49  75 115 154 204 260 329 396 464
#     4  11  26  47  75 108 156 202 268 311 397 466
#
# _framework density 26.312574999999999
#
# number of rings (size 3 to 8) (size 9 to 14) (size 15 to 20)
#    0.000    0.400    4.000    2.400   11.200    1.600 
#    0.000    0.000    0.000    0.000    0.000    0.000 
#    0.000    0.000    0.000    0.000    0.000    0.000 
#
# Total GULP energy -55985.696729 kJ/mol
# GULP energy per Si atom -5598.569673 kJ/mol
# Density = 2.625269 g / cm^3
# Si number density = 26.312575 Si / 1000 Ang^3
#
#
#
# Elastic Constant Matrix: (Units=GPa)
#
#
# Indices 1 2 3 4 5 6 
#
# 1 127.2564 38.7103 16.5528 17.7142 -2.0878 -0.9658
# 2 38.7103 145.7035 20.8074 9.6775 9.9246 19.5119
# 3 16.5528 20.8074 74.4211 -0.3862 -6.8111 7.6654
# 4 17.7142 9.6775 -0.3862 45.5893 2.8402 1.6541
# 5 -2.0878 9.9246 -6.8111 2.8402 40.3841 1.0093
# 6 -0.9658 19.5119 7.6654 1.6541 1.0093 71.5698
#
#
#
# Elastic Compliance Matrix: (Units=1/GPa)
#
#
# Indices 1 2 3 4 5 6 
#
# 1 0.009190 -0.002214 -0.001449 -0.003208 0.000977 0.000943
# 2 -0.002214 0.008183 -0.001804 -0.000673 -0.002332 -0.002019
# 3 -0.001449 -0.001804 0.014644 0.000938 0.002801 -0.001157
# 4 -0.003208 -0.000673 0.000938 0.023442 -0.001479 -0.000481
# 5 0.000977 -0.002332 0.002801 -0.001479 0.025962 0.000017
# 6 0.000943 -0.002019 -0.001157 -0.000481 0.000017 0.014670
#
#
# Mechanical properties :
#
#
# Convention : Reuss Voigt Hill
#
# Bulk Modulus (GPa) = 47.43521 55.50245 51.46883
# Shear Modulus (GPa) = 43.83839 49.59600 46.71720
#
# Velocity S-wave (km/s) = 4.08617 4.34623 4.21820
# Velocity P-wave (km/s) = 6.35052 6.80629 6.58235
#
# Compressibility (1/GPa) = 0.02108139
#
# Stress axis : x y z
#
# Youngs Moduli (GPa) = 108.81344 122.20137 68.28579
#
# Poissons Ratio (x) = 0.27060 0.09897
# Poissons Ratio (y) = 0.24096 0.12321
# Poissons Ratio (z) = 0.15771 0.22050
#
# Static dielectric constant tensor:
#      x y z
#    x 2.100520 0.075470 0.083610 
#    y 0.075470 2.139450 -0.035690 
#    z 0.083610 -0.035690 2.115360 
# 
# From -- ./inp_files/15787.got.cif
#   From: 2010.05.17/outbox.cif.g08.bks.cpg/sg2_8_cif.got.tgz:15787.got - 2010.06.03 11:33:40.
