data_PCOD9067780
_publ_section_title
;
Structure prediction by ZEFSAII (Michael W. Deem and Ramdas Pophale) SiO2 
 PCOD9067780
Probable space group: P -1
;
_chemical_formula_sum "Si O2"
_cell_formula_units_Z 16
_cell_length_a 11.157005
_cell_length_b 12.786444
_cell_length_c 9.560342
_cell_angle_alpha 138.327390
_cell_angle_beta 48.824540
_cell_angle_gamma 116.372903
_cell_volume 679.453653
_symmetry_space_group_name_H-M "P -1"
_symmetry_group_IT_number 2
_symmetry_cell_setting 'triclinic'
loop_
_space_group_symop_operation_xyz
x,y,z
-x,-y,-z
loop_
_atom_site_type_symbol
_atom_site_label
_atom_site_fract_x
_atom_site_fract_y
_atom_site_fract_z
Si Si1 0.912583 0.358509 0.860777
Si Si2 0.910305 0.848882 0.706280
Si Si3 0.586803 0.899842 0.616566
Si Si4 0.955510 0.837047 0.189330
Si Si5 0.565576 0.798336 0.828297
Si Si6 0.968946 0.323392 0.306544
Si Si7 0.395364 0.729889 0.390794
Si Si8 0.439945 0.587299 0.918566
O O1 0.993078 0.296582 0.593293
O O2 0.943535 0.213081 0.800096
O O3 0.729624 0.413045 0.026574
O O4 0.000000 0.500000 0.000000
O O5 0.734119 0.865330 0.794988
O O6 0.915466 0.801148 0.816421
O O7 0.993554 0.004401 0.761450
O O8 0.768638 0.856095 0.388553
O O9 0.543212 0.790277 0.671877
O O10 0.466551 0.876608 0.558249
O O11 0.564650 0.074163 0.874737
O O12 0.994540 0.702657 0.909769
O O13 0.560988 0.639765 0.761239
O O14 0.788974 0.285038 0.443758
O O15 0.000000 0.500000 0.500000
O O16 0.499165 0.578576 0.226369
O O17 0.419709 0.711935 0.187856
#
# Coordination Sequence:
#
# PCOD9067780 Si02
#       8
#     2   2   2   2   2   2   2   2
#     4  12  25  46  74 105 140 190 240 293 353 420
#     4  12  25  48  72 106 144 187 240 292 356 424
#     4  11  26  45  72 103 144 183 235 288 357 418
#     4  12  27  46  77 104 143 191 238 297 354 424
#     4  11  26  46  71 106 141 184 234 295 349 421
#     4  12  27  48  75 105 145 187 239 293 354 427
#     4  11  26  48  69 105 142 187 233 290 354 425
#     4  11  26  45  74 100 145 185 234 289 355 422
#
# _framework density 23.54833
#
# number of rings (size 3 to 8) (size 9 to 14) (size 15 to 20)
#    0.000    0.500    2.500    4.500   10.500    1.000 
#    0.000    0.000    0.000    0.000    0.000    0.000 
#    0.000    0.000    0.000    0.000    0.000    0.000 
#
# Total GULP energy -89698.867760 kJ/mol
# GULP energy per Si atom -5606.179235 kJ/mol
# Density = 2.349473 g / cm^3
# Si number density = 23.548330 Si / 1000 Ang^3
#
#
#
# Elastic Constant Matrix: (Units=GPa)
#
#
# Indices 1 2 3 4 5 6 
#
# 1 116.0184 16.6464 12.4477 -0.6437 8.9286 4.3585
# 2 16.6464 90.7995 -1.8463 -5.3845 7.6905 -5.2527
# 3 12.4477 -1.8463 67.8423 -8.2455 3.2044 15.0911
# 4 -0.6437 -5.3845 -8.2455 28.4488 -4.7257 6.0327
# 5 8.9286 7.6905 3.2044 -4.7257 34.5562 0.6545
# 6 4.3585 -5.2527 15.0911 6.0327 0.6545 31.9785
#
#
#
# Elastic Compliance Matrix: (Units=1/GPa)
#
#
# Indices 1 2 3 4 5 6 
#
# 1 0.009194 -0.001631 -0.001603 -0.000768 -0.001958 -0.000580
# 2 -0.001631 0.011687 0.000557 0.001658 -0.002035 0.001608
# 3 -0.001603 0.000557 0.018083 0.007312 -0.000205 -0.009599
# 4 -0.000768 0.001658 0.007312 0.040685 0.004921 -0.010849
# 5 -0.001958 -0.002035 -0.000205 0.004921 0.030618 -0.001526
# 6 -0.000580 0.001608 -0.009599 -0.010849 -0.001526 0.038222
#
#
# Mechanical properties :
#
#
# Convention : Reuss Voigt Hill
#
# Bulk Modulus (GPa) = 29.75359 36.57289 33.16324
# Shear Modulus (GPa) = 30.29468 35.49087 32.89278
#
# Velocity S-wave (km/s) = 3.59066 3.88642 3.74146
# Velocity P-wave (km/s) = 5.46379 5.97525 5.72524
#
# Compressibility (1/GPa) = 0.03360939
#
# Stress axis : x y z
#
# Youngs Moduli (GPa) = 108.77183 85.56257 55.30097
#
# Poissons Ratio (x) = 0.13958 0.08866
# Poissons Ratio (y) = 0.17744 -0.03082
# Poissons Ratio (z) = 0.17438 -0.04768
#
# Static dielectric constant tensor:
#      x y z
#    x 1.873020 -0.011820 0.014870 
#    y -0.011820 1.891680 0.022170 
#    z 0.014870 0.022170 1.879000 
# 
# From -- ./inp_files/263292.got.cif
#   From: 2010.05.17/outbox.cif.g08.bks.cpg/sg2_132_cif.got.tgz:263292.got - 2010.06.03 11:33:40.
