data_PCOD9067651
_publ_section_title
;
Structure prediction by ZEFSAII (Michael W. Deem and Ramdas Pophale) SiO2 
 PCOD9067651
Probable space group: P -1
;
_chemical_formula_sum "Si O2"
_cell_formula_units_Z 10
_cell_length_a 5.594454
_cell_length_b 11.966236
_cell_length_c 11.471537
_cell_angle_alpha 33.153272
_cell_angle_beta 67.020844
_cell_angle_gamma 71.490469
_cell_volume 386.586886
_symmetry_space_group_name_H-M "P -1"
_symmetry_group_IT_number 2
_symmetry_cell_setting 'triclinic'
loop_
_space_group_symop_operation_xyz
x,y,z
-x,-y,-z
loop_
_atom_site_type_symbol
_atom_site_label
_atom_site_fract_x
_atom_site_fract_y
_atom_site_fract_z
Si Si1 0.230860 0.393341 0.617270
Si Si2 0.145706 0.969977 0.655004
Si Si3 0.300003 0.299223 0.934952
Si Si4 0.490706 0.347937 0.245396
Si Si5 0.256997 0.976006 0.893322
O O1 0.500000 0.500000 0.500000
O O2 0.134829 0.346209 0.809252
O O3 0.335509 0.210699 0.677948
O O4 0.000000 0.500000 0.500000
O O5 0.301792 0.832693 0.654209
O O6 0.219132 0.212197 0.416724
O O7 0.247800 0.922295 0.807102
O O8 0.858883 0.864392 0.810632
O O9 0.409160 0.499415 0.805003
O O10 0.546043 0.173188 0.953409
O O11 0.500000 0.500000 0.000000
O O12 0.000000 0.000000 0.000000
#
# Coordination Sequence:
#
# PCOD9067651 Si02
#       5
#     2   2   2   2   2
#     4  12  28  47  77 118 163 217 271 335 415 494
#     4  11  26  47  81 114 160 211 273 334 409 494
#     4  12  26  50  81 115 162 217 270 342 406 493
#     4  11  25  53  78 115 160 212 275 340 408 482
#     4  12  25  49  77 115 163 209 271 334 410 495
#
# _framework density 25.867408000000001
#
# number of rings (size 3 to 8) (size 9 to 14) (size 15 to 20)
#    0.000    0.400    4.000    3.600    2.800    2.400 
#    3.600    0.000    0.000    0.000    0.000    0.000 
#    0.000    0.000    0.000    0.000    0.000    0.000 
#
# Total GULP energy -55842.017594 kJ/mol
# GULP energy per Si atom -5584.201759 kJ/mol
# Density = 2.580853 g / cm^3
# Si number density = 25.867408 Si / 1000 Ang^3
#
#
#
# Elastic Constant Matrix: (Units=GPa)
#
#
# Indices 1 2 3 4 5 6 
#
# 1 129.4702 65.9759 77.6337 -14.2986 -7.4594 6.8014
# 2 65.9759 149.6807 43.8768 -39.5508 1.3093 19.2078
# 3 77.6337 43.8768 177.1035 0.3420 -22.3691 8.1792
# 4 -14.2986 -39.5508 0.3420 52.9351 3.3404 -6.2229
# 5 -7.4594 1.3093 -22.3691 3.3404 67.9283 9.4018
# 6 6.8014 19.2078 8.1792 -6.2229 9.4018 41.6647
#
#
#
# Elastic Compliance Matrix: (Units=1/GPa)
#
#
# Indices 1 2 3 4 5 6 
#
# 1 0.012581 -0.004228 -0.004530 0.000383 -0.000169 0.000880
# 2 -0.004228 0.010973 -0.000851 0.006765 -0.000874 -0.002994
# 3 -0.004530 -0.000851 0.008231 -0.002235 0.002532 -0.001389
# 4 0.000383 0.006765 -0.002235 0.024368 -0.002216 0.001397
# 5 -0.000169 -0.000874 0.002532 -0.002216 0.016224 -0.004058
# 6 0.000880 -0.002994 -0.001389 0.001397 -0.004058 0.026635
#
#
# Mechanical properties :
#
#
# Convention : Reuss Voigt Hill
#
# Bulk Modulus (GPa) = 79.56494 92.35858 85.96176
# Shear Modulus (GPa) = 40.84350 50.42349 45.63349
#
# Velocity S-wave (km/s) = 3.97792 4.41988 4.20471
# Velocity P-wave (km/s) = 7.20583 7.86316 7.54166
#
# Compressibility (1/GPa) = 0.01256835
#
# Stress axis : x y z
#
# Youngs Moduli (GPa) = 79.48570 91.13133 121.48824
#
# Poissons Ratio (x) = 0.38527 0.55037
# Poissons Ratio (y) = 0.33604 0.10334
# Poissons Ratio (z) = 0.36009 0.07751
#
# Static dielectric constant tensor:
#      x y z
#    x 2.111150 -0.039280 -0.119270 
#    y -0.039280 1.917470 0.137400 
#    z -0.119270 0.137400 2.221210 
# 
# From -- ./inp_files/20625.got.cif
#   From: 2010.05.17/outbox.cif.g08.bks.cpg/sg2_11_cif.got.tgz:20625.got - 2010.06.03 11:33:40.
