data_PCOD9067011
_publ_section_title
;
Structure prediction by ZEFSAII (Michael W. Deem and Ramdas Pophale) SiO2 
 PCOD9067011
Probable space group: P -1
;
_chemical_formula_sum "Si O2"
_cell_formula_units_Z 14
_cell_length_a 7.974879
_cell_length_b 17.160914
_cell_length_c 9.124276
_cell_angle_alpha 31.255423
_cell_angle_beta 107.623414
_cell_angle_gamma 118.325028
_cell_volume 555.678960
_symmetry_space_group_name_H-M "P -1"
_symmetry_group_IT_number 2
_symmetry_cell_setting 'triclinic'
loop_
_space_group_symop_operation_xyz
x,y,z
-x,-y,-z
loop_
_atom_site_type_symbol
_atom_site_label
_atom_site_fract_x
_atom_site_fract_y
_atom_site_fract_z
Si Si1 0.715114 0.654633 0.806073
Si Si2 0.604810 0.821230 0.276065
Si Si3 0.137771 0.779646 0.739933
Si Si4 0.789535 0.842191 0.823999
Si Si5 0.044610 0.367703 0.628406
Si Si6 0.723304 0.168230 0.630675
Si Si7 0.606034 0.329772 0.822128
O O1 0.733565 0.744204 0.511274
O O2 0.915258 0.635225 0.909238
O O3 0.500000 0.500000 0.000000
O O4 0.730598 0.772725 0.756931
O O5 0.483435 0.851293 0.328983
O O6 0.447901 0.700786 0.313456
O O7 0.721945 0.988967 0.947203
O O8 0.241079 0.782499 0.607879
O O9 0.264248 0.757857 0.939141
O O10 0.136470 0.959990 0.465094
O O11 0.939259 0.775465 0.037884
O O12 0.592086 0.750499 0.011785
O O13 0.256457 0.475158 0.438494
O O14 0.000000 0.500000 0.500000
O O15 0.887887 0.291739 0.582632
#
# Coordination Sequence:
#
# PCOD9067011 Si02
#       7
#     2   2   2   2   2   2   2
#     4  12  29  46  71 109 151 193 250 310 369 435
#     4  11  25  47  75 107 148 195 249 306 363 447
#     4  12  28  49  78 110 150 202 248 309 373 445
#     4  12  27  49  75 108 154 196 253 304 374 448
#     4  12  26  46  74 110 153 199 243 307 378 444
#     4  11  26  45  78 104 149 192 255 298 374 439
#     4  12  26  47  77 111 152 195 249 305 380 440
#
# _framework density 25.194405
#
# number of rings (size 3 to 8) (size 9 to 14) (size 15 to 20)
#    0.000    0.286    2.857    4.714   10.000    1.714 
#    0.000    0.000    0.000    0.000    0.000    0.000 
#    0.000    0.000    0.000    0.000    0.000    0.000 
#
# Total GULP energy -78510.832423 kJ/mol
# GULP energy per Si atom -5607.916602 kJ/mol
# Density = 2.513706 g / cm^3
# Si number density = 25.194405 Si / 1000 Ang^3
#
#
#
# Elastic Constant Matrix: (Units=GPa)
#
#
# Indices 1 2 3 4 5 6 
#
# 1 96.6534 15.8414 21.4358 8.9409 -5.0056 3.2062
# 2 15.8414 101.6612 16.9904 12.4669 8.1270 -4.1932
# 3 21.4358 16.9904 89.4727 9.0219 23.3784 10.8777
# 4 8.9409 12.4669 9.0219 42.7218 11.9907 -8.6553
# 5 -5.0056 8.1270 23.3784 11.9907 54.0822 5.3583
# 6 3.2062 -4.1932 10.8777 -8.6553 5.3583 27.5882
#
#
#
# Elastic Compliance Matrix: (Units=1/GPa)
#
#
# Indices 1 2 3 4 5 6 
#
# 1 0.011707 -0.001345 -0.002909 -0.002777 0.003351 -0.001940
# 2 -0.001345 0.010681 -0.001534 -0.001877 -0.000844 0.001960
# 3 -0.002909 -0.001534 0.014329 -0.001450 -0.005421 -0.004947
# 4 -0.002777 -0.001877 -0.001450 0.029010 -0.006874 0.011046
# 5 0.003351 -0.000844 -0.005421 -0.006874 0.023296 -0.005062
# 6 -0.001940 0.001960 -0.004947 0.011046 -0.005062 0.043170
#
#
# Mechanical properties :
#
#
# Convention : Reuss Voigt Hill
#
# Bulk Modulus (GPa) = 39.77799 44.03582 41.90690
# Shear Modulus (GPa) = 32.86237 40.44641 36.65439
#
# Velocity S-wave (km/s) = 3.61550 4.01106 3.81840
# Velocity P-wave (km/s) = 5.76644 6.24242 6.00914
#
# Compressibility (1/GPa) = 0.02513953
#
# Stress axis : x y z
#
# Youngs Moduli (GPa) = 85.42150 93.62222 69.78851
#
# Poissons Ratio (x) = 0.12596 0.20301
# Poissons Ratio (y) = 0.11493 0.10708
# Poissons Ratio (z) = 0.24848 0.14365
#
# Static dielectric constant tensor:
#      x y z
#    x 2.062050 -0.018510 0.023630 
#    y -0.018510 1.930690 -0.021490 
#    z 0.023630 -0.021490 2.004570 
# 
# From -- ./inp_files/216365.got.cif
#   From: 2010.05.17/outbox.cif.g08.bks.cpg/sg2_109_cif.got.tgz:216365.got - 2010.06.03 11:33:40.
