data_PCOD9067054
_publ_section_title
;
Structure prediction by ZEFSAII (Michael W. Deem and Ramdas Pophale) SiO2 
 PCOD9067054
Probable space group: P -1
;
_chemical_formula_sum "Si O2"
_cell_formula_units_Z 15
_cell_length_a 20.583045
_cell_length_b 8.840599
_cell_length_c 7.407865
_cell_angle_alpha 54.676795
_cell_angle_beta 141.887749
_cell_angle_gamma 136.026576
_cell_volume 577.439761
_symmetry_space_group_name_H-M "P -1"
_symmetry_group_IT_number 2
_symmetry_cell_setting 'triclinic'
loop_
_space_group_symop_operation_xyz
x,y,z
-x,-y,-z
loop_
_atom_site_type_symbol
_atom_site_label
_atom_site_fract_x
_atom_site_fract_y
_atom_site_fract_z
Si Si1 0.875923 0.297066 0.952711
Si Si2 0.977086 0.268778 0.556967
Si Si3 0.818507 0.637227 0.597886
Si Si4 0.000000 0.000000 0.000000
Si Si5 0.622722 0.736046 0.126985
Si Si6 0.425250 0.896473 0.088639
Si Si7 0.345142 0.134089 0.294462
Si Si8 0.762992 0.591443 0.073604
O O1 0.922243 0.215636 0.276024
O O2 0.805323 0.414174 0.789609
O O3 0.000000 0.500000 0.000000
O O4 0.772616 0.098736 0.746583
O O5 0.108045 0.274005 0.850193
O O6 0.000000 0.500000 0.500000
O O7 0.908947 0.094015 0.681180
O O8 0.800241 0.615018 0.353487
O O9 0.946965 0.836448 0.812946
O O10 0.716302 0.668107 0.449349
O O11 0.675553 0.835545 0.978988
O O12 0.601237 0.918671 0.035239
O O13 0.500000 0.500000 0.000000
O O14 0.526333 0.858832 0.434482
O O15 0.304189 0.660583 0.953336
O O16 0.500000 0.000000 0.000000
O O17 0.328894 0.320585 0.221694
#
# Coordination Sequence:
#
# PCOD9067054 Si02
#       8
#     2   2   2   1   2   2   2   2
#     4  12  25  47  79 106 153 202 255 318 382 459
#     4  12  27  45  72 112 154 197 259 305 387 453
#     4  11  25  48  73 107 149 193 259 305 389 447
#     4  12  28  44  74 108 154 198 252 316 370 466
#     4  11  25  47  77 105 150 197 252 317 383 458
#     4  12  26  46  75 108 148 191 251 314 388 457
#     4  11  26  47  73 108 145 197 257 312 389 451
#     4  11  26  46  75 105 148 200 249 317 382 457
#
# _framework density 25.976735000000001
#
# number of rings (size 3 to 8) (size 9 to 14) (size 15 to 20)
#    0.000    0.533    2.667    5.600    5.600    3.200 
#    0.000    0.000    0.000    0.000    0.000    0.000 
#    0.000    0.000    0.000    0.000    0.000    0.000 
#
# Total GULP energy -83656.931473 kJ/mol
# GULP energy per Si atom -5577.128765 kJ/mol
# Density = 2.591761 g / cm^3
# Si number density = 25.976735 Si / 1000 Ang^3
#
#
#
# Elastic Constant Matrix: (Units=GPa)
#
#
# Indices 1 2 3 4 5 6 
#
# 1 85.4687 27.2254 19.0489 3.1256 20.9648 -24.8101
# 2 27.2254 192.7509 41.1737 9.0489 23.0382 -32.4685
# 3 19.0489 41.1737 127.9807 -18.1661 18.1767 -13.0767
# 4 3.1256 9.0489 -18.1661 60.0941 -5.3739 16.5021
# 5 20.9648 23.0382 18.1767 -5.3739 47.6151 -10.6301
# 6 -24.8101 -32.4685 -13.0767 16.5021 -10.6301 42.9454
#
#
#
# Elastic Compliance Matrix: (Units=1/GPa)
#
#
# Indices 1 2 3 4 5 6 
#
# 1 0.016097 0.000492 -0.001475 -0.004471 -0.005107 0.009676
# 2 0.000492 0.006880 -0.001909 -0.003383 -0.001919 0.005729
# 3 -0.001475 -0.001909 0.009260 0.003331 -0.001857 -0.001215
# 4 -0.004471 -0.003383 0.003331 0.021877 0.002122 -0.012007
# 5 -0.005107 -0.001919 -0.001857 0.002122 0.025231 0.000463
# 6 0.009676 0.005729 -0.001215 -0.012007 0.000463 0.037565
#
#
# Mechanical properties :
#
#
# Convention : Reuss Voigt Hill
#
# Bulk Modulus (GPa) = 37.80335 64.56625 51.18480
# Shear Modulus (GPa) = 38.01979 51.38108 44.70043
#
# Velocity S-wave (km/s) = 3.82986 4.45226 4.15274
# Velocity P-wave (km/s) = 5.84307 7.16516 6.53762
#
# Compressibility (1/GPa) = 0.02645268
#
# Stress axis : x y z
#
# Youngs Moduli (GPa) = 62.12246 145.35693 107.99514
#
# Poissons Ratio (x) = -0.07144 0.15926
# Poissons Ratio (y) = -0.03053 0.20613
# Poissons Ratio (z) = 0.09161 0.27745
#
# Static dielectric constant tensor:
#      x y z
#    x 2.005350 -0.256140 0.109940 
#    y -0.256140 2.404380 -0.526320 
#    z 0.109940 -0.526320 2.298260 
# 
# From -- ./inp_files/352096.got.cif
#   From: 2010.05.17/outbox.cif.g08.bks.cpg/sg2_177_cif.got.tgz:352096.got - 2010.06.03 11:33:40.
