data_PCOD9067481
_publ_section_title
;
Structure prediction by ZEFSAII (Michael W. Deem and Ramdas Pophale) SiO2 
 PCOD9067481
Probable space group: P -1
;
_chemical_formula_sum "Si O2"
_cell_formula_units_Z 14
_cell_length_a 4.980568
_cell_length_b 24.148164
_cell_length_c 6.670911
_cell_angle_alpha 63.231591
_cell_angle_beta 47.592889
_cell_angle_gamma 70.776042
_cell_volume 528.528300
_symmetry_space_group_name_H-M "P -1"
_symmetry_group_IT_number 2
_symmetry_cell_setting 'triclinic'
loop_
_space_group_symop_operation_xyz
x,y,z
-x,-y,-z
loop_
_atom_site_type_symbol
_atom_site_label
_atom_site_fract_x
_atom_site_fract_y
_atom_site_fract_z
Si Si1 0.791647 0.043799 0.377083
Si Si2 0.212841 0.126911 0.733733
Si Si3 0.177326 0.247687 0.837437
Si Si4 0.500000 0.500000 0.500000
Si Si5 0.231652 0.334744 0.331100
Si Si6 0.779540 0.420218 0.118670
Si Si7 0.017781 0.771971 0.587528
Si Si8 0.000000 0.500000 0.500000
O O1 0.596386 0.100116 0.505732
O O2 0.500000 0.000000 0.500000
O O3 0.000000 0.000000 0.500000
O O4 0.022678 0.072122 0.034944
O O5 0.186381 0.185015 0.803248
O O6 0.027030 0.157645 0.579802
O O7 0.062663 0.306775 0.665246
O O8 0.606787 0.255890 0.645320
O O9 0.991833 0.235833 0.159249
O O10 0.486448 0.465841 0.309088
O O11 0.237655 0.552078 0.421275
O O12 0.571243 0.372638 0.169045
O O13 0.289522 0.271486 0.275461
O O14 0.009827 0.380825 0.223052
O O15 0.036096 0.464947 0.787848
#
# Coordination Sequence:
#
# PCOD9067481 Si02
#       8
#     2   2   2   1   2   2   2   1
#     4  12  28  48  76 114 164 214 270 318 384 450
#     4  11  26  46  78 114 158 212 265 330 386 468
#     4  11  25  49  81 113 156 204 261 320 415 458
#     4  12  26  48  76 104 146 196 250 298 386 458
#     4  11  26  49  76 110 156 193 251 326 392 472
#     4  12  26  51  76 112 150 199 252 322 380 482
#     4  11  25  49  81 113 156 204 261 320 415 458
#     4  12  26  48  76 104 146 196 250 298 386 458
#
# _framework density 26.48865
#
# number of rings (size 3 to 8) (size 9 to 14) (size 15 to 20)
#    0.000    0.571    1.429    5.143    6.000    6.857 
#    5.143    0.000    0.000    0.000    0.000    0.000 
#    0.000    0.000    0.000    0.000    0.000    0.000 
#
# Total GULP energy -78187.478066 kJ/mol
# GULP energy per Si atom -5584.819862 kJ/mol
# Density = 2.642836 g / cm^3
# Si number density = 26.488650 Si / 1000 Ang^3
#
#
#
# Elastic Constant Matrix: (Units=GPa)
#
#
# Indices 1 2 3 4 5 6 
#
# 1 211.4347 41.2805 54.5123 -13.7563 53.7411 -1.5659
# 2 41.2805 85.4922 55.3821 -13.8447 20.3384 -5.8335
# 3 54.5123 55.3821 207.7710 -20.3577 20.0409 -34.2038
# 4 -13.7563 -13.8447 -20.3577 50.0701 -11.8113 9.9049
# 5 53.7411 20.3384 20.0409 -11.8113 50.8235 -11.8824
# 6 -1.5659 -5.8335 -34.2038 9.9049 -11.8824 55.0457
#
#
#
# Elastic Compliance Matrix: (Units=1/GPa)
#
#
# Indices 1 2 3 4 5 6 
#
# 1 0.007030 -0.001075 -0.001249 -0.000102 -0.007047 -0.002193
# 2 -0.001075 0.015641 -0.003629 0.002050 -0.003632 -0.001781
# 3 -0.001249 -0.003629 0.006712 0.000912 0.001239 0.003854
# 4 -0.000102 0.002050 0.000912 0.022196 0.003513 -0.002454
# 5 -0.007047 -0.003632 0.001239 0.003513 0.030335 0.006101
# 6 -0.002193 -0.001781 0.003854 -0.002454 0.006101 0.022069
#
#
# Mechanical properties :
#
#
# Convention : Reuss Voigt Hill
#
# Bulk Modulus (GPa) = 57.21810 89.67195 73.44503
# Shear Modulus (GPa) = 41.07931 54.75607 47.91769
#
# Velocity S-wave (km/s) = 3.94233 4.55153 4.25784
# Velocity P-wave (km/s) = 6.50926 7.84527 7.20829
#
# Compressibility (1/GPa) = 0.01747699
#
# Stress axis : x y z
#
# Youngs Moduli (GPa) = 142.25152 63.93270 148.97669
#
# Poissons Ratio (x) = 0.06872 0.18610
# Poissons Ratio (y) = 0.15290 0.54068
# Poissons Ratio (z) = 0.17770 0.23203
#
# Static dielectric constant tensor:
#      x y z
#    x 3.307760 -0.123270 -0.065100 
#    y -0.123270 2.097560 0.040840 
#    z -0.065100 0.040840 2.392400 
# 
# From -- ./inp_files/11894.got.cif
#   From: 2010.05.17/outbox.cif.g08.bks.cpg/sg2_6_cif.got.tgz:11894.got - 2010.06.03 11:33:40.
