data_PCOD9067901
_publ_section_title
;
Structure prediction by ZEFSAII (Michael W. Deem and Ramdas Pophale) SiO2 
 PCOD9067901
Probable space group: P -1
;
_chemical_formula_sum "Si O2"
_cell_formula_units_Z 15
_cell_length_a 6.807134
_cell_length_b 19.624176
_cell_length_c 9.144101
_cell_angle_alpha 142.198574
_cell_angle_beta 52.341234
_cell_angle_gamma 119.211155
_cell_volume 592.679752
_symmetry_space_group_name_H-M "P -1"
_symmetry_group_IT_number 2
_symmetry_cell_setting 'triclinic'
loop_
_space_group_symop_operation_xyz
x,y,z
-x,-y,-z
loop_
_atom_site_type_symbol
_atom_site_label
_atom_site_fract_x
_atom_site_fract_y
_atom_site_fract_z
Si Si1 0.691765 0.570597 0.849336
Si Si2 0.025543 0.745254 0.380130
Si Si3 0.046843 0.841725 0.007603
Si Si4 0.500000 0.500000 0.500000
Si Si5 0.828889 0.314201 0.093942
Si Si6 0.740030 0.340390 0.611135
Si Si7 0.717667 0.933028 0.712604
Si Si8 0.466669 0.111234 0.609250
O O1 0.565055 0.551690 0.720131
O O2 0.733765 0.454195 0.716858
O O3 0.963473 0.623660 0.798815
O O4 0.515680 0.648865 0.161974
O O5 0.038363 0.667178 0.383093
O O6 0.270878 0.824613 0.412897
O O7 0.796463 0.824647 0.584036
O O8 0.064171 0.674072 0.096853
O O9 0.161634 0.809214 0.058473
O O10 0.206313 0.768017 0.696679
O O11 0.752336 0.818617 0.094904
O O12 0.066391 0.974199 0.213979
O O13 0.574786 0.376268 0.318561
O O14 0.639510 0.909829 0.541961
O O15 0.500000 0.000000 0.000000
O O16 0.500000 0.000000 0.500000
#
# Coordination Sequence:
#
# PCOD9067901 Si02
#       8
#     2   2   2   1   2   2   2   2
#     4  11  26  51  71 107 149 181 242 306 351 439
#     4  12  26  48  72 108 148 197 236 295 366 427
#     4  12  25  46  74 107 143 191 244 297 356 427
#     4  12  24  48  76 102 138 190 240 296 358 420
#     4  12  26  46  76 106 142 189 245 294 358 431
#     4  11  26  46  72 108 148 187 236 296 368 426
#     4  12  28  47  71 107 150 189 242 300 356 432
#     4  12  25  46  73 102 148 189 247 299 345 424
#
# _framework density 25.308776999999999
#
# number of rings (size 3 to 8) (size 9 to 14) (size 15 to 20)
#    0.000    0.267    5.333    3.200    3.733    1.600 
#    2.400    0.000    0.000    0.000    0.000    0.000 
#    0.000    0.000    0.000    0.000    0.000    0.000 
#
# Total GULP energy -83695.514216 kJ/mol
# GULP energy per Si atom -5579.700948 kJ/mol
# Density = 2.525117 g / cm^3
# Si number density = 25.308777 Si / 1000 Ang^3
#
#
#
# Elastic Constant Matrix: (Units=GPa)
#
#
# Indices 1 2 3 4 5 6 
#
# 1 126.3422 41.5961 70.8910 -2.1500 -16.2573 -37.3152
# 2 41.5961 54.7877 21.3842 7.2388 -9.8535 -28.2202
# 3 70.8910 21.3842 128.3612 -1.2060 -0.2174 -7.5811
# 4 -2.1500 7.2388 -1.2060 37.0170 -10.0731 -12.1139
# 5 -16.2573 -9.8535 -0.2174 -10.0731 46.7901 8.5055
# 6 -37.3152 -28.2202 -7.5811 -12.1139 8.5055 54.0826
#
#
#
# Elastic Compliance Matrix: (Units=1/GPa)
#
#
# Indices 1 2 3 4 5 6 
#
# 1 0.017663 -0.005688 -0.008231 0.005963 0.004608 0.008676
# 2 -0.005688 0.028862 -0.001081 -0.002185 0.001769 0.010216
# 3 -0.008231 -0.001081 0.012222 -0.002088 -0.002648 -0.004581
# 4 0.005963 -0.002185 -0.002088 0.032525 0.006992 0.008867
# 5 0.004608 0.001769 -0.002648 0.006992 0.024578 0.001432
# 6 0.008676 0.010216 -0.004581 0.008867 0.001432 0.030926
#
#
# Mechanical properties :
#
#
# Convention : Reuss Voigt Hill
#
# Bulk Modulus (GPa) = 34.78669 64.13709 49.46189
# Shear Modulus (GPa) = 26.83015 39.28593 33.05804
#
# Velocity S-wave (km/s) = 3.25947 3.94415 3.61804
# Velocity P-wave (km/s) = 5.28586 6.79254 6.08601
#
# Compressibility (1/GPa) = 0.02874663
#
# Stress axis : x y z
#
# Youngs Moduli (GPa) = 56.61564 34.64803 81.82121
#
# Poissons Ratio (x) = 0.19707 0.67348
# Poissons Ratio (y) = 0.32201 0.08846
# Poissons Ratio (z) = 0.46601 0.03746
#
# Static dielectric constant tensor:
#      x y z
#    x 2.025660 0.082510 -0.002310 
#    y 0.082510 2.180400 -0.029370 
#    z -0.002310 -0.029370 2.051370 
# 
# From -- ./inp_files/38567.got.cif
#   From: 2010.05.17/outbox.cif.g08.bks.cpg/sg2_20_cif.got.tgz:38567.got - 2010.06.03 11:33:40.
