data_PCOD9067776
_publ_section_title
;
Structure prediction by ZEFSAII (Michael W. Deem and Ramdas Pophale) SiO2 
 PCOD9067776
Probable space group: P -1
;
_chemical_formula_sum "Si O2"
_cell_formula_units_Z 16
_cell_length_a 14.830070
_cell_length_b 8.978373
_cell_length_c 8.448454
_cell_angle_alpha 71.089718
_cell_angle_beta 74.929287
_cell_angle_gamma 39.536658
_cell_volume 677.342587
_symmetry_space_group_name_H-M "P -1"
_symmetry_group_IT_number 2
_symmetry_cell_setting 'triclinic'
loop_
_space_group_symop_operation_xyz
x,y,z
-x,-y,-z
loop_
_atom_site_type_symbol
_atom_site_label
_atom_site_fract_x
_atom_site_fract_y
_atom_site_fract_z
Si Si1 0.303679 0.568670 0.127845
Si Si2 0.437158 0.304195 0.681679
Si Si3 0.041608 0.687199 0.305193
Si Si4 0.289605 0.919169 0.191379
Si Si5 0.002927 0.385977 0.306453
Si Si6 0.269309 0.232785 0.850887
Si Si7 0.569378 0.134537 0.349171
Si Si8 0.258124 0.765603 0.737475
O O1 0.451010 0.307773 0.208575
O O2 0.177198 0.610208 0.210746
O O3 0.287594 0.752315 0.168267
O O4 0.299576 0.621111 0.928521
O O5 0.381634 0.226795 0.834157
O O6 0.493922 0.177245 0.529444
O O7 0.304057 0.592349 0.633571
O O8 0.565776 0.232641 0.729145
O O9 0.054369 0.615765 0.505056
O O10 0.021100 0.551121 0.263806
O O11 0.902632 0.973602 0.263407
O O12 0.153957 0.116945 0.295756
O O13 0.278178 0.071895 0.013948
O O14 0.890318 0.500975 0.178417
O O15 0.308872 0.125912 0.692242
O O16 0.644358 0.204543 0.327270
#
# Coordination Sequence:
#
# PCOD9067776 Si02
#       8
#     2   2   2   2   2   2   2   2
#     4  12  26  44  72 103 135 181 222 281 340 398
#     4  12  28  42  73 103 133 182 228 280 334 401
#     4  11  26  45  72 100 135 180 225 278 338 401
#     4  12  26  45  70 102 140 175 227 281 334 402
#     4  11  26  46  70 100 138 177 225 279 336 404
#     4  12  26  47  69 101 138 182 223 280 339 399
#     4  12  24  47  70  97 141 176 227 280 338 398
#     4  12  24  47  70  98 140 177 227 279 337 398
#
# _framework density 23.621725999999999
#
# number of rings (size 3 to 8) (size 9 to 14) (size 15 to 20)
#    0.000    0.250    3.750    4.500    8.750    0.500 
#    0.000    0.000    0.000    0.000    0.000    0.000 
#    0.000    0.000    0.000    0.000    0.000    0.000 
#
# Total GULP energy -89699.924294 kJ/mol
# GULP energy per Si atom -5606.245268 kJ/mol
# Density = 2.356796 g / cm^3
# Si number density = 23.621726 Si / 1000 Ang^3
#
#
#
# Elastic Constant Matrix: (Units=GPa)
#
#
# Indices 1 2 3 4 5 6 
#
# 1 65.7218 0.4943 18.2452 -5.6051 -30.8075 -1.3309
# 2 0.4943 91.6791 -7.4926 -1.2714 10.6523 -15.2658
# 3 18.2452 -7.4926 64.5665 -0.9740 -12.3676 -3.4626
# 4 -5.6051 -1.2714 -0.9740 28.1336 -1.7338 7.3270
# 5 -30.8075 10.6523 -12.3676 -1.7338 36.4937 5.2721
# 6 -1.3309 -15.2658 -3.4626 7.3270 5.2721 34.7598
#
#
#
# Elastic Compliance Matrix: (Units=1/GPa)
#
#
# Indices 1 2 3 4 5 6 
#
# 1 0.029221 -0.004584 -0.004039 0.008942 0.026093 -0.007139
# 2 -0.004584 0.013285 0.001588 -0.002780 -0.008452 0.007685
# 3 -0.004039 0.001588 0.017231 -0.000593 0.001629 0.002137
# 4 0.008942 -0.002780 -0.000593 0.040854 0.011737 -0.011330
# 5 0.026093 -0.008452 0.001629 0.011737 0.054936 -0.013357
# 6 -0.007139 0.007685 0.002137 -0.011330 -0.013357 0.036498
#
#
# Mechanical properties :
#
#
# Convention : Reuss Voigt Hill
#
# Bulk Modulus (GPa) = 21.89731 27.16236 24.52983
# Shear Modulus (GPa) = 22.59190 33.92546 28.25868
#
# Velocity S-wave (km/s) = 3.09593 3.79383 3.46251
# Velocity P-wave (km/s) = 4.69785 5.54209 5.13734
#
# Compressibility (1/GPa) = 0.04566772
#
# Stress axis : x y z
#
# Youngs Moduli (GPa) = 34.22200 75.27099 58.03368
#
# Poissons Ratio (x) = 0.34506 0.23440
# Poissons Ratio (y) = 0.15688 -0.09218
# Poissons Ratio (z) = 0.13822 -0.11956
#
# Static dielectric constant tensor:
#      x y z
#    x 1.852820 0.011560 0.013910 
#    y 0.011560 1.869090 0.011790 
#    z 0.013910 0.011790 1.879890 
# 
# From -- ./inp_files/184125.got.cif
#   From: 2010.05.17/outbox.cif.g08.bks.cpg/sg2_93_cif.got.tgz:184125.got - 2010.06.03 11:33:40.
