data_PCOD9067917
_publ_section_title
;
Structure prediction by ZEFSAII (Michael W. Deem and Ramdas Pophale) SiO2 
 PCOD9067917
Probable space group: P -1
;
_chemical_formula_sum "Si O2"
_cell_formula_units_Z 13
_cell_length_a 12.032011
_cell_length_b 9.678819
_cell_length_c 9.367675
_cell_angle_alpha 78.897780
_cell_angle_beta 130.076078
_cell_angle_gamma 131.745497
_cell_volume 567.069899
_symmetry_space_group_name_H-M "P -1"
_symmetry_group_IT_number 2
_symmetry_cell_setting 'triclinic'
loop_
_space_group_symop_operation_xyz
x,y,z
-x,-y,-z
loop_
_atom_site_type_symbol
_atom_site_label
_atom_site_fract_x
_atom_site_fract_y
_atom_site_fract_z
Si Si1 0.194409 0.737810 0.905456
Si Si2 0.500000 0.500000 0.000000
Si Si3 0.775972 0.562221 0.970232
Si Si4 0.183809 0.333970 0.319363
Si Si5 0.464302 0.691658 0.692988
Si Si6 0.331116 0.881860 0.673624
Si Si7 0.821450 0.989416 0.695905
O O1 0.138423 0.536039 0.924959
O O2 0.206382 0.778128 0.738751
O O3 0.032271 0.730349 0.845093
O O4 0.426765 0.920236 0.124825
O O5 0.608328 0.474490 0.971444
O O6 0.450069 0.325493 0.093167
O O7 0.692798 0.530403 0.748062
O O8 0.964807 0.803876 0.100392
O O9 0.310013 0.472032 0.534227
O O10 0.149780 0.144529 0.320347
O O11 0.333595 0.737911 0.617963
O O12 0.644542 0.857452 0.697562
O O13 0.244240 0.946500 0.492983
#
# Coordination Sequence:
#
# PCOD9067917 Si02
#       7
#     2   1   2   2   2   2   2
#     4  11  26  46  73 107 148 191 240 296 360 425
#     4  12  28  44  82 104 146 186 242 304 352 424
#     4  12  26  49  74 106 147 189 241 296 363 421
#     4  12  27  45  76 106 145 188 242 295 359 428
#     4  12  26  49  74 106 147 189 241 296 363 421
#     4  11  26  46  73 107 148 191 240 296 360 425
#     4  12  27  45  76 106 145 188 242 295 359 428
#
# _framework density 22.924862999999998
#
# number of rings (size 3 to 8) (size 9 to 14) (size 15 to 20)
#    0.000    0.308    3.077    4.615    6.462    1.846 
#    0.000    0.000    0.000    0.000    0.000    0.000 
#    0.000    0.000    0.000    0.000    0.000    0.000 
#
# Total GULP energy -72650.845113 kJ/mol
# GULP energy per Si atom -5588.526547 kJ/mol
# Density = 2.287268 g / cm^3
# Si number density = 22.924863 Si / 1000 Ang^3
#
#
#
# Elastic Constant Matrix: (Units=GPa)
#
#
# Indices 1 2 3 4 5 6 
#
# 1 136.9902 38.3033 28.6179 -7.9834 -9.8109 -38.2330
# 2 38.3033 120.1110 29.5877 -21.4125 -11.4701 -33.1971
# 3 28.6179 29.5877 32.7089 -6.0363 -0.3309 -4.9197
# 4 -7.9834 -21.4125 -6.0363 44.0103 -10.5460 11.9919
# 5 -9.8109 -11.4701 -0.3309 -10.5460 22.8218 -4.0939
# 6 -38.2330 -33.1971 -4.9197 11.9919 -4.0939 39.3603
#
#
#
# Elastic Compliance Matrix: (Units=1/GPa)
#
#
# Indices 1 2 3 4 5 6 
#
# 1 0.014939 0.005355 -0.014803 0.001427 0.012801 0.018074
# 2 0.005355 0.019276 -0.017759 0.007164 0.018447 0.018975
# 3 -0.014803 -0.017759 0.055442 -0.001924 -0.019659 -0.023886
# 4 0.001427 0.007164 -0.001924 0.030657 0.018309 -0.000248
# 5 0.012801 0.018447 -0.019659 0.018309 0.071685 0.027413
# 6 0.018074 0.018975 -0.023886 -0.000248 0.027413 0.058907
#
#
# Mechanical properties :
#
#
# Convention : Reuss Voigt Hill
#
# Bulk Modulus (GPa) = 28.37455 53.64753 41.01104
# Shear Modulus (GPa) = 15.76950 34.12522 24.94736
#
# Velocity S-wave (km/s) = 2.62559 3.86238 3.30240
# Velocity P-wave (km/s) = 4.64712 6.58353 5.69818
#
# Compressibility (1/GPa) = 0.03524285
#
# Stress axis : x y z
#
# Youngs Moduli (GPa) = 66.93813 51.87848 18.03695
#
# Poissons Ratio (x) = -0.27779 0.26700
# Poissons Ratio (y) = -0.35843 0.32031
# Poissons Ratio (z) = 0.99088 0.92129
#
# Static dielectric constant tensor:
#      x y z
#    x 1.816910 -0.018060 0.008530 
#    y -0.018060 1.819230 0.017090 
#    z 0.008530 0.017090 1.873480 
# 
# From -- ./inp_files/148337.got.cif
#   From: 2010.05.17/outbox.cif.g08.bks.cpg/sg2_75_cif.got.tgz:148337.got - 2010.06.03 11:33:40.
