data_PCOD9067444
_publ_section_title
;
Structure prediction by ZEFSAII (Michael W. Deem and Ramdas Pophale) SiO2 
 PCOD9067444
Probable space group: P -1
;
_chemical_formula_sum "Si O2"
_cell_formula_units_Z 16
_cell_length_a 7.226580
_cell_length_b 25.985520
_cell_length_c 5.007010
_cell_angle_alpha 85.698858
_cell_angle_beta 74.478696
_cell_angle_gamma 46.637483
_cell_volume 650.670289
_symmetry_space_group_name_H-M "P -1"
_symmetry_group_IT_number 2
_symmetry_cell_setting 'triclinic'
loop_
_space_group_symop_operation_xyz
x,y,z
-x,-y,-z
loop_
_atom_site_type_symbol
_atom_site_label
_atom_site_fract_x
_atom_site_fract_y
_atom_site_fract_z
Si Si1 0.511046 0.782080 0.134289
Si Si2 0.122170 0.281723 0.495394
Si Si3 0.691852 0.426685 0.291149
Si Si4 0.915520 0.220865 0.903968
Si Si5 0.783129 0.931727 0.038174
Si Si6 0.887202 0.578233 0.061467
Si Si7 0.952954 0.068132 0.555923
Si Si8 0.520030 0.641710 0.692176
O O1 0.290687 0.779953 0.156005
O O2 0.341665 0.863405 0.256327
O O3 0.998021 0.748637 0.329583
O O4 0.685520 0.761226 0.815543
O O5 0.885691 0.361879 0.452024
O O6 0.541157 0.407377 0.217133
O O7 0.298661 0.270076 0.676661
O O8 0.500000 0.500000 0.500000
O O9 0.319514 0.384578 0.632210
O O10 0.131577 0.572362 0.979299
O O11 0.165321 0.138549 0.915368
O O12 0.753888 0.276168 0.191935
O O13 0.846704 0.949096 0.283754
O O14 0.997095 0.909837 0.743405
O O15 0.500000 0.000000 0.000000
O O16 0.718118 0.624753 0.848932
O O17 0.000000 0.500000 0.000000
O O18 0.000000 0.000000 0.500000
#
# Coordination Sequence:
#
# PCOD9067444 Si02
#       8
#     2   2   2   2   2   2   2   2
#     4  11  27  53  79 111 159 201 263 322 377 472
#     4  12  28  50  80 116 148 213 255 322 392 456
#     4  12  29  51  77 114 157 197 261 316 388 470
#     4  11  28  52  81 115 161 200 266 318 392 456
#     4  11  26  49  78 115 158 210 254 324 392 467
#     4  12  28  51  78 109 151 203 251 317 390 453
#     4  11  25  49  77 115 158 206 257 324 395 454
#     4  12  28  51  77 113 150 202 254 322 380 458
#
# _framework density 24.590026000000002
#
# number of rings (size 3 to 8) (size 9 to 14) (size 15 to 20)
#    0.000    0.500    1.250    4.875    1.750   17.500 
#    2.250    0.000    0.000    0.000    0.000    0.000 
#    0.000    0.000    0.000    0.000    0.000    0.000 
#
# Total GULP energy -89837.198800 kJ/mol
# GULP energy per Si atom -5614.824925 kJ/mol
# Density = 2.453406 g / cm^3
# Si number density = 24.590026 Si / 1000 Ang^3
#
#
#
# Elastic Constant Matrix: (Units=GPa)
#
#
# Indices 1 2 3 4 5 6 
#
# 1 107.0190 36.0809 36.7643 12.9055 -24.6374 20.7855
# 2 36.0809 181.0856 48.4271 21.4763 -20.2347 24.9996
# 3 36.7643 48.4271 139.0506 11.4588 -11.8100 16.6849
# 4 12.9055 21.4763 11.4588 45.6162 0.2137 6.8019
# 5 -24.6374 -20.2347 -11.8100 0.2137 40.2485 -4.8976
# 6 20.7855 24.9996 16.6849 6.8019 -4.8976 41.7583
#
#
#
# Elastic Compliance Matrix: (Units=1/GPa)
#
#
# Indices 1 2 3 4 5 6 
#
# 1 0.012758 -0.000436 -0.001978 -0.002318 0.006516 -0.004157
# 2 -0.000436 0.006953 -0.001586 -0.002370 0.002455 -0.002638
# 3 -0.001978 -0.001586 0.008506 -0.000635 0.000330 -0.001323
# 4 -0.002318 -0.002370 -0.000635 0.024085 -0.003102 -0.001461
# 5 0.006516 0.002455 0.000330 -0.003102 0.030083 -0.000812
# 6 -0.004157 -0.002638 -0.001323 -0.001461 -0.000812 0.028267
#
#
# Mechanical properties :
#
#
# Convention : Reuss Voigt Hill
#
# Bulk Modulus (GPa) = 49.46411 74.41108 61.93759
# Shear Modulus (GPa) = 39.87545 45.91679 42.89612
#
# Velocity S-wave (km/s) = 4.03129 4.32591 4.18119
# Velocity P-wave (km/s) = 6.46743 7.43489 6.96797
#
# Compressibility (1/GPa) = 0.02021668
#
# Stress axis : x y z
#
# Youngs Moduli (GPa) = 78.38425 143.82808 117.56484
#
# Poissons Ratio (x) = 0.06272 0.23254
# Poissons Ratio (y) = 0.03418 0.18644
# Poissons Ratio (z) = 0.15504 0.22809
#
# Static dielectric constant tensor:
#      x y z
#    x 1.976890 -0.029970 0.002160 
#    y -0.029970 1.978050 0.018890 
#    z 0.002160 0.018890 1.909240 
# 
# From -- ./inp_files/14542.got.cif
#   From: 2010.05.17/outbox.cif.g08.bks.cpg/sg2_8_cif.got.tgz:14542.got - 2010.06.03 11:33:40.
