data_PCOD9067959
_publ_section_title
;
Structure prediction by ZEFSAII (Michael W. Deem and Ramdas Pophale) SiO2 
 PCOD9067959
Probable space group: P -1
;
_chemical_formula_sum "Si O2"
_cell_formula_units_Z 12
_cell_length_a 9.227531
_cell_length_b 13.727589
_cell_length_c 5.134602
_cell_angle_alpha 124.460242
_cell_angle_beta 89.993613
_cell_angle_gamma 86.145902
_cell_volume 534.486320
_symmetry_space_group_name_H-M "P -1"
_symmetry_group_IT_number 2
_symmetry_cell_setting 'triclinic'
loop_
_space_group_symop_operation_xyz
x,y,z
-x,-y,-z
loop_
_atom_site_type_symbol
_atom_site_label
_atom_site_fract_x
_atom_site_fract_y
_atom_site_fract_z
Si Si1 0.486560 0.833670 0.797289
Si Si2 0.342479 0.101773 0.596429
Si Si3 0.798577 0.057294 0.271889
Si Si4 0.428686 0.443927 0.666564
Si Si5 0.081760 0.442565 0.661205
Si Si6 0.082256 0.176287 0.405874
O O1 0.567680 0.904867 0.680819
O O2 0.317622 0.869548 0.800688
O O3 0.526537 0.695990 0.534424
O O4 0.557133 0.854855 0.109324
O O5 0.199893 0.186047 0.650025
O O6 0.279017 0.983913 0.529602
O O7 0.930936 0.135549 0.448177
O O8 0.857281 0.934081 0.944348
O O9 0.500000 0.500000 0.500000
O O10 0.253271 0.463123 0.692874
O O11 0.500000 0.500000 0.000000
O O12 0.068544 0.301114 0.451729
O O13 0.000000 0.500000 0.500000
O O14 0.000000 0.500000 0.000000
#
# Coordination Sequence:
#
# PCOD9067959 Si02
#       6
#     2   2   2   2   2   2
#     4  12  27  45  78 105 150 189 244 304 371 433
#     4  12  23  48  70 107 146 189 234 297 371 434
#     4  11  26  46  75 114 145 193 237 307 368 443
#     4  12  27  50  76 110 146 195 256 311 360 439
#     4  12  29  51  78 107 150 202 249 304 372 439
#     4  11  27  49  74 108 154 187 247 300 369 440
#
# _framework density 22.451463
#
# number of rings (size 3 to 8) (size 9 to 14) (size 15 to 20)
#    0.000    0.333    3.333    3.500   11.667    0.000 
#    0.000    0.000    0.000    0.000    0.000    0.000 
#    0.000    0.000    0.000    0.000    0.000    0.000 
#
# Total GULP energy -67217.475193 kJ/mol
# GULP energy per Si atom -5601.456266 kJ/mol
# Density = 2.240036 g / cm^3
# Si number density = 22.451463 Si / 1000 Ang^3
#
#
#
# Elastic Constant Matrix: (Units=GPa)
#
#
# Indices 1 2 3 4 5 6 
#
# 1 150.0760 86.5057 59.1762 11.1324 -5.4404 -13.4059
# 2 86.5057 148.0198 64.4507 -10.9392 11.5346 -21.8969
# 3 59.1762 64.4507 135.0946 -21.5915 -4.0965 -6.9671
# 4 11.1324 -10.9392 -21.5915 32.8181 2.1130 3.8611
# 5 -5.4404 11.5346 -4.0965 2.1130 26.8192 -12.3425
# 6 -13.4059 -21.8969 -6.9671 3.8611 -12.3425 46.4745
#
#
#
# Elastic Compliance Matrix: (Units=1/GPa)
#
#
# Indices 1 2 3 4 5 6 
#
# 1 0.013606 -0.007227 -0.003795 -0.010322 0.007375 0.002767
# 2 -0.007227 0.013208 -0.002394 0.005590 -0.007322 0.001371
# 3 -0.003795 -0.002394 0.011481 0.008090 0.000952 -0.000921
# 4 -0.010322 0.005590 0.008090 0.042321 -0.008903 -0.005011
# 5 0.007375 -0.007322 0.000952 -0.008903 0.048505 0.012442
# 6 0.002767 0.001371 -0.000921 -0.005011 0.012442 0.026544
#
#
# Mechanical properties :
#
#
# Convention : Reuss Voigt Hill
#
# Bulk Modulus (GPa) = 87.23692 94.82839 91.03265
# Shear Modulus (GPa) = 26.83605 36.09287 31.46446
#
# Velocity S-wave (km/s) = 3.46105 4.01383 3.74765
# Velocity P-wave (km/s) = 7.41026 7.98811 7.70460
#
# Compressibility (1/GPa) = 0.01146304
#
# Stress axis : x y z
#
# Youngs Moduli (GPa) = 73.49847 75.71048 87.10093
#
# Poissons Ratio (x) = 0.54717 0.33056
# Poissons Ratio (y) = 0.53119 0.20848
# Poissons Ratio (z) = 0.27894 0.18122
#
# Static dielectric constant tensor:
#      x y z
#    x 1.862920 -0.017870 -0.040810 
#    y -0.017870 1.822450 0.013940 
#    z -0.040810 0.013940 1.856290 
# 
# From -- ./inp_files/20283.got.cif
#   From: 2010.05.17/outbox.cif.g08.bks.cpg/sg2_11_cif.got.tgz:20283.got - 2010.06.03 11:33:40.
