data_PCOD9067949
_publ_section_title
;
Structure prediction by ZEFSAII (Michael W. Deem and Ramdas Pophale) SiO2 
 PCOD9067949
Probable space group: P -1
;
_chemical_formula_sum "Si O2"
_cell_formula_units_Z 16
_cell_length_a 15.281269
_cell_length_b 15.131582
_cell_length_c 15.303635
_cell_angle_alpha 152.996732
_cell_angle_beta 30.067734
_cell_angle_gamma 132.632803
_cell_volume 733.394570
_symmetry_space_group_name_H-M "P -1"
_symmetry_group_IT_number 2
_symmetry_cell_setting 'triclinic'
loop_
_space_group_symop_operation_xyz
x,y,z
-x,-y,-z
loop_
_atom_site_type_symbol
_atom_site_label
_atom_site_fract_x
_atom_site_fract_y
_atom_site_fract_z
Si Si1 0.678511 0.681081 0.711797
Si Si2 0.381727 0.240835 0.780417
Si Si3 0.992160 0.164500 0.775001
Si Si4 0.841992 0.969906 0.890867
Si Si5 0.093365 0.442957 0.062737
Si Si6 0.125197 0.606559 0.439023
Si Si7 0.725321 0.286518 0.433885
Si Si8 0.264800 0.728205 0.069232
O O1 0.670734 0.902852 0.952282
O O2 0.712056 0.514235 0.614313
O O3 0.870483 0.588829 0.405880
O O4 0.487259 0.686021 0.836640
O O5 0.523829 0.293338 0.642423
O O6 0.500000 0.000000 0.500000
O O7 0.194670 0.292857 0.926709
O O8 0.312485 0.409932 0.068476
O O9 0.823955 0.291395 0.964242
O O10 0.904602 0.070272 0.843914
O O11 0.150527 0.970240 0.414423
O O12 0.088066 0.301240 0.860598
O O13 0.014601 0.750757 0.580129
O O14 0.796687 0.126422 0.150342
O O15 0.207215 0.583746 0.059297
O O16 0.157955 0.757882 0.615923
O O17 0.000000 0.500000 0.500000
#
# Coordination Sequence:
#
# PCOD9067949 Si02
#       8
#     2   2   2   2   2   2   2   2
#     4  12  25  46  75 102 149 187 241 297 362 428
#     4  12  27  44  72 110 144 190 245 294 358 427
#     4  11  26  46  75 107 143 187 243 300 362 428
#     4  12  25  46  72 107 146 192 240 302 358 428
#     4  12  24  50  71 105 147 191 234 302 359 430
#     4  12  24  46  70  99 146 190 237 292 358 428
#     4  12  26  44  68 106 142 193 243 290 361 430
#     4  11  26  49  73 107 142 191 240 300 366 428
#
# _framework density 21.81636
#
# number of rings (size 3 to 8) (size 9 to 14) (size 15 to 20)
#    0.000    0.250    6.250    1.875    3.500    1.000 
#    0.000    0.000    0.000    0.000    0.000    0.000 
#    0.000    0.000    0.000    0.000    0.000    0.000 
#
# Total GULP energy -89479.540309 kJ/mol
# GULP energy per Si atom -5592.471269 kJ/mol
# Density = 2.176670 g / cm^3
# Si number density = 21.816360 Si / 1000 Ang^3
#
#
#
# Elastic Constant Matrix: (Units=GPa)
#
#
# Indices 1 2 3 4 5 6 
#
# 1 115.2018 12.9873 37.3824 6.6104 -9.4958 9.5926
# 2 12.9873 69.3817 31.1678 -11.3581 -16.0816 0.7527
# 3 37.3824 31.1678 79.6979 -13.0077 -0.3361 -2.1058
# 4 6.6104 -11.3581 -13.0077 25.3206 1.1321 0.9811
# 5 -9.4958 -16.0816 -0.3361 1.1321 39.6015 -0.0854
# 6 9.5926 0.7527 -2.1058 0.9811 -0.0854 42.3543
#
#
#
# Elastic Compliance Matrix: (Units=1/GPa)
#
#
# Indices 1 2 3 4 5 6 
#
# 1 0.011680 0.000602 -0.006805 -0.006306 0.003161 -0.002842
# 2 0.000602 0.020344 -0.007443 0.004815 0.008203 -0.000963
# 3 -0.006805 -0.007443 0.020148 0.008905 -0.004732 0.002459
# 4 -0.006306 0.004815 0.008905 0.047886 -0.000849 0.000674
# 5 0.003161 0.008203 -0.004732 -0.000849 0.029323 -0.001018
# 6 -0.002842 -0.000963 0.002459 0.000674 -0.001018 0.024376
#
#
# Mechanical properties :
#
#
# Convention : Reuss Voigt Hill
#
# Bulk Modulus (GPa) = 40.19318 47.48404 43.83861
# Shear Modulus (GPa) = 26.40718 33.63821 30.02269
#
# Velocity S-wave (km/s) = 3.48290 3.93094 3.71368
# Velocity P-wave (km/s) = 5.88536 6.51273 6.20698
#
# Compressibility (1/GPa) = 0.02487984
#
# Stress axis : x y z
#
# Youngs Moduli (GPa) = 85.61809 49.15439 49.63175
#
# Poissons Ratio (x) = -0.02958 0.33773
# Poissons Ratio (y) = -0.05152 0.36942
# Poissons Ratio (z) = 0.58261 0.36587
#
# Static dielectric constant tensor:
#      x y z
#    x 2.752710 0.169410 0.390820 
#    y 0.169410 1.781880 0.087240 
#    z 0.390820 0.087240 1.991220 
# 
# From -- ./inp_files/534508.got.cif
#   From: 2010.05.17/outbox.cif.g08.bks.cpg/sg2_268_cif.got.tgz:534508.got - 2010.06.03 11:33:40.
