data_PCOD9067028
_publ_section_title
;
Structure prediction by ZEFSAII (Michael W. Deem and Ramdas Pophale) SiO2 
 PCOD9067028
Probable space group: P -1
;
_chemical_formula_sum "Si O2"
_cell_formula_units_Z 13
_cell_length_a 8.187031
_cell_length_b 8.042372
_cell_length_c 14.796359
_cell_angle_alpha 65.066904
_cell_angle_beta 116.400768
_cell_angle_gamma 146.496626
_cell_volume 479.132194
_symmetry_space_group_name_H-M "P -1"
_symmetry_group_IT_number 2
_symmetry_cell_setting 'triclinic'
loop_
_space_group_symop_operation_xyz
x,y,z
-x,-y,-z
loop_
_atom_site_type_symbol
_atom_site_label
_atom_site_fract_x
_atom_site_fract_y
_atom_site_fract_z
Si Si1 0.288523 0.229376 0.200722
Si Si2 0.142013 0.385517 0.662915
Si Si3 0.898626 0.102257 0.403435
Si Si4 0.550751 0.246051 0.793703
Si Si5 0.841584 0.384208 0.084875
Si Si6 0.338065 0.683399 0.456604
Si Si7 0.500000 0.500000 0.000000
O O1 0.365864 0.488299 0.205529
O O2 0.272307 0.245570 0.086428
O O3 0.588526 0.348327 0.264353
O O4 0.016084 0.916277 0.259072
O O5 0.873885 0.312258 0.599558
O O6 0.306667 0.530432 0.572253
O O7 0.207303 0.458417 0.393474
O O8 0.700312 0.931532 0.305437
O O9 0.674748 0.011568 0.443326
O O10 0.000000 0.000000 0.500000
O O11 0.874654 0.405112 0.823995
O O12 0.368520 0.962766 0.879251
O O13 0.649549 0.413193 0.047036
O O14 0.000000 0.500000 0.000000
#
# Coordination Sequence:
#
# PCOD9067028 Si02
#       7
#     2   2   2   2   2   2   1
#     4  12  27  49  77 117 155 210 261 330 401 484
#     4  11  26  47  77 109 159 201 265 331 402 467
#     4  12  26  46  76 115 158 209 265 320 396 492
#     4  12  28  51  82 116 165 210 259 335 405 476
#     4  12  28  55  80 119 160 209 274 337 408 477
#     4  11  25  47  75 113 153 211 264 332 392 479
#     4  12  32  50  88 116 158 214 270 342 404 486
#
# _framework density 27.132387999999999
#
# number of rings (size 3 to 8) (size 9 to 14) (size 15 to 20)
#    0.000    0.308    1.538    5.538    6.462    6.154 
#    0.000    0.000    0.000    0.000    0.000    0.000 
#    0.000    0.000    0.000    0.000    0.000    0.000 
#
# Total GULP energy -72539.151694 kJ/mol
# GULP energy per Si atom -5579.934746 kJ/mol
# Density = 2.707063 g / cm^3
# Si number density = 27.132388 Si / 1000 Ang^3
#
#
#
# Elastic Constant Matrix: (Units=GPa)
#
#
# Indices 1 2 3 4 5 6 
#
# 1 108.8344 6.3181 30.2276 -12.1890 13.4507 6.2712
# 2 6.3181 139.6583 48.6309 -32.4543 -2.9663 8.1664
# 3 30.2276 48.6309 171.7515 -27.3501 -0.9942 -8.7360
# 4 -12.1890 -32.4543 -27.3501 66.5969 3.2591 -3.2151
# 5 13.4507 -2.9663 -0.9942 3.2591 34.8707 -2.0813
# 6 6.2712 8.1664 -8.7360 -3.2151 -2.0813 35.0073
#
#
#
# Elastic Compliance Matrix: (Units=1/GPa)
#
#
# Indices 1 2 3 4 5 6 
#
# 1 0.010557 0.000616 -0.001950 0.001518 -0.004375 -0.002642
# 2 0.000616 0.008825 -0.002188 0.003399 -0.000010 -0.002403
# 3 -0.001950 -0.002188 0.007194 0.001630 0.000789 0.002852
# 4 0.001518 0.003399 0.001630 0.017752 -0.001858 0.000862
# 5 -0.004375 -0.000010 0.000789 -0.001858 0.030718 0.002639
# 6 -0.002642 -0.002403 0.002852 0.000862 0.002639 0.030547
#
#
# Mechanical properties :
#
#
# Convention : Reuss Voigt Hill
#
# Bulk Modulus (GPa) = 51.20075 65.62190 58.41132
# Shear Modulus (GPa) = 41.96439 49.63282 45.79860
#
# Velocity S-wave (km/s) = 3.93702 4.28165 4.11295
# Velocity P-wave (km/s) = 6.29114 6.97723 6.64305
#
# Compressibility (1/GPa) = 0.01953097
#
# Stress axis : x y z
#
# Youngs Moduli (GPa) = 94.72226 113.31975 138.99635
#
# Poissons Ratio (x) = -0.06979 0.27110
# Poissons Ratio (y) = -0.05834 0.30414
# Poissons Ratio (z) = 0.18475 0.24795
#
# Static dielectric constant tensor:
#      x y z
#    x 2.164020 -0.050490 -0.022850 
#    y -0.050490 2.064750 0.060250 
#    z -0.022850 0.060250 2.217840 
# 
# From -- ./inp_files/494542.got.cif
#   From: 2010.05.17/outbox.cif.g08.bks.cpg/sg2_248_cif.got.tgz:494542.got - 2010.06.03 11:33:40.
