data_PCOD9067532
_publ_section_title
;
Structure prediction by ZEFSAII (Michael W. Deem and Ramdas Pophale) SiO2 
 PCOD9067532
Probable space group: P -1
;
_chemical_formula_sum "Si O2"
_cell_formula_units_Z 12
_cell_length_a 7.757730
_cell_length_b 13.384624
_cell_length_c 13.638910
_cell_angle_alpha 32.584206
_cell_angle_beta 68.375236
_cell_angle_gamma 47.391843
_cell_volume 483.046570
_symmetry_space_group_name_H-M "P -1"
_symmetry_group_IT_number 2
_symmetry_cell_setting 'triclinic'
loop_
_space_group_symop_operation_xyz
x,y,z
-x,-y,-z
loop_
_atom_site_type_symbol
_atom_site_label
_atom_site_fract_x
_atom_site_fract_y
_atom_site_fract_z
Si Si1 0.147063 0.745571 0.408969
Si Si2 0.717742 0.200675 0.451587
Si Si3 0.810753 0.640621 0.170165
Si Si4 0.460818 0.653453 0.977589
Si Si5 0.780867 0.048151 0.940645
Si Si6 0.711554 0.811677 0.701168
O O1 0.232721 0.769323 0.474913
O O2 0.143900 0.527692 0.606482
O O3 0.304051 0.729532 0.301307
O O4 0.836161 0.039598 0.212853
O O5 0.519757 0.480180 0.201358
O O6 0.653129 0.032453 0.597757
O O7 0.000000 0.000000 0.500000
O O8 0.491768 0.839841 0.045480
O O9 0.876844 0.801312 0.058354
O O10 0.006465 0.425843 0.220358
O O11 0.500000 0.500000 0.000000
O O12 0.665810 0.669629 0.897368
O O13 0.000000 0.000000 0.000000
O O14 0.500000 0.000000 0.500000
#
# Coordination Sequence:
#
# PCOD9067532 Si02
#       6
#     2   2   2   2   2   2
#     4  12  26  48  75 110 153 196 251 314 380 456
#     4  12  25  43  70 114 156 194 239 307 381 458
#     4  11  25  50  76 111 152 193 267 308 382 453
#     4  12  23  42  70 108 151 196 239 294 382 457
#     4  11  29  52  80 106 145 209 264 322 370 445
#     4  12  23  43  75 114 153 199 241 308 386 464
#
# _framework density 24.842327999999998
#
# number of rings (size 3 to 8) (size 9 to 14) (size 15 to 20)
#    0.000    0.333    6.667    1.500    2.333    2.667 
#    6.000    0.000    0.000    0.000    0.000    0.000 
#    0.000    0.000    0.000    0.000    0.000    0.000 
#
# Total GULP energy -67194.056382 kJ/mol
# GULP energy per Si atom -5599.504698 kJ/mol
# Density = 2.478579 g / cm^3
# Si number density = 24.842328 Si / 1000 Ang^3
#
#
#
# Elastic Constant Matrix: (Units=GPa)
#
#
# Indices 1 2 3 4 5 6 
#
# 1 135.6817 47.5369 63.3474 -0.3492 -8.0875 15.2876
# 2 47.5369 96.9783 35.1269 1.6442 8.4861 -1.0277
# 3 63.3474 35.1269 156.2473 -1.5067 -7.9936 24.9627
# 4 -0.3492 1.6442 -1.5067 47.0130 4.8642 -4.0456
# 5 -8.0875 8.4861 -7.9936 4.8642 53.6136 -3.6374
# 6 15.2876 -1.0277 24.9627 -4.0456 -3.6374 53.9001
#
#
#
# Elastic Compliance Matrix: (Units=1/GPa)
#
#
# Indices 1 2 3 4 5 6 
#
# 1 0.010528 -0.004249 -0.002973 -0.000184 0.001726 -0.001587
# 2 -0.004249 0.013300 -0.001745 -0.000079 -0.002859 0.002068
# 3 -0.002973 -0.001745 0.008536 -0.000046 0.000895 -0.003086
# 4 -0.000184 -0.000079 -0.000046 0.021599 -0.001875 0.001566
# 5 0.001726 -0.002859 0.000895 -0.001875 0.019684 0.000229
# 6 -0.001587 0.002068 -0.003086 0.001566 0.000229 0.020605
#
#
# Mechanical properties :
#
#
# Convention : Reuss Voigt Hill
#
# Bulk Modulus (GPa) = 69.29587 75.65887 72.47737
# Shear Modulus (GPa) = 42.73669 47.09840 44.91755
#
# Velocity S-wave (km/s) = 4.15217 4.35891 4.25680
# Velocity P-wave (km/s) = 7.13738 7.47363 7.30744
#
# Compressibility (1/GPa) = 0.01443087
#
# Stress axis : x y z
#
# Youngs Moduli (GPa) = 94.98426 75.19064 117.14787
#
# Poissons Ratio (x) = 0.31945 0.34829
# Poissons Ratio (y) = 0.40354 0.20440
# Poissons Ratio (z) = 0.28240 0.13120
#
# Static dielectric constant tensor:
#      x y z
#    x 2.146910 -0.009630 -0.050050 
#    y -0.009630 2.021740 -0.078850 
#    z -0.050050 -0.078850 1.948100 
# 
# From -- ./inp_files/235861.got.cif
#   From: 2010.05.17/outbox.cif.g08.bks.cpg/sg2_118_cif.got.tgz:235861.got - 2010.06.03 11:33:40.
