data_PCOD9067845
_publ_section_title
;
Structure prediction by ZEFSAII (Michael W. Deem and Ramdas Pophale) SiO2 
 PCOD9067845
Probable space group: P -1
;
_chemical_formula_sum "Si O2"
_cell_formula_units_Z 16
_cell_length_a 15.957614
_cell_length_b 9.208633
_cell_length_c 11.812209
_cell_angle_alpha 39.120923
_cell_angle_beta 37.842621
_cell_angle_gamma 40.280792
_cell_volume 619.241068
_symmetry_space_group_name_H-M "P -1"
_symmetry_group_IT_number 2
_symmetry_cell_setting 'triclinic'
loop_
_space_group_symop_operation_xyz
x,y,z
-x,-y,-z
loop_
_atom_site_type_symbol
_atom_site_label
_atom_site_fract_x
_atom_site_fract_y
_atom_site_fract_z
Si Si1 0.425071 0.918793 0.943040
Si Si2 0.055337 0.700577 0.968111
Si Si3 0.279289 0.300905 0.380012
Si Si4 0.840236 0.092957 0.476446
Si Si5 0.314437 0.786935 0.722779
Si Si6 0.494483 0.707900 0.248356
Si Si7 0.230645 0.813684 0.030938
Si Si8 0.910957 0.366561 0.432216
O O1 0.553186 0.819663 0.771399
O O2 0.398937 0.194349 0.851639
O O3 0.486129 0.768254 0.085983
O O4 0.290057 0.882331 0.044803
O O5 0.117298 0.733341 0.760285
O O6 0.191881 0.666915 0.924099
O O7 0.920905 0.963554 0.973549
O O8 0.991635 0.493171 0.186717
O O9 0.214185 0.550170 0.222572
O O10 0.226253 0.424997 0.484409
O O11 0.241137 0.055853 0.578883
O O12 0.669632 0.134992 0.626006
O O13 0.853589 0.190632 0.528093
O O14 0.961239 0.811226 0.512384
O O15 0.452811 0.590152 0.627249
O O16 0.342149 0.806631 0.813783
#
# Coordination Sequence:
#
# PCOD9067845 Si02
#       8
#     2   2   2   2   2   2   2   2
#     4  11  27  48  80 111 149 209 245 313 386 442
#     4  12  27  48  75 113 151 202 251 317 370 449
#     4  12  25  49  79 111 147 205 248 316 376 445
#     4  11  26  49  74 110 159 204 246 311 384 449
#     4  12  29  49  77 115 154 198 259 311 377 455
#     4  11  27  52  77 113 156 197 255 313 378 460
#     4  12  26  50  78 111 157 198 253 314 381 449
#     4  11  26  45  78 114 152 199 259 306 377 459
#
# _framework density 25.838080999999999
#
# number of rings (size 3 to 8) (size 9 to 14) (size 15 to 20)
#    0.000    0.500    3.750    2.625    7.000    6.000 
#    0.000    0.000    0.000    0.000    0.000    0.000 
#    0.000    0.000    0.000    0.000    0.000    0.000 
#
# Total GULP energy -89474.956306 kJ/mol
# GULP energy per Si atom -5592.184769 kJ/mol
# Density = 2.577927 g / cm^3
# Si number density = 25.838081 Si / 1000 Ang^3
#
#
#
# Elastic Constant Matrix: (Units=GPa)
#
#
# Indices 1 2 3 4 5 6 
#
# 1 90.0572 40.3145 25.2591 -2.2725 14.9092 19.2552
# 2 40.3145 121.4819 19.1909 0.4589 5.9557 10.5487
# 3 25.2591 19.1909 111.8477 -5.5316 13.5511 6.7942
# 4 -2.2725 0.4589 -5.5316 53.0113 -2.3634 11.8308
# 5 14.9092 5.9557 13.5511 -2.3634 23.6709 5.3381
# 6 19.2552 10.5487 6.7942 11.8308 5.3381 20.9945
#
#
#
# Elastic Compliance Matrix: (Units=1/GPa)
#
#
# Indices 1 2 3 4 5 6 
#
# 1 0.017320 -0.004040 -0.001531 0.003476 -0.005532 -0.013912
# 2 -0.004040 0.009755 -0.000793 -0.000058 0.000788 -0.001108
# 3 -0.001531 -0.000793 0.010047 0.001006 -0.004278 -0.000928
# 4 0.003476 -0.000058 0.001006 0.023163 0.003492 -0.017425
# 5 -0.005532 0.000788 -0.004278 0.003492 0.050290 -0.008692
# 6 -0.013912 -0.001108 -0.000928 -0.017425 -0.008692 0.073277
#
#
# Mechanical properties :
#
#
# Convention : Reuss Voigt Hill
#
# Bulk Modulus (GPa) = 40.99140 54.76843 47.87992
# Shear Modulus (GPa) = 24.42470 35.44348 29.93409
#
# Velocity S-wave (km/s) = 3.07791 3.70774 3.40741
# Velocity P-wave (km/s) = 5.34140 6.29067 5.83537
#
# Compressibility (1/GPa) = 0.02439536
#
# Stress axis : x y z
#
# Youngs Moduli (GPa) = 57.73688 102.50863 99.53278
#
# Poissons Ratio (x) = 0.41411 0.15240
# Poissons Ratio (y) = 0.23324 0.07888
# Poissons Ratio (z) = 0.08840 0.08124
#
# Static dielectric constant tensor:
#      x y z
#    x 2.041710 0.023520 0.023470 
#    y 0.023520 2.008850 0.005400 
#    z 0.023470 0.005400 2.043070 
# 
# From -- ./inp_files/461792.got.cif
#   From: 2010.05.17/outbox.cif.g08.bks.cpg/sg2_231_cif.got.tgz:461792.got - 2010.06.03 11:33:40.
