data_PCOD9067875
_publ_section_title
;
Structure prediction by ZEFSAII (Michael W. Deem and Ramdas Pophale) SiO2 
 PCOD9067875
Probable space group: P -1
;
_chemical_formula_sum "Si O2"
_cell_formula_units_Z 12
_cell_length_a 4.914207
_cell_length_b 20.530007
_cell_length_c 9.094304
_cell_angle_alpha 140.498771
_cell_angle_beta 58.365615
_cell_angle_gamma 102.615476
_cell_volume 466.579948
_symmetry_space_group_name_H-M "P -1"
_symmetry_group_IT_number 2
_symmetry_cell_setting 'triclinic'
loop_
_space_group_symop_operation_xyz
x,y,z
-x,-y,-z
loop_
_atom_site_type_symbol
_atom_site_label
_atom_site_fract_x
_atom_site_fract_y
_atom_site_fract_z
Si Si1 0.458631 0.610220 0.457663
Si Si2 0.070750 0.260189 0.397544
Si Si3 0.117861 0.631418 0.053964
Si Si4 0.578317 0.032753 0.871319
Si Si5 0.193712 0.100230 0.698736
Si Si6 0.205442 0.338069 0.104104
O O1 0.658382 0.678377 0.604076
O O2 0.269898 0.679812 0.492024
O O3 0.725489 0.491419 0.143867
O O4 0.149827 0.590949 0.598956
O O5 0.008783 0.284715 0.630875
O O6 0.229779 0.130981 0.098480
O O7 0.443812 0.651999 0.928460
O O8 0.847689 0.641475 0.019928
O O9 0.858195 0.088892 0.847379
O O10 0.738147 0.924265 0.537798
O O11 0.500000 0.000000 0.000000
O O12 0.220712 0.216008 0.922662
O O13 0.500000 0.000000 0.500000
#
# Coordination Sequence:
#
# PCOD9067875 Si02
#       6
#     2   2   2   2   2   2
#     4  12  24  46  71 101 142 184 230 285 351 416
#     4  12  25  45  70 103 142 181 231 292 349 414
#     4  12  26  44  72 104 138 186 232 285 347 426
#     4  11  26  46  71 103 138 186 236 289 354 420
#     4  11  26  46  72 100 142 183 233 296 350 416
#     4  12  25  45  70 103 141 179 236 286 349 414
#
# _framework density 25.719063999999999
#
# number of rings (size 3 to 8) (size 9 to 14) (size 15 to 20)
#    0.000    0.333    1.667    7.000    7.000    0.667 
#    0.000    0.000    0.000    0.000    0.000    0.000 
#    0.000    0.000    0.000    0.000    0.000    0.000 
#
# Total GULP energy -67204.234397 kJ/mol
# GULP energy per Si atom -5600.352866 kJ/mol
# Density = 2.566053 g / cm^3
# Si number density = 25.719064 Si / 1000 Ang^3
#
#
#
# Elastic Constant Matrix: (Units=GPa)
#
#
# Indices 1 2 3 4 5 6 
#
# 1 63.6590 19.3419 -13.7783 -8.2318 -3.3185 -8.7319
# 2 19.3419 116.7381 47.9432 -19.2138 -15.6486 -7.8838
# 3 -13.7783 47.9432 91.0808 -18.8779 -3.7731 7.2957
# 4 -8.2318 -19.2138 -18.8779 66.5656 -1.1935 -3.8976
# 5 -3.3185 -15.6486 -3.7731 -1.1935 27.7739 -0.6366
# 6 -8.7319 -7.8838 7.2957 -3.8976 -0.6366 52.9667
#
#
#
# Elastic Compliance Matrix: (Units=1/GPa)
#
#
# Indices 1 2 3 4 5 6 
#
# 1 0.019138 -0.004989 0.005961 0.002731 0.000444 0.001798
# 2 -0.004989 0.013773 -0.007643 0.001447 0.006244 0.002462
# 3 0.005961 -0.007643 0.016676 0.003107 -0.001247 -0.002238
# 4 0.002731 0.001447 0.003107 0.016789 0.002320 0.001501
# 5 0.000444 0.006244 -0.001247 0.002320 0.039548 0.001820
# 6 0.001798 0.002462 -0.002238 0.001501 0.001820 0.019983
#
#
# Mechanical properties :
#
#
# Convention : Reuss Voigt Hill
#
# Bulk Modulus (GPa) = 27.58962 42.05462 34.82212
# Shear Modulus (GPa) = 33.04033 43.99264 38.51649
#
# Velocity S-wave (km/s) = 3.58811 4.14031 3.87406
# Velocity P-wave (km/s) = 5.28362 6.26445 5.79482
#
# Compressibility (1/GPa) = 0.03624551
#
# Stress axis : x y z
#
# Youngs Moduli (GPa) = 52.25327 72.60443 59.96672
#
# Poissons Ratio (x) = 0.36221 -0.35748
# Poissons Ratio (y) = 0.26068 0.45834
# Poissons Ratio (z) = -0.31150 0.55493
#
# Static dielectric constant tensor:
#      x y z
#    x 2.035240 -0.019920 0.045320 
#    y -0.019920 2.041650 -0.091410 
#    z 0.045320 -0.091410 2.047820 
# 
# From -- ./inp_files/23808.got.cif
#   From: 2010.05.17/outbox.cif.g08.bks.cpg/sg2_12_cif.got.tgz:23808.got - 2010.06.03 11:33:40.
