data_PCOD9067997
_publ_section_title
;
Structure prediction by ZEFSAII (Michael W. Deem and Ramdas Pophale) SiO2 
 PCOD9067997
Probable space group: P -1
;
_chemical_formula_sum "Si O2"
_cell_formula_units_Z 16
_cell_length_a 15.285860
_cell_length_b 10.703777
_cell_length_c 5.765044
_cell_angle_alpha 97.908817
_cell_angle_beta 50.267749
_cell_angle_gamma 79.763013
_cell_volume 673.383878
_symmetry_space_group_name_H-M "P -1"
_symmetry_group_IT_number 2
_symmetry_cell_setting 'triclinic'
loop_
_space_group_symop_operation_xyz
x,y,z
-x,-y,-z
loop_
_atom_site_type_symbol
_atom_site_label
_atom_site_fract_x
_atom_site_fract_y
_atom_site_fract_z
Si Si1 0.886516 0.286619 0.267815
Si Si2 0.149607 0.180381 0.566832
Si Si3 0.754428 0.116580 0.232108
Si Si4 0.744491 0.591058 0.461984
Si Si5 0.603503 0.060687 0.801477
Si Si6 0.037581 0.114074 0.331413
Si Si7 0.617498 0.289891 0.141765
Si Si8 0.376575 0.422562 0.847678
O O1 0.782509 0.226231 0.369093
O O2 0.838480 0.441778 0.320517
O O3 0.930370 0.237631 0.438973
O O4 0.011078 0.210561 0.896651
O O5 0.190250 0.299348 0.624379
O O6 0.123419 0.177458 0.338302
O O7 0.266440 0.044763 0.364897
O O8 0.635350 0.084114 0.490352
O O9 0.734669 0.181347 0.030635
O O10 0.870228 0.983511 0.032669
O O11 0.687468 0.587828 0.298125
O O12 0.663610 0.622985 0.848873
O O13 0.571160 0.203345 0.019793
O O14 0.500000 0.000000 0.000000
O O15 0.000000 0.000000 0.500000
O O16 0.517575 0.346644 0.528741
O O17 0.640683 0.420757 0.045387
#
# Coordination Sequence:
#
# PCOD9067997 Si02
#       8
#     2   2   2   2   2   2   2   2
#     4  12  26  47  75 106 150 199 255 313 376 452
#     4  12  27  46  71 108 152 200 247 318 376 457
#     4  12  24  45  75 109 144 194 253 317 381 452
#     4  12  29  49  76 110 155 200 255 313 388 445
#     4  12  27  46  73 110 151 195 250 315 389 452
#     4  12  25  43  73 108 150 190 256 312 381 452
#     4  11  26  46  79 104 148 200 254 313 380 446
#     4  11  28  51  77 113 150 201 259 315 372 464
#
# _framework density 23.760594000000001
#
# number of rings (size 3 to 8) (size 9 to 14) (size 15 to 20)
#    0.000    0.250    5.000    3.000    8.750    3.000 
#    0.000    0.000    0.000    0.000    0.000    0.000 
#    0.000    0.000    0.000    0.000    0.000    0.000 
#
# Total GULP energy -89281.967727 kJ/mol
# GULP energy per Si atom -5580.122983 kJ/mol
# Density = 2.370651 g / cm^3
# Si number density = 23.760594 Si / 1000 Ang^3
#
#
#
# Elastic Constant Matrix: (Units=GPa)
#
#
# Indices 1 2 3 4 5 6 
#
# 1 105.3592 44.9452 8.5819 -3.7860 8.2636 9.2864
# 2 44.9452 63.1127 8.1729 17.6103 4.0357 6.6053
# 3 8.5819 8.1729 107.6526 -5.0144 -13.1181 12.0997
# 4 -3.7860 17.6103 -5.0144 41.5434 4.1107 -3.6936
# 5 8.2636 4.0357 -13.1181 4.1107 30.7335 5.0712
# 6 9.2864 6.6053 12.0997 -3.6936 5.0712 55.5250
#
#
#
# Elastic Compliance Matrix: (Units=1/GPa)
#
#
# Indices 1 2 3 4 5 6 
#
# 1 0.015501 -0.012725 -0.000350 0.007099 -0.003562 -0.000205
# 2 -0.012725 0.029141 -0.001475 -0.013990 0.001175 -0.002055
# 3 -0.000350 -0.001475 0.010355 0.001140 0.004951 -0.002399
# 4 0.007099 -0.013990 0.001140 0.031446 -0.004238 0.002707
# 5 -0.003562 0.001175 0.004951 -0.004238 0.036724 -0.004259
# 6 -0.000205 -0.002055 -0.002399 0.002707 -0.004259 0.019380
#
#
# Mechanical properties :
#
#
# Convention : Reuss Voigt Hill
#
# Bulk Modulus (GPa) = 38.61556 44.39162 41.50359
# Shear Modulus (GPa) = 27.73459 39.85533 33.79496
#
# Velocity S-wave (km/s) = 3.42021 4.10002 3.77545
# Velocity P-wave (km/s) = 5.64662 6.41381 6.04240
#
# Compressibility (1/GPa) = 0.02589629
#
# Stress axis : x y z
#
# Youngs Moduli (GPa) = 64.51321 34.31571 96.57083
#
# Poissons Ratio (x) = 0.43667 0.03380
# Poissons Ratio (y) = 0.82093 0.14248
# Poissons Ratio (z) = 0.02258 0.05063
#
# Static dielectric constant tensor:
#      x y z
#    x 1.921880 -0.038130 0.052330 
#    y -0.038130 1.905790 -0.069990 
#    z 0.052330 -0.069990 2.033380 
# 
# From -- ./inp_files/85391.got.cif
#   From: 2010.05.17/outbox.cif.g08.bks.cpg/sg2_43_cif.got.tgz:85391.got - 2010.06.03 11:33:40.
