data_PCOD9067832
_publ_section_title
;
Structure prediction by ZEFSAII (Michael W. Deem and Ramdas Pophale) SiO2 
 PCOD9067832
Probable space group: P -1
;
_chemical_formula_sum "Si O2"
_cell_formula_units_Z 12
_cell_length_a 4.823903
_cell_length_b 9.239964
_cell_length_c 13.906699
_cell_angle_alpha 127.446136
_cell_angle_beta 109.691562
_cell_angle_gamma 80.184465
_cell_volume 462.851678
_symmetry_space_group_name_H-M "P -1"
_symmetry_group_IT_number 2
_symmetry_cell_setting 'triclinic'
loop_
_space_group_symop_operation_xyz
x,y,z
-x,-y,-z
loop_
_atom_site_type_symbol
_atom_site_label
_atom_site_fract_x
_atom_site_fract_y
_atom_site_fract_z
Si Si1 0.627007 0.625370 0.476514
Si Si2 0.133381 0.888446 0.558388
Si Si3 0.530498 0.713019 0.784727
Si Si4 0.995221 0.048495 0.132504
Si Si5 0.291245 0.441436 0.065296
Si Si6 0.542303 0.194028 0.830494
O O1 0.500000 0.500000 0.500000
O O2 0.357221 0.754376 0.481053
O O3 0.663237 0.464654 0.338604
O O4 0.910685 0.764882 0.549937
O O5 0.316962 0.034582 0.704992
O O6 0.000000 0.000000 0.500000
O O7 0.761978 0.784767 0.761472
O O8 0.726050 0.653900 0.873424
O O9 0.319420 0.877532 0.848989
O O10 0.141068 0.891118 0.147645
O O11 0.000000 0.000000 0.000000
O O12 0.456960 0.639473 0.177390
O O13 0.459344 0.301695 0.961132
O O14 0.000000 0.500000 0.000000
#
# Coordination Sequence:
#
# PCOD9067832 Si02
#       6
#     2   2   2   2   2   2
#     4  12  28  52  76 113 156 212 262 321 392 463
#     4  12  28  50  81 112 156 207 270 321 388 468
#     4  12  27  48  77 108 154 198 254 317 386 465
#     4  12  25  47  73 113 149 193 252 313 390 462
#     4  11  26  45  75 110 154 195 252 323 403 454
#     4  11  27  45  73 111 150 198 253 323 388 466
#
# _framework density 25.926231000000001
#
# number of rings (size 3 to 8) (size 9 to 14) (size 15 to 20)
#    0.000    0.333    1.667    5.500    9.333    2.667 
#    0.000    0.000    0.000    0.000    0.000    0.000 
#    0.000    0.000    0.000    0.000    0.000    0.000 
#
# Total GULP energy -67186.481275 kJ/mol
# GULP energy per Si atom -5598.873440 kJ/mol
# Density = 2.586722 g / cm^3
# Si number density = 25.926231 Si / 1000 Ang^3
#
#
#
# Elastic Constant Matrix: (Units=GPa)
#
#
# Indices 1 2 3 4 5 6 
#
# 1 137.7734 55.9906 33.7881 18.8003 7.0931 -6.8552
# 2 55.9906 197.6976 64.0494 19.8378 7.3105 -8.6473
# 3 33.7881 64.0494 105.0521 23.8316 18.7095 -0.3425
# 4 18.8003 19.8378 23.8316 39.0255 4.4099 -0.4672
# 5 7.0931 7.3105 18.7095 4.4099 46.0876 18.3505
# 6 -6.8552 -8.6473 -0.3425 -0.4672 18.3505 59.0726
#
#
#
# Elastic Compliance Matrix: (Units=1/GPa)
#
#
# Indices 1 2 3 4 5 6 
#
# 1 0.008670 -0.001818 -0.000953 -0.002570 -0.000796 0.000962
# 2 -0.001818 0.006768 -0.003511 -0.000462 0.000428 0.000623
# 3 -0.000953 -0.003511 0.014159 -0.005843 -0.004851 0.000918
# 4 -0.002570 -0.000462 -0.005843 0.030667 -0.000035 -0.000146
# 5 -0.000796 0.000428 -0.004851 -0.000035 0.027100 -0.008477
# 6 0.000962 0.000623 0.000918 -0.000146 -0.008477 0.019769
#
#
# Mechanical properties :
#
#
# Convention : Reuss Voigt Hill
#
# Bulk Modulus (GPa) = 58.70548 83.13103 70.91825
# Shear Modulus (GPa) = 39.88051 47.95015 43.91533
#
# Velocity S-wave (km/s) = 3.92628 4.30523 4.12011
# Velocity P-wave (km/s) = 6.57622 7.53972 7.07439
#
# Compressibility (1/GPa) = 0.01703418
#
# Stress axis : x y z
#
# Youngs Moduli (GPa) = 115.33994 147.74632 70.62707
#
# Poissons Ratio (x) = 0.26853 0.06727
# Poissons Ratio (y) = 0.20963 0.24801
# Poissons Ratio (z) = 0.10986 0.51881
#
# Static dielectric constant tensor:
#      x y z
#    x 2.055470 0.074180 0.114000 
#    y 0.074180 1.994010 -0.006680 
#    z 0.114000 -0.006680 0.492050 
# 
# From -- ./inp_files/480129.got.cif
#   From: 2010.05.17/outbox.cif.g08.bks.cpg/sg2_241_cif.got.tgz:480129.got - 2010.06.03 11:33:40.
