data_PCOD9067888
_publ_section_title
;
Structure prediction by ZEFSAII (Michael W. Deem and Ramdas Pophale) SiO2 
 PCOD9067888
Probable space group: P -1
;
_chemical_formula_sum "Si O2"
_cell_formula_units_Z 16
_cell_length_a 9.174810
_cell_length_b 13.931434
_cell_length_c 5.132955
_cell_angle_alpha 77.931139
_cell_angle_beta 74.368474
_cell_angle_gamma 80.403257
_cell_volume 613.596272
_symmetry_space_group_name_H-M "P -1"
_symmetry_group_IT_number 2
_symmetry_cell_setting 'triclinic'
loop_
_space_group_symop_operation_xyz
x,y,z
-x,-y,-z
loop_
_atom_site_type_symbol
_atom_site_label
_atom_site_fract_x
_atom_site_fract_y
_atom_site_fract_z
Si Si1 0.685282 0.991338 0.438218
Si Si2 0.329078 0.439527 0.929951
Si Si3 0.509101 0.748910 0.219488
Si Si4 0.316070 0.666184 0.736989
Si Si5 0.230706 0.836264 0.024405
Si Si6 0.865829 0.588605 0.465672
Si Si7 0.212786 0.133182 0.041757
Si Si8 0.972660 0.238121 0.473443
O O1 0.733004 0.950051 0.721529
O O2 0.500000 0.000000 0.500000
O O3 0.751358 0.091899 0.264427
O O4 0.763727 0.916518 0.223497
O O5 0.473513 0.358965 0.859784
O O6 0.360486 0.551038 0.806347
O O7 0.201618 0.418618 0.786960
O O8 0.263402 0.428077 0.253582
O O9 0.456695 0.724244 0.547565
O O10 0.383791 0.832703 0.122606
O O11 0.667691 0.787517 0.070993
O O12 0.240891 0.723468 0.986621
O O13 0.179137 0.691515 0.580984
O O14 0.085365 0.848108 0.272562
O O15 0.000000 0.500000 0.500000
O O16 0.923166 0.693357 0.455390
O O17 0.941221 0.810503 0.794386
#
# Coordination Sequence:
#
# PCOD9067888 Si02
#       8
#     2   2   2   2   2   2   2   2
#     4  12  27  50  79 109 144 190 246 305 378 437
#     4  12  27  44  77 107 146 198 251 298 360 439
#     4  11  26  46  71 112 144 193 246 306 362 438
#     4  11  26  47  72 106 154 199 239 305 370 434
#     4  11  27  47  76 102 154 194 241 309 373 436
#     4  12  25  45  72 105 146 200 246 297 364 433
#     4  12  28  47  79 110 144 191 249 308 362 444
#     4  11  27  46  71 110 151 193 246 303 369 434
#
# _framework density 26.075776999999999
#
# number of rings (size 3 to 8) (size 9 to 14) (size 15 to 20)
#    0.000    0.500    3.750    2.625   12.250    1.500 
#    0.000    0.000    0.000    0.000    0.000    0.000 
#    0.000    0.000    0.000    0.000    0.000    0.000 
#
# Total GULP energy -89713.744044 kJ/mol
# GULP energy per Si atom -5607.109003 kJ/mol
# Density = 2.601643 g / cm^3
# Si number density = 26.075777 Si / 1000 Ang^3
#
#
#
# Elastic Constant Matrix: (Units=GPa)
#
#
# Indices 1 2 3 4 5 6 
#
# 1 101.4266 27.0842 48.8273 -12.3721 -7.5989 -16.3033
# 2 27.0842 124.3396 34.8185 -7.4930 -12.0393 -11.4415
# 3 48.8273 34.8185 108.4184 -8.0487 -36.5694 -5.6349
# 4 -12.3721 -7.4930 -8.0487 50.7925 -3.2553 -1.9880
# 5 -7.5989 -12.0393 -36.5694 -3.2553 46.2265 3.3228
# 6 -16.3033 -11.4415 -5.6349 -1.9880 3.3228 37.2660
#
#
#
# Elastic Compliance Matrix: (Units=1/GPa)
#
#
# Indices 1 2 3 4 5 6 
#
# 1 0.014294 -0.000896 -0.006912 0.002235 -0.003581 0.005372
# 2 -0.000896 0.009145 -0.002230 0.000884 0.000382 0.002092
# 3 -0.006912 -0.002230 0.017119 0.001391 0.012076 -0.002123
# 4 0.002235 0.000884 0.001391 0.020866 0.003002 0.002305
# 5 -0.003581 0.000382 0.012076 0.003002 0.031069 -0.002233
# 6 0.005372 0.002092 -0.002123 0.002305 -0.002233 0.029827
#
#
# Mechanical properties :
#
#
# Convention : Reuss Voigt Hill
#
# Bulk Modulus (GPa) = 48.82565 61.73831 55.28198
# Shear Modulus (GPa) = 33.50670 41.75395 37.63033
#
# Velocity S-wave (km/s) = 3.58854 4.00591 3.80296
# Velocity P-wave (km/s) = 5.99461 6.71746 6.36630
#
# Compressibility (1/GPa) = 0.02048104
#
# Stress axis : x y z
#
# Youngs Moduli (GPa) = 69.95930 109.35109 58.41429
#
# Poissons Ratio (x) = 0.09794 0.40379
# Poissons Ratio (y) = 0.06266 0.13029
# Poissons Ratio (z) = 0.48359 0.24389
#
# Static dielectric constant tensor:
#      x y z
#    x 2.094820 0.020150 0.055480 
#    y 0.020150 2.069720 0.031300 
#    z 0.055480 0.031300 2.019250 
# 
# From -- ./inp_files/69044.got.cif
#   From: 2010.05.17/outbox.cif.g08.bks.cpg/sg2_35_cif.got.tgz:69044.got - 2010.06.03 11:33:40.
