data_PCOD9067126
_publ_section_title
;
Structure prediction by ZEFSAII (Michael W. Deem and Ramdas Pophale) SiO2 
 PCOD9067126
Probable space group: P -1
;
_chemical_formula_sum "Si O2"
_cell_formula_units_Z 16
_cell_length_a 12.302957
_cell_length_b 8.214813
_cell_length_c 10.181165
_cell_angle_alpha 88.638058
_cell_angle_beta 43.591863
_cell_angle_gamma 93.519679
_cell_volume 704.667933
_symmetry_space_group_name_H-M "P -1"
_symmetry_group_IT_number 2
_symmetry_cell_setting 'triclinic'
loop_
_space_group_symop_operation_xyz
x,y,z
-x,-y,-z
loop_
_atom_site_type_symbol
_atom_site_label
_atom_site_fract_x
_atom_site_fract_y
_atom_site_fract_z
Si Si1 0.142914 0.983018 0.474813
Si Si2 0.506673 0.842665 0.808342
Si Si3 0.345454 0.154254 0.848624
Si Si4 0.105741 0.593055 0.512513
Si Si5 0.105311 0.556555 0.786554
Si Si6 0.976498 0.096019 0.151709
Si Si7 0.561423 0.354494 0.871651
Si Si8 0.605653 0.655447 0.466039
O O1 0.141328 0.788116 0.474665
O O2 0.096934 0.019368 0.664669
O O3 0.317527 0.076650 0.298962
O O4 0.000000 0.000000 0.500000
O O5 0.539207 0.722620 0.659411
O O6 0.405222 0.979272 0.833052
O O7 0.420638 0.769703 0.018637
O O8 0.445038 0.273414 0.863063
O O9 0.379969 0.208485 0.665872
O O10 0.157362 0.159145 0.034322
O O11 0.018937 0.542822 0.723837
O O12 0.284499 0.557134 0.338332
O O13 0.000000 0.500000 0.500000
O O14 0.232632 0.428585 0.662011
O O15 0.134836 0.755944 0.772365
O O16 0.000000 0.500000 0.000000
O O17 0.000000 0.000000 0.000000
O O18 0.500000 0.500000 0.000000
O O19 0.500000 0.500000 0.500000
#
# Coordination Sequence:
#
# PCOD9067126 Si02
#       8
#     2   2   2   2   2   2   2   2
#     4  11  26  45  72 105 143 189 245 300 369 436
#     4  12  27  48  76 106 150 198 248 309 370 452
#     4  12  25  48  71 106 148 195 252 303 374 446
#     4  11  27  46  72 104 145 189 240 306 362 440
#     4  11  25  48  68 102 142 185 245 295 365 435
#     4  11  26  45  71 104 144 192 241 305 366 440
#     4  12  27  48  73 106 147 191 249 304 373 440
#     4  12  27  45  73 106 144 197 247 309 370 440
#
# _framework density 22.705732000000001
#
# number of rings (size 3 to 8) (size 9 to 14) (size 15 to 20)
#    0.000    0.500    2.500    4.500   12.250    1.000 
#    0.000    0.000    0.000    0.000    0.000    0.000 
#    0.000    0.000    0.000    0.000    0.000    0.000 
#
# Total GULP energy -89291.172216 kJ/mol
# GULP energy per Si atom -5580.698263 kJ/mol
# Density = 2.265405 g / cm^3
# Si number density = 22.705732 Si / 1000 Ang^3
#
#
#
# Elastic Constant Matrix: (Units=GPa)
#
#
# Indices 1 2 3 4 5 6 
#
# 1 82.4504 43.2092 34.0198 9.0000 14.4468 2.4661
# 2 43.2092 81.6390 19.9897 24.6485 12.3816 -0.7922
# 3 34.0198 19.9897 123.7611 2.8264 28.2856 -1.0104
# 4 9.0000 24.6485 2.8264 48.9706 2.1713 4.4606
# 5 14.4468 12.3816 28.2856 2.1713 44.3230 -0.6688
# 6 2.4661 -0.7922 -1.0104 4.4606 -0.6688 46.4596
#
#
#
# Elastic Compliance Matrix: (Units=1/GPa)
#
#
# Indices 1 2 3 4 5 6 
#
# 1 0.018450 -0.009251 -0.003301 0.001646 -0.001425 -0.001387
# 2 -0.009251 0.020032 0.000004 -0.008434 -0.002145 0.001612
# 3 -0.003301 0.000004 0.010232 0.000229 -0.005462 0.000297
# 4 0.001646 -0.008434 0.000229 0.024566 0.000431 -0.002579
# 5 -0.001425 -0.002145 -0.005462 0.000431 0.027094 0.000269
# 6 -0.001387 0.001612 0.000297 -0.002579 0.000269 0.021883
#
#
# Mechanical properties :
#
#
# Convention : Reuss Voigt Hill
#
# Bulk Modulus (GPa) = 42.34095 53.58755 47.96425
# Shear Modulus (GPa) = 32.21098 40.65944 36.43521
#
# Velocity S-wave (km/s) = 3.77055 4.23627 4.01018
# Velocity P-wave (km/s) = 6.13549 6.89783 6.52780
#
# Compressibility (1/GPa) = 0.02361780
#
# Stress axis : x y z
#
# Youngs Moduli (GPa) = 54.20032 49.91980 97.72956
#
# Poissons Ratio (x) = 0.46182 0.32258
# Poissons Ratio (y) = 0.50142 -0.00035
# Poissons Ratio (z) = 0.17890 -0.00018
#
# Static dielectric constant tensor:
#      x y z
#    x 2.861670 -0.730610 -0.668260 
#    y -0.730610 2.316860 0.432640 
#    z -0.668260 0.432640 2.292350 
# 
# From -- ./inp_files/243873.got.cif
#   From: 2010.05.17/outbox.cif.g08.bks.cpg/sg2_122_cif.got.tgz:243873.got - 2010.06.03 11:33:40.
