data_PCOD9067095
_publ_section_title
;
Structure prediction by ZEFSAII (Michael W. Deem and Ramdas Pophale) SiO2 
 PCOD9067095
Probable space group: P -1
;
_chemical_formula_sum "Si O2"
_cell_formula_units_Z 12
_cell_length_a 15.964452
_cell_length_b 5.308998
_cell_length_c 9.730205
_cell_angle_alpha 83.265472
_cell_angle_beta 37.233326
_cell_angle_gamma 86.019202
_cell_volume 495.149817
_symmetry_space_group_name_H-M "P -1"
_symmetry_group_IT_number 2
_symmetry_cell_setting 'triclinic'
loop_
_space_group_symop_operation_xyz
x,y,z
-x,-y,-z
loop_
_atom_site_type_symbol
_atom_site_label
_atom_site_fract_x
_atom_site_fract_y
_atom_site_fract_z
Si Si1 0.899089 0.292743 0.711370
Si Si2 0.441842 0.212219 0.463324
Si Si3 0.908119 0.236135 0.149421
Si Si4 0.152600 0.978795 0.469512
Si Si5 0.572326 0.768736 0.844388
Si Si6 0.284578 0.542684 0.818208
O O1 0.000000 0.500000 0.500000
O O2 0.998007 0.080692 0.655074
O O3 0.812693 0.160987 0.709249
O O4 0.819813 0.438672 0.922129
O O5 0.430496 0.176966 0.318653
O O6 0.303023 0.304136 0.710691
O O7 0.566971 0.423723 0.304163
O O8 0.500000 0.000000 0.500000
O O9 0.774350 0.253400 0.224274
O O10 0.851977 0.199004 0.379743
O O11 0.000000 0.500000 0.000000
O O12 0.000000 0.000000 0.000000
O O13 0.265818 0.206007 0.327543
O O14 0.500000 0.500000 0.000000
O O15 0.500000 0.000000 0.000000
#
# Coordination Sequence:
#
# PCOD9067095 Si02
#       6
#     2   2   2   2   2   2
#     4  11  25  47  78 115 159 208 265 334 413 484
#     4  11  28  49  79 112 155 216 269 334 405 483
#     4  12  27  47  77 117 154 205 258 334 406 480
#     4  11  27  47  76 116 159 208 271 329 412 485
#     4  12  31  52  81 115 162 217 274 339 406 488
#     4  11  26  47  77 109 157 202 270 326 404 475
#
# _framework density 24.235088000000001
#
# number of rings (size 3 to 8) (size 9 to 14) (size 15 to 20)
#    0.000    0.667    1.667    3.000   16.333    2.667 
#    0.000    0.000    0.000    0.000    0.000    0.000 
#    0.000    0.000    0.000    0.000    0.000    0.000 
#
# Total GULP energy -67152.040046 kJ/mol
# GULP energy per Si atom -5596.003337 kJ/mol
# Density = 2.417993 g / cm^3
# Si number density = 24.235088 Si / 1000 Ang^3
#
#
#
# Elastic Constant Matrix: (Units=GPa)
#
#
# Indices 1 2 3 4 5 6 
#
# 1 154.5356 43.5862 67.9977 7.9686 27.9691 17.5766
# 2 43.5862 139.3414 65.5166 11.0155 17.4227 8.1616
# 3 67.9977 65.5166 170.6140 28.4933 48.4492 3.9371
# 4 7.9686 11.0155 28.4933 58.0521 4.0741 -8.5266
# 5 27.9691 17.4227 48.4492 4.0741 49.1126 -0.3030
# 6 17.5766 8.1616 3.9371 -8.5266 -0.3030 33.9325
#
#
#
# Elastic Compliance Matrix: (Units=1/GPa)
#
#
# Indices 1 2 3 4 5 6 
#
# 1 0.008662 -0.001113 -0.002206 -0.000326 -0.002360 -0.004066
# 2 -0.001113 0.009009 -0.003080 -0.000270 0.000491 -0.001296
# 3 -0.002206 -0.003080 0.010883 -0.003954 -0.008062 -0.000444
# 4 -0.000326 -0.000270 -0.003954 0.019923 0.002565 0.005722
# 5 -0.002360 0.000491 -0.008062 0.002565 0.029289 0.002945
# 6 -0.004066 -0.001296 -0.000444 0.005722 0.002945 0.033404
#
#
# Mechanical properties :
#
#
# Convention : Reuss Voigt Hill
#
# Bulk Modulus (GPa) = 63.47364 90.96578 77.21971
# Shear Modulus (GPa) = 38.69311 47.37882 43.03597
#
# Velocity S-wave (km/s) = 4.00005 4.42630 4.21856
# Velocity P-wave (km/s) = 6.89794 7.98367 7.46058
#
# Compressibility (1/GPa) = 0.01575457
#
# Stress axis : x y z
#
# Youngs Moduli (GPa) = 115.44422 111.00026 91.88382
#
# Poissons Ratio (x) = 0.12355 0.20274
# Poissons Ratio (y) = 0.12850 0.28304
# Poissons Ratio (z) = 0.25472 0.34193
#
# Static dielectric constant tensor:
#      x y z
#    x 2.046000 0.002640 -0.043220 
#    y 0.002640 2.235270 0.105220 
#    z -0.043220 0.105220 2.007550 
# 
# From -- ./inp_files/90766.got.cif
#   From: 2010.05.17/outbox.cif.g08.bks.cpg/sg2_46_cif.got.tgz:90766.got - 2010.06.03 11:33:40.
