data_PCOD9067191
_publ_section_title
;
Structure prediction by ZEFSAII (Michael W. Deem and Ramdas Pophale) SiO2 
 PCOD9067191
Probable space group: P -1
;
_chemical_formula_sum "Si O2"
_cell_formula_units_Z 13
_cell_length_a 8.918090
_cell_length_b 15.973367
_cell_length_c 18.764489
_cell_angle_alpha 158.360572
_cell_angle_beta 133.840799
_cell_angle_gamma 58.191424
_cell_volume 638.804278
_symmetry_space_group_name_H-M "P -1"
_symmetry_group_IT_number 2
_symmetry_cell_setting 'triclinic'
loop_
_space_group_symop_operation_xyz
x,y,z
-x,-y,-z
loop_
_atom_site_type_symbol
_atom_site_label
_atom_site_fract_x
_atom_site_fract_y
_atom_site_fract_z
Si Si1 0.614753 0.219188 0.769365
Si Si2 0.259525 0.982134 0.875922
Si Si3 0.000000 0.500000 0.500000
Si Si4 0.739941 0.792330 0.233456
Si Si5 0.968992 0.667735 0.906223
Si Si6 0.314941 0.898881 0.664457
Si Si7 0.163756 0.875119 0.979936
O O1 0.428591 0.190030 0.746614
O O2 0.500000 0.000000 0.500000
O O3 0.701598 0.502923 0.991331
O O4 0.834951 0.209381 0.872355
O O5 0.065989 0.761269 0.682780
O O6 0.244526 0.917189 0.736461
O O7 0.500000 0.000000 0.000000
O O8 0.227398 0.234711 0.074679
O O9 0.135531 0.668552 0.748085
O O10 0.675620 0.873978 0.201459
O O11 0.000000 0.000000 0.500000
O O12 0.859206 0.366405 0.636171
O O13 0.083224 0.750391 0.931681
O O14 0.572113 0.918959 0.766832
O O15 0.000000 0.000000 0.000000
#
# Coordination Sequence:
#
# PCOD9067191 Si02
#       7
#     2   2   1   2   2   2   2
#     4  11  27  47  74 107 141 183 236 295 352 420
#     4  12  27  43  67 105 138 183 231 287 341 414
#     4  12  24  42  66  94 142 176 228 278 342 394
#     4  11  25  48  73 105 143 180 232 297 356 415
#     4  12  26  44  71 103 139 185 234 283 354 417
#     4  12  26  44  72 101 139 185 233 284 352 415
#     4  12  25  44  68  99 139 181 228 288 341 412
#
# _framework density 20.350521000000001
#
# number of rings (size 3 to 8) (size 9 to 14) (size 15 to 20)
#    0.000    0.308    7.692    0.000    4.308    4.308 
#    0.000    0.000    0.000    0.000    0.000    0.000 
#    0.000    0.000    0.000    0.000    0.000    0.000 
#
# Total GULP energy -72425.631150 kJ/mol
# GULP energy per Si atom -5571.202396 kJ/mol
# Density = 2.030420 g / cm^3
# Si number density = 20.350521 Si / 1000 Ang^3
#
#
#
# Elastic Constant Matrix: (Units=GPa)
#
#
# Indices 1 2 3 4 5 6 
#
# 1 57.9868 38.4048 24.3021 0.3908 -5.0820 4.0710
# 2 38.4048 138.4496 45.2970 -0.1762 -6.5529 22.2230
# 3 24.3021 45.2970 118.0111 -8.2148 -8.5317 12.9644
# 4 0.3908 -0.1762 -8.2148 45.6647 7.2623 4.2380
# 5 -5.0820 -6.5529 -8.5317 7.2623 18.0814 -3.3137
# 6 4.0710 22.2230 12.9644 4.2380 -3.3137 27.7085
#
#
#
# Elastic Compliance Matrix: (Units=1/GPa)
#
#
# Indices 1 2 3 4 5 6 
#
# 1 0.022215 -0.005639 -0.002572 -0.001648 0.004238 0.003221
# 2 -0.005639 0.010558 -0.002140 0.000348 -0.000138 -0.006708
# 3 -0.002572 -0.002140 0.010415 0.001800 0.002181 -0.002793
# 4 -0.001648 0.000348 0.001800 0.024431 -0.010374 -0.005857
# 5 0.004238 -0.000138 0.002181 -0.010374 0.063034 0.007592
# 6 0.003221 -0.006708 -0.002793 -0.005857 0.007592 0.044107
#
#
# Mechanical properties :
#
#
# Convention : Reuss Voigt Hill
#
# Bulk Modulus (GPa) = 44.47574 58.93947 51.70760
# Shear Modulus (GPa) = 24.63581 32.05384 28.34482
#
# Velocity S-wave (km/s) = 3.48310 3.97304 3.73611
# Velocity P-wave (km/s) = 6.17076 7.07614 6.63890
#
# Compressibility (1/GPa) = 0.02248417
#
# Stress axis : x y z
#
# Youngs Moduli (GPa) = 45.01549 94.71634 96.01804
#
# Poissons Ratio (x) = 0.53411 0.24699
# Poissons Ratio (y) = 0.25385 0.20548
# Poissons Ratio (z) = 0.11579 0.20270
#
# Static dielectric constant tensor:
#      x y z
#    x 1.737960 -0.021530 0.009280 
#    y -0.021530 1.725450 0.000600 
#    z 0.009280 0.000600 1.693640 
# 
# From -- ./inp_files/34905.got.cif
#   From: 2010.05.17/outbox.cif.g08.bks.cpg/sg2_18_cif.got.tgz:34905.got - 2010.06.03 11:33:40.
