data_PCOD9067735
_publ_section_title
;
Structure prediction by ZEFSAII (Michael W. Deem and Ramdas Pophale) SiO2 
 PCOD9067735
Probable space group: P -1
;
_chemical_formula_sum "Si O2"
_cell_formula_units_Z 12
_cell_length_a 14.475152
_cell_length_b 11.584107
_cell_length_c 10.149421
_cell_angle_alpha 110.274857
_cell_angle_beta 71.552172
_cell_angle_gamma 159.584018
_cell_volume 556.707003
_symmetry_space_group_name_H-M "P -1"
_symmetry_group_IT_number 2
_symmetry_cell_setting 'triclinic'
loop_
_space_group_symop_operation_xyz
x,y,z
-x,-y,-z
loop_
_atom_site_type_symbol
_atom_site_label
_atom_site_fract_x
_atom_site_fract_y
_atom_site_fract_z
Si Si1 0.368766 0.630812 0.385183
Si Si2 0.961223 0.347661 0.853624
Si Si3 0.697425 0.612555 0.940362
Si Si4 0.351455 0.588735 0.858993
Si Si5 0.829821 0.368878 0.418804
Si Si6 0.303038 0.380786 0.552570
O O1 0.318072 0.471966 0.229497
O O2 0.146119 0.462042 0.472826
O O3 0.427330 0.626824 0.492475
O O4 0.568603 0.973689 0.381727
O O5 0.125017 0.423258 0.866317
O O6 0.079114 0.519526 0.727534
O O7 0.646293 0.967992 0.829728
O O8 0.000000 0.500000 0.000000
O O9 0.500000 0.500000 0.000000
O O10 0.620631 0.419536 0.006484
O O11 0.000000 0.000000 0.000000
O O12 0.282706 0.395098 0.719242
O O13 0.000000 0.500000 0.500000
O O14 0.500000 0.500000 0.500000
O O15 0.000000 0.000000 0.500000
#
# Coordination Sequence:
#
# PCOD9067735 Si02
#       6
#     2   2   2   2   2   2
#     4  11  26  46  70 108 141 184 241 290 361 419
#     4  12  26  45  71 103 140 183 230 286 357 417
#     4  12  27  47  73 103 143 190 240 291 351 420
#     4  12  25  46  68 102 140 179 237 283 347 422
#     4  11  26  44  75 104 144 188 232 301 354 427
#     4  12  25  44  71 100 138 181 230 290 344 413
#
# _framework density 21.555323999999999
#
# number of rings (size 3 to 8) (size 9 to 14) (size 15 to 20)
#    0.000    0.333    1.667    6.500    9.333    0.000 
#    0.000    0.000    0.000    0.000    0.000    0.000 
#    0.000    0.000    0.000    0.000    0.000    0.000 
#
# Total GULP energy -66925.099981 kJ/mol
# GULP energy per Si atom -5577.091665 kJ/mol
# Density = 2.150626 g / cm^3
# Si number density = 21.555324 Si / 1000 Ang^3
#
#
#
# Elastic Constant Matrix: (Units=GPa)
#
#
# Indices 1 2 3 4 5 6 
#
# 1 287.7546 42.2115 1.8734 -48.8297 27.1981 45.4558
# 2 42.2115 92.8200 -26.3311 -10.6318 7.8975 22.7630
# 3 1.8734 -26.3311 150.1423 9.8113 -26.8162 1.0526
# 4 -48.8297 -10.6318 9.8113 50.0973 -25.1345 4.1807
# 5 27.1981 7.8975 -26.8162 -25.1345 66.5613 -3.0749
# 6 45.4558 22.7630 1.0526 4.1807 -3.0749 39.3702
#
#
#
# Elastic Compliance Matrix: (Units=1/GPa)
#
#
# Indices 1 2 3 4 5 6 
#
# 1 0.005693 -0.000293 -0.000569 0.005872 -0.000630 -0.007062
# 2 -0.000293 0.013863 0.002326 0.002950 0.000154 -0.008041
# 3 -0.000569 0.002326 0.007615 0.000006 0.002996 -0.000658
# 4 0.005872 0.002950 0.000006 0.031589 0.008666 -0.011163
# 5 -0.000630 0.000154 0.002996 0.008666 0.019797 0.001184
# 6 -0.007062 -0.008041 -0.000658 -0.011163 0.001184 0.039498
#
#
# Mechanical properties :
#
#
# Convention : Reuss Voigt Hill
#
# Bulk Modulus (GPa) = 33.22262 62.91383 48.06823
# Shear Modulus (GPa) = 39.94931 65.40328 52.67629
#
# Velocity S-wave (km/s) = 4.30971 5.51434 4.94882
# Velocity P-wave (km/s) = 6.34121 8.35430 7.41638
#
# Compressibility (1/GPa) = 0.03009997
#
# Stress axis : x y z
#
# Youngs Moduli (GPa) = 175.64651 72.13375 131.32418
#
# Poissons Ratio (x) = 0.02111 0.07473
# Poissons Ratio (y) = 0.05139 -0.30547
# Poissons Ratio (z) = 0.09995 -0.16779
#
# Static dielectric constant tensor:
#      x y z
#    x 1.348450 0.229260 -0.028020 
#    y 0.229260 1.707590 -0.080400 
#    z -0.028020 -0.080400 1.706490 
# 
# From -- ./inp_files/22757.got.cif
#   From: 2010.05.17/outbox.cif.g08.bks.cpg/sg2_12_cif.got.tgz:22757.got - 2010.06.03 11:33:40.
