data_PCOD9067833
_publ_section_title
;
Structure prediction by ZEFSAII (Michael W. Deem and Ramdas Pophale) SiO2 
 PCOD9067833
Probable space group: P -1
;
_chemical_formula_sum "Si O2"
_cell_formula_units_Z 14
_cell_length_a 23.779505
_cell_length_b 5.152352
_cell_length_c 5.032031
_cell_angle_alpha 93.216440
_cell_angle_beta 125.491423
_cell_angle_gamma 88.453733
_cell_volume 501.174643
_symmetry_space_group_name_H-M "P -1"
_symmetry_group_IT_number 2
_symmetry_cell_setting 'triclinic'
loop_
_space_group_symop_operation_xyz
x,y,z
-x,-y,-z
loop_
_atom_site_type_symbol
_atom_site_label
_atom_site_fract_x
_atom_site_fract_y
_atom_site_fract_z
Si Si1 0.997693 0.244261 0.809191
Si Si2 0.200866 0.407912 0.657441
Si Si3 0.653514 0.806154 0.936518
Si Si4 0.772622 0.247681 0.727219
Si Si5 0.885005 0.929598 0.256949
Si Si6 0.628610 0.284502 0.505611
Si Si7 0.486927 0.239732 0.278670
O O1 0.808871 0.385483 0.588227
O O2 0.060304 0.229340 0.773083
O O3 0.000000 0.500000 0.000000
O O4 0.000000 0.000000 0.000000
O O5 0.138514 0.220181 0.553138
O O6 0.073765 0.805684 0.547441
O O7 0.218748 0.568475 0.981483
O O8 0.731528 0.760639 0.235676
O O9 0.637188 0.569256 0.673440
O O10 0.594869 0.774138 0.000927
O O11 0.645583 0.072071 0.767899
O O12 0.689557 0.236736 0.458345
O O13 0.814904 0.993922 0.911664
O O14 0.546806 0.243923 0.219248
O O15 0.500000 0.500000 0.500000
O O16 0.500000 0.000000 0.500000
#
# Coordination Sequence:
#
# PCOD9067833 Si02
#       7
#     2   2   2   2   2   2   2
#     4  11  30  53  85 116 158 200 258 312 392 472
#     4  11  26  45  75 110 154 201 258 314 385 456
#     4   9  17  36  59  99 141 192 249 311 372 446
#     4  11  26  45  75 110 154 201 258 314 385 456
#     4  11  28  50  80 117 158 200 260 319 390 470
#     4   9  17  36  59  99 141 192 249 311 372 446
#     4   8  14  26  57  88 136 189 243 305 374 433
#
# _framework density 27.934370999999999
#
# number of rings (size 3 to 8) (size 9 to 14) (size 15 to 20)
#    0.000    2.000    1.429    0.000    8.000    1.143 
#    0.000    2.857    0.000    0.000    0.000   18.000 
#    0.000    0.000    0.000    1.286    0.000    0.143 
#
# Total GULP energy -78635.111352 kJ/mol
# GULP energy per Si atom -5616.793668 kJ/mol
# Density = 2.787079 g / cm^3
# Si number density = 27.934371 Si / 1000 Ang^3
#
#
#
# Elastic Constant Matrix: (Units=GPa)
#
#
# Indices 1 2 3 4 5 6 
#
# 1 239.1197 54.6879 52.6054 5.3269 28.3198 3.5886
# 2 54.6879 151.1381 38.7932 5.9250 -9.6013 4.7471
# 3 52.6054 38.7932 95.4314 2.5200 6.0085 4.1781
# 4 5.3269 5.9250 2.5200 44.0407 5.3955 -6.5187
# 5 28.3198 -9.6013 6.0085 5.3955 55.6521 -6.0199
# 6 3.5886 4.7471 4.1781 -6.5187 -6.0199 46.8534
#
#
#
# Elastic Compliance Matrix: (Units=1/GPa)
#
#
# Indices 1 2 3 4 5 6 
#
# 1 0.005342 -0.001552 -0.002118 -0.000036 -0.002800 -0.000428
# 2 -0.001552 0.008040 -0.002529 -0.001103 0.002525 -0.000299
# 3 -0.002118 -0.002529 0.012767 -0.000160 -0.000813 -0.000847
# 4 -0.000036 -0.001103 -0.000160 0.023591 -0.002102 0.003141
# 5 -0.002800 0.002525 -0.000813 -0.002102 0.020376 0.002357
# 6 -0.000428 -0.000299 -0.000847 0.003141 0.002357 0.022222
#
#
# Mechanical properties :
#
#
# Convention : Reuss Voigt Hill
#
# Bulk Modulus (GPa) = 72.72641 86.42913 79.57777
# Shear Modulus (GPa) = 45.73763 51.94940 48.84351
#
# Velocity S-wave (km/s) = 4.05078 4.31710 4.18605
# Velocity P-wave (km/s) = 6.92601 7.47375 7.20509
#
# Compressibility (1/GPa) = 0.01375016
#
# Stress axis : x y z
#
# Youngs Moduli (GPa) = 187.20407 124.37108 78.32847
#
# Poissons Ratio (x) = 0.19307 0.16586
# Poissons Ratio (y) = 0.29061 0.19813
# Poissons Ratio (z) = 0.39641 0.31460
#
# Static dielectric constant tensor:
#      x y z
#    x 2.159990 -0.019280 0.083940 
#    y -0.019280 2.143840 0.041680 
#    z 0.083940 0.041680 2.171570 
# 
# From -- ./inp_files/125585.got.cif
#   From: 2010.05.17/outbox.cif.g08.bks.cpg/sg2_63_cif.got.tgz:125585.got - 2010.06.03 11:33:40.
