data_PCOD9067255
_publ_section_title
;
Structure prediction by ZEFSAII (Michael W. Deem and Ramdas Pophale) SiO2 
 PCOD9067255
Probable space group: P -1
;
_chemical_formula_sum "Si O2"
_cell_formula_units_Z 14
_cell_length_a 9.221935
_cell_length_b 18.115957
_cell_length_c 7.942015
_cell_angle_alpha 109.130909
_cell_angle_beta 60.379870
_cell_angle_gamma 149.032867
_cell_volume 579.647053
_symmetry_space_group_name_H-M "P -1"
_symmetry_group_IT_number 2
_symmetry_cell_setting 'triclinic'
loop_
_space_group_symop_operation_xyz
x,y,z
-x,-y,-z
loop_
_atom_site_type_symbol
_atom_site_label
_atom_site_fract_x
_atom_site_fract_y
_atom_site_fract_z
Si Si1 0.290660 0.874336 0.890025
Si Si2 0.220249 0.916955 0.478436
Si Si3 0.963777 0.381953 0.019081
Si Si4 0.862760 0.845359 0.110479
Si Si5 0.239096 0.530089 0.322746
Si Si6 0.724926 0.846696 0.830787
Si Si7 0.848499 0.611551 0.422701
O O1 0.084118 0.726582 0.980357
O O2 0.558423 0.945838 0.671189
O O3 0.069985 0.855224 0.930263
O O4 0.500000 0.000000 0.000000
O O5 0.937983 0.860277 0.654107
O O6 0.072717 0.775867 0.398865
O O7 0.500000 0.000000 0.500000
O O8 0.621603 0.286146 0.145664
O O9 0.187557 0.499656 0.128539
O O10 0.069087 0.419652 0.792067
O O11 0.593513 0.700888 0.271473
O O12 0.705902 0.828003 0.030405
O O13 0.086393 0.997267 0.183862
O O14 0.157263 0.423810 0.409289
O O15 0.000000 0.500000 0.500000
O O16 0.500000 0.500000 0.500000
#
# Coordination Sequence:
#
# PCOD9067255 Si02
#       7
#     2   2   2   2   2   2   2
#     4  12  23  45  74 108 145 193 248 311 368 444
#     4  12  26  46  77 110 148 191 257 312 374 446
#     4  12  28  51  78 111 156 201 252 313 385 445
#     4  11  25  48  75 111 147 197 257 306 379 449
#     4  12  31  48  77 113 156 196 253 312 378 457
#     4  11  26  46  81 109 146 197 253 321 373 440
#     4  12  29  51  77 113 154 205 252 305 382 460
#
# _framework density 24.152628
#
# number of rings (size 3 to 8) (size 9 to 14) (size 15 to 20)
#    0.000    0.286    4.286    2.571   10.000    2.857 
#    0.000    0.000    0.000    0.000    0.000    0.000 
#    0.000    0.000    0.000    0.000    0.000    0.000 
#
# Total GULP energy -78289.840342 kJ/mol
# GULP energy per Si atom -5592.131453 kJ/mol
# Density = 2.409766 g / cm^3
# Si number density = 24.152628 Si / 1000 Ang^3
#
#
#
# Elastic Constant Matrix: (Units=GPa)
#
#
# Indices 1 2 3 4 5 6 
#
# 1 115.6641 27.4041 18.6520 0.8047 -10.0708 9.8100
# 2 27.4041 123.0051 24.6106 -8.0039 -1.3213 -6.0524
# 3 18.6520 24.6106 103.5576 -12.3704 -12.4632 5.7046
# 4 0.8047 -8.0039 -12.3704 31.2913 2.1746 -0.4989
# 5 -10.0708 -1.3213 -12.4632 2.1746 39.8687 -3.7323
# 6 9.8100 -6.0524 5.7046 -0.4989 -3.7323 41.6468
#
#
#
# Elastic Compliance Matrix: (Units=1/GPa)
#
#
# Indices 1 2 3 4 5 6 
#
# 1 0.009690 -0.002131 -0.001047 -0.001378 0.001910 -0.002294
# 2 -0.002131 0.009169 -0.001779 0.001778 -0.000697 0.002037
# 3 -0.001047 -0.001779 0.011125 0.003753 0.002834 -0.001237
# 4 -0.001378 0.001778 0.003753 0.034003 -0.000934 0.000392
# 5 0.001910 -0.000697 0.002834 -0.000934 0.026613 0.001434
# 6 -0.002294 0.002037 -0.001237 0.000392 0.001434 0.025151
#
#
# Mechanical properties :
#
#
# Convention : Reuss Voigt Hill
#
# Bulk Modulus (GPa) = 49.82616 53.72892 51.77754
# Shear Modulus (GPa) = 37.77719 40.66537 39.22128
#
# Velocity S-wave (km/s) = 3.95916 4.10772 4.03413
# Velocity P-wave (km/s) = 6.44783 6.69266 6.57138
#
# Compressibility (1/GPa) = 0.02006978
#
# Stress axis : x y z
#
# Youngs Moduli (GPa) = 103.19890 109.06425 89.88478
#
# Poissons Ratio (x) = 0.23245 0.09412
# Poissons Ratio (y) = 0.21995 0.15989
# Poissons Ratio (z) = 0.10806 0.19401
#
# Static dielectric constant tensor:
#      x y z
#    x 1.927210 -0.014850 0.085190 
#    y -0.014850 1.854550 0.026620 
#    z 0.085190 0.026620 2.146430 
# 
# From -- ./inp_files/218003.got.cif
#   From: 2010.05.17/outbox.cif.g08.bks.cpg/sg2_110_cif.got.tgz:218003.got - 2010.06.03 11:33:40.
