data_PCOD9067202
_publ_section_title
;
Structure prediction by ZEFSAII (Michael W. Deem and Ramdas Pophale) SiO2 
 PCOD9067202
Probable space group: P -1
;
_chemical_formula_sum "Si O2"
_cell_formula_units_Z 16
_cell_length_a 21.951830
_cell_length_b 13.206153
_cell_length_c 8.486334
_cell_angle_alpha 51.963307
_cell_angle_beta 32.062401
_cell_angle_gamma 32.111259
_cell_volume 647.593708
_symmetry_space_group_name_H-M "P -1"
_symmetry_group_IT_number 2
_symmetry_cell_setting 'triclinic'
loop_
_space_group_symop_operation_xyz
x,y,z
-x,-y,-z
loop_
_atom_site_type_symbol
_atom_site_label
_atom_site_fract_x
_atom_site_fract_y
_atom_site_fract_z
Si Si1 0.658032 0.766053 0.333394
Si Si2 0.761528 0.264236 0.351895
Si Si3 0.236970 0.227830 0.234501
Si Si4 0.179360 0.533783 0.493614
Si Si5 0.541334 0.280208 0.373534
Si Si6 0.101011 0.612956 0.260433
Si Si7 0.023318 0.083194 0.234196
Si Si8 0.460586 0.785954 0.196497
O O1 0.782295 0.632093 0.341120
O O2 0.551407 0.731972 0.538933
O O3 0.500000 0.000000 0.500000
O O4 0.764802 0.721349 0.989856
O O5 0.570500 0.490073 0.620297
O O6 0.926631 0.119992 0.251548
O O7 0.704092 0.171132 0.518227
O O8 0.821214 0.319126 0.037703
O O9 0.214387 0.377555 0.240092
O O10 0.063860 0.286855 0.586037
O O11 0.403468 0.984377 0.114803
O O12 0.045219 0.672975 0.507329
O O13 0.098300 0.691158 0.658963
O O14 0.373626 0.392996 0.114585
O O15 0.500785 0.271329 0.649420
O O16 0.759542 0.085938 0.080466
O O17 0.000000 0.000000 0.500000
#
# Coordination Sequence:
#
# PCOD9067202 Si02
#       8
#     2   2   2   2   2   2   2   2
#     4  12  26  46  74 107 152 199 252 310 383 449
#     4  12  26  53  76 113 152 199 254 317 372 460
#     4  11  25  48  73 110 146 204 245 324 375 451
#     4  12  26  47  74 115 147 201 251 321 374 454
#     4  12  27  51  75 108 155 204 248 311 383 446
#     4  11  26  47  77 107 153 192 263 310 379 449
#     4  12  30  46  75 112 157 198 249 313 387 448
#     4  12  27  45  84 107 148 201 259 307 377 449
#
# _framework density 24.706851
#
# number of rings (size 3 to 8) (size 9 to 14) (size 15 to 20)
#    0.000    0.250    5.000    1.875    8.750    4.500 
#    0.000    0.000    0.000    0.000    0.000    0.000 
#    0.000    0.000    0.000    0.000    0.000    0.000 
#
# Total GULP energy -89376.718859 kJ/mol
# GULP energy per Si atom -5586.044929 kJ/mol
# Density = 2.465062 g / cm^3
# Si number density = 24.706851 Si / 1000 Ang^3
#
#
#
# Elastic Constant Matrix: (Units=GPa)
#
#
# Indices 1 2 3 4 5 6 
#
# 1 81.8144 6.7460 2.7092 -4.9059 -2.5734 -1.1992
# 2 6.7460 115.6415 10.6550 12.3696 4.8204 0.1827
# 3 2.7092 10.6550 45.9562 15.1971 3.8109 0.1297
# 4 -4.9059 12.3696 15.1971 47.4303 -8.0849 5.7810
# 5 -2.5734 4.8204 3.8109 -8.0849 32.3183 -2.3861
# 6 -1.1992 0.1827 0.1297 5.7810 -2.3861 51.5937
#
#
#
# Elastic Compliance Matrix: (Units=1/GPa)
#
#
# Indices 1 2 3 4 5 6 
#
# 1 0.012547 -0.000925 -0.001447 0.002310 0.001895 0.000127
# 2 -0.000925 0.009146 -0.001089 -0.002476 -0.001919 0.000138
# 3 -0.001447 -0.001089 0.025499 -0.008998 -0.005161 0.000676
# 4 0.002310 -0.002476 -0.008998 0.026533 0.008066 -0.002515
# 5 0.001895 -0.001919 -0.005161 0.008066 0.034060 0.000735
# 6 0.000127 0.000138 0.000676 -0.002515 0.000735 0.019699
#
#
# Mechanical properties :
#
#
# Convention : Reuss Voigt Hill
#
# Bulk Modulus (GPa) = 24.83107 31.51474 28.17290
# Shear Modulus (GPa) = 33.82315 41.15525 37.48920
#
# Velocity S-wave (km/s) = 3.70399 4.08578 3.89956
# Velocity P-wave (km/s) = 5.32586 5.91957 5.63054
#
# Compressibility (1/GPa) = 0.04027212
#
# Stress axis : x y z
#
# Youngs Moduli (GPa) = 79.70077 109.33408 39.21723
#
# Poissons Ratio (x) = 0.10113 0.05673
# Poissons Ratio (y) = 0.07372 0.04269
# Poissons Ratio (z) = 0.11529 0.11902
#
# Static dielectric constant tensor:
#      x y z
#    x 1.965540 0.002700 -0.036000 
#    y 0.002700 1.729900 -0.110170 
#    z -0.036000 -0.110170 1.921330 
# 
# From -- ./inp_files/354503.got.cif
#   From: 2010.05.17/outbox.cif.g08.bks.cpg/sg2_178_cif.got.tgz:354503.got - 2010.06.03 11:33:40.
