data_PCOD9067177
_publ_section_title
;
Structure prediction by ZEFSAII (Michael W. Deem and Ramdas Pophale) SiO2 
 PCOD9067177
Probable space group: P -1
;
_chemical_formula_sum "Si O2"
_cell_formula_units_Z 13
_cell_length_a 8.555638
_cell_length_b 15.751260
_cell_length_c 9.673559
_cell_angle_alpha 133.789406
_cell_angle_beta 106.747085
_cell_angle_gamma 43.795677
_cell_volume 590.157359
_symmetry_space_group_name_H-M "P -1"
_symmetry_group_IT_number 2
_symmetry_cell_setting 'triclinic'
loop_
_space_group_symop_operation_xyz
x,y,z
-x,-y,-z
loop_
_atom_site_type_symbol
_atom_site_label
_atom_site_fract_x
_atom_site_fract_y
_atom_site_fract_z
Si Si1 0.982891 0.176485 0.092979
Si Si2 0.874247 0.466178 0.516006
Si Si3 0.890506 0.592933 0.224876
Si Si4 0.297665 0.791305 0.694580
Si Si5 0.032278 0.101023 0.528203
Si Si6 0.500000 0.000000 0.500000
Si Si7 0.238329 0.598574 0.987479
O O1 0.034367 0.264150 0.293556
O O2 0.806542 0.198271 0.174025
O O3 0.838931 0.295923 0.054417
O O4 0.221099 0.970416 0.877625
O O5 0.588980 0.606878 0.556802
O O6 0.000000 0.500000 0.500000
O O7 0.892328 0.489375 0.706770
O O8 0.704881 0.802772 0.403171
O O9 0.767776 0.538298 0.185784
O O10 0.000000 0.500000 0.000000
O O11 0.149847 0.814565 0.554622
O O12 0.307697 0.986966 0.421438
O O13 0.957079 0.250103 0.777026
O O14 0.000000 0.000000 0.500000
O O15 0.500000 0.500000 0.000000
#
# Coordination Sequence:
#
# PCOD9067177 Si02
#       7
#     2   2   2   2   2   1   2
#     4  11  25  48  72 106 146 200 243 310 377 450
#     4  12  27  47  73 107 149 193 248 304 378 452
#     4  12  28  48  73 111 148 196 248 323 378 445
#     4  11  27  48  76 108 152 197 251 307 380 451
#     4  12  25  48  79 115 154 204 253 315 378 448
#     4  12  28  48  78 114 156 188 264 314 380 456
#     4  12  25  46  75 107 151 199 259 310 382 456
#
# _framework density 22.028023999999998
#
# number of rings (size 3 to 8) (size 9 to 14) (size 15 to 20)
#    0.000    0.308    4.615    3.231    4.308    3.077 
#    0.000    0.000    0.000    0.000    0.000    0.000 
#    0.000    0.000    0.000    0.000    0.000    0.000 
#
# Total GULP energy -72449.570270 kJ/mol
# GULP energy per Si atom -5573.043867 kJ/mol
# Density = 2.197789 g / cm^3
# Si number density = 22.028024 Si / 1000 Ang^3
#
#
#
# Elastic Constant Matrix: (Units=GPa)
#
#
# Indices 1 2 3 4 5 6 
#
# 1 82.6177 44.4244 3.6329 -1.4896 24.8250 2.1258
# 2 44.4244 141.4176 34.4568 -21.9269 4.5580 6.5508
# 3 3.6329 34.4568 88.3369 -16.6488 17.7608 10.4299
# 4 -1.4896 -21.9269 -16.6488 47.0154 12.5589 15.1713
# 5 24.8250 4.5580 17.7608 12.5589 32.9023 4.1125
# 6 2.1258 6.5508 10.4299 15.1713 4.1125 42.6125
#
#
#
# Elastic Compliance Matrix: (Units=1/GPa)
#
#
# Indices 1 2 3 4 5 6 
#
# 1 0.022645 -0.007131 0.008064 0.007110 -0.022873 -0.002331
# 2 -0.007131 0.010601 -0.004401 0.002133 0.005661 -0.001502
# 3 0.008064 -0.004401 0.020188 0.013211 -0.020491 -0.007393
# 4 0.007110 0.002133 0.013211 0.038989 -0.025760 -0.015311
# 5 -0.022873 0.005661 -0.020491 -0.025760 0.066759 0.008015
# 6 -0.002331 -0.001502 -0.007393 -0.015311 0.008015 0.030302
#
#
# Mechanical properties :
#
#
# Convention : Reuss Voigt Hill
#
# Bulk Modulus (GPa) = 21.50581 53.04449 37.27515
# Shear Modulus (GPa) = 23.59396 39.82991 31.71194
#
# Velocity S-wave (km/s) = 3.27630 4.25684 3.79835
# Velocity P-wave (km/s) = 4.90880 6.94937 6.01623
#
# Compressibility (1/GPa) = 0.04649906
#
# Stress axis : x y z
#
# Youngs Moduli (GPa) = 44.16019 94.32728 49.53479
#
# Poissons Ratio (x) = 0.67264 -0.39946
# Poissons Ratio (y) = 0.31490 0.21799
# Poissons Ratio (z) = -0.35612 0.41512
#
# Static dielectric constant tensor:
#      x y z
#    x 1.879570 0.052010 0.000590 
#    y 0.052010 1.780480 0.011970 
#    z 0.000590 0.011970 1.829990 
# 
# From -- ./inp_files/159894.got.cif
#   From: 2010.05.17/outbox.cif.g08.bks.cpg/sg2_80_cif.got.tgz:159894.got - 2010.06.03 11:33:40.
