data_PCOD9067883
_publ_section_title
;
Structure prediction by ZEFSAII (Michael W. Deem and Ramdas Pophale) SiO2 
 PCOD9067883
Probable space group: P -1
;
_chemical_formula_sum "Si O2"
_cell_formula_units_Z 16
_cell_length_a 9.354523
_cell_length_b 6.855944
_cell_length_c 19.696614
_cell_angle_alpha 124.918144
_cell_angle_beta 123.263586
_cell_angle_gamma 47.483851
_cell_volume 735.661480
_symmetry_space_group_name_H-M "P -1"
_symmetry_group_IT_number 2
_symmetry_cell_setting 'triclinic'
loop_
_space_group_symop_operation_xyz
x,y,z
-x,-y,-z
loop_
_atom_site_type_symbol
_atom_site_label
_atom_site_fract_x
_atom_site_fract_y
_atom_site_fract_z
Si Si1 0.186320 0.907971 0.267543
Si Si2 0.572356 0.719436 0.856547
Si Si3 0.495011 0.520399 0.084334
Si Si4 0.916744 0.436141 0.209011
Si Si5 0.227023 0.780184 0.536588
Si Si6 0.149744 0.093428 0.084247
Si Si7 0.177380 0.981279 0.708966
Si Si8 0.449909 0.133132 0.438439
O O1 0.296793 0.591371 0.204927
O O2 0.355346 0.974098 0.345738
O O3 0.048987 0.155069 0.228693
O O4 0.023592 0.966123 0.295838
O O5 0.531459 0.690210 0.918461
O O6 0.710648 0.852537 0.917117
O O7 0.363376 0.888313 0.791981
O O8 0.699395 0.485920 0.154321
O O9 0.313099 0.828707 0.116912
O O10 0.500000 0.500000 0.000000
O O11 0.018256 0.371346 0.148620
O O12 0.888932 0.721770 0.283816
O O13 0.249491 0.771454 0.622571
O O14 0.293862 0.468092 0.468700
O O15 0.365737 0.879307 0.556465
O O16 0.000000 0.000000 0.500000
O O17 0.000000 0.000000 0.000000
O O18 0.500000 0.000000 0.500000
#
# Coordination Sequence:
#
# PCOD9067883 Si02
#       8
#     2   2   2   2   2   2   2   2
#     4  12  26  44  73 104 143 188 238 294 356 422
#     4  12  27  45  73 107 140 188 245 293 363 432
#     4  12  26  47  71 103 142 185 237 300 360 430
#     4  12  25  45  69 103 140 183 235 293 358 421
#     4  11  26  46  71 106 147 191 236 290 354 421
#     4  12  26  47  71 101 145 184 233 302 362 424
#     4  12  26  44  73 104 143 188 239 295 352 426
#     4  11  26  46  71 106 148 188 237 290 354 422
#
# _framework density 21.749134999999999
#
# number of rings (size 3 to 8) (size 9 to 14) (size 15 to 20)
#    0.000    0.250    6.250    2.250    3.500    7.000 
#    2.250    0.000    0.000    0.000    0.000    0.000 
#    0.000    0.000    0.000    0.000    0.000    0.000 
#
# Total GULP energy -89403.385690 kJ/mol
# GULP energy per Si atom -5587.711606 kJ/mol
# Density = 2.169963 g / cm^3
# Si number density = 21.749135 Si / 1000 Ang^3
#
#
#
# Elastic Constant Matrix: (Units=GPa)
#
#
# Indices 1 2 3 4 5 6 
#
# 1 139.7680 42.5680 36.4718 -3.4536 15.5112 10.5192
# 2 42.5680 110.5117 28.3622 -1.9037 15.3772 -11.1343
# 3 36.4718 28.3622 76.6513 3.1413 13.2502 3.8092
# 4 -3.4536 -1.9037 3.1413 38.2475 -2.0419 2.4667
# 5 15.5112 15.3772 13.2502 -2.0419 37.9958 1.5318
# 6 10.5192 -11.1343 3.8092 2.4667 1.5318 39.6099
#
#
#
# Elastic Compliance Matrix: (Units=1/GPa)
#
#
# Indices 1 2 3 4 5 6 
#
# 1 0.009210 -0.002874 -0.002975 0.001051 -0.001383 -0.002980
# 2 -0.002874 0.011681 -0.002697 0.000111 -0.002786 0.004407
# 3 -0.002975 -0.002697 0.016183 -0.001830 -0.003384 -0.001280
# 4 0.001051 0.000111 -0.001830 0.026601 0.001666 -0.001793
# 5 -0.001383 -0.002786 -0.003384 0.001666 0.029334 -0.001329
# 6 -0.002980 0.004407 -0.001280 -0.001793 -0.001329 0.027562
#
#
# Mechanical properties :
#
#
# Convention : Reuss Voigt Hill
#
# Bulk Modulus (GPa) = 50.04177 60.19278 55.11728
# Shear Modulus (GPa) = 34.64432 37.80590 36.22511
#
# Velocity S-wave (km/s) = 3.99545 4.17378 4.08559
# Velocity P-wave (km/s) = 6.65909 7.13886 6.90314
#
# Compressibility (1/GPa) = 0.01998330
#
# Stress axis : x y z
#
# Youngs Moduli (GPa) = 108.57869 85.60577 61.79288
#
# Poissons Ratio (x) = 0.24601 0.18382
# Poissons Ratio (y) = 0.31203 0.16665
# Poissons Ratio (z) = 0.32301 0.23087
#
# Static dielectric constant tensor:
#      x y z
#    x 1.798890 0.006280 -0.046760 
#    y 0.006280 1.769080 0.004330 
#    z -0.046760 0.004330 1.794420 
# 
# From -- ./inp_files/48024.got.cif
#   From: 2010.05.17/outbox.cif.g08.bks.cpg/sg2_25_cif.got.tgz:48024.got - 2010.06.03 11:33:40.
