data_PCOD9067286
_publ_section_title
;
Structure prediction by ZEFSAII (Michael W. Deem and Ramdas Pophale) SiO2 
 PCOD9067286
Probable space group: P -1
;
_chemical_formula_sum "Si O2"
_cell_formula_units_Z 14
_cell_length_a 6.754962
_cell_length_b 15.055750
_cell_length_c 13.812899
_cell_angle_alpha 149.452555
_cell_angle_beta 107.442153
_cell_angle_gamma 61.089050
_cell_volume 603.153715
_symmetry_space_group_name_H-M "P -1"
_symmetry_group_IT_number 2
_symmetry_cell_setting 'triclinic'
loop_
_space_group_symop_operation_xyz
x,y,z
-x,-y,-z
loop_
_atom_site_type_symbol
_atom_site_label
_atom_site_fract_x
_atom_site_fract_y
_atom_site_fract_z
Si Si1 0.175487 0.684471 0.285303
Si Si2 0.521193 0.908366 0.685801
Si Si3 0.638599 0.312105 0.409724
Si Si4 0.295871 0.625995 0.880046
Si Si5 0.727001 0.100248 0.037669
Si Si6 0.060456 0.358938 0.612716
Si Si7 0.016500 0.125300 0.762874
O O1 0.453148 0.536408 0.193888
O O2 0.036916 0.604398 0.258560
O O3 0.094937 0.723957 0.199899
O O4 0.087542 0.905229 0.525463
O O5 0.475829 0.731604 0.554837
O O6 0.688100 0.831767 0.545322
O O7 0.271520 0.093359 0.802818
O O8 0.653557 0.960762 0.837243
O O9 0.500000 0.500000 0.500000
O O10 0.648707 0.148256 0.181625
O O11 0.872631 0.322322 0.487509
O O12 0.339678 0.714324 0.870195
O O13 0.114840 0.535528 0.754414
O O14 0.160954 0.801318 0.103602
O O15 0.000000 0.000000 0.000000
#
# Coordination Sequence:
#
# PCOD9067286 Si02
#       7
#     2   2   2   2   2   2   2
#     4  11  25  51  72 108 142 191 240 297 361 428
#     4  12  25  48  69 106 146 188 242 299 351 432
#     4  12  26  43  69 104 143 195 238 294 358 426
#     4  12  27  48  72 108 148 187 241 298 353 436
#     4  12  26  45  71 102 144 192 239 290 361 421
#     4  12  24  46  72 103 150 182 240 297 355 430
#     4  11  25  48  77 102 147 188 240 297 364 423
#
# _framework density 23.211328000000002
#
# number of rings (size 3 to 8) (size 9 to 14) (size 15 to 20)
#    0.000    0.286    4.286    4.286    6.000    2.286 
#    2.571    0.000    0.000    0.000    0.000    0.000 
#    0.000    0.000    0.000    0.000    0.000    0.000 
#
# Total GULP energy -78228.668268 kJ/mol
# GULP energy per Si atom -5587.762019 kJ/mol
# Density = 2.315850 g / cm^3
# Si number density = 23.211328 Si / 1000 Ang^3
#
#
#
# Elastic Constant Matrix: (Units=GPa)
#
#
# Indices 1 2 3 4 5 6 
#
# 1 126.2560 49.2592 30.7773 6.2786 0.3634 -4.4611
# 2 49.2592 133.7069 5.6179 6.2684 -7.4754 -15.5614
# 3 30.7773 5.6179 68.8565 -2.7629 -7.1376 -8.3307
# 4 6.2786 6.2684 -2.7629 34.5897 5.4127 -10.2284
# 5 0.3634 -7.4754 -7.1376 5.4127 40.4878 4.7072
# 6 -4.4611 -15.5614 -8.3307 -10.2284 4.7072 38.6891
#
#
#
# Elastic Compliance Matrix: (Units=1/GPa)
#
#
# Indices 1 2 3 4 5 6 
#
# 1 0.010669 -0.003907 -0.004866 -0.001947 -0.001210 -0.001757
# 2 -0.003907 0.009348 0.001564 -0.000109 0.001654 0.003416
# 3 -0.004866 0.001564 0.017465 0.002864 0.002531 0.004278
# 4 -0.001947 -0.000109 0.002864 0.033185 -0.005066 0.009738
# 5 -0.001210 0.001654 0.002531 -0.005066 0.026545 -0.003498
# 6 -0.001757 0.003416 0.004278 0.009738 -0.003498 0.030940
#
#
# Mechanical properties :
#
#
# Convention : Reuss Voigt Hill
#
# Bulk Modulus (GPa) = 43.35759 55.56979 49.46369
# Shear Modulus (GPa) = 33.27599 38.96434 36.12016
#
# Velocity S-wave (km/s) = 3.79041 4.10161 3.94908
# Velocity P-wave (km/s) = 6.15438 6.81350 6.49231
#
# Compressibility (1/GPa) = 0.02306401
#
# Stress axis : x y z
#
# Youngs Moduli (GPa) = 93.72723 106.97605 57.25634
#
# Poissons Ratio (x) = 0.41796 0.27863
# Poissons Ratio (y) = 0.36620 -0.08955
# Poissons Ratio (z) = 0.45610 -0.16732
#
# Static dielectric constant tensor:
#      x y z
#    x 1.859110 -0.040110 0.039970 
#    y -0.040110 1.743590 0.114010 
#    z 0.039970 0.114010 1.888230 
# 
# From -- ./inp_files/48387.got.cif
#   From: 2010.05.17/outbox.cif.g08.bks.cpg/sg2_25_cif.got.tgz:48387.got - 2010.06.03 11:33:40.
