data_PCOD9067173
_publ_section_title
;
Structure prediction by ZEFSAII (Michael W. Deem and Ramdas Pophale) SiO2 
 PCOD9067173
Probable space group: P -1
;
_chemical_formula_sum "Si O2"
_cell_formula_units_Z 15
_cell_length_a 8.816589
_cell_length_b 11.512854
_cell_length_c 12.276875
_cell_angle_alpha 32.356471
_cell_angle_beta 102.554156
_cell_angle_gamma 95.880581
_cell_volume 643.073099
_symmetry_space_group_name_H-M "P -1"
_symmetry_group_IT_number 2
_symmetry_cell_setting 'triclinic'
loop_
_space_group_symop_operation_xyz
x,y,z
-x,-y,-z
loop_
_atom_site_type_symbol
_atom_site_label
_atom_site_fract_x
_atom_site_fract_y
_atom_site_fract_z
Si Si1 0.824601 0.423256 0.665530
Si Si2 0.000000 0.000000 0.500000
Si Si3 0.382015 0.943701 0.116589
Si Si4 0.223083 0.367468 0.269517
Si Si5 0.189657 0.839176 0.495835
Si Si6 0.812689 0.605707 0.287517
Si Si7 0.346329 0.665822 0.884140
Si Si8 0.488990 0.933821 0.365572
O O1 0.809698 0.539017 0.688230
O O2 0.766986 0.572712 0.432513
O O3 0.008451 0.353060 0.723742
O O4 0.734413 0.214977 0.818210
O O5 0.897995 0.793239 0.652493
O O6 0.018840 0.967977 0.391222
O O7 0.291023 0.182491 0.948263
O O8 0.500000 0.000000 0.000000
O O9 0.467409 0.834223 0.323326
O O10 0.400002 0.231780 0.409314
O O11 0.238095 0.552257 0.036978
O O12 0.198175 0.620074 0.599523
O O13 0.235230 0.772059 0.682855
O O14 0.317921 0.975746 0.360808
O O15 0.421851 0.860039 0.796926
O O16 0.500000 0.500000 0.000000
#
# Coordination Sequence:
#
# PCOD9067173 Si02
#       8
#     2   1   2   2   2   2   2   2
#     4  11  25  48  72 103 142 189 229 296 351 420
#     4  12  26  48  70 106 144 184 234 290 354 426
#     4  12  26  43  71 110 139 185 239 288 349 423
#     4  12  26  47  74 105 144 184 239 291 355 422
#     4  12  24  48  71 104 142 188 239 290 358 415
#     4  11  25  48  72 102 143 188 235 287 359 419
#     4  12  24  43  70 102 141 188 236 287 351 419
#     4  12  25  45  71 101 144 186 235 296 346 415
#
# _framework density 23.325496999999999
#
# number of rings (size 3 to 8) (size 9 to 14) (size 15 to 20)
#    0.000    0.267    5.333    4.000    1.867    1.600 
#    2.400    0.000    0.000    0.000    0.000    0.000 
#    0.000    0.000    0.000    0.000    0.000    0.000 
#
# Total GULP energy -83747.560946 kJ/mol
# GULP energy per Si atom -5583.170730 kJ/mol
# Density = 2.327241 g / cm^3
# Si number density = 23.325497 Si / 1000 Ang^3
#
#
#
# Elastic Constant Matrix: (Units=GPa)
#
#
# Indices 1 2 3 4 5 6 
#
# 1 91.5053 22.3498 43.6764 -5.5212 -50.9588 9.2650
# 2 22.3498 139.9424 43.7429 -9.9309 -33.2938 13.0273
# 3 43.6764 43.7429 100.7704 2.3925 -39.7445 11.5331
# 4 -5.5212 -9.9309 2.3925 30.7221 -4.2055 -3.7036
# 5 -50.9588 -33.2938 -39.7445 -4.2055 55.2356 0.8510
# 6 9.2650 13.0273 11.5331 -3.7036 0.8510 36.2285
#
#
#
# Elastic Compliance Matrix: (Units=1/GPa)
#
#
# Indices 1 2 3 4 5 6 
#
# 1 0.027225 0.004086 -0.002448 0.009164 0.026629 -0.007341
# 2 0.004086 0.009942 -0.002486 0.004866 0.008399 -0.003529
# 3 -0.002448 -0.002486 0.015388 -0.001904 0.007228 -0.003743
# 4 0.009164 0.004866 -0.001904 0.037690 0.012887 0.000063
# 5 0.026629 0.008399 0.007228 0.012887 0.054102 -0.012084
# 6 -0.007341 -0.003529 -0.003743 0.000063 -0.012084 0.032231
#
#
# Mechanical properties :
#
#
# Convention : Reuss Voigt Hill
#
# Bulk Modulus (GPa) = 19.66232 61.30625 40.48428
# Shear Modulus (GPa) = 25.61130 39.26718 32.43924
#
# Velocity S-wave (km/s) = 3.31720 4.10743 3.73328
# Velocity P-wave (km/s) = 4.80828 6.98818 5.99809
#
# Compressibility (1/GPa) = 0.05085871
#
# Stress axis : x y z
#
# Youngs Moduli (GPa) = 36.73150 100.58128 64.98463
#
# Poissons Ratio (x) = -0.41101 0.15911
# Poissons Ratio (y) = -0.15010 0.16156
# Poissons Ratio (z) = 0.08994 0.25005
#
# Static dielectric constant tensor:
#      x y z
#    x 1.664100 0.034090 -0.044460 
#    y 0.034090 1.824070 0.041720 
#    z -0.044460 0.041720 1.823850 
# 
# From -- ./inp_files/28447.got.cif
#   From: 2010.05.17/outbox.cif.g08.bks.cpg/sg2_15_cif.got.tgz:28447.got - 2010.06.03 11:33:40.
