data_PCOD9067298
_publ_section_title
;
Structure prediction by ZEFSAII (Michael W. Deem and Ramdas Pophale) SiO2 
 PCOD9067298
Probable space group: P -1
;
_chemical_formula_sum "Si O2"
_cell_formula_units_Z 13
_cell_length_a 11.834370
_cell_length_b 9.103919
_cell_length_c 9.816372
_cell_angle_alpha 84.343612
_cell_angle_beta 64.221700
_cell_angle_gamma 133.047420
_cell_volume 556.316382
_symmetry_space_group_name_H-M "P -1"
_symmetry_group_IT_number 2
_symmetry_cell_setting 'triclinic'
loop_
_space_group_symop_operation_xyz
x,y,z
-x,-y,-z
loop_
_atom_site_type_symbol
_atom_site_label
_atom_site_fract_x
_atom_site_fract_y
_atom_site_fract_z
Si Si1 0.211796 0.783961 0.916528
Si Si2 0.198252 0.489357 0.388403
Si Si3 0.751313 0.139263 0.786902
Si Si4 0.424179 0.598360 0.518703
Si Si5 0.381303 0.541106 0.025658
Si Si6 0.923226 0.763485 0.047341
Si Si7 0.500000 0.000000 0.500000
O O1 0.397238 0.896605 0.715829
O O2 0.232616 0.799324 0.067397
O O3 0.000000 0.500000 0.000000
O O4 0.141711 0.882332 0.908925
O O5 0.261256 0.718436 0.300890
O O6 0.367883 0.580278 0.393780
O O7 0.968112 0.273591 0.601162
O O8 0.215431 0.418971 0.245130
O O9 0.559218 0.840156 0.901913
O O10 0.500000 0.500000 0.500000
O O11 0.200581 0.397876 0.736365
O O12 0.543884 0.857451 0.491173
O O13 0.244064 0.409854 0.972047
O O14 0.500000 0.500000 0.000000
O O15 0.000000 0.000000 0.000000
#
# Coordination Sequence:
#
# PCOD9067298 Si02
#       7
#     2   2   2   2   2   2   1
#     4  12  23  47  76 114 152 201 264 324 391 479
#     4  11  25  48  77 110 154 204 257 325 398 475
#     4  11  25  48  78 109 157 203 262 324 395 478
#     4  12  26  48  76 116 158 205 268 330 396 481
#     4  12  27  47  74 111 157 206 258 323 395 473
#     4  12  26  49  74 108 157 207 261 335 396 467
#     4  12  26  44  82 114 154 202 270 322 406 466
#
# _framework density 23.367998
#
# number of rings (size 3 to 8) (size 9 to 14) (size 15 to 20)
#    0.000    0.308    3.077    5.077    2.154    1.846 
#    2.769    0.000    0.000    0.000    0.000    0.000 
#    0.000    0.000    0.000    0.000    0.000    0.000 
#
# Total GULP energy -72455.076882 kJ/mol
# GULP energy per Si atom -5573.467452 kJ/mol
# Density = 2.331481 g / cm^3
# Si number density = 23.367998 Si / 1000 Ang^3
#
#
#
# Elastic Constant Matrix: (Units=GPa)
#
#
# Indices 1 2 3 4 5 6 
#
# 1 159.0072 52.3255 40.2061 13.7810 6.3851 -18.1776
# 2 52.3255 128.8828 57.8994 16.5933 12.0245 0.9819
# 3 40.2061 57.8994 178.8357 14.6154 -9.1892 7.9437
# 4 13.7810 16.5933 14.6154 23.0740 -3.2097 -4.3452
# 5 6.3851 12.0245 -9.1892 -3.2097 43.1606 14.3304
# 6 -18.1776 0.9819 7.9437 -4.3452 14.3304 49.9346
#
#
#
# Elastic Compliance Matrix: (Units=1/GPa)
#
#
# Indices 1 2 3 4 5 6 
#
# 1 0.008009 -0.002299 -0.001160 -0.002017 -0.002130 0.003581
# 2 -0.002299 0.010971 -0.002795 -0.005261 -0.003701 -0.000004
# 3 -0.001160 -0.002795 0.007192 -0.001896 0.003202 -0.002595
# 4 -0.002017 -0.005261 -0.001896 0.050651 0.004170 0.002882
# 5 -0.002130 -0.003701 0.003202 0.004170 0.028506 -0.009030
# 6 0.003581 -0.000004 -0.002595 0.002882 -0.009030 0.024585
#
#
# Mechanical properties :
#
#
# Convention : Reuss Voigt Hill
#
# Bulk Modulus (GPa) = 73.18746 85.28751 79.23749
# Shear Modulus (GPa) = 34.01920 44.32017 39.16968
#
# Velocity S-wave (km/s) = 3.81964 4.35974 4.09860
# Velocity P-wave (km/s) = 7.13024 7.86892 7.50867
#
# Compressibility (1/GPa) = 0.01366354
#
# Stress axis : x y z
#
# Youngs Moduli (GPa) = 124.86531 91.15038 139.04013
#
# Poissons Ratio (x) = 0.20958 0.16125
# Poissons Ratio (y) = 0.28710 0.38862
# Poissons Ratio (z) = 0.14481 0.25477
#
# Static dielectric constant tensor:
#      x y z
#    x 1.894560 0.018460 -0.006500 
#    y 0.018460 1.865900 -0.026630 
#    z -0.006500 -0.026630 1.828890 
# 
# From -- ./inp_files/238935.got.cif
#   From: 2010.05.17/outbox.cif.g08.bks.cpg/sg2_120_cif.got.tgz:238935.got - 2010.06.03 11:33:40.
