data_PCOD9067140
_publ_section_title
;
Structure prediction by ZEFSAII (Michael W. Deem and Ramdas Pophale) SiO2 
 PCOD9067140
Probable space group: P -1
;
_chemical_formula_sum "Si O2"
_cell_formula_units_Z 16
_cell_length_a 12.312441
_cell_length_b 6.140650
_cell_length_c 11.718305
_cell_angle_alpha 57.206353
_cell_angle_beta 95.692193
_cell_angle_gamma 110.525926
_cell_volume 692.847287
_symmetry_space_group_name_H-M "P -1"
_symmetry_group_IT_number 2
_symmetry_cell_setting 'triclinic'
loop_
_space_group_symop_operation_xyz
x,y,z
-x,-y,-z
loop_
_atom_site_type_symbol
_atom_site_label
_atom_site_fract_x
_atom_site_fract_y
_atom_site_fract_z
Si Si1 0.773128 0.826093 0.033502
Si Si2 0.856621 0.953722 0.261096
Si Si3 0.624164 0.904455 0.330681
Si Si4 0.239564 0.637813 0.220773
Si Si5 0.435270 0.385801 0.367226
Si Si6 0.939904 0.678709 0.522676
Si Si7 0.465534 0.649985 0.849826
Si Si8 0.917171 0.666861 0.906580
O O1 0.827944 0.928689 0.132468
O O2 0.664231 0.558568 0.130375
O O3 0.870419 0.773349 0.981334
O O4 0.729828 0.039639 0.896492
O O5 0.759843 0.062857 0.271709
O O6 0.843647 0.704559 0.416237
O O7 0.995726 0.104131 0.231164
O O8 0.562260 0.593068 0.364599
O O9 0.605801 0.865960 0.475457
O O10 0.551787 0.063147 0.213127
O O11 0.340011 0.537186 0.309271
O O12 0.127783 0.523697 0.324907
O O13 0.194920 0.499569 0.132424
O O14 0.451539 0.309017 0.261687
O O15 0.000000 0.500000 0.500000
O O16 0.000000 0.000000 0.500000
O O17 0.500000 0.500000 0.000000
O O18 0.000000 0.500000 0.000000
#
# Coordination Sequence:
#
# PCOD9067140 Si02
#       8
#     2   2   2   2   2   2   2   2
#     4  12  27  44  70 106 141 195 244 308 381 453
#     4  12  24  47  71 106 143 196 248 305 385 456
#     4  11  25  48  70 103 142 188 247 307 377 453
#     4  12  26  46  72 105 148 192 249 312 377 457
#     4  11  25  48  71 101 141 189 247 304 380 443
#     4  12  28  50  76 113 157 204 259 318 388 466
#     4  12  26  44  73 105 142 191 247 310 379 452
#     4  12  25  43  71 103 147 185 246 305 376 453
#
# _framework density 23.093112999999999
#
# number of rings (size 3 to 8) (size 9 to 14) (size 15 to 20)
#    0.000    0.250    5.000    3.750    3.500    2.000 
#    0.000    0.000    0.000    0.000    0.000    0.000 
#    0.000    0.000    0.000    0.000    0.000    0.000 
#
# Total GULP energy -89203.981721 kJ/mol
# GULP energy per Si atom -5575.248858 kJ/mol
# Density = 2.304055 g / cm^3
# Si number density = 23.093113 Si / 1000 Ang^3
#
#
#
# Elastic Constant Matrix: (Units=GPa)
#
#
# Indices 1 2 3 4 5 6 
#
# 1 91.1808 18.4974 19.4013 1.7905 -2.5301 -17.3507
# 2 18.4974 39.0554 22.7256 -6.2674 -15.4828 -2.6772
# 3 19.4013 22.7256 135.0066 20.6687 0.6085 -22.5014
# 4 1.7905 -6.2674 20.6687 25.6438 -5.5610 -1.4276
# 5 -2.5301 -15.4828 0.6085 -5.5610 53.5130 -0.8676
# 6 -17.3507 -2.6772 -22.5014 -1.4276 -0.8676 36.6574
#
#
#
# Elastic Compliance Matrix: (Units=1/GPa)
#
#
# Indices 1 2 3 4 5 6 
#
# 1 0.013587 -0.008006 0.001037 -0.003820 -0.001981 0.006287
# 2 -0.008006 0.045287 -0.011161 0.023582 0.015204 -0.006054
# 3 0.001037 -0.011161 0.012300 -0.013344 -0.004600 0.006597
# 4 -0.003820 0.023582 -0.013344 0.058229 0.012753 -0.005707
# 5 -0.001981 0.015204 -0.004600 0.012753 0.024344 -0.001578
# 6 0.006287 -0.006054 0.006597 -0.005707 -0.001578 0.033603
#
#
# Mechanical properties :
#
#
# Convention : Reuss Voigt Hill
#
# Bulk Modulus (GPa) = 28.64110 42.94349 35.79230
# Shear Modulus (GPa) = 21.25420 36.80407 29.02914
#
# Velocity S-wave (km/s) = 3.03705 3.99648 3.54933
# Velocity P-wave (km/s) = 4.97269 6.31917 5.68593
#
# Compressibility (1/GPa) = 0.03491486
#
# Stress axis : x y z
#
# Youngs Moduli (GPa) = 73.59913 22.08136 81.30194
#
# Poissons Ratio (x) = 0.17678 -0.08429
# Poissons Ratio (y) = 0.58921 0.90738
# Poissons Ratio (z) = -0.07630 0.24644
#
# Static dielectric constant tensor:
#      x y z
#    x 2.048870 0.146360 -0.138080 
#    y 0.146360 2.101330 -0.131010 
#    z -0.138080 -0.131010 1.977610 
# 
# From -- ./inp_files/371075.got.cif
#   From: 2010.05.17/outbox.cif.g08.bks.cpg/sg2_186_cif.got.tgz:371075.got - 2010.06.03 11:33:40.
