data_PCOD9067166
_publ_section_title
;
Structure prediction by ZEFSAII (Michael W. Deem and Ramdas Pophale) SiO2 
 PCOD9067166
Probable space group: P -1
;
_chemical_formula_sum "Si O2"
_cell_formula_units_Z 10
_cell_length_a 12.741551
_cell_length_b 5.365252
_cell_length_c 16.389674
_cell_angle_alpha 127.228813
_cell_angle_beta 26.978524
_cell_angle_gamma 121.573076
_cell_volume 404.335578
_symmetry_space_group_name_H-M "P -1"
_symmetry_group_IT_number 2
_symmetry_cell_setting 'triclinic'
loop_
_space_group_symop_operation_xyz
x,y,z
-x,-y,-z
loop_
_atom_site_type_symbol
_atom_site_label
_atom_site_fract_x
_atom_site_fract_y
_atom_site_fract_z
Si Si1 0.636623 0.389194 0.650517
Si Si2 0.622414 0.488803 0.000312
Si Si3 0.839589 0.076852 0.048437
Si Si4 0.682809 0.738966 0.289093
Si Si5 0.077861 0.154634 0.561268
O O1 0.400303 0.285936 0.752092
O O2 0.776280 0.559280 0.517056
O O3 0.781268 0.100102 0.532592
O O4 0.556714 0.610892 0.825382
O O5 0.856082 0.280663 0.789737
O O6 0.500000 0.500000 0.000000
O O7 0.700301 0.830568 0.043916
O O8 0.678849 0.376812 0.246668
O O9 0.052157 0.179635 0.862464
O O10 0.000000 0.000000 0.000000
O O11 0.500000 0.000000 0.500000
O O12 0.000000 0.000000 0.500000
#
# Coordination Sequence:
#
# PCOD9067166 Si02
#       5
#     2   2   2   2   2
#     4  12  27  50  75 115 154 202 269 320 396 466
#     4  12  27  49  80 109 161 208 252 330 395 463
#     4  11  25  48  71 112 148 196 266 314 384 474
#     4  11  26  46  79 106 151 203 258 330 392 460
#     4  12  28  48  75 115 155 206 267 317 390 483
#
# _framework density 24.731929999999998
#
# number of rings (size 3 to 8) (size 9 to 14) (size 15 to 20)
#    0.000    0.400    4.000    3.000    2.800    4.800 
#    0.000    0.000    0.000    0.000    0.000    0.000 
#    0.000    0.000    0.000    0.000    0.000    0.000 
#
# Total GULP energy -55928.207324 kJ/mol
# GULP energy per Si atom -5592.820732 kJ/mol
# Density = 2.467564 g / cm^3
# Si number density = 24.731930 Si / 1000 Ang^3
#
#
#
# Elastic Constant Matrix: (Units=GPa)
#
#
# Indices 1 2 3 4 5 6 
#
# 1 147.8732 49.7583 19.4400 13.0326 -19.3048 -12.5720
# 2 49.7583 108.6514 31.0563 13.5462 -21.0653 2.9303
# 3 19.4400 31.0563 170.0572 28.5068 -19.3557 -27.1289
# 4 13.0326 13.5462 28.5068 37.8415 1.2665 -3.0248
# 5 -19.3048 -21.0653 -19.3557 1.2665 46.6652 8.1542
# 6 -12.5720 2.9303 -27.1289 -3.0248 8.1542 49.9226
#
#
#
# Elastic Compliance Matrix: (Units=1/GPa)
#
#
# Indices 1 2 3 4 5 6 
#
# 1 0.008467 -0.003500 0.000564 -0.001971 0.001821 0.002227
# 2 -0.003500 0.012449 -0.001493 -0.002527 0.004191 -0.003261
# 3 0.000564 -0.001493 0.007853 -0.005349 0.002298 0.003798
# 4 -0.001971 -0.002527 -0.005349 0.032165 -0.004961 -0.000495
# 5 0.001821 0.004191 0.002298 -0.004961 0.025693 -0.003036
# 6 0.002227 -0.003261 0.003798 -0.000495 -0.003036 0.023313
#
#
# Mechanical properties :
#
#
# Convention : Reuss Voigt Hill
#
# Bulk Modulus (GPa) = 50.22365 69.67678 59.95021
# Shear Modulus (GPa) = 39.86169 48.64101 44.25135
#
# Velocity S-wave (km/s) = 4.01902 4.43959 4.23453
# Velocity P-wave (km/s) = 6.47209 7.38336 6.94269
#
# Compressibility (1/GPa) = 0.01991094
#
# Stress axis : x y z
#
# Youngs Moduli (GPa) = 118.10621 80.32797 127.34780
#
# Poissons Ratio (x) = 0.28116 -0.07187
# Poissons Ratio (y) = 0.41339 0.19012
# Poissons Ratio (z) = -0.06665 0.11993
#
# Static dielectric constant tensor:
#      x y z
#    x 1.938750 -0.053220 0.045510 
#    y -0.053220 2.250150 -0.138280 
#    z 0.045510 -0.138280 2.011780 
# 
# From -- ./inp_files/20623.got.cif
#   From: 2010.05.17/outbox.cif.g08.bks.cpg/sg2_11_cif.got.tgz:20623.got - 2010.06.03 11:33:40.
