data_PCOD9067129
_publ_section_title
;
Structure prediction by ZEFSAII (Michael W. Deem and Ramdas Pophale) SiO2 
 PCOD9067129
Probable space group: P -1
;
_chemical_formula_sum "Si O2"
_cell_formula_units_Z 16
_cell_length_a 19.719786
_cell_length_b 12.430245
_cell_length_c 9.449869
_cell_angle_alpha 43.861588
_cell_angle_beta 134.331327
_cell_angle_gamma 152.982915
_cell_volume 717.274730
_symmetry_space_group_name_H-M "P -1"
_symmetry_group_IT_number 2
_symmetry_cell_setting 'triclinic'
loop_
_space_group_symop_operation_xyz
x,y,z
-x,-y,-z
loop_
_atom_site_type_symbol
_atom_site_label
_atom_site_fract_x
_atom_site_fract_y
_atom_site_fract_z
Si Si1 0.915471 0.049679 0.860053
Si Si2 0.332873 0.153480 0.689911
Si Si3 0.557014 0.978632 0.468811
Si Si4 0.989466 0.155142 0.409800
Si Si5 0.582549 0.689627 0.656024
Si Si6 0.895725 0.514036 0.498529
Si Si7 0.975530 0.633539 0.027394
Si Si8 0.362546 0.840339 0.059367
O O1 0.991749 0.281939 0.653690
O O2 0.939111 0.130743 0.978092
O O3 0.739572 0.805315 0.803864
O O4 0.000000 0.000000 0.000000
O O5 0.443520 0.396064 0.717801
O O6 0.397306 0.218696 0.562273
O O7 0.171429 0.031103 0.569708
O O8 0.323178 0.968670 0.910244
O O9 0.731883 0.259531 0.436993
O O10 0.500000 0.000000 0.500000
O O11 0.566180 0.803901 0.639269
O O12 0.430895 0.853132 0.286245
O O13 0.112004 0.359593 0.513770
O O14 0.000000 0.000000 0.500000
O O15 0.993575 0.288934 0.164346
O O16 0.968235 0.459390 0.739693
O O17 0.794557 0.426509 0.976317
O O18 0.500000 0.000000 0.000000
#
# Coordination Sequence:
#
# PCOD9067129 Si02
#       8
#     2   2   2   2   2   2   2   2
#     4  12  26  44  73 106 139 188 238 298 356 422
#     4  11  26  45  73 101 146 189 240 291 356 436
#     4  12  28  45  72 106 145 183 234 300 362 418
#     4  12  27  46  73 107 143 192 237 296 362 425
#     4  11  25  48  69 104 146 189 235 296 358 429
#     4  12  25  49  72 101 143 191 242 295 352 426
#     4  12  26  45  76 101 144 186 245 300 350 423
#     4  12  25  45  73 106 136 191 243 289 350 431
#
# _framework density 22.306657000000001
#
# number of rings (size 3 to 8) (size 9 to 14) (size 15 to 20)
#    0.000    0.250    5.000    3.000    8.750    0.000 
#    0.000    1.250    0.000    0.000    0.000    0.000 
#    0.000    0.000    0.000    0.000    0.000    0.000 
#
# Total GULP energy -89501.770485 kJ/mol
# GULP energy per Si atom -5593.860655 kJ/mol
# Density = 2.225589 g / cm^3
# Si number density = 22.306657 Si / 1000 Ang^3
#
#
#
# Elastic Constant Matrix: (Units=GPa)
#
#
# Indices 1 2 3 4 5 6 
#
# 1 93.7660 -5.2968 -7.1045 0.9455 13.8095 -12.5755
# 2 -5.2968 109.0450 -8.7815 23.3069 11.9876 -5.0770
# 3 -7.1045 -8.7815 46.0902 11.4389 14.1228 1.3558
# 4 0.9455 23.3069 11.4389 29.3188 4.9181 0.7150
# 5 13.8095 11.9876 14.1228 4.9181 41.2931 -0.3136
# 6 -12.5755 -5.0770 1.3558 0.7150 -0.3136 34.5395
#
#
#
# Elastic Compliance Matrix: (Units=1/GPa)
#
#
# Indices 1 2 3 4 5 6 
#
# 1 0.012862 0.002777 0.005259 -0.003716 -0.006426 0.004903
# 2 0.002777 0.013531 0.007998 -0.013027 -0.006019 0.002901
# 3 0.005259 0.007998 0.032174 -0.016942 -0.013051 0.002060
# 4 -0.003716 -0.013027 -0.016942 0.050480 0.004779 -0.003604
# 5 -0.006426 -0.006019 -0.013051 0.004779 0.031989 -0.002521
# 6 0.004903 0.002901 0.002060 -0.003604 -0.002521 0.031135
#
#
# Mechanical properties :
#
#
# Convention : Reuss Voigt Hill
#
# Bulk Modulus (GPa) = 11.03331 22.94842 16.99086
# Shear Modulus (GPa) = 29.35763 39.03587 34.19675
#
# Velocity S-wave (km/s) = 3.63174 4.18780 3.91964
# Velocity P-wave (km/s) = 4.74794 5.80461 5.30266
#
# Compressibility (1/GPa) = 0.09063464
#
# Stress axis : x y z
#
# Youngs Moduli (GPa) = 77.75038 73.90620 31.08081
#
# Poissons Ratio (x) = -0.20525 -0.16345
# Poissons Ratio (y) = -0.21593 -0.24859
# Poissons Ratio (z) = -0.40887 -0.59111
#
# Static dielectric constant tensor:
#      x y z
#    x 1.894540 -0.009840 0.004990 
#    y -0.009840 1.814520 -0.007340 
#    z 0.004990 -0.007340 1.905380 
# 
# From -- ./inp_files/298657.got.cif
#   From: 2010.05.17/outbox.cif.g08.bks.cpg/sg2_150_cif.got.tgz:298657.got - 2010.06.03 11:33:40.
