data_PCOD9067563
_publ_section_title
;
Structure prediction by ZEFSAII (Michael W. Deem and Ramdas Pophale) SiO2 
 PCOD9067563
Probable space group: P -1
;
_chemical_formula_sum "Si O2"
_cell_formula_units_Z 14
_cell_length_a 6.815301
_cell_length_b 7.517099
_cell_length_c 15.045629
_cell_angle_alpha 123.465099
_cell_angle_beta 91.063394
_cell_angle_gamma 59.667421
_cell_volume 517.575271
_symmetry_space_group_name_H-M "P -1"
_symmetry_group_IT_number 2
_symmetry_cell_setting 'triclinic'
loop_
_space_group_symop_operation_xyz
x,y,z
-x,-y,-z
loop_
_atom_site_type_symbol
_atom_site_label
_atom_site_fract_x
_atom_site_fract_y
_atom_site_fract_z
Si Si1 0.515810 0.140326 0.620674
Si Si2 0.759992 0.372049 0.268334
Si Si3 0.433005 0.451488 0.126311
Si Si4 0.171022 0.298827 0.352697
Si Si5 0.237771 0.756949 0.484365
Si Si6 0.461724 0.179245 0.879844
Si Si7 0.891153 0.894735 0.249554
O O1 0.262640 0.383109 0.722479
O O2 0.548431 0.347203 0.618350
O O3 0.500000 0.000000 0.500000
O O4 0.711740 0.926544 0.630862
O O5 0.629222 0.317917 0.169007
O O6 0.891839 0.434465 0.370980
O O7 0.906076 0.074217 0.227352
O O8 0.483769 0.634288 0.119708
O O9 0.159612 0.661546 0.219888
O O10 0.429515 0.261641 0.004241
O O11 0.220395 0.516639 0.430200
O O12 0.314501 0.127689 0.219694
O O13 0.257635 0.893107 0.610072
O O14 0.000000 0.000000 0.500000
O O15 0.243469 0.198754 0.833867
#
# Coordination Sequence:
#
# PCOD9067563 Si02
#       7
#     2   2   2   2   2   2   2
#     4  12  25  45  71 107 157 207 253 317 378 454
#     4  12  24  45  73 104 156 197 250 319 379 446
#     4  11  26  51  74 110 150 199 257 322 384 450
#     4  12  26  50  74 118 159 200 259 317 380 468
#     4  12  27  45  75 113 150 205 253 303 391 461
#     4  11  25  50  79 106 150 201 256 319 387 458
#     4  12  26  50  74 112 151 197 260 321 378 466
#
# _framework density 27.049206000000002
#
# number of rings (size 3 to 8) (size 9 to 14) (size 15 to 20)
#    0.000    0.286    2.857    5.571    2.000    4.571 
#    0.000    1.429    0.000    0.000    0.000    0.000 
#    0.000    0.000    0.000    0.000    0.000    0.000 
#
# Total GULP energy -77992.867410 kJ/mol
# GULP energy per Si atom -5570.919101 kJ/mol
# Density = 2.698764 g / cm^3
# Si number density = 27.049206 Si / 1000 Ang^3
#
#
#
# Elastic Constant Matrix: (Units=GPa)
#
#
# Indices 1 2 3 4 5 6 
#
# 1 105.8660 39.8201 47.6303 -14.9678 31.9092 -4.4685
# 2 39.8201 177.8680 40.8169 -16.3676 17.6523 -30.6541
# 3 47.6303 40.8169 205.8534 -9.2746 50.3526 -2.2625
# 4 -14.9678 -16.3676 -9.2746 36.1394 -3.7865 12.1832
# 5 31.9092 17.6523 50.3526 -3.7865 51.9533 2.4126
# 6 -4.4685 -30.6541 -2.2625 12.1832 2.4126 46.1039
#
#
#
# Elastic Compliance Matrix: (Units=1/GPa)
#
#
# Indices 1 2 3 4 5 6 
#
# 1 0.012916 -0.001835 -0.000980 0.003878 -0.006044 -0.000725
# 2 -0.001835 0.007087 -0.000721 0.000723 -0.000731 0.004346
# 3 -0.000980 -0.000721 0.006593 0.000406 -0.005510 -0.000070
# 4 0.003878 0.000723 0.000406 0.032247 -0.000316 -0.007629
# 5 -0.006044 -0.000731 -0.005510 -0.000316 0.028654 -0.002758
# 6 -0.000725 0.004346 -0.000070 -0.007629 -0.002758 0.026666
#
#
# Mechanical properties :
#
#
# Convention : Reuss Voigt Hill
#
# Bulk Modulus (GPa) = 51.22094 82.90245 67.06170
# Shear Modulus (GPa) = 39.14128 50.92731 45.03430
#
# Velocity S-wave (km/s) = 3.80812 4.34379 4.08475
# Velocity P-wave (km/s) = 6.18975 7.47485 6.86245
#
# Compressibility (1/GPa) = 0.01952327
#
# Stress axis : x y z
#
# Youngs Moduli (GPa) = 77.42190 141.11322 151.67951
#
# Poissons Ratio (x) = 0.25895 0.14859
# Poissons Ratio (y) = 0.14207 0.10944
# Poissons Ratio (z) = 0.07584 0.10181
#
# Static dielectric constant tensor:
#      x y z
#    x 2.361260 0.084660 -0.119460 
#    y 0.084660 2.142740 -0.013550 
#    z -0.119460 -0.013550 2.173080 
# 
# From -- ./inp_files/489948.got.cif
#   From: 2010.05.17/outbox.cif.g08.bks.cpg/sg2_245_cif.got.tgz:489948.got - 2010.06.03 11:33:40.
