data_PCOD9067594
_publ_section_title
;
Structure prediction by ZEFSAII (Michael W. Deem and Ramdas Pophale) SiO2 
 PCOD9067594
Probable space group: P -1
;
_chemical_formula_sum "Si O2"
_cell_formula_units_Z 15
_cell_length_a 8.999362
_cell_length_b 14.450982
_cell_length_c 13.899022
_cell_angle_alpha 30.165253
_cell_angle_beta 140.641653
_cell_angle_gamma 138.189424
_cell_volume 559.003177
_symmetry_space_group_name_H-M "P -1"
_symmetry_group_IT_number 2
_symmetry_cell_setting 'triclinic'
loop_
_space_group_symop_operation_xyz
x,y,z
-x,-y,-z
loop_
_atom_site_type_symbol
_atom_site_label
_atom_site_fract_x
_atom_site_fract_y
_atom_site_fract_z
Si Si1 0.737275 0.172829 0.458772
Si Si2 0.599234 0.576151 0.746236
Si Si3 0.983036 0.943837 0.653642
Si Si4 0.629165 0.376801 0.607053
Si Si5 0.186379 0.435532 0.818384
Si Si6 0.500000 0.000000 0.000000
Si Si7 0.206517 0.029726 0.155559
Si Si8 0.439802 0.826107 0.959926
O O1 0.704499 0.379063 0.228023
O O2 0.500000 0.000000 0.500000
O O3 0.912413 0.106122 0.532839
O O4 0.816934 0.153709 0.625837
O O5 0.788343 0.742863 0.744911
O O6 0.522854 0.657232 0.536399
O O7 0.357126 0.485918 0.765417
O O8 0.692397 0.389581 0.934254
O O9 0.249307 0.922743 0.835502
O O10 0.000000 0.000000 0.500000
O O11 0.500000 0.500000 0.500000
O O12 0.623203 0.183850 0.831549
O O13 0.911638 0.452339 0.655767
O O14 0.191017 0.218720 0.037641
O O15 0.623875 0.856648 0.112080
O O16 0.452809 0.078288 0.171414
O O17 0.000000 0.000000 0.000000
#
# Coordination Sequence:
#
# PCOD9067594 Si02
#       8
#     2   2   2   2   2   1   2   2
#     4  12  28  50  78 111 155 206 255 314 390 461
#     4  11  25  51  71 107 149 202 249 318 376 461
#     4  12  27  47  74 107 152 199 255 315 382 459
#     4  12  27  45  75 112 150 191 255 312 384 452
#     4  11  28  47  77 112 150 201 257 314 383 456
#     4  12  26  44  72 110 152 188 246 310 384 444
#     4  11  28  50  77 113 155 200 258 321 385 462
#     4  11  26  45  74 108 147 196 253 311 384 452
#
# _framework density 26.833477999999999
#
# number of rings (size 3 to 8) (size 9 to 14) (size 15 to 20)
#    0.000    0.533    2.667    3.200   14.933    0.533 
#    2.400    0.000    0.000    0.000    0.000    0.000 
#    0.000    0.000    0.000    0.000    0.000    0.000 
#
# Total GULP energy -83870.152244 kJ/mol
# GULP energy per Si atom -5591.343483 kJ/mol
# Density = 2.677240 g / cm^3
# Si number density = 26.833478 Si / 1000 Ang^3
#
#
#
# Elastic Constant Matrix: (Units=GPa)
#
#
# Indices 1 2 3 4 5 6 
#
# 1 127.7827 15.9647 32.9978 -8.3925 9.3810 -2.6275
# 2 15.9647 113.3660 25.5117 -19.7865 12.0071 6.9971
# 3 32.9978 25.5117 89.1404 -27.9515 -0.4867 5.2395
# 4 -8.3925 -19.7865 -27.9515 59.0424 -7.1397 7.1497
# 5 9.3810 12.0071 -0.4867 -7.1397 57.9242 -8.0162
# 6 -2.6275 6.9971 5.2395 7.1497 -8.0162 47.8406
#
#
#
# Elastic Compliance Matrix: (Units=1/GPa)
#
#
# Indices 1 2 3 4 5 6 
#
# 1 0.008840 -0.000523 -0.003432 -0.000806 -0.001336 0.000834
# 2 -0.000523 0.010063 -0.001814 0.002440 -0.001993 -0.002000
# 3 -0.003432 -0.001814 0.015214 0.006574 0.001550 -0.002312
# 4 -0.000806 0.002440 0.006574 0.021454 0.001766 -0.004031
# 5 -0.001336 -0.001993 0.001550 0.001766 0.018524 0.002888
# 6 0.000834 -0.002000 -0.002312 -0.004031 0.002888 0.022581
#
#
# Mechanical properties :
#
#
# Convention : Reuss Voigt Hill
#
# Bulk Modulus (GPa) = 44.29094 53.24861 48.76977
# Shear Modulus (GPa) = 43.20028 50.01577 46.60802
#
# Velocity S-wave (km/s) = 4.01676 4.32201 4.17218
# Velocity P-wave (km/s) = 6.16880 6.69280 6.43614
#
# Compressibility (1/GPa) = 0.02257798
#
# Stress axis : x y z
#
# Youngs Moduli (GPa) = 113.12741 99.36930 65.73092
#
# Poissons Ratio (x) = 0.05200 0.22556
# Poissons Ratio (y) = 0.05920 0.11927
# Poissons Ratio (z) = 0.38820 0.18030
#
# Static dielectric constant tensor:
#      x y z
#    x 2.135580 0.034460 0.128680 
#    y 0.034460 1.417020 -0.544400 
#    z 0.128680 -0.544400 1.730530 
# 
# From -- ./inp_files/505186.got.cif
#   From: 2010.05.17/outbox.cif.g08.bks.cpg/sg2_253_cif.got.tgz:505186.got - 2010.06.03 11:33:40.
