data_PCOD9067620
_publ_section_title
;
Structure prediction by ZEFSAII (Michael W. Deem and Ramdas Pophale) SiO2 
 PCOD9067620
Probable space group: P -1
;
_chemical_formula_sum "Si O2"
_cell_formula_units_Z 16
_cell_length_a 19.720296
_cell_length_b 5.592531
_cell_length_c 9.226599
_cell_angle_alpha 50.287444
_cell_angle_beta 66.434955
_cell_angle_gamma 66.578822
_cell_volume 702.785863
_symmetry_space_group_name_H-M "P -1"
_symmetry_group_IT_number 2
_symmetry_cell_setting 'triclinic'
loop_
_space_group_symop_operation_xyz
x,y,z
-x,-y,-z
loop_
_atom_site_type_symbol
_atom_site_label
_atom_site_fract_x
_atom_site_fract_y
_atom_site_fract_z
Si Si1 0.452345 0.384160 0.714366
Si Si2 0.703048 0.424284 0.608719
Si Si3 0.031561 0.354592 0.180044
Si Si4 0.559904 0.272414 0.940726
Si Si5 0.070482 0.409388 0.580799
Si Si6 0.149467 0.795872 0.917380
Si Si7 0.299194 0.826905 0.624566
Si Si8 0.838149 0.204416 0.770132
O O1 0.500000 0.500000 0.500000
O O2 0.514143 0.284316 0.825032
O O3 0.378322 0.655866 0.696415
O O4 0.420983 0.058477 0.860091
O O5 0.633457 0.397593 0.782924
O O6 0.693595 0.287446 0.507641
O O7 0.774107 0.192539 0.713107
O O8 0.710734 0.795888 0.472608
O O9 0.959944 0.378083 0.335356
O O10 0.081227 0.010290 0.252235
O O11 0.095072 0.552846 0.094116
O O12 0.000000 0.500000 0.000000
O O13 0.500000 0.500000 0.000000
O O14 0.142975 0.451846 0.410575
O O15 0.000000 0.500000 0.500000
O O16 0.094517 0.068149 0.768129
O O17 0.226167 0.703474 0.796021
O O18 0.177101 0.881521 0.019753
#
# Coordination Sequence:
#
# PCOD9067620 Si02
#       8
#     2   2   2   2   2   2   2   2
#     4  11  25  51  79 115 156 203 254 316 375 451
#     4  12  30  51  78 116 157 208 257 312 386 460
#     4  12  26  45  76 102 144 194 260 319 387 458
#     4  11  27  47  83 116 156 203 261 309 380 456
#     4  12  24  49  72 102 143 195 250 323 382 454
#     4  12  28  48  71 110 149 198 256 317 389 457
#     4  12  30  50  81 111 162 205 257 316 387 454
#     4  12  28  47  73 105 151 197 255 316 388 457
#
# _framework density 22.766534
#
# number of rings (size 3 to 8) (size 9 to 14) (size 15 to 20)
#    0.000    0.250    5.000    2.250   14.000    1.000 
#    0.000    0.000    0.000    0.000    0.000    0.000 
#    0.000    0.000    0.000    0.000    0.000    0.000 
#
# Total GULP energy -89228.979687 kJ/mol
# GULP energy per Si atom -5576.811230 kJ/mol
# Density = 2.271472 g / cm^3
# Si number density = 22.766534 Si / 1000 Ang^3
#
#
#
# Elastic Constant Matrix: (Units=GPa)
#
#
# Indices 1 2 3 4 5 6 
#
# 1 73.0574 -1.4421 19.0494 -6.8272 2.2263 -17.8681
# 2 -1.4421 69.0635 29.3403 -3.4831 4.4150 -12.2220
# 3 19.0494 29.3403 139.5340 10.6544 7.4096 -4.4138
# 4 -6.8272 -3.4831 10.6544 38.0856 -10.4738 -1.4422
# 5 2.2263 4.4150 7.4096 -10.4738 37.8804 4.9698
# 6 -17.8681 -12.2220 -4.4138 -1.4422 4.9698 36.8767
#
#
#
# Elastic Compliance Matrix: (Units=1/GPa)
#
#
# Indices 1 2 3 4 5 6 
#
# 1 0.017349 0.003658 -0.003130 0.004446 -0.000855 0.009533
# 2 0.003658 0.017948 -0.004206 0.003333 -0.001554 0.007557
# 3 -0.003130 -0.004206 0.008832 -0.004015 -0.001934 -0.001750
# 4 0.004446 0.003333 -0.004015 0.030871 0.008295 0.002868
# 5 -0.000855 -0.001554 -0.001934 0.008295 0.029941 -0.004872
# 6 0.009533 0.007557 -0.001750 0.002868 -0.004872 0.034801
#
#
# Mechanical properties :
#
#
# Convention : Reuss Voigt Hill
#
# Bulk Modulus (GPa) = 27.19415 41.72780 34.46098
# Shear Modulus (GPa) = 31.37610 38.21568 34.79589
#
# Velocity S-wave (km/s) = 3.71640 4.10150 3.91369
# Velocity P-wave (km/s) = 5.51237 6.38734 5.96592
#
# Compressibility (1/GPa) = 0.03677261
#
# Stress axis : x y z
#
# Youngs Moduli (GPa) = 57.63869 55.71799 113.21932
#
# Poissons Ratio (x) = -0.20382 0.35441
# Poissons Ratio (y) = -0.21085 0.47622
# Poissons Ratio (z) = 0.18043 0.23436
#
# Static dielectric constant tensor:
#      x y z
#    x 1.885750 0.047150 -0.011290 
#    y 0.047150 1.867930 0.009690 
#    z -0.011290 0.009690 1.859620 
# 
# From -- ./inp_files/47724.got.cif
#   From: 2010.05.17/outbox.cif.g08.bks.cpg/sg2_24_cif.got.tgz:47724.got - 2010.06.03 11:33:40.
