data_PCOD9067924
_publ_section_title
;
Structure prediction by ZEFSAII (Michael W. Deem and Ramdas Pophale) SiO2 
 PCOD9067924
Probable space group: P -1
;
_chemical_formula_sum "Si O2"
_cell_formula_units_Z 12
_cell_length_a 13.072124
_cell_length_b 4.957510
_cell_length_c 9.188914
_cell_angle_alpha 92.764368
_cell_angle_beta 61.265589
_cell_angle_gamma 85.689098
_cell_volume 518.252657
_symmetry_space_group_name_H-M "P -1"
_symmetry_group_IT_number 2
_symmetry_cell_setting 'triclinic'
loop_
_space_group_symop_operation_xyz
x,y,z
-x,-y,-z
loop_
_atom_site_type_symbol
_atom_site_label
_atom_site_fract_x
_atom_site_fract_y
_atom_site_fract_z
Si Si1 0.086615 0.701928 0.021054
Si Si2 0.462904 0.254667 0.428441
Si Si3 0.197721 0.306212 0.497715
Si Si4 0.256614 0.390595 0.126941
Si Si5 0.592837 0.147322 0.033831
Si Si6 0.099326 0.839637 0.716902
O O1 0.163542 0.536299 0.083416
O O2 0.840715 0.208291 0.166156
O O3 0.302334 0.094406 0.027433
O O4 0.000000 0.500000 0.000000
O O5 0.500000 0.500000 0.500000
O O6 0.325605 0.309535 0.482581
O O7 0.500000 0.000000 0.500000
O O8 0.533365 0.226932 0.228942
O O9 0.208724 0.348607 0.319787
O O10 0.160132 0.018074 0.563716
O O11 0.104999 0.543814 0.633622
O O12 0.017918 0.968653 0.150254
O O13 0.358767 0.593179 0.067153
O O14 0.500000 0.000000 0.000000
#
# Coordination Sequence:
#
# PCOD9067924 Si02
#       6
#     2   2   2   2   2   2
#     4  11  27  50  74 109 141 196 244 301 375 441
#     4  12  28  43  72 109 148 191 245 302 366 427
#     4  12  26  47  69 108 142 190 243 299 363 431
#     4  12  29  45  80 106 147 198 247 296 373 434
#     4  12  27  50  73 107 153 195 244 301 363 447
#     4  11  26  46  73  98 148 178 242 302 358 433
#
# _framework density 23.154730000000001
#
# number of rings (size 3 to 8) (size 9 to 14) (size 15 to 20)
#    0.000    0.333    3.333    3.500   14.000    1.333 
#    0.000    0.000    0.000    0.000    0.000    0.000 
#    0.000    0.000    0.000    0.000    0.000    0.000 
#
# Total GULP energy -67207.286119 kJ/mol
# GULP energy per Si atom -5600.607177 kJ/mol
# Density = 2.310203 g / cm^3
# Si number density = 23.154730 Si / 1000 Ang^3
#
#
#
# Elastic Constant Matrix: (Units=GPa)
#
#
# Indices 1 2 3 4 5 6 
#
# 1 72.5713 21.9724 21.1849 -9.8695 19.1334 -11.7211
# 2 21.9724 144.9041 42.2718 -8.2246 10.5091 -2.4682
# 3 21.1849 42.2718 151.5558 -16.1589 21.0642 -0.5327
# 4 -9.8695 -8.2246 -16.1589 64.8864 -4.5379 2.2897
# 5 19.1334 10.5091 21.0642 -4.5379 29.1138 -3.2479
# 6 -11.7211 -2.4682 -0.5327 2.2897 -3.2479 41.8191
#
#
#
# Elastic Compliance Matrix: (Units=1/GPa)
#
#
# Indices 1 2 3 4 5 6 
#
# 1 0.017975 -0.001701 -0.000443 0.001553 -0.010184 0.004056
# 2 -0.001701 0.007734 -0.001851 0.000242 -0.000306 -0.000081
# 3 -0.000443 -0.001851 0.007968 0.001377 -0.004655 -0.000569
# 4 0.001553 0.000242 0.001377 0.016060 0.000356 -0.000385
# 5 -0.010184 -0.000306 -0.004655 0.000356 0.044632 0.000515
# 6 0.004056 -0.000081 -0.000569 -0.000385 0.000515 0.025098
#
#
# Mechanical properties :
#
#
# Convention : Reuss Voigt Hill
#
# Bulk Modulus (GPa) = 38.92991 59.98772 49.45881
# Shear Modulus (GPa) = 36.75949 46.07068 41.41508
#
# Velocity S-wave (km/s) = 3.98874 4.46543 4.23380
# Velocity P-wave (km/s) = 6.16951 7.24916 6.73102
#
# Compressibility (1/GPa) = 0.02568719
#
# Stress axis : x y z
#
# Youngs Moduli (GPa) = 55.63247 129.30603 125.49815
#
# Poissons Ratio (x) = 0.21990 0.05559
# Poissons Ratio (y) = 0.09461 0.23234
# Poissons Ratio (z) = 0.02464 0.23939
#
# Static dielectric constant tensor:
#      x y z
#    x 1.904600 -0.001520 -0.058710 
#    y -0.001520 1.828220 -0.024370 
#    z -0.058710 -0.024370 1.837110 
# 
# From -- ./inp_files/229688.got.cif
#   From: 2010.05.17/outbox.cif.g08.bks.cpg/sg2_115_cif.got.tgz:229688.got - 2010.06.03 11:33:40.
