data_PCOD9067644
_publ_section_title
;
Structure prediction by ZEFSAII (Michael W. Deem and Ramdas Pophale) SiO2 
 PCOD9067644
Probable space group: P -1
;
_chemical_formula_sum "Si O2"
_cell_formula_units_Z 10
_cell_length_a 13.775068
_cell_length_b 5.173048
_cell_length_c 10.621331
_cell_angle_alpha 111.219465
_cell_angle_beta 147.253391
_cell_angle_gamma 81.929185
_cell_volume 360.895538
_symmetry_space_group_name_H-M "P -1"
_symmetry_group_IT_number 2
_symmetry_cell_setting 'triclinic'
loop_
_space_group_symop_operation_xyz
x,y,z
-x,-y,-z
loop_
_atom_site_type_symbol
_atom_site_label
_atom_site_fract_x
_atom_site_fract_y
_atom_site_fract_z
Si Si1 0.902145 0.145477 0.603163
Si Si2 0.198016 0.933488 0.238201
Si Si3 0.400531 0.620106 0.238810
Si Si4 0.084714 0.694305 0.748262
Si Si5 0.411727 0.253290 0.965359
O O1 0.794707 0.094693 0.608619
O O2 0.950072 0.475293 0.666447
O O3 0.072924 0.018023 0.794200
O O4 0.799643 0.920047 0.341884
O O5 0.251122 0.655109 0.188239
O O6 0.389180 0.193219 0.453178
O O7 0.000000 0.000000 0.000000
O O8 0.434895 0.355476 0.152457
O O9 0.297024 0.719832 0.023166
O O10 0.000000 0.500000 0.500000
O O11 0.500000 0.500000 0.000000
O O12 0.500000 0.000000 0.000000
#
# Coordination Sequence:
#
# PCOD9067644 Si02
#       5
#     2   2   2   2   2
#     4  12  26  48  80 113 161 208 257 335 398 468
#     4  11  25  52  80 116 168 214 272 328 397 481
#     4  11  26  48  82 120 160 216 267 328 408 475
#     4  12  26  48  80 120 157 201 267 333 399 476
#     4  12  26  47  79 120 157 203 269 333 395 476
#
# _framework density 27.708848
#
# number of rings (size 3 to 8) (size 9 to 14) (size 15 to 20)
#    0.000    0.400    6.000    1.800    0.000    0.800 
#    0.000    2.000    0.000    0.000    0.000    0.000 
#    0.000    0.000    0.000    0.000    0.000    0.000 
#
# Total GULP energy -55842.387105 kJ/mol
# GULP energy per Si atom -5584.238711 kJ/mol
# Density = 2.764578 g / cm^3
# Si number density = 27.708848 Si / 1000 Ang^3
#
#
#
# Elastic Constant Matrix: (Units=GPa)
#
#
# Indices 1 2 3 4 5 6 
#
# 1 109.6992 36.9712 12.6347 9.8048 -3.3188 -29.8149
# 2 36.9712 136.4936 1.6002 1.6182 0.0218 -30.3341
# 3 12.6347 1.6002 126.9128 -7.7463 3.4713 -21.7157
# 4 9.8048 1.6182 -7.7463 45.9706 -15.2479 2.7015
# 5 -3.3188 0.0218 3.4713 -15.2479 50.1461 11.0469
# 6 -29.8149 -30.3341 -21.7157 2.7015 11.0469 61.5685
#
#
#
# Elastic Compliance Matrix: (Units=1/GPa)
#
#
# Indices 1 2 3 4 5 6 
#
# 1 0.011360 -0.001987 -0.000456 -0.003104 -0.001198 0.004712
# 2 -0.001987 0.008707 0.000749 -0.000357 -0.001135 0.003811
# 3 -0.000456 0.000749 0.008571 0.000968 -0.001061 0.003319
# 4 -0.003104 -0.000357 0.000968 0.025606 0.008387 -0.003966
# 5 -0.001198 -0.001135 -0.001061 0.008387 0.023844 -0.006160
# 6 0.004712 0.003811 0.003319 -0.003966 -0.006160 0.022852
#
#
# Mechanical properties :
#
#
# Convention : Reuss Voigt Hill
#
# Bulk Modulus (GPa) = 39.60349 52.83530 46.21940
# Shear Modulus (GPa) = 44.34770 52.99700 48.67235
#
# Velocity S-wave (km/s) = 4.00495 4.37812 4.19568
# Velocity P-wave (km/s) = 5.97578 6.68331 6.33942
#
# Compressibility (1/GPa) = 0.02525030
#
# Stress axis : x y z
#
# Youngs Moduli (GPa) = 88.02727 114.84581 116.66584
#
# Poissons Ratio (x) = 0.22826 0.05324
# Poissons Ratio (y) = 0.17495 -0.08744
# Poissons Ratio (z) = 0.04017 -0.08607
#
# Static dielectric constant tensor:
#      x y z
#    x 2.206360 -0.018050 -0.005890 
#    y -0.018050 2.273090 -0.017270 
#    z -0.005890 -0.017270 2.293920 
# 
# From -- ./inp_files/58060.got.cif
#   From: 2010.05.17/outbox.cif.g08.bks.cpg/sg2_30_cif.got.tgz:58060.got - 2010.06.03 11:33:40.
