data_PCOD9067466
_publ_section_title
;
Structure prediction by ZEFSAII (Michael W. Deem and Ramdas Pophale) SiO2 
 PCOD9067466
Probable space group: P -1
;
_chemical_formula_sum "Si O2"
_cell_formula_units_Z 16
_cell_length_a 19.278031
_cell_length_b 5.231862
_cell_length_c 25.192641
_cell_angle_alpha 69.465116
_cell_angle_beta 161.426273
_cell_angle_gamma 101.534312
_cell_volume 678.974863
_symmetry_space_group_name_H-M "P -1"
_symmetry_group_IT_number 2
_symmetry_cell_setting 'triclinic'
loop_
_space_group_symop_operation_xyz
x,y,z
-x,-y,-z
loop_
_atom_site_type_symbol
_atom_site_label
_atom_site_fract_x
_atom_site_fract_y
_atom_site_fract_z
Si Si1 0.870788 0.493180 0.545533
Si Si2 0.938114 0.229619 0.987026
Si Si3 0.333082 0.420413 0.425980
Si Si4 0.513209 0.132127 0.681706
Si Si5 0.034529 0.086461 0.185308
Si Si6 0.527132 0.611761 0.790296
Si Si7 0.745140 0.010970 0.332341
Si Si8 0.565466 0.779582 0.013424
O O1 0.740272 0.710726 0.483913
O O2 0.704793 0.332080 0.419031
O O3 0.832850 0.696685 0.450618
O O4 0.148115 0.322655 0.775567
O O5 0.654305 0.332271 0.782146
O O6 0.057007 0.079482 0.138747
O O7 0.000000 0.500000 0.000000
O O8 0.000000 0.000000 0.000000
O O9 0.500000 0.500000 0.500000
O O10 0.487522 0.150273 0.598937
O O11 0.162104 0.290273 0.284037
O O12 0.177617 0.724940 0.326627
O O13 0.643613 0.811508 0.830519
O O14 0.746717 0.269073 0.977451
O O15 0.417914 0.738193 0.760082
O O16 0.000000 0.000000 0.500000
O O17 0.583162 0.059484 0.158939
O O18 0.500000 0.500000 0.000000
O O19 0.500000 0.000000 0.000000
#
# Coordination Sequence:
#
# PCOD9067466 Si02
#       8
#     2   2   2   2   2   2   2   2
#     4  11  26  47  77 108 155 204 259 320 392 464
#     4  12  24  44  75 102 138 195 252 308 376 465
#     4  12  28  48  73 108 154 197 255 327 395 461
#     4  11  26  47  70 108 151 198 254 321 391 464
#     4  12  26  46  72 110 146 194 255 312 392 464
#     4  11  26  48  77 109 153 207 263 324 392 470
#     4  11  25  49  79 114 155 205 260 324 387 469
#     4  12  28  49  78 116 155 201 256 317 391 467
#
# _framework density 23.564935999999999
#
# number of rings (size 3 to 8) (size 9 to 14) (size 15 to 20)
#    0.000    0.500    2.500    4.875    8.750    1.000 
#    0.000    0.000    0.000    0.000    0.000    0.000 
#    0.000    0.000    0.000    0.000    0.000    0.000 
#
# Total GULP energy -89441.499397 kJ/mol
# GULP energy per Si atom -5590.093712 kJ/mol
# Density = 2.351130 g / cm^3
# Si number density = 23.564936 Si / 1000 Ang^3
#
#
#
# Elastic Constant Matrix: (Units=GPa)
#
#
# Indices 1 2 3 4 5 6 
#
# 1 132.6466 38.8112 48.6438 -0.7509 -12.3425 -2.5562
# 2 38.8112 125.1115 43.1670 13.7217 11.5479 -9.9474
# 3 48.6438 43.1670 166.4135 12.3206 -2.6036 -11.4366
# 4 -0.7509 13.7217 12.3206 42.1700 -5.2031 -0.4119
# 5 -12.3425 11.5479 -2.6036 -5.2031 45.7427 -1.8260
# 6 -2.5562 -9.9474 -11.4366 -0.4119 -1.8260 40.6419
#
#
#
# Elastic Compliance Matrix: (Units=1/GPa)
#
#
# Indices 1 2 3 4 5 6 
#
# 1 0.009463 -0.002763 -0.002190 0.002115 0.003346 -0.000525
# 2 -0.002763 0.010230 -0.001538 -0.003372 -0.003731 0.001695
# 3 -0.002190 -0.001538 0.007275 -0.001639 0.000086 0.001520
# 4 0.002115 -0.003372 -0.001639 0.025844 0.004240 -0.000701
# 5 0.003346 -0.003731 0.000086 0.004240 0.024211 0.000452
# 6 -0.000525 0.001695 0.001520 -0.000701 0.000452 0.025428
#
#
# Mechanical properties :
#
#
# Convention : Reuss Voigt Hill
#
# Bulk Modulus (GPa) = 71.49541 76.15728 73.82634
# Shear Modulus (GPa) = 41.63352 45.28089 43.45720
#
# Velocity S-wave (km/s) = 4.20784 4.38829 4.29901
# Velocity P-wave (km/s) = 7.34939 7.61999 7.48591
#
# Compressibility (1/GPa) = 0.01398691
#
# Stress axis : x y z
#
# Youngs Moduli (GPa) = 105.67008 97.75495 137.44922
#
# Poissons Ratio (x) = 0.27006 0.30101
# Poissons Ratio (y) = 0.29193 0.21142
# Poissons Ratio (z) = 0.23141 0.15037
#
# Static dielectric constant tensor:
#      x y z
#    x 1.857900 -0.077800 0.005610 
#    y -0.077800 1.679910 -0.080400 
#    z 0.005610 -0.080400 1.938580 
# 
# From -- ./inp_files/612632.got.cif
#   From: 2010.05.17/outbox.cif.g08.bks.cpg/sg2_307_cif.got.tgz:612632.got - 2010.06.03 11:33:40.
