data_PCOD9067050
_publ_section_title
;
Structure prediction by ZEFSAII (Michael W. Deem and Ramdas Pophale) SiO2 
 PCOD9067050
Probable space group: P -1
;
_chemical_formula_sum "Si O2"
_cell_formula_units_Z 10
_cell_length_a 6.865986
_cell_length_b 10.008252
_cell_length_c 7.286620
_cell_angle_alpha 118.968891
_cell_angle_beta 79.751944
_cell_angle_gamma 112.259535
_cell_volume 405.408430
_symmetry_space_group_name_H-M "P -1"
_symmetry_group_IT_number 2
_symmetry_cell_setting 'triclinic'
loop_
_space_group_symop_operation_xyz
x,y,z
-x,-y,-z
loop_
_atom_site_type_symbol
_atom_site_label
_atom_site_fract_x
_atom_site_fract_y
_atom_site_fract_z
Si Si1 0.974533 0.214252 0.661116
Si Si2 0.894935 0.939716 0.778297
Si Si3 0.473393 0.813527 0.912233
Si Si4 0.329521 0.325995 0.929563
Si Si5 0.987852 0.444547 0.254423
O O1 0.866296 0.084220 0.751503
O O2 0.945113 0.387190 0.761781
O O3 0.953027 0.128310 0.411573
O O4 0.217277 0.261664 0.715339
O O5 0.667565 0.802738 0.749124
O O6 0.446108 0.211548 0.916858
O O7 0.500000 0.000000 0.000000
O O8 0.000000 0.000000 0.000000
O O9 0.147210 0.352803 0.106370
O O10 0.750183 0.322150 0.179028
O O11 0.500000 0.500000 0.000000
O O12 0.000000 0.500000 0.500000
#
# Coordination Sequence:
#
# PCOD9067050 Si02
#       5
#     2   2   2   2   2
#     4  11  25  47  79 110 155 206 257 317 389 462
#     4  11  25  47  76 113 158 199 257 325 385 458
#     4  12  28  46  79 110 157 203 255 323 388 452
#     4  12  26  48  76 110 157 198 260 321 379 461
#     4  12  29  48  79 114 156 209 263 314 389 467
#
# _framework density 24.666482999999999
#
# number of rings (size 3 to 8) (size 9 to 14) (size 15 to 20)
#    0.000    0.400    4.000    3.000    8.400    1.600 
#    0.000    2.000    0.000    0.000    0.000    0.000 
#    0.000    0.000    0.000    0.000    0.000    0.000 
#
# Total GULP energy -55922.262147 kJ/mol
# GULP energy per Si atom -5592.226215 kJ/mol
# Density = 2.461034 g / cm^3
# Si number density = 24.666483 Si / 1000 Ang^3
#
#
#
# Elastic Constant Matrix: (Units=GPa)
#
#
# Indices 1 2 3 4 5 6 
#
# 1 126.8372 38.6094 37.7274 0.8081 15.1126 24.1009
# 2 38.6094 178.6178 19.4596 11.4723 2.3732 -16.9092
# 3 37.7274 19.4596 153.8087 -12.6923 -2.4632 -3.3414
# 4 0.8081 11.4723 -12.6923 37.4469 2.7749 2.7797
# 5 15.1126 2.3732 -2.4632 2.7749 32.3845 2.3359
# 6 24.1009 -16.9092 -3.3414 2.7797 2.3359 59.3079
#
#
#
# Elastic Compliance Matrix: (Units=1/GPa)
#
#
# Indices 1 2 3 4 5 6 
#
# 1 0.010953 -0.002545 -0.002518 0.000426 -0.004782 -0.005150
# 2 -0.002545 0.006609 -0.000331 -0.002353 0.000664 0.002984
# 3 -0.002518 -0.000331 0.007414 0.002473 0.001467 0.001173
# 4 0.000426 -0.002353 0.002473 0.028558 -0.002144 -0.001959
# 5 -0.004782 0.000664 0.001467 -0.002144 0.033284 0.001005
# 6 -0.005150 0.002984 0.001173 -0.001959 0.001005 0.019923
#
#
# Mechanical properties :
#
#
# Convention : Reuss Voigt Hill
#
# Bulk Modulus (GPa) = 70.47260 72.31738 71.39499
# Shear Modulus (GPa) = 40.89654 50.05903 45.47778
#
# Velocity S-wave (km/s) = 4.07625 4.50981 4.29850
# Velocity P-wave (km/s) = 7.12647 7.51662 7.32415
#
# Compressibility (1/GPa) = 0.01418991
#
# Stress axis : x y z
#
# Youngs Moduli (GPa) = 91.29648 151.29964 134.87806
#
# Poissons Ratio (x) = 0.38501 0.33963
# Poissons Ratio (y) = 0.23232 0.04461
# Poissons Ratio (z) = 0.22989 0.05004
#
# Static dielectric constant tensor:
#      x y z
#    x 1.984770 0.002150 -0.048550 
#    y 0.002150 2.041000 -0.004720 
#    z -0.048550 -0.004720 1.976000 
# 
# From -- ./inp_files/131251.got.cif
#   From: 2010.05.17/outbox.cif.g08.bks.cpg/sg2_66_cif.got.tgz:131251.got - 2010.06.03 11:33:40.
