data_PCOD9067989
_publ_section_title
;
Structure prediction by ZEFSAII (Michael W. Deem and Ramdas Pophale) SiO2 
 PCOD9067989
Probable space group: P -1
;
_chemical_formula_sum "Si O2"
_cell_formula_units_Z 16
_cell_length_a 11.778388
_cell_length_b 13.942552
_cell_length_c 8.345737
_cell_angle_alpha 120.324189
_cell_angle_beta 105.389603
_cell_angle_gamma 124.016750
_cell_volume 630.707467
_symmetry_space_group_name_H-M "P -1"
_symmetry_group_IT_number 2
_symmetry_cell_setting 'triclinic'
loop_
_space_group_symop_operation_xyz
x,y,z
-x,-y,-z
loop_
_atom_site_type_symbol
_atom_site_label
_atom_site_fract_x
_atom_site_fract_y
_atom_site_fract_z
Si Si1 0.186797 0.237565 0.316494
Si Si2 0.815459 0.745869 0.021216
Si Si3 0.687529 0.841138 0.494980
Si Si4 0.434216 0.012032 0.326991
Si Si5 0.912493 0.394615 0.705703
Si Si6 0.600717 0.797173 0.075468
Si Si7 0.676714 0.225135 0.177197
Si Si8 0.066457 0.271606 0.623424
O O1 0.217325 0.324415 0.232030
O O2 0.361809 0.290375 0.501228
O O3 0.138282 0.279754 0.484602
O O4 0.000000 0.000000 0.000000
O O5 0.656224 0.724651 0.953693
O O6 0.810483 0.673808 0.124778
O O7 0.065267 0.984024 0.317722
O O8 0.669396 0.950197 0.650217
O O9 0.553649 0.734705 0.191522
O O10 0.662281 0.203147 0.494130
O O11 0.500000 0.000000 0.500000
O O12 0.283442 0.813133 0.002170
O O13 0.871206 0.403133 0.516405
O O14 0.041227 0.382830 0.713030
O O15 0.000000 0.500000 0.000000
O O16 0.434729 0.747138 0.888155
O O17 0.822460 0.038793 0.357858
O O18 0.500000 0.000000 0.000000
#
# Coordination Sequence:
#
# PCOD9067989 Si02
#       8
#     2   2   2   2   2   2   2   2
#     4  10  19  26  50  88 119 153 192 251 314 362
#     4  10  20  29  53  91 126 151 191 261 321 354
#     4  10  18  28  49  88 128 141 190 251 323 352
#     4  11  20  36  62  94 119 153 208 268 309 355
#     4  11  26  43  60  83 128 177 207 249 317 379
#     4  11  16  33  53  90 123 151 193 264 313 363
#     4  10  21  33  58  88 115 162 212 254 304 365
#     4  11  18  37  55  82 125 157 203 250 307 370
#
# _framework density 25.368337
#
# number of rings (size 3 to 8) (size 9 to 14) (size 15 to 20)
#    0.000    1.500    7.500    1.500    7.000    0.000 
#    0.000    0.625    0.000    1.500    0.000    0.000 
#    0.000    0.000    0.000    0.000    0.000    0.000 
#
# Total GULP energy -89293.293199 kJ/mol
# GULP energy per Si atom -5580.830825 kJ/mol
# Density = 2.531060 g / cm^3
# Si number density = 25.368337 Si / 1000 Ang^3
#
#
#
# Elastic Constant Matrix: (Units=GPa)
#
#
# Indices 1 2 3 4 5 6 
#
# 1 180.8402 41.7535 75.4339 -29.3263 -33.9866 -30.9909
# 2 41.7535 85.2551 62.8590 -32.8882 2.9112 3.7029
# 3 75.4339 62.8590 221.6648 -53.7987 -24.9174 -11.0626
# 4 -29.3263 -32.8882 -53.7987 59.6708 9.4214 9.4279
# 5 -33.9866 2.9112 -24.9174 9.4214 -10.1844 -24.3622
# 6 -30.9909 3.7029 -11.0626 9.4279 -24.3622 31.7895
#
#
#
# Elastic Compliance Matrix: (Units=1/GPa)
#
#
# Indices 1 2 3 4 5 6 
#
# 1 0.005204 0.000092 -0.002153 0.001965 -0.006768 -0.001457
# 2 0.000092 0.014637 -0.002059 0.004665 0.007807 0.002267
# 3 -0.002153 -0.002059 0.006628 0.004277 -0.001305 -0.001822
# 4 0.001965 0.004665 0.004277 0.023264 0.005469 0.000152
# 5 -0.006768 0.007807 -0.001305 0.005469 -0.014892 -0.020997
# 6 -0.001457 0.002267 -0.001822 0.000152 -0.020997 0.013003
#
#
# Mechanical properties :
#
#
# Convention : Reuss Voigt Hill
#
# Bulk Modulus (GPa) = 54.86013 94.20588 74.53300
# Shear Modulus (GPa) = 80.43543 36.76943 58.60243
#
# Velocity S-wave (km/s) = 5.63701 3.81126 4.81152
# Velocity P-wave (km/s) = 8.00251 7.52220 7.76607
#
# Compressibility (1/GPa) = 0.01822817
#
# Stress axis : x y z
#
# Youngs Moduli (GPa) = 192.16385 68.31876 150.86655
#
# Poissons Ratio (x) = -0.00627 0.32488
# Poissons Ratio (y) = -0.01762 0.31062
# Poissons Ratio (z) = 0.41382 0.14066
#
# Static dielectric constant tensor:
#      x y z
#    x 2.000200 0.191150 -0.083280 
#    y 0.191150 2.356400 -0.102220 
#    z -0.083280 -0.102220 2.126950 
# 
# From -- ./inp_files/279935.got.cif
#   From: 2010.05.17/outbox.cif.g08.bks.cpg/sg2_140_cif.got.tgz:279935.got - 2010.06.03 11:33:40.
