data_PCOD9067999
_publ_section_title
;
Structure prediction by ZEFSAII (Michael W. Deem and Ramdas Pophale) SiO2 
 PCOD9067999
Probable space group: P -1
;
_chemical_formula_sum "Si O2"
_cell_formula_units_Z 12
_cell_length_a 13.958059
_cell_length_b 8.631838
_cell_length_c 9.925957
_cell_angle_alpha 119.833689
_cell_angle_beta 147.500685
_cell_angle_gamma 47.133731
_cell_volume 462.037807
_symmetry_space_group_name_H-M "P -1"
_symmetry_group_IT_number 2
_symmetry_cell_setting 'triclinic'
loop_
_space_group_symop_operation_xyz
x,y,z
-x,-y,-z
loop_
_atom_site_type_symbol
_atom_site_label
_atom_site_fract_x
_atom_site_fract_y
_atom_site_fract_z
Si Si1 0.658650 0.073906 0.355157
Si Si2 0.750530 0.330849 0.224718
Si Si3 0.908229 0.958923 0.079548
Si Si4 0.474435 0.826908 0.463968
Si Si5 0.761868 0.629179 0.153068
Si Si6 0.079249 0.579353 0.284330
O O1 0.530482 0.129119 0.366243
O O2 0.865934 0.068474 0.644764
O O3 0.728145 0.846557 0.272695
O O4 0.483174 0.273038 0.142126
O O5 0.828290 0.440336 0.257261
O O6 0.869610 0.296117 0.490347
O O7 0.775455 0.115648 0.112838
O O8 0.500000 0.500000 0.000000
O O9 0.954350 0.727472 0.070188
O O10 0.763207 0.096541 0.839602
O O11 0.680461 0.603927 0.559527
O O12 0.500000 0.000000 0.500000
O O13 0.927733 0.539199 0.183049
#
# Coordination Sequence:
#
# PCOD9067999 Si02
#       6
#     2   2   2   2   2   2
#     4  11  26  47  73 110 148 188 247 296 362 430
#     4  12  24  44  76 111 144 189 249 296 361 427
#     4  12  27  47  77 108 147 192 243 303 358 431
#     4  12  28  49  74 106 149 194 243 296 368 432
#     4  11  26  46  79 107 145 193 240 302 358 431
#     4  12  26  48  75 108 146 192 241 300 363 430
#
# _framework density 25.971896999999998
#
# number of rings (size 3 to 8) (size 9 to 14) (size 15 to 20)
#    0.000    0.333    3.333    4.500    7.000    3.333 
#    0.000    0.000    0.000    0.000    0.000    0.000 
#    0.000    0.000    0.000    0.000    0.000    0.000 
#
# Total GULP energy -67105.014720 kJ/mol
# GULP energy per Si atom -5592.084560 kJ/mol
# Density = 2.591278 g / cm^3
# Si number density = 25.971897 Si / 1000 Ang^3
#
#
#
# Elastic Constant Matrix: (Units=GPa)
#
#
# Indices 1 2 3 4 5 6 
#
# 1 127.7487 41.2591 27.2090 -17.7872 1.0360 -17.5343
# 2 41.2591 92.2734 14.9746 -38.8958 -1.6891 -6.6229
# 3 27.2090 14.9746 146.9293 -30.8631 6.9874 -2.5826
# 4 -17.7872 -38.8958 -30.8631 50.7295 3.5815 7.0770
# 5 1.0360 -1.6891 6.9874 3.5815 53.3621 -1.4761
# 6 -17.5343 -6.6229 -2.5826 7.0770 -1.4761 33.5966
#
#
#
# Elastic Compliance Matrix: (Units=1/GPa)
#
#
# Indices 1 2 3 4 5 6 
#
# 1 0.010064 -0.004598 -0.001668 -0.001657 0.000115 0.004572
# 2 -0.004598 0.018288 0.001889 0.013819 -0.000550 -0.001584
# 3 -0.001668 0.001889 0.008264 0.006163 -0.001437 -0.001225
# 4 -0.001657 0.013819 0.006163 0.034374 -0.002784 -0.005030
# 5 0.000115 -0.000550 -0.001437 -0.002784 0.019130 0.001268
# 6 0.004572 -0.001584 -0.001225 -0.005030 0.001268 0.032860
#
#
# Mechanical properties :
#
#
# Convention : Reuss Voigt Hill
#
# Bulk Modulus (GPa) = 35.89277 59.31519 47.60398
# Shear Modulus (GPa) = 35.45552 46.43822 40.94687
#
# Velocity S-wave (km/s) = 3.69880 4.23308 3.97493
# Velocity P-wave (km/s) = 5.66492 6.83958 6.27978
#
# Compressibility (1/GPa) = 0.02786076
#
# Stress axis : x y z
#
# Youngs Moduli (GPa) = 99.36467 54.68137 121.00868
#
# Poissons Ratio (x) = 0.25140 0.20189
# Poissons Ratio (y) = 0.45684 -0.22853
# Poissons Ratio (z) = 0.16578 -0.10327
#
# Static dielectric constant tensor:
#      x y z
#    x 1.965180 0.048840 0.124680 
#    y 0.048840 2.038290 -0.029670 
#    z 0.124680 -0.029670 2.199670 
# 
# From -- ./inp_files/244807.got.cif
#   From: 2010.05.17/outbox.cif.g08.bks.cpg/sg2_123_cif.got.tgz:244807.got - 2010.06.03 11:33:40.
