data_PCOD9067314
_publ_section_title
;
Structure prediction by ZEFSAII (Michael W. Deem and Ramdas Pophale) SiO2 
 PCOD9067314
Probable space group: P -1
;
_chemical_formula_sum "Si O2"
_cell_formula_units_Z 12
_cell_length_a 5.511754
_cell_length_b 14.971487
_cell_length_c 9.402483
_cell_angle_alpha 54.686042
_cell_angle_beta 101.751079
_cell_angle_gamma 121.579566
_cell_volume 533.859284
_symmetry_space_group_name_H-M "P -1"
_symmetry_group_IT_number 2
_symmetry_cell_setting 'triclinic'
loop_
_space_group_symop_operation_xyz
x,y,z
-x,-y,-z
loop_
_atom_site_type_symbol
_atom_site_label
_atom_site_fract_x
_atom_site_fract_y
_atom_site_fract_z
Si Si1 0.286206 0.052564 0.891748
Si Si2 0.155120 0.432022 0.006550
Si Si3 0.175670 0.805993 0.614144
Si Si4 0.718749 0.710517 0.400885
Si Si5 0.275650 0.029250 0.592093
Si Si6 0.178060 0.452054 0.657355
O O1 0.411910 0.204838 0.752245
O O2 0.194757 0.004694 0.766370
O O3 0.500000 0.000000 0.000000
O O4 0.000000 0.000000 0.000000
O O5 0.018375 0.306408 0.200568
O O6 0.500000 0.500000 0.000000
O O7 0.089251 0.418871 0.841625
O O8 0.000000 0.500000 0.000000
O O9 0.458057 0.830019 0.538619
O O10 0.967418 0.794798 0.468580
O O11 0.331649 0.920499 0.641505
O O12 0.496226 0.578158 0.572638
O O13 0.828582 0.663728 0.322864
O O14 0.000000 0.000000 0.500000
O O15 0.000000 0.500000 0.500000
#
# Coordination Sequence:
#
# PCOD9067314 Si02
#       6
#     2   2   2   2   2   2
#     4  12  29  49  76 112 154 202 258 319 385 457
#     4  12  28  49  78 116 153 201 261 318 387 466
#     4  11  25  48  78 107 157 200 258 319 381 462
#     4  11  25  49  76 107 159 199 256 320 394 463
#     4  11  26  48  76 110 145 210 258 312 388 451
#     4  11  27  47  78 115 149 209 251 319 399 459
#
# _framework density 22.477834999999999
#
# number of rings (size 3 to 8) (size 9 to 14) (size 15 to 20)
#    0.000    0.667    3.333    2.000   16.333    0.000 
#    0.000    0.000    0.000    0.000    0.000    0.000 
#    0.000    0.000    0.000    0.000    0.000    0.000 
#
# Total GULP energy -66911.453990 kJ/mol
# GULP energy per Si atom -5575.954499 kJ/mol
# Density = 2.242667 g / cm^3
# Si number density = 22.477835 Si / 1000 Ang^3
#
#
#
# Elastic Constant Matrix: (Units=GPa)
#
#
# Indices 1 2 3 4 5 6 
#
# 1 138.7652 42.9526 81.6964 16.0883 -11.6256 -2.8986
# 2 42.9526 99.0396 60.3938 25.4061 -5.6681 -22.4252
# 3 81.6964 60.3938 178.9330 28.3775 -18.4162 -6.2574
# 4 16.0883 25.4061 28.3775 54.1864 0.0147 -4.6311
# 5 -11.6256 -5.6681 -18.4162 0.0147 52.4857 -2.6735
# 6 -2.8986 -22.4252 -6.2574 -4.6311 -2.6735 49.3768
#
#
#
# Elastic Compliance Matrix: (Units=1/GPa)
#
#
# Indices 1 2 3 4 5 6 
#
# 1 0.010212 -0.002218 -0.003875 -0.000037 0.000619 -0.000869
# 2 -0.002218 0.015620 -0.003310 -0.004406 0.000349 0.006150
# 3 -0.003875 -0.003310 0.008972 -0.002056 0.001898 -0.000684
# 4 -0.000037 -0.004406 -0.002056 0.021583 -0.001227 -0.000306
# 5 0.000619 0.000349 0.001898 -0.001227 0.019965 0.001401
# 6 -0.000869 0.006150 -0.000684 -0.000306 0.001401 0.022955
#
#
# Mechanical properties :
#
#
# Convention : Reuss Voigt Hill
#
# Bulk Modulus (GPa) = 62.50089 87.42481 74.96285
# Shear Modulus (GPa) = 40.50379 46.65611 43.57995
#
# Velocity S-wave (km/s) = 4.24954 4.56087 4.40795
# Velocity P-wave (km/s) = 7.20722 8.16784 7.70252
#
# Compressibility (1/GPa) = 0.01599977
#
# Stress axis : x y z
#
# Youngs Moduli (GPa) = 97.92210 64.02117 111.45288
#
# Poissons Ratio (x) = 0.14199 0.43187
# Poissons Ratio (y) = 0.21717 0.36887
# Poissons Ratio (z) = 0.37944 0.21189
#
# Static dielectric constant tensor:
#      x y z
#    x 1.708800 0.080140 -0.013470 
#    y 0.080140 1.941600 -0.321490 
#    z -0.013470 -0.321490 2.112270 
# 
# From -- ./inp_files/26324.got.cif
#   From: 2010.05.17/outbox.cif.g08.bks.cpg/sg2_14_cif.got.tgz:26324.got - 2010.06.03 11:33:40.
