data_PCOD9067324
_publ_section_title
;
Structure prediction by ZEFSAII (Michael W. Deem and Ramdas Pophale) SiO2 
 PCOD9067324
Probable space group: P -1
;
_chemical_formula_sum "Si O2"
_cell_formula_units_Z 16
_cell_length_a 18.976464
_cell_length_b 7.529552
_cell_length_c 10.399371
_cell_angle_alpha 89.190541
_cell_angle_beta 154.966825
_cell_angle_gamma 99.417004
_cell_volume 587.389945
_symmetry_space_group_name_H-M "P -1"
_symmetry_group_IT_number 2
_symmetry_cell_setting 'triclinic'
loop_
_space_group_symop_operation_xyz
x,y,z
-x,-y,-z
loop_
_atom_site_type_symbol
_atom_site_label
_atom_site_fract_x
_atom_site_fract_y
_atom_site_fract_z
Si Si1 0.398585 0.599715 0.199960
Si Si2 0.954990 0.725863 0.674698
Si Si3 0.187286 0.694556 0.610847
Si Si4 0.694532 0.470894 0.660082
Si Si5 0.320106 0.042723 0.222834
Si Si6 0.772440 0.935804 0.221713
Si Si7 0.189049 0.165492 0.318081
Si Si8 0.371107 0.855347 0.644453
O O1 0.484546 0.449570 0.293695
O O2 0.299697 0.550355 0.174630
O O3 0.586036 0.765359 0.546734
O O4 0.294040 0.661505 0.914103
O O5 0.948732 0.513194 0.649865
O O6 0.818988 0.734122 0.561031
O O7 0.866744 0.787276 0.406442
O O8 0.149738 0.887071 0.007532
O O9 0.112714 0.857294 0.529380
O O10 0.303690 0.768026 0.673657
O O11 0.807468 0.670726 0.779120
O O12 0.716198 0.306543 0.606632
O O13 0.323974 0.047526 0.547356
O O14 0.500000 0.000000 0.500000
O O15 0.251461 0.053547 0.968026
O O16 0.580858 0.901375 0.970883
O O17 0.000000 0.000000 0.000000
#
# Coordination Sequence:
#
# PCOD9067324 Si02
#       8
#     2   2   2   2   2   2   2   2
#     4  11  25  48  83 122 163 220 275 341 401 497
#     4  12  29  50  82 123 166 216 272 351 413 483
#     4  12  26  50  82 125 166 212 277 337 411 495
#     4  11  25  48  78 121 162 211 282 332 408 489
#     4  12  27  54  82 116 167 221 280 336 415 504
#     4  12  26  50  82 120 164 219 272 341 412 494
#     4  12  28  51  80 118 168 216 276 342 409 493
#     4  12  26  50  85 120 164 223 270 335 418 494
#
# _framework density 27.239145000000001
#
# number of rings (size 3 to 8) (size 9 to 14) (size 15 to 20)
#    0.000    0.250    5.000    3.000    5.250    2.000 
#    4.500    1.875    0.000    0.000    0.000    0.000 
#    0.000    0.000    0.000    0.000    0.000    0.000 
#
# Total GULP energy -89605.248536 kJ/mol
# GULP energy per Si atom -5600.328034 kJ/mol
# Density = 2.717715 g / cm^3
# Si number density = 27.239145 Si / 1000 Ang^3
#
#
#
# Elastic Constant Matrix: (Units=GPa)
#
#
# Indices 1 2 3 4 5 6 
#
# 1 131.1210 79.2924 48.2650 -2.9831 -11.5874 21.1210
# 2 79.2924 183.6835 52.4106 11.0881 -5.5537 23.4184
# 3 48.2650 52.4106 90.7075 8.9223 -10.4840 26.0576
# 4 -2.9831 11.0881 8.9223 62.1503 6.2975 -15.0464
# 5 -11.5874 -5.5537 -10.4840 6.2975 53.1330 -7.8603
# 6 21.1210 23.4184 26.0576 -15.0464 -7.8603 53.2901
#
#
#
# Elastic Compliance Matrix: (Units=1/GPa)
#
#
# Indices 1 2 3 4 5 6 
#
# 1 0.011610 -0.003935 -0.003821 0.001601 0.001120 -0.000387
# 2 -0.003935 0.007986 -0.001973 -0.001653 -0.000441 -0.001517
# 3 -0.003821 -0.001973 0.016710 -0.004022 0.001748 -0.006667
# 4 0.001601 -0.001653 -0.004022 0.018951 -0.001807 0.007143
# 5 0.001120 -0.000441 0.001748 -0.001807 0.019770 0.001301
# 6 -0.000387 -0.001517 -0.006667 0.007143 0.001301 0.025054
#
#
# Mechanical properties :
#
#
# Convention : Reuss Voigt Hill
#
# Bulk Modulus (GPa) = 59.35317 85.04975 72.20146
# Shear Modulus (GPa) = 39.94996 48.75093 44.35044
#
# Velocity S-wave (km/s) = 3.83383 4.23512 4.03946
# Velocity P-wave (km/s) = 6.43697 7.43008 6.95128
#
# Compressibility (1/GPa) = 0.01684830
#
# Stress axis : x y z
#
# Youngs Moduli (GPa) = 86.12930 125.22516 59.84265
#
# Poissons Ratio (x) = 0.49279 0.22866
# Poissons Ratio (y) = 0.33894 0.11806
# Poissons Ratio (z) = 0.32910 0.24706
#
# Static dielectric constant tensor:
#      x y z
#    x 2.262300 -0.113590 -0.055480 
#    y -0.113590 2.463920 0.161300 
#    z -0.055480 0.161300 2.210650 
# 
# From -- ./inp_files/343579.got.cif
#   From: 2010.05.17/outbox.cif.g08.bks.cpg/sg2_172_cif.got.tgz:343579.got - 2010.06.03 11:33:40.
