data_PCOD9067573
_publ_section_title
;
Structure prediction by ZEFSAII (Michael W. Deem and Ramdas Pophale) SiO2 
 PCOD9067573
Probable space group: P -1
;
_chemical_formula_sum "Si O2"
_cell_formula_units_Z 10
_cell_length_a 5.337257
_cell_length_b 7.835617
_cell_length_c 11.580098
_cell_angle_alpha 101.813856
_cell_angle_beta 65.864732
_cell_angle_gamma 117.898638
_cell_volume 390.533514
_symmetry_space_group_name_H-M "P -1"
_symmetry_group_IT_number 2
_symmetry_cell_setting 'triclinic'
loop_
_space_group_symop_operation_xyz
x,y,z
-x,-y,-z
loop_
_atom_site_type_symbol
_atom_site_label
_atom_site_fract_x
_atom_site_fract_y
_atom_site_fract_z
Si Si1 0.754331 0.091723 0.560752
Si Si2 0.668015 0.168388 0.225760
Si Si3 0.113832 0.682718 0.095731
Si Si4 0.190658 0.466741 0.619281
Si Si5 0.724701 0.869271 0.922074
O O1 0.931793 0.320598 0.565156
O O2 0.500000 0.000000 0.500000
O O3 0.566396 0.030878 0.705326
O O4 0.000000 0.000000 0.500000
O O5 0.764791 0.320979 0.331645
O O6 0.470995 0.207766 0.169344
O O7 0.981548 0.167267 0.132709
O O8 0.908556 0.625036 0.243207
O O9 0.157044 0.897202 0.074919
O O10 0.478911 0.746410 0.048360
O O11 0.000000 0.500000 0.000000
O O12 0.500000 0.500000 0.500000
#
# Coordination Sequence:
#
# PCOD9067573 Si02
#       5
#     2   2   2   2   2
#     4  12  27  48  75 110 160 207 253 317 390 462
#     4  12  26  49  80 114 154 200 265 320 388 458
#     4  11  25  50  80 114 156 204 260 321 387 465
#     4  12  27  49  81 119 159 207 262 322 392 468
#     4  11  27  50  79 113 151 205 258 323 386 459
#
# _framework density 25.605996000000001
#
# number of rings (size 3 to 8) (size 9 to 14) (size 15 to 20)
#    0.000    0.400    6.000    1.200    0.000    8.000 
#    0.000    0.000    0.000    0.000    0.000    0.000 
#    0.000    0.000    0.000    0.000    0.000    0.000 
#
# Total GULP energy -55827.388771 kJ/mol
# GULP energy per Si atom -5582.738877 kJ/mol
# Density = 2.554772 g / cm^3
# Si number density = 25.605996 Si / 1000 Ang^3
#
#
#
# Elastic Constant Matrix: (Units=GPa)
#
#
# Indices 1 2 3 4 5 6 
#
# 1 145.4615 47.0216 66.9840 10.7023 -9.0328 43.3888
# 2 47.0216 210.8746 69.5963 9.6639 0.9738 37.2327
# 3 66.9840 69.5963 188.8841 -14.6941 -16.6043 30.3118
# 4 10.7023 9.6639 -14.6941 69.9822 12.9370 -2.2738
# 5 -9.0328 0.9738 -16.6043 12.9370 53.4822 3.1451
# 6 43.3888 37.2327 30.3118 -2.2738 3.1451 40.6569
#
#
#
# Elastic Compliance Matrix: (Units=1/GPa)
#
#
# Indices 1 2 3 4 5 6 
#
# 1 0.011677 0.000345 -0.002469 -0.003208 0.002641 -0.011320
# 2 0.000345 0.006146 -0.001725 -0.001426 0.000037 -0.004792
# 3 -0.002469 -0.001725 0.007276 0.001826 0.001504 -0.001224
# 4 -0.003208 -0.001426 0.001826 0.016278 -0.004157 0.004600
# 5 0.002641 0.000037 0.001504 -0.004157 0.020958 -0.005828
# 6 -0.011320 -0.004792 -0.001224 0.004600 -0.005828 0.042686
#
#
# Mechanical properties :
#
#
# Convention : Reuss Voigt Hill
#
# Bulk Modulus (GPa) = 57.47118 101.38044 79.42581
# Shear Modulus (GPa) = 42.18674 56.93216 49.55945
#
# Velocity S-wave (km/s) = 4.06339 4.72040 4.40416
# Velocity P-wave (km/s) = 6.67143 8.32995 7.54639
#
# Compressibility (1/GPa) = 0.01740003
#
# Stress axis : x y z
#
# Youngs Moduli (GPa) = 85.64118 162.70393 137.43550
#
# Poissons Ratio (x) = -0.05605 0.33927
# Poissons Ratio (y) = -0.02950 0.23713
# Poissons Ratio (z) = 0.21141 0.28072
#
# Static dielectric constant tensor:
#      x y z
#    x 2.029280 -0.054070 0.072290 
#    y -0.054070 2.029350 0.006040 
#    z 0.072290 0.006040 2.242840 
# 
# From -- ./inp_files/19973.got.cif
#   From: 2010.05.17/outbox.cif.g08.bks.cpg/sg2_10_cif.got.tgz:19973.got - 2010.06.03 11:33:40.
