data_PCOD9067035
_publ_section_title
;
Structure prediction by ZEFSAII (Michael W. Deem and Ramdas Pophale) SiO2 
 PCOD9067035
Probable space group: P -1
;
_chemical_formula_sum "Si O2"
_cell_formula_units_Z 16
_cell_length_a 14.440990
_cell_length_b 9.271258
_cell_length_c 4.889681
_cell_angle_alpha 108.100385
_cell_angle_beta 97.206010
_cell_angle_gamma 97.487822
_cell_volume 607.319813
_symmetry_space_group_name_H-M "P -1"
_symmetry_group_IT_number 2
_symmetry_cell_setting 'triclinic'
loop_
_space_group_symop_operation_xyz
x,y,z
-x,-y,-z
loop_
_atom_site_type_symbol
_atom_site_label
_atom_site_fract_x
_atom_site_fract_y
_atom_site_fract_z
Si Si1 0.962336 0.119232 0.257845
Si Si2 0.848275 0.833807 0.337022
Si Si3 0.392618 0.916777 0.819971
Si Si4 0.452693 0.365938 0.600800
Si Si5 0.678242 0.931414 0.652386
Si Si6 0.194374 0.479500 0.178987
Si Si7 0.097820 0.575965 0.713946
Si Si8 0.629695 0.379157 0.024870
O O1 0.907304 0.243779 0.183220
O O2 0.057296 0.203738 0.500156
O O3 0.889380 0.004608 0.345349
O O4 0.000000 0.000000 0.000000
O O5 0.765658 0.863136 0.526012
O O6 0.811839 0.700756 0.018644
O O7 0.368280 0.975985 0.547100
O O8 0.377302 0.735819 0.787715
O O9 0.500000 0.000000 0.000000
O O10 0.312113 0.964532 0.017331
O O11 0.500000 0.500000 0.500000
O O12 0.395826 0.216192 0.357328
O O13 0.532478 0.317821 0.791740
O O14 0.380643 0.448469 0.792075
O O15 0.110142 0.526299 0.997105
O O16 0.177828 0.521215 0.512615
O O17 0.283942 0.590620 0.138224
O O18 0.000000 0.500000 0.500000
#
# Coordination Sequence:
#
# PCOD9067035 Si02
#       8
#     2   2   2   2   2   2   2   2
#     4  11  27  48  77 105 150 195 243 305 381 439
#     4  11  27  48  73 108 147 196 245 311 366 446
#     4  12  27  48  73 106 153 197 243 310 368 435
#     4  11  25  47  76 105 149 198 248 303 363 444
#     4  12  28  47  76 111 146 198 254 298 371 444
#     4  12  28  47  75 112 149 193 250 305 370 443
#     4  12  27  48  77 109 147 193 246 307 372 444
#     4  11  27  45  71 110 148 197 247 304 370 432
#
# _framework density 26.345264
#
# number of rings (size 3 to 8) (size 9 to 14) (size 15 to 20)
#    0.000    0.500    3.750    2.250   14.000    0.000 
#    0.000    0.000    0.000    0.000    0.000    0.000 
#    0.000    0.000    0.000    0.000    0.000    0.000 
#
# Total GULP energy -89620.670147 kJ/mol
# GULP energy per Si atom -5601.291884 kJ/mol
# Density = 2.628530 g / cm^3
# Si number density = 26.345264 Si / 1000 Ang^3
#
#
#
# Elastic Constant Matrix: (Units=GPa)
#
#
# Indices 1 2 3 4 5 6 
#
# 1 103.4713 50.6354 21.3083 10.5326 -16.3150 2.6844
# 2 50.6354 105.9392 17.2754 -3.7533 7.0726 13.0433
# 3 21.3083 17.2754 86.0570 -3.5504 -17.1976 -2.8861
# 4 10.5326 -3.7533 -3.5504 43.2413 -5.1109 -3.4222
# 5 -16.3150 7.0726 -17.1976 -5.1109 42.1656 -3.3000
# 6 2.6844 13.0433 -2.8861 -3.4222 -3.3000 35.5778
#
#
#
# Elastic Compliance Matrix: (Units=1/GPa)
#
#
# Indices 1 2 3 4 5 6 
#
# 1 0.015004 -0.007810 -0.000936 -0.003494 0.006460 0.001918
# 2 -0.007810 0.014764 -0.002486 0.001751 -0.006729 -0.005481
# 3 -0.000936 -0.002486 0.013762 0.002096 0.006147 0.002870
# 4 -0.003494 0.001751 0.002096 0.024774 0.002400 0.002397
# 5 0.006460 -0.006729 0.006147 0.002400 0.030576 0.005545
# 6 0.001918 -0.005481 0.002870 0.002397 0.005545 0.030950
#
#
# Mechanical properties :
#
#
# Convention : Reuss Voigt Hill
#
# Bulk Modulus (GPa) = 47.47173 52.65617 50.06395
# Shear Modulus (GPa) = 31.38417 37.94682 34.66550
#
# Velocity S-wave (km/s) = 3.45521 3.79933 3.63135
# Velocity P-wave (km/s) = 5.82891 6.26713 6.05199
#
# Compressibility (1/GPa) = 0.02106517
#
# Stress axis : x y z
#
# Youngs Moduli (GPa) = 66.65034 67.73359 72.66318
#
# Poissons Ratio (x) = 0.52899 0.06802
# Poissons Ratio (y) = 0.52053 0.18066
# Poissons Ratio (z) = 0.06239 0.16840
#
# Static dielectric constant tensor:
#      x y z
#    x 2.180610 -0.047960 -0.077200 
#    y -0.047960 2.167090 0.062630 
#    z -0.077200 0.062630 2.154490 
# 
# From -- ./inp_files/90982.got.cif
#   From: 2010.05.17/outbox.cif.g08.bks.cpg/sg2_46_cif.got.tgz:90982.got - 2010.06.03 11:33:40.
