data_PCOD9067534
_publ_section_title
;
Structure prediction by ZEFSAII (Michael W. Deem and Ramdas Pophale) SiO2 
 PCOD9067534
Probable space group: P -1
;
_chemical_formula_sum "Si O2"
_cell_formula_units_Z 13
_cell_length_a 9.618742
_cell_length_b 10.742354
_cell_length_c 8.749793
_cell_angle_alpha 111.394911
_cell_angle_beta 46.405213
_cell_angle_gamma 83.608028
_cell_volume 513.856941
_symmetry_space_group_name_H-M "P -1"
_symmetry_group_IT_number 2
_symmetry_cell_setting 'triclinic'
loop_
_space_group_symop_operation_xyz
x,y,z
-x,-y,-z
loop_
_atom_site_type_symbol
_atom_site_label
_atom_site_fract_x
_atom_site_fract_y
_atom_site_fract_z
Si Si1 0.500000 0.500000 0.000000
Si Si2 0.286546 0.809247 0.753780
Si Si3 0.038511 0.327801 0.475611
Si Si4 0.168852 0.129487 0.842831
Si Si5 0.391435 0.248297 0.947461
Si Si6 0.207627 0.966473 0.219424
Si Si7 0.194090 0.346468 0.694775
O O1 0.226884 0.603289 0.285436
O O2 0.472356 0.360683 0.876610
O O3 0.555743 0.683980 0.486651
O O4 0.231621 0.951485 0.742415
O O5 0.234748 0.877526 0.998702
O O6 0.096466 0.766223 0.854360
O O7 0.147274 0.359144 0.262038
O O8 0.132434 0.359752 0.571979
O O9 0.162017 0.135969 0.289214
O O10 0.186302 0.196563 0.697601
O O11 0.342814 0.150984 0.820893
O O12 0.570123 0.141726 0.895182
O O13 0.000000 0.000000 0.500000
O O14 0.000000 0.500000 0.000000
#
# Coordination Sequence:
#
# PCOD9067534 Si02
#       7
#     1   2   2   2   2   2   2
#     4  12  28  44  72 108 152 190 252 306 372 450
#     4  11  25  50  76 112 153 195 251 320 372 446
#     4  12  25  48  76 109 149 202 254 312 377 444
#     4  11  26  46  77 113 148 197 251 311 380 445
#     4  12  25  48  77 109 152 196 254 315 373 446
#     4  12  23  47  82 111 146 199 259 316 374 443
#     4  12  27  47  73 111 155 204 247 301 386 462
#
# _framework density 25.298870000000001
#
# number of rings (size 3 to 8) (size 9 to 14) (size 15 to 20)
#    0.000    0.308    4.615    4.154    0.000    5.538 
#    0.000    0.000    0.000    0.000    0.000    0.000 
#    0.000    0.000    0.000    0.000    0.000    0.000 
#
# Total GULP energy -72595.251150 kJ/mol
# GULP energy per Si atom -5584.250088 kJ/mol
# Density = 2.524129 g / cm^3
# Si number density = 25.298870 Si / 1000 Ang^3
#
#
#
# Elastic Constant Matrix: (Units=GPa)
#
#
# Indices 1 2 3 4 5 6 
#
# 1 132.2372 46.0482 39.4430 -9.9267 -29.3759 7.3319
# 2 46.0482 69.3941 6.0071 -17.4796 0.0785 2.7940
# 3 39.4430 6.0071 125.7839 1.6455 -39.4098 -6.0232
# 4 -9.9267 -17.4796 1.6455 32.6999 4.9616 2.4092
# 5 -29.3759 0.0785 -39.4098 4.9616 57.8874 -5.3637
# 6 7.3319 2.7940 -6.0232 2.4092 -5.3637 46.5759
#
#
#
# Elastic Compliance Matrix: (Units=1/GPa)
#
#
# Indices 1 2 3 4 5 6 
#
# 1 0.011960 -0.008046 -0.001896 -0.001227 0.004800 -0.001029
# 2 -0.008046 0.022501 -0.000461 0.010533 -0.005452 -0.001316
# 3 -0.001896 -0.000461 0.010900 -0.002619 0.006931 0.002669
# 4 -0.001227 0.010533 -0.002619 0.037117 -0.005914 -0.003378
# 5 0.004800 -0.005452 0.006931 -0.005914 0.025285 0.003686
# 6 -0.001029 -0.001316 0.002669 -0.003378 0.003686 0.022656
#
#
# Mechanical properties :
#
#
# Convention : Reuss Voigt Hill
#
# Bulk Modulus (GPa) = 40.71908 56.71243 48.71575
# Shear Modulus (GPa) = 31.36563 43.16043 37.26303
#
# Velocity S-wave (km/s) = 3.52490 4.13488 3.84202
# Velocity P-wave (km/s) = 5.71811 6.72770 6.24335
#
# Compressibility (1/GPa) = 0.02455851
#
# Stress axis : x y z
#
# Youngs Moduli (GPa) = 83.60870 44.44158 91.74009
#
# Poissons Ratio (x) = 0.35756 0.17392
# Poissons Ratio (y) = 0.67268 0.04225
# Poissons Ratio (z) = 0.15850 0.02047
#
# Static dielectric constant tensor:
#      x y z
#    x 1.930580 -0.020620 0.015710 
#    y -0.020620 2.085900 0.032320 
#    z 0.015710 0.032320 2.028360 
# 
# From -- ./inp_files/182157.got.cif
#   From: 2010.05.17/outbox.cif.g08.bks.cpg/sg2_92_cif.got.tgz:182157.got - 2010.06.03 11:33:40.
