data_PCOD9067764
_publ_section_title
;
Structure prediction by ZEFSAII (Michael W. Deem and Ramdas Pophale) SiO2 
 PCOD9067764
Probable space group: P -1
;
_chemical_formula_sum "Si O2"
_cell_formula_units_Z 16
_cell_length_a 11.463435
_cell_length_b 17.066966
_cell_length_c 8.135798
_cell_angle_alpha 145.451711
_cell_angle_beta 121.983609
_cell_angle_gamma 47.231560
_cell_volume 660.978898
_symmetry_space_group_name_H-M "P -1"
_symmetry_group_IT_number 2
_symmetry_cell_setting 'triclinic'
loop_
_space_group_symop_operation_xyz
x,y,z
-x,-y,-z
loop_
_atom_site_type_symbol
_atom_site_label
_atom_site_fract_x
_atom_site_fract_y
_atom_site_fract_z
Si Si1 0.517847 0.333013 0.771449
Si Si2 0.007300 0.402302 0.676747
Si Si3 0.872397 0.177261 0.757851
Si Si4 0.875830 0.175268 0.149983
Si Si5 0.310273 0.188625 0.330110
Si Si6 0.105177 0.276396 0.010645
Si Si7 0.521378 0.333193 0.167934
Si Si8 0.419269 0.100336 0.778343
O O1 0.698231 0.210446 0.641537
O O2 0.390754 0.294987 0.533535
O O3 0.500000 0.500000 0.000000
O O4 0.500806 0.330313 0.951350
O O5 0.186169 0.272164 0.531488
O O6 0.913070 0.308809 0.474745
O O7 0.931674 0.542703 0.726240
O O8 0.000000 0.500000 0.000000
O O9 0.874555 0.195322 0.986854
O O10 0.000000 0.000000 0.500000
O O11 0.936778 0.282648 0.899848
O O12 0.703906 0.207436 0.127419
O O13 0.000000 0.000000 0.000000
O O14 0.198961 0.199577 0.116712
O O15 0.458643 0.016799 0.194283
O O16 0.234702 0.154798 0.764438
O O17 0.500000 0.500000 0.500000
O O18 0.417975 0.267040 0.059409
O O19 0.500000 0.000000 0.500000
#
# Coordination Sequence:
#
# PCOD9067764 Si02
#       8
#     2   2   2   2   2   2   2   2
#     4  11  26  45  72 102 145 188 237 294 362 429
#     4  12  27  46  76 106 146 194 243 299 362 430
#     4  11  26  47  71 104 145 189 236 297 364 427
#     4  11  26  47  71 105 145 188 240 296 358 431
#     4  12  25  47  74 107 144 193 243 298 357 431
#     4  12  27  47  76 106 146 188 247 301 358 429
#     4  11  26  45  71 103 144 187 238 296 359 427
#     4  12  25  47  73 105 145 189 244 294 359 431
#
# _framework density 24.206520999999999
#
# number of rings (size 3 to 8) (size 9 to 14) (size 15 to 20)
#    0.000    0.500    2.500    4.500   10.500    1.000 
#    0.000    0.000    0.000    0.000    0.000    0.000 
#    0.000    0.000    0.000    0.000    0.000    0.000 
#
# Total GULP energy -89662.870683 kJ/mol
# GULP energy per Si atom -5603.929418 kJ/mol
# Density = 2.415143 g / cm^3
# Si number density = 24.206521 Si / 1000 Ang^3
#
#
#
# Elastic Constant Matrix: (Units=GPa)
#
#
# Indices 1 2 3 4 5 6 
#
# 1 100.8738 -6.2640 -0.3306 -12.1434 3.1772 -6.5874
# 2 -6.2640 53.9112 -17.8015 13.6793 -1.4038 3.9005
# 3 -0.3306 -17.8015 68.0461 -3.2979 3.5380 9.4650
# 4 -12.1434 13.6793 -3.2979 39.4578 0.7010 7.8343
# 5 3.1772 -1.4038 3.5380 0.7010 48.4019 11.9539
# 6 -6.5874 3.9005 9.4650 7.8343 11.9539 32.2095
#
#
#
# Elastic Compliance Matrix: (Units=1/GPa)
#
#
# Indices 1 2 3 4 5 6 
#
# 1 0.010424 0.000383 0.000090 0.002741 -0.001171 0.001827
# 2 0.000383 0.022485 0.005955 -0.006564 0.001076 -0.003197
# 3 0.000090 0.005955 0.017098 0.000580 0.000394 -0.006014
# 4 0.002741 -0.006564 0.000580 0.029753 0.000717 -0.006318
# 5 -0.001171 0.001076 0.000394 0.000717 0.023000 -0.009196
# 6 0.001827 -0.003197 -0.006014 -0.006318 -0.009196 0.038524
#
#
# Mechanical properties :
#
#
# Convention : Reuss Voigt Hill
#
# Bulk Modulus (GPa) = 15.90773 19.33767 17.62270
# Shear Modulus (GPa) = 33.47122 40.49564 36.98343
#
# Velocity S-wave (km/s) = 3.72255 4.09458 3.91299
# Velocity P-wave (km/s) = 5.00624 5.50999 5.26415
#
# Compressibility (1/GPa) = 0.06286252
#
# Stress axis : x y z
#
# Youngs Moduli (GPa) = 95.93661 44.47488 58.48519
#
# Poissons Ratio (x) = -0.01703 -0.00529
# Poissons Ratio (y) = -0.03673 -0.34826
# Poissons Ratio (z) = -0.00867 -0.26484
#
# Static dielectric constant tensor:
#      x y z
#    x 1.928560 0.079700 0.006810 
#    y 0.079700 1.889040 -0.020640 
#    z 0.006810 -0.020640 1.907900 
# 
# From -- ./inp_files/280267.got.cif
#   From: 2010.05.17/outbox.cif.g08.bks.cpg/sg2_141_cif.got.tgz:280267.got - 2010.06.03 11:33:40.
