data_PCOD9067978
_publ_section_title
;
Structure prediction by ZEFSAII (Michael W. Deem and Ramdas Pophale) SiO2 
 PCOD9067978
Probable space group: P -1
;
_chemical_formula_sum "Si O2"
_cell_formula_units_Z 16
_cell_length_a 11.104807
_cell_length_b 18.297935
_cell_length_c 14.669567
_cell_angle_alpha 149.415516
_cell_angle_beta 30.109134
_cell_angle_gamma 130.829899
_cell_volume 710.933344
_symmetry_space_group_name_H-M "P -1"
_symmetry_group_IT_number 2
_symmetry_cell_setting 'triclinic'
loop_
_space_group_symop_operation_xyz
x,y,z
-x,-y,-z
loop_
_atom_site_type_symbol
_atom_site_label
_atom_site_fract_x
_atom_site_fract_y
_atom_site_fract_z
Si Si1 0.773516 0.126757 0.235286
Si Si2 0.858490 0.958929 0.667435
Si Si3 0.420713 0.931257 0.220015
Si Si4 0.754753 0.194778 0.131236
Si Si5 0.803733 0.633668 0.332029
Si Si6 0.897455 0.452955 0.252763
Si Si7 0.530859 0.553308 0.138813
Si Si8 0.744581 0.588080 0.699266
O O1 0.898746 0.154156 0.088013
O O2 0.669663 0.279106 0.526787
O O3 0.547617 0.059446 0.291305
O O4 0.000000 0.000000 0.000000
O O5 0.882714 0.782090 0.453568
O O6 0.148129 0.960062 0.478202
O O7 0.680034 0.054430 0.803822
O O8 0.738977 0.046138 0.931970
O O9 0.631815 0.770114 0.943683
O O10 0.473613 0.303562 0.464688
O O11 0.865356 0.289247 0.092123
O O12 0.753032 0.568067 0.391504
O O13 0.000000 0.500000 0.000000
O O14 0.805877 0.511488 0.477103
O O15 0.187592 0.440425 0.034092
O O16 0.478431 0.443522 0.131182
O O17 0.500000 0.500000 0.000000
O O18 0.000000 0.500000 0.500000
#
# Coordination Sequence:
#
# PCOD9067978 Si02
#       8
#     2   2   2   2   2   2   2   2
#     4  12  27  47  74 107 153 198 249 314 379 455
#     4  11  26  48  75 111 150 202 251 314 388 456
#     4  11  26  46  77 106 155 197 256 313 385 453
#     4  12  26  48  70 111 151 195 257 304 385 461
#     4  12  27  46  76 110 149 197 254 316 379 452
#     4  12  27  44  78 105 151 197 249 316 381 440
#     4  12  26  49  74 107 148 196 257 307 373 454
#     4  12  25  48  74 114 149 203 256 315 378 460
#
# _framework density 22.505624999999998
#
# number of rings (size 3 to 8) (size 9 to 14) (size 15 to 20)
#    0.000    0.250    3.750    4.500    7.000    1.000 
#    0.000    1.875    0.000    0.000    0.000    0.000 
#    0.000    0.000    0.000    0.000    0.000    0.000 
#
# Total GULP energy -89486.673002 kJ/mol
# GULP energy per Si atom -5592.917063 kJ/mol
# Density = 2.245440 g / cm^3
# Si number density = 22.505625 Si / 1000 Ang^3
#
#
#
# Elastic Constant Matrix: (Units=GPa)
#
#
# Indices 1 2 3 4 5 6 
#
# 1 96.2500 24.8372 48.2154 15.1677 0.2288 -21.9878
# 2 24.8372 142.0579 42.0653 10.5454 -1.3499 -5.1013
# 3 48.2154 42.0653 107.9399 22.1601 16.4283 -13.5306
# 4 15.1677 10.5454 22.1601 44.0907 -0.9623 -5.7128
# 5 0.2288 -1.3499 16.4283 -0.9623 44.8320 -2.7462
# 6 -21.9878 -5.1013 -13.5306 -5.7128 -2.7462 45.4168
#
#
#
# Elastic Compliance Matrix: (Units=1/GPa)
#
#
# Indices 1 2 3 4 5 6 
#
# 1 0.014894 -0.000559 -0.005852 -0.001300 0.002353 0.005383
# 2 -0.000559 0.008072 -0.003094 -0.000183 0.001362 -0.000226
# 3 -0.005852 -0.003094 0.014980 -0.004856 -0.005637 0.000331
# 4 -0.001300 -0.000183 -0.004856 0.025833 0.002415 0.001299
# 5 0.002353 0.001362 -0.005637 0.002415 0.024538 0.001400
# 6 0.005383 -0.000226 0.000331 0.001299 0.001400 0.024946
#
#
# Mechanical properties :
#
#
# Convention : Reuss Voigt Hill
#
# Bulk Modulus (GPa) = 52.80704 64.05373 58.43038
# Shear Modulus (GPa) = 36.07898 42.27656 39.17777
#
# Velocity S-wave (km/s) = 4.00823 4.33886 4.17681
# Velocity P-wave (km/s) = 6.70344 7.32283 7.01997
#
# Compressibility (1/GPa) = 0.01893687
#
# Stress axis : x y z
#
# Youngs Moduli (GPa) = 67.13976 123.88967 66.75400
#
# Poissons Ratio (x) = 0.06928 0.39062
# Poissons Ratio (y) = 0.03754 0.20654
# Poissons Ratio (z) = 0.39287 0.38331
#
# Static dielectric constant tensor:
#      x y z
#    x 1.941710 -0.024500 -0.033420 
#    y -0.024500 1.888470 0.021480 
#    z -0.033420 0.021480 1.835740 
# 
# From -- ./inp_files/307688.got.cif
#   From: 2010.05.17/outbox.cif.g08.bks.cpg/sg2_154_cif.got.tgz:307688.got - 2010.06.03 11:33:40.
