data_PCOD9067358
_publ_section_title
;
Structure prediction by ZEFSAII (Michael W. Deem and Ramdas Pophale) SiO2 
 PCOD9067358
Probable space group: P -1
;
_chemical_formula_sum "Si O2"
_cell_formula_units_Z 14
_cell_length_a 9.441221
_cell_length_b 9.541025
_cell_length_c 25.196557
_cell_angle_alpha 28.112824
_cell_angle_beta 34.122443
_cell_angle_gamma 45.394115
_cell_volume 596.584156
_symmetry_space_group_name_H-M "P -1"
_symmetry_group_IT_number 2
_symmetry_cell_setting 'triclinic'
loop_
_space_group_symop_operation_xyz
x,y,z
-x,-y,-z
loop_
_atom_site_type_symbol
_atom_site_label
_atom_site_fract_x
_atom_site_fract_y
_atom_site_fract_z
Si Si1 0.611964 0.019079 0.900087
Si Si2 0.713336 0.061697 0.078094
Si Si3 0.504093 0.555568 0.394000
Si Si4 0.860666 0.799300 0.445509
Si Si5 0.058833 0.346733 0.140939
Si Si6 0.254807 0.842594 0.471403
Si Si7 0.474043 0.331505 0.307368
O O1 0.667424 0.373735 0.756702
O O2 0.425147 0.918021 0.942326
O O3 0.844491 0.823684 0.883373
O O4 0.500000 0.000000 0.000000
O O5 0.588565 0.783639 0.244599
O O6 0.748411 0.369308 0.997807
O O7 0.000000 0.000000 0.000000
O O8 0.341745 0.266009 0.517011
O O9 0.325129 0.717910 0.434726
O O10 0.725062 0.430386 0.402289
O O11 0.697690 0.824177 0.540301
O O12 0.000000 0.500000 0.500000
O O13 0.041664 0.095726 0.276709
O O14 0.768656 0.423663 0.199344
O O15 0.462246 0.113261 0.333889
O O16 0.000000 0.000000 0.500000
#
# Coordination Sequence:
#
# PCOD9067358 Si02
#       7
#     2   2   2   2   2   2   2
#     4  12  29  49  73 111 154 197 255 309 373 451
#     4  12  26  51  76 109 150 205 249 302 378 452
#     4  11  25  49  71 107 151 190 252 304 367 455
#     4  12  22  46  78 106 143 189 256 310 368 447
#     4  12  26  47  78 104 150 198 247 315 370 444
#     4  11  27  45  76 110 149 194 243 314 379 434
#     4  12  25  47  72 111 143 195 252 307 379 435
#
# _framework density 23.466932
#
# number of rings (size 3 to 8) (size 9 to 14) (size 15 to 20)
#    0.000    0.286    5.714    1.714    4.000    2.857 
#    0.000    0.000    0.000    0.000    0.000    0.000 
#    0.000    0.000    0.000    0.000    0.000    0.000 
#
# Total GULP energy -78347.228066 kJ/mol
# GULP energy per Si atom -5596.230576 kJ/mol
# Density = 2.341352 g / cm^3
# Si number density = 23.466932 Si / 1000 Ang^3
#
#
#
# Elastic Constant Matrix: (Units=GPa)
#
#
# Indices 1 2 3 4 5 6 
#
# 1 74.5818 24.9881 27.0579 14.9428 9.8697 -1.9526
# 2 24.9881 159.3719 27.9881 5.9354 18.8674 -1.6878
# 3 27.0579 27.9881 70.5434 -3.4200 -5.6201 12.6345
# 4 14.9428 5.9354 -3.4200 42.7142 8.0169 -1.4615
# 5 9.8697 18.8674 -5.6201 8.0169 22.2760 -0.4923
# 6 -1.9526 -1.6878 12.6345 -1.4615 -0.4923 50.0941
#
#
#
# Elastic Compliance Matrix: (Units=1/GPa)
#
#
# Indices 1 2 3 4 5 6 
#
# 1 0.018873 -0.000248 -0.008540 -0.005617 -0.008226 0.002637
# 2 -0.000248 0.007890 -0.003838 0.000143 -0.007567 0.001154
# 3 -0.008540 -0.003838 0.021001 0.002917 0.011160 -0.005564
# 4 -0.005617 0.000143 0.002917 0.026812 -0.006550 -0.000232
# 5 -0.008226 -0.007567 0.011160 -0.006550 0.060052 -0.002991
# 6 0.002637 0.001154 -0.005564 -0.000232 -0.002991 0.021471
#
#
# Mechanical properties :
#
#
# Convention : Reuss Voigt Hill
#
# Bulk Modulus (GPa) = 44.42200 51.61836 48.02018
# Shear Modulus (GPa) = 26.47516 37.98106 32.22811
#
# Velocity S-wave (km/s) = 3.36250 4.02741 3.70988
# Velocity P-wave (km/s) = 5.83489 6.60838 6.23364
#
# Compressibility (1/GPa) = 0.02251137
#
# Stress axis : x y z
#
# Youngs Moduli (GPa) = 52.98632 126.73816 47.61633
#
# Poissons Ratio (x) = 0.03146 0.40666
# Poissons Ratio (y) = 0.01315 0.18274
# Poissons Ratio (z) = 0.45252 0.48640
#
# Static dielectric constant tensor:
#      x y z
#    x 1.970990 -0.025160 -0.011420 
#    y -0.025160 1.988790 -0.138430 
#    z -0.011420 -0.138430 1.981160 
# 
# From -- ./inp_files/606536.got.cif
#   From: 2010.05.17/outbox.cif.g08.bks.cpg/sg2_304_cif.got.tgz:606536.got - 2010.06.03 11:33:40.
