data_PCOD9067164
_publ_section_title
;
Structure prediction by ZEFSAII (Michael W. Deem and Ramdas Pophale) SiO2 
 PCOD9067164
Probable space group: P -1
;
_chemical_formula_sum "Si O2"
_cell_formula_units_Z 16
_cell_length_a 17.743904
_cell_length_b 9.546297
_cell_length_c 11.656097
_cell_angle_alpha 52.872563
_cell_angle_beta 42.894547
_cell_angle_gamma 86.295534
_cell_volume 769.592559
_symmetry_space_group_name_H-M "P -1"
_symmetry_group_IT_number 2
_symmetry_cell_setting 'triclinic'
loop_
_space_group_symop_operation_xyz
x,y,z
-x,-y,-z
loop_
_atom_site_type_symbol
_atom_site_label
_atom_site_fract_x
_atom_site_fract_y
_atom_site_fract_z
Si Si1 0.885999 0.354254 0.306588
Si Si2 0.926139 0.730648 0.239879
Si Si3 0.370822 0.387519 0.350509
Si Si4 0.882054 0.215048 0.796845
Si Si5 0.880856 0.023600 0.650800
Si Si6 0.462562 0.022625 0.657946
Si Si7 0.449282 0.503677 0.680652
Si Si8 0.608635 0.884855 0.710107
O O1 0.898830 0.551820 0.262818
O O2 0.913602 0.225111 0.430234
O O3 0.725088 0.122795 0.541079
O O4 0.000000 0.500000 0.000000
O O5 0.755918 0.602244 0.530476
O O6 0.044412 0.788655 0.171921
O O7 0.000000 0.000000 0.000000
O O8 0.416085 0.386858 0.430434
O O9 0.321880 0.157728 0.449658
O O10 0.522440 0.643882 0.000863
O O11 0.000000 0.500000 0.500000
O O12 0.890260 0.097823 0.735351
O O13 0.710475 0.098677 0.067567
O O14 0.705728 0.757982 0.970499
O O15 0.000000 0.000000 0.500000
O O16 0.572943 0.313114 0.402072
O O17 0.500000 0.000000 0.500000
O O18 0.498418 0.904781 0.762798
O O19 0.500000 0.500000 0.500000
#
# Coordination Sequence:
#
# PCOD9067164 Si02
#       8
#     2   2   2   2   2   2   2   2
#     4  12  29  49  72 110 149 196 252 307 379 451
#     4  12  28  45  77 104 153 193 244 308 377 449
#     4  11  25  48  71 108 144 199 242 306 372 445
#     4  12  27  50  73 109 151 200 254 302 380 449
#     4  12  30  49  77 110 154 201 250 318 377 450
#     4  12  27  45  76 109 148 198 248 312 371 451
#     4  12  26  48  74 108 150 192 260 305 371 448
#     4  11  26  45  75 104 150 187 252 301 374 442
#
# _framework density 20.790222
#
# number of rings (size 3 to 8) (size 9 to 14) (size 15 to 20)
#    0.000    0.250    5.000    2.250   10.500    0.500 
#    0.000    0.000    0.000    0.000    0.000    0.000 
#    0.000    0.000    0.000    0.000    0.000    0.000 
#
# Total GULP energy -89363.802394 kJ/mol
# GULP energy per Si atom -5585.237650 kJ/mol
# Density = 2.074290 g / cm^3
# Si number density = 20.790222 Si / 1000 Ang^3
#
#
#
# Elastic Constant Matrix: (Units=GPa)
#
#
# Indices 1 2 3 4 5 6 
#
# 1 133.1698 79.0190 25.0201 8.5089 1.3559 7.9464
# 2 79.0190 199.8063 54.7009 3.8701 -4.7589 9.2858
# 3 25.0201 54.7009 94.6335 -4.4069 3.4901 3.3818
# 4 8.5089 3.8701 -4.4069 46.2435 -7.6873 2.9017
# 5 1.3559 -4.7589 3.4901 -7.6873 38.0230 -6.0634
# 6 7.9464 9.2858 3.3818 2.9017 -6.0634 37.2925
#
#
#
# Elastic Compliance Matrix: (Units=1/GPa)
#
#
# Indices 1 2 3 4 5 6 
#
# 1 0.010039 -0.003787 -0.000451 -0.001717 -0.001335 -0.001239
# 2 -0.003787 0.007475 -0.003348 0.000001 0.001292 -0.000541
# 3 -0.000451 -0.003348 0.012757 0.001384 -0.001383 -0.000560
# 4 -0.001717 0.000001 0.001384 0.022859 0.004425 -0.000819
# 5 -0.001335 0.001292 -0.001383 0.004425 0.028222 0.004333
# 6 -0.001239 -0.000541 -0.000560 -0.000819 0.004333 0.028032
#
#
# Mechanical properties :
#
#
# Convention : Reuss Voigt Hill
#
# Bulk Modulus (GPa) = 66.23549 82.78774 74.51161
# Shear Modulus (GPa) = 38.58325 42.23646 40.40985
#
# Velocity S-wave (km/s) = 4.31262 4.51217 4.41352
# Velocity P-wave (km/s) = 7.53169 8.18860 7.86700
#
# Compressibility (1/GPa) = 0.01509765
#
# Stress axis : x y z
#
# Youngs Moduli (GPa) = 99.61533 133.77747 78.38861
#
# Poissons Ratio (x) = 0.50668 0.03538
# Poissons Ratio (y) = 0.37729 0.26242
# Poissons Ratio (z) = 0.04496 0.44785
#
# Static dielectric constant tensor:
#      x y z
#    x 1.712680 0.027580 -0.010780 
#    y 0.027580 1.654180 0.019290 
#    z -0.010780 0.019290 1.616600 
# 
# From -- ./inp_files/190267.got.cif
#   From: 2010.05.17/outbox.cif.g08.bks.cpg/sg2_96_cif.got.tgz:190267.got - 2010.06.03 11:33:40.
