data_PCOD9067760
_publ_section_title
;
Structure prediction by ZEFSAII (Michael W. Deem and Ramdas Pophale) SiO2 
 PCOD9067760
Probable space group: P -1
;
_chemical_formula_sum "Si O2"
_cell_formula_units_Z 15
_cell_length_a 11.971180
_cell_length_b 9.266072
_cell_length_c 18.205997
_cell_angle_alpha 47.894249
_cell_angle_beta 147.089373
_cell_angle_gamma 110.780275
_cell_volume 697.184698
_symmetry_space_group_name_H-M "P -1"
_symmetry_group_IT_number 2
_symmetry_cell_setting 'triclinic'
loop_
_space_group_symop_operation_xyz
x,y,z
-x,-y,-z
loop_
_atom_site_type_symbol
_atom_site_label
_atom_site_fract_x
_atom_site_fract_y
_atom_site_fract_z
Si Si1 0.328875 0.431186 0.887456
Si Si2 0.814992 0.760547 0.801201
Si Si3 0.276340 0.930365 0.485149
Si Si4 0.946224 0.048706 0.868223
Si Si5 0.500000 0.500000 0.500000
Si Si6 0.217118 0.264224 0.462238
Si Si7 0.532687 0.079459 0.848388
Si Si8 0.761005 0.493560 0.358423
O O1 0.292587 0.506902 0.756877
O O2 0.063537 0.557663 0.735846
O O3 0.500000 0.500000 0.000000
O O4 0.452413 0.157796 0.047294
O O5 0.547900 0.809918 0.645766
O O6 0.860552 0.864110 0.717848
O O7 0.860428 0.884133 0.850055
O O8 0.000000 0.500000 0.000000
O O9 0.208385 0.737663 0.513182
O O10 0.246233 0.047424 0.507824
O O11 0.730806 0.301998 0.650335
O O12 0.194148 0.991487 0.989874
O O13 0.000000 0.000000 0.000000
O O14 0.350086 0.364809 0.453241
O O15 0.369399 0.187561 0.648425
O O16 0.435005 0.275016 0.788989
O O17 0.000000 0.500000 0.500000
#
# Coordination Sequence:
#
# PCOD9067760 Si02
#       8
#     2   2   2   2   1   2   2   2
#     4  12  29  49  77 107 146 200 257 312 375 447
#     4  11  26  45  70 106 146 190 236 300 373 447
#     4  11  27  46  71 104 149 193 240 306 374 440
#     4  12  25  41  74 106 146 184 245 297 375 447
#     4  12  24  44  74 110 146 190 246 306 376 450
#     4  12  26  47  76 107 150 193 253 311 384 446
#     4  12  26  46  75 108 146 195 252 311 373 449
#     4  12  28  50  75 107 151 201 255 312 377 440
#
# _framework density 21.515101999999999
#
# number of rings (size 3 to 8) (size 9 to 14) (size 15 to 20)
#    0.000    0.267    5.333    2.000    7.467    4.267 
#    0.000    0.000    0.000    0.000    0.000    0.000 
#    0.000    0.000    0.000    0.000    0.000    0.000 
#
# Total GULP energy -83650.322238 kJ/mol
# GULP energy per Si atom -5576.688149 kJ/mol
# Density = 2.146613 g / cm^3
# Si number density = 21.515102 Si / 1000 Ang^3
#
#
#
# Elastic Constant Matrix: (Units=GPa)
#
#
# Indices 1 2 3 4 5 6 
#
# 1 96.2179 54.7267 47.9088 5.5881 16.4825 0.5127
# 2 54.7267 155.9074 57.1331 -15.9326 12.9537 26.2387
# 3 47.9088 57.1331 111.2448 -5.2882 19.7424 4.9884
# 4 5.5881 -15.9326 -5.2882 45.4366 -6.3334 4.3106
# 5 16.4825 12.9537 19.7424 -6.3334 33.1936 -3.8163
# 6 0.5127 26.2387 4.9884 4.3106 -3.8163 40.1086
#
#
#
# Elastic Compliance Matrix: (Units=1/GPa)
#
#
# Indices 1 2 3 4 5 6 
#
# 1 0.016305 -0.005029 -0.004099 -0.005194 -0.004257 0.003744
# 2 -0.005029 0.010957 -0.002914 0.004815 0.000039 -0.007255
# 3 -0.004099 -0.002914 0.013084 0.000384 -0.004552 -0.000143
# 4 -0.005194 0.004815 0.000384 0.025554 0.004723 -0.005428
# 5 -0.004257 0.000039 -0.004552 0.004723 0.036240 0.003536
# 6 0.003744 -0.007255 -0.000143 -0.005428 0.003536 0.030568
#
#
# Mechanical properties :
#
#
# Convention : Reuss Voigt Hill
#
# Bulk Modulus (GPa) = 61.49228 75.87861 68.68545
# Shear Modulus (GPa) = 30.82381 37.32119 34.07250
#
# Velocity S-wave (km/s) = 3.78916 4.16943 3.98383
# Velocity P-wave (km/s) = 6.91279 7.65004 7.29074
#
# Compressibility (1/GPa) = 0.01626220
#
# Stress axis : x y z
#
# Youngs Moduli (GPa) = 61.33071 91.26529 76.43146
#
# Poissons Ratio (x) = 0.45895 0.31327
# Poissons Ratio (y) = 0.30841 0.22275
# Poissons Ratio (z) = 0.25138 0.26598
#
# Static dielectric constant tensor:
#      x y z
#    x 1.788900 0.012630 -0.057880 
#    y 0.012630 1.724710 0.010690 
#    z -0.057880 0.010690 1.757560 
# 
# From -- ./inp_files/251348.got.cif
#   From: 2010.05.17/outbox.cif.g08.bks.cpg/sg2_126_cif.got.tgz:251348.got - 2010.06.03 11:33:40.
