data_PCOD9067672
_publ_section_title
;
Structure prediction by ZEFSAII (Michael W. Deem and Ramdas Pophale) SiO2 
 PCOD9067672
Probable space group: P -1
;
_chemical_formula_sum "Si O2"
_cell_formula_units_Z 14
_cell_length_a 5.149506
_cell_length_b 8.472113
_cell_length_c 20.783518
_cell_angle_alpha 133.307182
_cell_angle_beta 81.702859
_cell_angle_gamma 80.099002
_cell_volume 604.929455
_symmetry_space_group_name_H-M "P -1"
_symmetry_group_IT_number 2
_symmetry_cell_setting 'triclinic'
loop_
_space_group_symop_operation_xyz
x,y,z
-x,-y,-z
loop_
_atom_site_type_symbol
_atom_site_label
_atom_site_fract_x
_atom_site_fract_y
_atom_site_fract_z
Si Si1 0.557403 0.703995 0.747239
Si Si2 0.869767 0.844439 0.165516
Si Si3 0.169989 0.042312 0.657207
Si Si4 0.801067 0.597851 0.353142
Si Si5 0.668548 0.149131 0.062453
Si Si6 0.264973 0.601141 0.983805
Si Si7 0.184426 0.254649 0.460458
O O1 0.446871 0.505298 0.669706
O O2 0.426958 0.763718 0.839239
O O3 0.893734 0.614159 0.715435
O O4 0.423479 0.940870 0.777293
O O5 0.863408 0.587988 0.085252
O O6 0.952835 0.867597 0.242154
O O7 0.061507 0.836852 0.093464
O O8 0.488597 0.852575 0.603220
O O9 0.971838 0.922039 0.598973
O O10 0.199014 0.237857 0.661811
O O11 0.793648 0.719585 0.456178
O O12 0.596785 0.360303 0.075117
O O13 0.500000 0.000000 0.000000
O O14 0.000000 0.000000 0.000000
O O15 0.500000 0.500000 0.000000
O O16 0.000000 0.500000 0.500000
#
# Coordination Sequence:
#
# PCOD9067672 Si02
#       7
#     2   2   2   2   2   2   2
#     4  12  25  44  70  99 140 181 234 277 342 409
#     4  11  26  44  66 104 135 188 228 290 342 412
#     4  12  26  45  73 101 142 176 230 280 347 409
#     4  12  26  45  71 103 137 181 230 283 343 409
#     4  12  25  45  67  99 136 183 232 282 343 400
#     4  11  26  43  70  96 143 181 237 284 348 406
#     4  12  25  47  73 104 137 179 224 286 345 410
#
# _framework density 23.143194000000001
#
# number of rings (size 3 to 8) (size 9 to 14) (size 15 to 20)
#    0.000    0.286    1.429    7.286    8.000    0.000 
#    0.000    0.000    0.000    0.000    0.000    0.000 
#    0.000    0.000    0.000    0.000    0.000    0.000 
#
# Total GULP energy -78331.521584 kJ/mol
# GULP energy per Si atom -5595.108685 kJ/mol
# Density = 2.309052 g / cm^3
# Si number density = 23.143194 Si / 1000 Ang^3
#
#
#
# Elastic Constant Matrix: (Units=GPa)
#
#
# Indices 1 2 3 4 5 6 
#
# 1 81.4652 -22.1437 15.0860 0.2262 10.1452 -11.2132
# 2 -22.1437 96.1489 29.7932 -25.5983 7.6862 -6.4781
# 3 15.0860 29.7932 118.9058 -30.9896 14.2769 -5.0216
# 4 0.2262 -25.5983 -30.9896 43.3993 -2.0641 -2.4920
# 5 10.1452 7.6862 14.2769 -2.0641 39.9910 5.1832
# 6 -11.2132 -6.4781 -5.0216 -2.4920 5.1832 33.5092
#
#
#
# Elastic Compliance Matrix: (Units=1/GPa)
#
#
# Indices 1 2 3 4 5 6 
#
# 1 0.015796 0.005676 -0.001981 0.002008 -0.005200 0.007040
# 2 0.005676 0.015013 -0.001741 0.007719 -0.004050 0.005741
# 3 -0.001981 -0.001741 0.011380 0.007061 -0.003082 0.001708
# 4 0.002008 0.007719 0.007061 0.032811 -0.003627 0.006223
# 5 -0.005200 -0.004050 -0.003082 -0.003627 0.029020 -0.007743
# 6 0.007040 0.005741 0.001708 0.006223 -0.007743 0.035225
#
#
# Mechanical properties :
#
#
# Convention : Reuss Voigt Hill
#
# Bulk Modulus (GPa) = 21.69363 37.99898 29.84630
# Shear Modulus (GPa) = 33.17780 41.63218 37.40499
#
# Velocity S-wave (km/s) = 3.79038 4.24594 4.02461
# Velocity P-wave (km/s) = 5.34322 6.36334 5.87546
#
# Compressibility (1/GPa) = 0.04609649
#
# Stress axis : x y z
#
# Youngs Moduli (GPa) = 63.30700 66.60815 87.87262
#
# Poissons Ratio (x) = -0.37810 0.17412
# Poissons Ratio (y) = -0.35936 0.15302
# Poissons Ratio (z) = 0.12544 0.11599
#
# Static dielectric constant tensor:
#      x y z
#    x 1.865820 0.023620 -0.045970 
#    y 0.023620 1.894940 0.043730 
#    z -0.045970 0.043730 1.867020 
# 
# From -- ./inp_files/37180.got.cif
#   From: 2010.05.17/outbox.cif.g08.bks.cpg/sg2_19_cif.got.tgz:37180.got - 2010.06.03 11:33:40.
