data_PCOD9067387
_publ_section_title
;
Structure prediction by ZEFSAII (Michael W. Deem and Ramdas Pophale) SiO2 
 PCOD9067387
Probable space group: P -1
;
_chemical_formula_sum "Si O2"
_cell_formula_units_Z 14
_cell_length_a 14.149928
_cell_length_b 10.933768
_cell_length_c 26.379024
_cell_angle_alpha 157.185840
_cell_angle_beta 156.301638
_cell_angle_gamma 33.645755
_cell_volume 634.264758
_symmetry_space_group_name_H-M "P -1"
_symmetry_group_IT_number 2
_symmetry_cell_setting 'triclinic'
loop_
_space_group_symop_operation_xyz
x,y,z
-x,-y,-z
loop_
_atom_site_type_symbol
_atom_site_label
_atom_site_fract_x
_atom_site_fract_y
_atom_site_fract_z
Si Si1 0.927455 0.650072 0.953357
Si Si2 0.077735 0.694886 0.348113
Si Si3 0.391425 0.348450 0.301506
Si Si4 0.641827 0.698816 0.934173
Si Si5 0.100215 0.340095 0.326399
Si Si6 0.283173 0.400432 0.708821
Si Si7 0.384681 0.608094 0.036316
O O1 0.784487 0.630810 0.823920
O O2 0.730282 0.670632 0.908912
O O3 0.111897 0.379763 0.947229
O O4 0.086294 0.983287 0.162836
O O5 0.304549 0.538735 0.379171
O O6 0.022033 0.557094 0.323937
O O7 0.139949 0.065461 0.518737
O O8 0.870222 0.574077 0.162182
O O9 0.649031 0.502378 0.473516
O O10 0.384072 0.984559 0.175506
O O11 0.437830 0.424772 0.743556
O O12 0.500000 0.000000 0.000000
O O13 0.913339 0.351805 0.284611
O O14 0.470773 0.466470 0.871553
O O15 0.500000 0.500000 0.000000
#
# Coordination Sequence:
#
# PCOD9067387 Si02
#       7
#     2   2   2   2   2   2   2
#     4  11  25  49  74 100 139 181 236 291 338 405
#     4  12  24  39  65 104 142 180 219 277 355 417
#     4  12  25  41  66 106 141 178 226 281 351 421
#     4  11  25  49  76  97 133 192 236 285 343 402
#     4  12  23  42  69 102 146 180 221 287 350 412
#     4  12  24  44  68 103 142 182 232 282 343 415
#     4  12  23  39  66 100 140 176 220 279 347 414
#
# _framework density 22.072800999999998
#
# number of rings (size 3 to 8) (size 9 to 14) (size 15 to 20)
#    0.000    0.286    5.714    3.857    2.000    0.000 
#    2.571    8.571    0.000    0.000    0.000    0.000 
#    0.000    0.000    0.000    0.000    0.000    0.000 
#
# Total GULP energy -78237.318549 kJ/mol
# GULP energy per Si atom -5588.379896 kJ/mol
# Density = 2.202256 g / cm^3
# Si number density = 22.072801 Si / 1000 Ang^3
#
#
#
# Elastic Constant Matrix: (Units=GPa)
#
#
# Indices 1 2 3 4 5 6 
#
# 1 107.5505 30.8428 50.0952 -34.3871 27.7288 -5.8059
# 2 30.8428 101.3624 59.4661 -22.5996 -0.7802 -12.3541
# 3 50.0952 59.4661 127.1572 -40.5055 -1.1543 16.4242
# 4 -34.3871 -22.5996 -40.5055 66.7745 -8.8619 -19.2123
# 5 27.7288 -0.7802 -1.1543 -8.8619 35.3003 0.5169
# 6 -5.8059 -12.3541 16.4242 -19.2123 0.5169 46.6803
#
#
#
# Elastic Compliance Matrix: (Units=1/GPa)
#
#
# Indices 1 2 3 4 5 6 
#
# 1 0.017603 0.000370 -0.006315 0.005685 -0.012701 0.006990
# 2 0.000370 0.016019 -0.007605 0.003489 0.000567 0.008391
# 3 -0.006315 -0.007605 0.015666 0.002341 0.006001 -0.007413
# 4 0.005685 0.003489 0.002341 0.023741 0.001493 0.010561
# 5 -0.012701 0.000567 0.006001 0.001493 0.038938 -0.003357
# 6 0.006990 0.008391 -0.007413 0.010561 -0.003357 0.031505
#
#
# Mechanical properties :
#
#
# Convention : Reuss Voigt Hill
#
# Bulk Modulus (GPa) = 45.06696 68.54204 56.80450
# Shear Modulus (GPa) = 28.09505 42.79542 35.44523
#
# Velocity S-wave (km/s) = 3.57155 4.40799 4.01163
# Velocity P-wave (km/s) = 6.12125 7.55164 6.87376
#
# Compressibility (1/GPa) = 0.02218920
#
# Stress axis : x y z
#
# Youngs Moduli (GPa) = 56.80927 62.42477 63.83125
#
# Poissons Ratio (x) = -0.02312 0.40311
# Poissons Ratio (y) = -0.02104 0.48542
# Poissons Ratio (z) = 0.35876 0.47472
#
# Static dielectric constant tensor:
#      x y z
#    x 1.812480 -0.023130 0.012080 
#    y -0.023130 1.871470 -0.003140 
#    z 0.012080 -0.003140 1.632640 
# 
# From -- ./inp_files/424959.got.cif
#   From: 2010.05.17/outbox.cif.g08.bks.cpg/sg2_213_cif.got.tgz:424959.got - 2010.06.03 11:33:40.
