data_PCOD9067280
_publ_section_title
;
Structure prediction by ZEFSAII (Michael W. Deem and Ramdas Pophale) SiO2 
 PCOD9067280
Probable space group: P -1
;
_chemical_formula_sum "Si O2"
_cell_formula_units_Z 14
_cell_length_a 13.167236
_cell_length_b 13.192013
_cell_length_c 12.903491
_cell_angle_alpha 41.890750
_cell_angle_beta 158.132619
_cell_angle_gamma 129.690010
_cell_volume 544.990091
_symmetry_space_group_name_H-M "P -1"
_symmetry_group_IT_number 2
_symmetry_cell_setting 'triclinic'
loop_
_space_group_symop_operation_xyz
x,y,z
-x,-y,-z
loop_
_atom_site_type_symbol
_atom_site_label
_atom_site_fract_x
_atom_site_fract_y
_atom_site_fract_z
Si Si1 0.266526 0.526787 0.170942
Si Si2 0.907000 0.805638 0.522676
Si Si3 0.647739 0.698643 0.176028
Si Si4 0.763720 0.380577 0.294679
Si Si5 0.760237 0.747676 0.800246
Si Si6 0.172057 0.825812 0.290736
Si Si7 0.744934 0.987707 0.423856
O O1 0.500000 0.500000 0.500000
O O2 0.298238 0.400884 0.204342
O O3 0.000000 0.500000 0.000000
O O4 0.174856 0.702762 0.910472
O O5 0.756511 0.693038 0.399653
O O6 0.707067 0.892299 0.357004
O O7 0.017679 0.922757 0.459984
O O8 0.915387 0.613710 0.427233
O O9 0.374195 0.638559 0.932426
O O10 0.528007 0.883101 0.902323
O O11 0.795168 0.239330 0.512338
O O12 0.500000 0.500000 0.000000
O O13 0.474530 0.817853 0.535432
O O14 0.826631 0.869402 0.685309
O O15 0.003788 0.726353 0.133591
O O16 0.000000 0.000000 0.000000
#
# Coordination Sequence:
#
# PCOD9067280 Si02
#       7
#     2   2   2   2   2   2   2
#     4  12  28  50  72 113 154 200 244 306 374 462
#     4  11  27  46  80 110 155 195 250 301 384 456
#     4  12  25  48  74 107 149 192 250 308 379 432
#     4  12  28  48  75 107 149 196 260 315 368 452
#     4  12  27  47  81 106 155 197 250 307 387 442
#     4  12  27  50  74 112 147 201 256 321 379 436
#     4  11  25  48  76 117 146 199 247 310 369 471
#
# _framework density 25.688538999999999
#
# number of rings (size 3 to 8) (size 9 to 14) (size 15 to 20)
#    0.000    0.286    2.857    4.714    8.000    1.143 
#    0.000    0.000    0.000    0.000    0.000    0.000 
#    0.000    0.000    0.000    0.000    0.000    0.000 
#
# Total GULP energy -78370.250423 kJ/mol
# GULP energy per Si atom -5597.875030 kJ/mol
# Density = 2.563007 g / cm^3
# Si number density = 25.688539 Si / 1000 Ang^3
#
#
#
# Elastic Constant Matrix: (Units=GPa)
#
#
# Indices 1 2 3 4 5 6 
#
# 1 118.4679 24.8670 39.0616 7.2791 2.3248 19.8371
# 2 24.8670 72.3211 46.1901 14.4250 -15.0165 -2.3846
# 3 39.0616 46.1901 145.3757 18.9741 -6.3415 11.2637
# 4 7.2791 14.4250 18.9741 60.9799 -4.8179 -7.4487
# 5 2.3248 -15.0165 -6.3415 -4.8179 55.3739 -2.9680
# 6 19.8371 -2.3846 11.2637 -7.4487 -2.9680 47.1512
#
#
#
# Elastic Compliance Matrix: (Units=1/GPa)
#
#
# Indices 1 2 3 4 5 6 
#
# 1 0.010366 -0.002970 -0.001479 -0.000745 -0.001710 -0.004383
# 2 -0.002970 0.019728 -0.005288 -0.001849 0.004897 0.003527
# 3 -0.001479 -0.005288 0.009335 -0.001791 -0.000576 -0.002194
# 4 -0.000745 -0.001849 -0.001791 0.018003 0.001082 0.003560
# 5 -0.001710 0.004897 -0.000576 0.001082 0.019622 0.002511
# 6 -0.004383 0.003527 -0.002194 0.003560 0.002511 0.024475
#
#
# Mechanical properties :
#
#
# Convention : Reuss Voigt Hill
#
# Bulk Modulus (GPa) = 50.11816 61.82244 55.97030
# Shear Modulus (GPa) = 39.16811 47.77073 43.46942
#
# Velocity S-wave (km/s) = 3.90902 4.31700 4.11806
# Velocity P-wave (km/s) = 6.31872 6.99765 6.66683
#
# Compressibility (1/GPa) = 0.01995285
#
# Stress axis : x y z
#
# Youngs Moduli (GPa) = 96.47322 50.68929 107.12350
#
# Poissons Ratio (x) = 0.15057 0.15845
# Poissons Ratio (y) = 0.28656 0.56651
# Poissons Ratio (z) = 0.14270 0.26806
#
# Static dielectric constant tensor:
#      x y z
#    x 1.090190 -0.428100 1.592940 
#    y -0.428100 1.965550 0.595690 
#    z 1.592940 0.595690 -0.711510 
# 
# From -- ./inp_files/533718.got.cif
#   From: 2010.05.17/outbox.cif.g08.bks.cpg/sg2_267_cif.got.tgz:533718.got - 2010.06.03 11:33:40.
