data_PCOD9067775
_publ_section_title
;
Structure prediction by ZEFSAII (Michael W. Deem and Ramdas Pophale) SiO2 
 PCOD9067775
Probable space group: P -1
;
_chemical_formula_sum "Si O2"
_cell_formula_units_Z 16
_cell_length_a 12.848261
_cell_length_b 8.613796
_cell_length_c 11.012203
_cell_angle_alpha 125.020024
_cell_angle_beta 104.051970
_cell_angle_gamma 53.364773
_cell_volume 791.662904
_symmetry_space_group_name_H-M "P -1"
_symmetry_group_IT_number 2
_symmetry_cell_setting 'triclinic'
loop_
_space_group_symop_operation_xyz
x,y,z
-x,-y,-z
loop_
_atom_site_type_symbol
_atom_site_label
_atom_site_fract_x
_atom_site_fract_y
_atom_site_fract_z
Si Si1 0.832471 0.877768 0.645578
Si Si2 0.570399 0.018567 0.774406
Si Si3 0.732752 0.382154 0.799165
Si Si4 0.920246 0.480833 0.299960
Si Si5 0.672675 0.092333 0.066263
Si Si6 0.090822 0.430889 0.110477
Si Si7 0.683508 0.488029 0.119221
Si Si8 0.491506 0.330628 0.333111
O O1 0.853959 0.687617 0.470752
O O2 0.966500 0.754825 0.706017
O O3 0.706712 0.949311 0.723699
O O4 0.802258 0.109353 0.680374
O O5 0.447767 0.253139 0.786734
O O6 0.553435 0.810653 0.670913
O O7 0.577515 0.066331 0.940479
O O8 0.824407 0.465923 0.830394
O O9 0.609264 0.520351 0.737140
O O10 0.697253 0.433213 0.954784
O O11 0.810706 0.468853 0.195895
O O12 0.000657 0.521564 0.243775
O O13 0.672671 0.302187 0.104594
O O14 0.624823 0.146594 0.215623
O O15 0.811588 0.847618 0.984183
O O16 0.000000 0.500000 0.000000
O O17 0.500000 0.500000 0.500000
#
# Coordination Sequence:
#
# PCOD9067775 Si02
#       8
#     2   2   2   2   2   2   2   2
#     4  11  26  45  71  96 143 178 226 283 346 393
#     4  12  23  47  70  99 133 182 222 283 336 406
#     4  12  23  45  71 101 132 180 228 282 336 408
#     4  11  26  46  65 104 136 183 225 285 334 404
#     4  12  24  46  69 100 135 180 229 279 334 407
#     4  12  25  42  71  98 137 180 231 277 336 405
#     4  12  25  41  77 101 130 177 241 277 331 401
#     4  12  28  43  69 105 141 173 221 284 353 404
#
# _framework density 20.210622000000001
#
# number of rings (size 3 to 8) (size 9 to 14) (size 15 to 20)
#    0.000    0.250    6.250    2.250    5.250    2.000 
#    0.000    0.000    0.000    0.000    0.000    0.000 
#    0.000    0.000    0.000    0.000    0.000    0.000 
#
# Total GULP energy -89544.296494 kJ/mol
# GULP energy per Si atom -5596.518531 kJ/mol
# Density = 2.016462 g / cm^3
# Si number density = 20.210622 Si / 1000 Ang^3
#
#
#
# Elastic Constant Matrix: (Units=GPa)
#
#
# Indices 1 2 3 4 5 6 
#
# 1 29.2045 60.7991 86.4957 -0.3910 -9.9669 -33.3290
# 2 60.7991 126.0665 15.7954 21.4406 21.8953 5.4308
# 3 86.4957 15.7954 58.3046 13.1783 21.4443 11.9239
# 4 -0.3910 21.4406 13.1783 31.4577 -3.3186 0.8721
# 5 -9.9669 21.8953 21.4443 -3.3186 28.7187 -7.2115
# 6 -33.3290 5.4308 11.9239 0.8721 -7.2115 18.0306
#
#
#
# Elastic Compliance Matrix: (Units=1/GPa)
#
#
# Indices 1 2 3 4 5 6 
#
# 1 -0.000330 0.002088 0.005919 -0.004599 -0.008778 -0.008443
# 2 0.002088 0.008195 -0.004935 -0.003737 -0.001173 0.004367
# 3 0.005919 -0.004935 0.005860 0.001136 0.004120 0.010146
# 4 -0.004599 -0.003737 0.001136 0.034274 0.002122 -0.008936
# 5 -0.008778 -0.001173 0.004120 0.002122 0.027948 -0.007522
# 6 -0.008443 0.004367 0.010146 -0.008936 -0.007522 0.029253
#
#
# Mechanical properties :
#
#
# Convention : Reuss Voigt Hill
#
# Bulk Modulus (GPa) = 50.32831 59.97289 55.15060
# Shear Modulus (GPa) = 47.31387 19.00709 33.16048
#
# Velocity S-wave (km/s) = 4.84368 3.07000 4.05501
# Velocity P-wave (km/s) = 7.49917 6.50422 7.01935
#
# Compressibility (1/GPa) = 0.01986953
#
# Stress axis : x y z
#
# Youngs Moduli (GPa) = -3026.03519 122.02939 170.66035
#
# Poissons Ratio (x) = -0.25483 -1.01020
# Poissons Ratio (y) = 6.31913 0.84218
# Poissons Ratio (z) = 17.91225 0.60219
#
# Static dielectric constant tensor:
#      x y z
#    x 1.738460 -0.013870 -0.087710 
#    y -0.013870 1.710450 0.002820 
#    z -0.087710 0.002820 1.815200 
# 
# From -- ./inp_files/205078.got.cif
#   From: 2010.05.17/outbox.cif.g08.bks.cpg/sg2_103_cif.got.tgz:205078.got - 2010.06.03 11:33:40.
