data_PCOD9067168
_publ_section_title
;
Structure prediction by ZEFSAII (Michael W. Deem and Ramdas Pophale) SiO2 
 PCOD9067168
Probable space group: P -1
;
_chemical_formula_sum "Si O2"
_cell_formula_units_Z 12
_cell_length_a 8.695177
_cell_length_b 12.147924
_cell_length_c 9.365353
_cell_angle_alpha 63.091776
_cell_angle_beta 81.750914
_cell_angle_gamma 39.437924
_cell_volume 521.990285
_symmetry_space_group_name_H-M "P -1"
_symmetry_group_IT_number 2
_symmetry_cell_setting 'triclinic'
loop_
_space_group_symop_operation_xyz
x,y,z
-x,-y,-z
loop_
_atom_site_type_symbol
_atom_site_label
_atom_site_fract_x
_atom_site_fract_y
_atom_site_fract_z
Si Si1 0.755473 0.171935 0.737314
Si Si2 0.748491 0.780124 0.527062
Si Si3 0.760575 0.364184 0.371073
Si Si4 0.189068 0.719527 0.910237
Si Si5 0.585562 0.842975 0.193709
Si Si6 0.044708 0.537956 0.123094
O O1 0.756490 0.255938 0.548535
O O2 0.532952 0.386058 0.737643
O O3 0.626873 0.121012 0.759293
O O4 0.052654 0.931067 0.869477
O O5 0.712511 0.801990 0.348983
O O6 0.740576 0.653745 0.686483
O O7 0.008190 0.693120 0.573907
O O8 0.500000 0.000000 0.500000
O O9 0.853249 0.257579 0.267651
O O10 0.500000 0.500000 0.000000
O O11 0.074465 0.665275 0.024860
O O12 0.801174 0.647523 0.181202
O O13 0.500000 0.000000 0.000000
O O14 0.000000 0.500000 0.000000
#
# Coordination Sequence:
#
# PCOD9067168 Si02
#       6
#     2   2   2   2   2   2
#     4  11  25  48  71  98 145 187 236 296 356 427
#     4  12  26  43  73 105 143 188 239 299 360 428
#     4  11  26  48  69 105 146 187 240 295 359 431
#     4  12  27  45  72 105 145 189 238 294 362 429
#     4  12  24  46  73 102 137 185 241 295 357 426
#     4  12  24  46  70 104 143 183 241 295 356 428
#
# _framework density 22.988934
#
# number of rings (size 3 to 8) (size 9 to 14) (size 15 to 20)
#    0.000    0.333    5.000    3.000    4.667    2.000 
#    0.000    0.000    0.000    0.000    0.000    0.000 
#    0.000    0.000    0.000    0.000    0.000    0.000 
#
# Total GULP energy -66822.535467 kJ/mol
# GULP energy per Si atom -5568.544622 kJ/mol
# Density = 2.293661 g / cm^3
# Si number density = 22.988934 Si / 1000 Ang^3
#
#
#
# Elastic Constant Matrix: (Units=GPa)
#
#
# Indices 1 2 3 4 5 6 
#
# 1 58.5639 25.1294 31.4465 -1.5918 -26.2310 -15.4010
# 2 25.1294 137.3689 88.8118 -3.5661 -7.3617 -10.6342
# 3 31.4465 88.8118 135.5618 -1.5976 -27.5913 10.2125
# 4 -1.5918 -3.5661 -1.5976 63.6336 10.5742 -0.5140
# 5 -26.2310 -7.3617 -27.5913 10.5742 43.2027 0.8340
# 6 -15.4010 -10.6342 10.2125 -0.5140 0.8340 31.2549
#
#
#
# Elastic Compliance Matrix: (Units=1/GPa)
#
#
# Indices 1 2 3 4 5 6 
#
# 1 0.031367 -0.000388 -0.005054 -0.001871 0.015890 0.016521
# 2 -0.000388 0.015481 -0.011894 0.001590 -0.005760 0.009142
# 3 -0.005054 -0.011894 0.018842 -0.001687 0.007601 -0.012925
# 4 -0.001871 0.001590 -0.001687 0.016725 -0.006048 0.000607
# 5 0.015890 -0.005760 0.007601 -0.006048 0.038103 0.002270
# 6 0.016521 0.009142 -0.012925 0.000607 0.002270 0.047419
#
#
# Mechanical properties :
#
#
# Convention : Reuss Voigt Hill
#
# Bulk Modulus (GPa) = 32.24161 69.14111 50.69136
# Shear Modulus (GPa) = 23.47968 40.02536 31.75252
#
# Velocity S-wave (km/s) = 3.19932 4.17714 3.72049
# Velocity P-wave (km/s) = 5.26335 7.30793 6.36823
#
# Compressibility (1/GPa) = 0.03101582
#
# Stress axis : x y z
#
# Youngs Moduli (GPa) = 31.88098 64.59492 53.07157
#
# Poissons Ratio (x) = 0.02509 0.26824
# Poissons Ratio (y) = 0.01238 0.63126
# Poissons Ratio (z) = 0.16113 0.76832
#
# Static dielectric constant tensor:
#      x y z
#    x 1.515760 0.436860 -0.493140 
#    y 0.436860 1.554440 0.488170 
#    z -0.493140 0.488170 1.064180 
# 
# From -- ./inp_files/184984.got.cif
#   From: 2010.05.17/outbox.cif.g08.bks.cpg/sg2_93_cif.got.tgz:184984.got - 2010.06.03 11:33:40.
