data_PCOD9067855
_publ_section_title
;
Structure prediction by ZEFSAII (Michael W. Deem and Ramdas Pophale) SiO2 
 PCOD9067855
Probable space group: P -1
;
_chemical_formula_sum "Si O2"
_cell_formula_units_Z 10
_cell_length_a 16.084318
_cell_length_b 8.642996
_cell_length_c 6.192848
_cell_angle_alpha 95.278417
_cell_angle_beta 106.346502
_cell_angle_gamma 29.401499
_cell_volume 383.513455
_symmetry_space_group_name_H-M "P -1"
_symmetry_group_IT_number 2
_symmetry_cell_setting 'triclinic'
loop_
_space_group_symop_operation_xyz
x,y,z
-x,-y,-z
loop_
_atom_site_type_symbol
_atom_site_label
_atom_site_fract_x
_atom_site_fract_y
_atom_site_fract_z
Si Si1 0.473587 0.291649 0.122320
Si Si2 0.149810 0.815333 0.261286
Si Si3 0.702155 0.931702 0.863807
Si Si4 0.949097 0.698287 0.679791
Si Si5 0.645930 0.716952 0.340215
O O1 0.339621 0.566862 0.243080
O O2 0.618718 0.937086 0.282415
O O3 0.335622 0.406210 0.887276
O O4 0.593550 0.191402 0.014939
O O5 0.204627 0.584929 0.424419
O O6 0.084563 0.070226 0.378917
O O7 0.000000 0.000000 0.000000
O O8 0.770669 0.921757 0.711890
O O9 0.557031 0.027975 0.704887
O O10 0.884555 0.569841 0.058870
O O11 0.000000 0.500000 0.500000
#
# Coordination Sequence:
#
# PCOD9067855 Si02
#       5
#     2   2   2   2   2
#     4   9  21  44  70 103 139 184 235 287 353 417
#     4  12  26  43  72 110 140 182 242 294 349 414
#     4   9  22  46  70  98 140 191 235 279 357 424
#     4  11  26  46  69 101 147 189 228 294 352 421
#     4   9  21  43  74 102 139 185 228 297 351 419
#
# _framework density 26.074701000000001
#
# number of rings (size 3 to 8) (size 9 to 14) (size 15 to 20)
#    1.200    0.800    0.000    1.800    2.800    5.600 
#    3.600    0.000    0.000    0.000    0.000    0.000 
#    0.000    0.000    0.000    0.000    0.000    0.000 
#
# Total GULP energy -55907.859772 kJ/mol
# GULP energy per Si atom -5590.785977 kJ/mol
# Density = 2.601535 g / cm^3
# Si number density = 26.074701 Si / 1000 Ang^3
#
#
#
# Elastic Constant Matrix: (Units=GPa)
#
#
# Indices 1 2 3 4 5 6 
#
# 1 121.8981 59.0782 40.7317 4.3894 -14.5015 -26.4952
# 2 59.0782 148.3609 56.5525 16.0110 -9.3246 20.0213
# 3 40.7317 56.5525 140.7315 -22.6226 -8.0214 20.0654
# 4 4.3894 16.0110 -22.6226 49.8883 -16.6158 -5.0250
# 5 -14.5015 -9.3246 -8.0214 -16.6158 41.4483 7.9949
# 6 -26.4952 20.0213 20.0654 -5.0250 7.9949 46.3783
#
#
#
# Elastic Compliance Matrix: (Units=1/GPa)
#
#
# Indices 1 2 3 4 5 6 
#
# 1 0.015578 -0.006674 -0.003510 0.000866 0.001069 0.013209
# 2 -0.006674 0.012108 -0.002690 -0.005617 -0.000773 -0.008351
# 3 -0.003510 -0.002690 0.011440 0.007243 0.004397 -0.005766
# 4 0.000866 -0.005617 0.007243 0.029123 0.011946 0.000882
# 5 0.001069 -0.000773 0.004397 0.011946 0.030930 -0.004995
# 6 0.013209 -0.008351 -0.005766 0.000882 -0.004995 0.036164
#
#
# Mechanical properties :
#
#
# Convention : Reuss Voigt Hill
#
# Bulk Modulus (GPa) = 74.75271 80.41281 77.58276
# Shear Modulus (GPa) = 30.20212 44.51819 37.36016
#
# Velocity S-wave (km/s) = 3.40706 4.13647 3.78936
# Velocity P-wave (km/s) = 6.64893 7.32941 6.99745
#
# Compressibility (1/GPa) = 0.01337744
#
# Stress axis : x y z
#
# Youngs Moduli (GPa) = 64.19310 82.58908 87.41488
#
# Poissons Ratio (x) = 0.55122 0.30681
# Poissons Ratio (y) = 0.42844 0.23516
# Poissons Ratio (z) = 0.22531 0.22218
#
# Static dielectric constant tensor:
#      x y z
#    x 2.055710 -0.071290 0.005700 
#    y -0.071290 2.077860 0.081590 
#    z 0.005700 0.081590 2.073740 
# 
# From -- ./inp_files/15299.got.cif
#   From: 2010.05.17/outbox.cif.g08.bks.cpg/sg2_8_cif.got.tgz:15299.got - 2010.06.03 11:33:40.
