data_PCOD9067181
_publ_section_title
;
Structure prediction by ZEFSAII (Michael W. Deem and Ramdas Pophale) SiO2 
 PCOD9067181
Probable space group: P -1
;
_chemical_formula_sum "Si O2"
_cell_formula_units_Z 13
_cell_length_a 9.156700
_cell_length_b 9.157723
_cell_length_c 9.748791
_cell_angle_alpha 77.110593
_cell_angle_beta 115.986634
_cell_angle_gamma 129.498798
_cell_volume 565.196179
_symmetry_space_group_name_H-M "P -1"
_symmetry_group_IT_number 2
_symmetry_cell_setting 'triclinic'
loop_
_space_group_symop_operation_xyz
x,y,z
-x,-y,-z
loop_
_atom_site_type_symbol
_atom_site_label
_atom_site_fract_x
_atom_site_fract_y
_atom_site_fract_z
Si Si1 0.193640 0.546731 0.486135
Si Si2 0.795185 0.790816 0.489201
Si Si3 0.618377 0.750383 0.140729
Si Si4 0.500000 0.000000 0.000000
Si Si5 0.363314 0.195686 0.286529
Si Si6 0.242207 0.804592 0.204414
Si Si7 0.208493 0.355936 0.979854
O O1 0.155941 0.357394 0.457900
O O2 0.389503 0.655567 0.645573
O O3 0.245841 0.679995 0.349186
O O4 0.000000 0.500000 0.500000
O O5 0.638031 0.731183 0.313046
O O6 0.700942 0.795031 0.589861
O O7 0.000000 0.000000 0.500000
O O8 0.396947 0.578581 0.023448
O O9 0.655334 0.941372 0.071078
O O10 0.778996 0.726176 0.141366
O O11 0.395577 0.872383 0.125634
O O12 0.257015 0.254593 0.130890
O O13 0.298999 0.992908 0.262124
O O14 0.007233 0.685924 0.081821
#
# Coordination Sequence:
#
# PCOD9067181 Si02
#       7
#     2   2   2   1   2   2   2
#     4  12  27  49  78 113 153 194 252 314 380 437
#     4  12  27  47  78 107 149 202 254 304 377 456
#     4  11  25  48  72 108 147 199 246 313 373 447
#     4  12  28  44  72 110 158 182 256 310 370 430
#     4  12  25  50  74 109 151 200 250 305 376 455
#     4  12  28  48  76 116 151 200 248 315 376 446
#     4  11  25  48  78 102 150 201 250 298 381 451
#
# _framework density 23.000865000000001
#
# number of rings (size 3 to 8) (size 9 to 14) (size 15 to 20)
#    0.000    0.308    3.077    5.077    6.462    3.077 
#    0.000    0.000    0.000    0.000    0.000    0.000 
#    0.000    0.000    0.000    0.000    0.000    0.000 
#
# Total GULP energy -72635.677448 kJ/mol
# GULP energy per Si atom -5587.359804 kJ/mol
# Density = 2.294851 g / cm^3
# Si number density = 23.000865 Si / 1000 Ang^3
#
#
#
# Elastic Constant Matrix: (Units=GPa)
#
#
# Indices 1 2 3 4 5 6 
#
# 1 104.6825 10.7558 37.0857 1.1083 -9.5514 8.3101
# 2 10.7558 61.8626 25.2060 -14.7779 9.5448 -8.7337
# 3 37.0857 25.2060 109.7886 -28.6606 -11.2138 -3.2734
# 4 1.1083 -14.7779 -28.6606 42.9062 3.0161 10.0854
# 5 -9.5514 9.5448 -11.2138 3.0161 42.3218 -10.0092
# 6 8.3101 -8.7337 -3.2734 10.0854 -10.0092 33.4328
#
#
#
# Elastic Compliance Matrix: (Units=1/GPa)
#
#
# Indices 1 2 3 4 5 6 
#
# 1 0.011606 -0.001603 -0.004330 -0.003319 0.001534 -0.002267
# 2 -0.001603 0.020093 -0.003383 0.004560 -0.005578 0.002271
# 3 -0.004330 -0.003383 0.013701 0.007896 0.002855 0.000007
# 4 -0.003319 0.004560 0.007896 0.032435 -0.003929 -0.008171
# 5 0.001534 -0.005578 0.002855 -0.003929 0.028176 0.008062
# 6 -0.002267 0.002271 0.000007 -0.008171 0.008062 0.035947
#
#
# Mechanical properties :
#
#
# Convention : Reuss Voigt Hill
#
# Bulk Modulus (GPa) = 37.35864 46.93651 42.14757
# Shear Modulus (GPa) = 29.49652 37.28457 33.39055
#
# Velocity S-wave (km/s) = 3.58496 4.03054 3.81426
# Velocity P-wave (km/s) = 5.78044 6.48930 6.14510
#
# Compressibility (1/GPa) = 0.02676757
#
# Stress axis : x y z
#
# Youngs Moduli (GPa) = 86.15893 49.76971 72.98838
#
# Poissons Ratio (x) = 0.07980 0.31603
# Poissons Ratio (y) = 0.13815 0.24691
# Poissons Ratio (z) = 0.37305 0.16836
#
# Static dielectric constant tensor:
#      x y z
#    x 1.772830 0.022900 -0.036300 
#    y 0.022900 1.875530 0.023600 
#    z -0.036300 0.023600 1.800320 
# 
# From -- ./inp_files/155870.got.cif
#   From: 2010.05.17/outbox.cif.g08.bks.cpg/sg2_78_cif.got.tgz:155870.got - 2010.06.03 11:33:40.
