data_PCOD9067319
_publ_section_title
;
Structure prediction by ZEFSAII (Michael W. Deem and Ramdas Pophale) SiO2 
 PCOD9067319
Probable space group: P -1
;
_chemical_formula_sum "Si O2"
_cell_formula_units_Z 12
_cell_length_a 5.814310
_cell_length_b 15.746200
_cell_length_c 8.613097
_cell_angle_alpha 133.619269
_cell_angle_beta 72.886955
_cell_angle_gamma 80.502826
_cell_volume 462.021787
_symmetry_space_group_name_H-M "P -1"
_symmetry_group_IT_number 2
_symmetry_cell_setting 'triclinic'
loop_
_space_group_symop_operation_xyz
x,y,z
-x,-y,-z
loop_
_atom_site_type_symbol
_atom_site_label
_atom_site_fract_x
_atom_site_fract_y
_atom_site_fract_z
Si Si1 0.210763 0.338810 0.775412
Si Si2 0.659073 0.603985 0.699809
Si Si3 0.120528 0.991842 0.636599
Si Si4 0.713838 0.799343 0.129891
Si Si5 0.639634 0.366206 0.533573
Si Si6 0.184978 0.130762 0.272493
O O1 0.417068 0.478978 0.266096
O O2 0.500815 0.330683 0.658228
O O3 0.195815 0.229660 0.526976
O O4 0.000000 0.500000 0.000000
O O5 0.505852 0.631349 0.598808
O O6 0.000000 0.500000 0.500000
O O7 0.592082 0.751423 0.958586
O O8 0.457135 0.886982 0.413311
O O9 0.971533 0.943903 0.723407
O O10 0.116513 0.129062 0.852269
O O11 0.000000 0.000000 0.500000
O O12 0.891596 0.671986 0.045942
O O13 0.972933 0.245607 0.333397
O O14 0.500000 0.000000 0.000000
#
# Coordination Sequence:
#
# PCOD9067319 Si02
#       6
#     2   2   2   2   2   2
#     4  12  26  48  80 118 152 208 276 341 405 483
#     4  11  26  49  78 120 156 213 270 338 409 490
#     4  11  25  49  78 110 157 217 261 329 402 487
#     4  11  25  48  78 113 155 205 273 329 406 480
#     4  11  26  50  77 116 166 212 265 340 410 485
#     4  12  28  51  80 121 167 219 273 335 415 493
#
# _framework density 25.972802000000001
#
# number of rings (size 3 to 8) (size 9 to 14) (size 15 to 20)
#    0.000    0.667    3.333    3.000    2.333    8.667 
#    3.000    0.833    0.000    0.000    0.000    0.000 
#    0.000    0.000    0.000    0.000    0.000    0.000 
#
# Total GULP energy -67090.273163 kJ/mol
# GULP energy per Si atom -5590.856097 kJ/mol
# Density = 2.591369 g / cm^3
# Si number density = 25.972802 Si / 1000 Ang^3
#
#
#
# Elastic Constant Matrix: (Units=GPa)
#
#
# Indices 1 2 3 4 5 6 
#
# 1 129.8671 45.0428 44.9594 4.8516 7.5908 16.6809
# 2 45.0428 97.7305 12.4871 14.1878 -3.1582 24.0462
# 3 44.9594 12.4871 96.8626 5.1858 0.2717 1.7815
# 4 4.8516 14.1878 5.1858 28.1875 -1.2133 -6.3945
# 5 7.5908 -3.1582 0.2717 -1.2133 59.9004 3.2639
# 6 16.6809 24.0462 1.7815 -6.3945 3.2639 75.8214
#
#
#
# Elastic Compliance Matrix: (Units=1/GPa)
#
#
# Indices 1 2 3 4 5 6 
#
# 1 0.010982 -0.004490 -0.004553 0.000974 -0.001548 -0.000736
# 2 -0.004490 0.014405 0.000705 -0.007520 0.001407 -0.004292
# 3 -0.004553 0.000705 0.012434 -0.001765 0.000505 0.000315
# 4 0.000974 -0.007520 -0.001765 0.040700 0.000005 0.005645
# 5 -0.001548 0.001407 0.000505 0.000005 0.017009 -0.000849
# 6 -0.000736 -0.004292 0.000315 0.005645 -0.000849 0.015217
#
#
# Mechanical properties :
#
#
# Convention : Reuss Voigt Hill
#
# Bulk Modulus (GPa) = 47.29432 58.82653 53.06042
# Shear Modulus (GPa) = 37.18258 47.57994 42.38126
#
# Velocity S-wave (km/s) = 3.78775 4.28473 4.04388
# Velocity P-wave (km/s) = 6.11376 6.86855 6.50212
#
# Compressibility (1/GPa) = 0.02114419
#
# Stress axis : x y z
#
# Youngs Moduli (GPa) = 91.05457 69.42108 80.42709
#
# Poissons Ratio (x) = 0.31171 0.36618
# Poissons Ratio (y) = 0.40884 -0.05668
# Poissons Ratio (z) = 0.41457 -0.04892
#
# Static dielectric constant tensor:
#      x y z
#    x 1.967980 0.423410 -0.083990 
#    y 0.423410 -0.285020 0.184980 
#    z -0.083990 0.184980 2.131280 
# 
# From -- ./inp_files/136340.got.cif
#   From: 2010.05.17/outbox.cif.g08.bks.cpg/sg2_69_cif.got.tgz:136340.got - 2010.06.03 11:33:40.
