data_PCOD9067217
_publ_section_title
;
Structure prediction by ZEFSAII (Michael W. Deem and Ramdas Pophale) SiO2 
 PCOD9067217
Probable space group: P -1
;
_chemical_formula_sum "Si O2"
_cell_formula_units_Z 12
_cell_length_a 13.322248
_cell_length_b 13.770833
_cell_length_c 5.199093
_cell_angle_alpha 67.124642
_cell_angle_beta 116.671392
_cell_angle_gamma 147.621846
_cell_volume 456.332698
_symmetry_space_group_name_H-M "P -1"
_symmetry_group_IT_number 2
_symmetry_cell_setting 'triclinic'
loop_
_space_group_symop_operation_xyz
x,y,z
-x,-y,-z
loop_
_atom_site_type_symbol
_atom_site_label
_atom_site_fract_x
_atom_site_fract_y
_atom_site_fract_z
Si Si1 0.822517 0.474297 0.904309
Si Si2 0.749505 0.297532 0.493688
Si Si3 0.568294 0.462795 0.816440
Si Si4 0.302438 0.990821 0.312338
Si Si5 0.914497 0.133569 0.308297
Si Si6 0.175864 0.201441 0.877479
O O1 0.784886 0.359327 0.763095
O O2 0.644832 0.419007 0.803176
O O3 0.989443 0.678003 0.784083
O O4 0.862056 0.448936 0.248567
O O5 0.751383 0.174416 0.580183
O O6 0.527201 0.164391 0.331562
O O7 0.500000 0.500000 0.500000
O O8 0.379042 0.300099 0.942665
O O9 0.745123 0.643465 0.007340
O O10 0.244089 0.991022 0.521444
O O11 0.179365 0.951243 0.988218
O O12 0.080936 0.179872 0.535629
O O13 0.000000 0.000000 0.000000
#
# Coordination Sequence:
#
# PCOD9067217 Si02
#       6
#     2   2   2   2   2   2
#     4  12  25  45  74 105 145 190 237 296 371 423
#     4  11  26  47  73 105 142 195 237 295 372 427
#     4  11  25  48  74 106 152 191 244 305 357 448
#     4  11  26  47  72 106 146 183 248 300 351 443
#     4  12  25  46  72 108 144 183 245 302 353 439
#     4  11  27  48  75 110 147 196 246 300 370 433
#
# _framework density 26.296606000000001
#
# number of rings (size 3 to 8) (size 9 to 14) (size 15 to 20)
#    0.000    0.667    1.667    5.000    4.667    8.667 
#    3.000    0.000    0.000    0.000    0.000    0.000 
#    0.000    0.000    0.000    0.000    0.000    0.000 
#
# Total GULP energy -67376.302507 kJ/mol
# GULP energy per Si atom -5614.691876 kJ/mol
# Density = 2.623675 g / cm^3
# Si number density = 26.296606 Si / 1000 Ang^3
#
#
#
# Elastic Constant Matrix: (Units=GPa)
#
#
# Indices 1 2 3 4 5 6 
#
# 1 152.5302 22.9557 26.2255 -0.7046 -11.5544 17.3751
# 2 22.9557 136.0253 27.7554 -8.7473 -6.0743 20.8162
# 3 26.2255 27.7554 172.0335 1.3358 4.6213 10.8819
# 4 -0.7046 -8.7473 1.3358 36.2257 9.4392 2.2902
# 5 -11.5544 -6.0743 4.6213 9.4392 37.6651 -3.8103
# 6 17.3751 20.8162 10.8819 2.2902 -3.8103 36.7667
#
#
#
# Elastic Compliance Matrix: (Units=1/GPa)
#
#
# Indices 1 2 3 4 5 6 
#
# 1 0.007248 -0.000571 -0.000901 -0.000337 0.002063 -0.002600
# 2 -0.000571 0.008482 -0.001033 0.002268 0.000313 -0.004336
# 3 -0.000901 -0.001033 0.006212 -0.000103 -0.001276 -0.000954
# 4 -0.000337 0.002268 -0.000103 0.030403 -0.007727 -0.003789
# 5 0.002063 0.000313 -0.001276 -0.007727 0.029607 0.002775
# 6 -0.002600 -0.004336 -0.000954 -0.003789 0.002775 0.031688
#
#
# Mechanical properties :
#
#
# Convention : Reuss Voigt Hill
#
# Bulk Modulus (GPa) = 59.06042 68.27359 63.66700
# Shear Modulus (GPa) = 40.22723 47.70834 43.96779
#
# Velocity S-wave (km/s) = 3.91544 4.26401 4.09344
# Velocity P-wave (km/s) = 6.55355 7.08954 6.82681
#
# Compressibility (1/GPa) = 0.01693181
#
# Stress axis : x y z
#
# Youngs Moduli (GPa) = 137.97119 117.89671 160.97148
#
# Poissons Ratio (x) = 0.06730 0.14505
# Poissons Ratio (y) = 0.07876 0.16632
# Poissons Ratio (z) = 0.12433 0.12181
#
# Static dielectric constant tensor:
#      x y z
#    x 2.034830 0.026600 0.025900 
#    y 0.026600 2.055030 -0.001020 
#    z 0.025900 -0.001020 1.995400 
# 
# From -- ./inp_files/55455.got.cif
#   From: 2010.05.17/outbox.cif.g08.bks.cpg/sg2_28_cif.got.tgz:55455.got - 2010.06.03 11:33:40.
