data_PCOD9067702
_publ_section_title
;
Structure prediction by ZEFSAII (Michael W. Deem and Ramdas Pophale) SiO2 
 PCOD9067702
Probable space group: P -1
;
_chemical_formula_sum "Si O2"
_cell_formula_units_Z 12
_cell_length_a 9.172745
_cell_length_b 13.407477
_cell_length_c 11.239684
_cell_angle_alpha 158.199226
_cell_angle_beta 110.829069
_cell_angle_gamma 73.336755
_cell_volume 476.040719
_symmetry_space_group_name_H-M "P -1"
_symmetry_group_IT_number 2
_symmetry_cell_setting 'triclinic'
loop_
_space_group_symop_operation_xyz
x,y,z
-x,-y,-z
loop_
_atom_site_type_symbol
_atom_site_label
_atom_site_fract_x
_atom_site_fract_y
_atom_site_fract_z
Si Si1 0.721946 0.897003 0.782372
Si Si2 0.891168 0.231876 0.708171
Si Si3 0.183351 0.509224 0.439950
Si Si4 0.502733 0.291391 0.879833
Si Si5 0.829943 0.461702 0.197117
Si Si6 0.360659 0.651460 0.404839
O O1 0.772702 0.719714 0.712086
O O2 0.801929 0.776458 0.555436
O O3 0.532169 0.828443 0.648334
O O4 0.790741 0.201702 0.167099
O O5 0.761471 0.180601 0.511292
O O6 0.822199 0.321012 0.910913
O O7 0.000000 0.000000 0.500000
O O8 0.000000 0.500000 0.000000
O O9 0.294667 0.556140 0.408366
O O10 0.001241 0.440492 0.273826
O O11 0.500000 0.000000 0.500000
O O12 0.500000 0.500000 0.000000
O O13 0.659927 0.330626 0.049844
O O14 0.371191 0.383847 0.030767
#
# Coordination Sequence:
#
# PCOD9067702 Si02
#       6
#     2   2   2   2   2   2
#     4  11  28  47  74 106 142 198 241 298 353 428
#     4  12  28  45  74 112 145 188 237 303 372 422
#     4  12  26  47  74 106 147 190 247 292 358 426
#     4  11  26  44  70 107 145 185 232 289 365 431
#     4  11  26  47  76 103 150 183 246 296 365 425
#     4  11  26  49  76 107 149 189 243 302 360 434
#
# _framework density 25.207927000000002
#
# number of rings (size 3 to 8) (size 9 to 14) (size 15 to 20)
#    0.000    0.667    3.333    2.000    4.667   10.667 
#    0.000    0.000    0.000    0.000    0.000    0.000 
#    0.000    0.000    0.000    0.000    0.000    0.000 
#
# Total GULP energy -67215.901098 kJ/mol
# GULP energy per Si atom -5601.325091 kJ/mol
# Density = 2.515055 g / cm^3
# Si number density = 25.207927 Si / 1000 Ang^3
#
#
#
# Elastic Constant Matrix: (Units=GPa)
#
#
# Indices 1 2 3 4 5 6 
#
# 1 107.8705 26.0321 0.7723 3.8499 7.0239 -19.5098
# 2 26.0321 111.2958 27.0338 13.5375 10.6569 -18.4441
# 3 0.7723 27.0338 109.8306 12.6718 -4.0635 7.2340
# 4 3.8499 13.5375 12.6718 41.7863 2.3294 -1.7862
# 5 7.0239 10.6569 -4.0635 2.3294 56.5996 -24.4872
# 6 -19.5098 -18.4441 7.2340 -1.7862 -24.4872 56.3047
#
#
#
# Elastic Compliance Matrix: (Units=1/GPa)
#
#
# Indices 1 2 3 4 5 6 
#
# 1 0.010280 -0.001967 0.000259 -0.000282 0.000454 0.003073
# 2 -0.001967 0.010908 -0.002607 -0.002403 -0.000659 0.002864
# 3 0.000259 -0.002607 0.010163 -0.002369 0.000441 -0.001953
# 4 -0.000282 -0.002403 -0.002369 0.025493 -0.000780 -0.000111
# 5 0.000454 -0.000659 0.000441 -0.000780 0.021850 0.009363
# 6 0.003073 0.002864 -0.001953 -0.000111 0.009363 0.024083
#
#
# Mechanical properties :
#
#
# Convention : Reuss Voigt Hill
#
# Bulk Modulus (GPa) = 44.01291 48.51925 46.26608
# Shear Modulus (GPa) = 42.02348 49.28203 45.65275
#
# Velocity S-wave (km/s) = 4.08741 4.42636 4.26026
# Velocity P-wave (km/s) = 6.30664 6.73891 6.52636
#
# Compressibility (1/GPa) = 0.02272061
#
# Stress axis : x y z
#
# Youngs Moduli (GPa) = 97.28077 91.67248 98.39499
#
# Poissons Ratio (x) = 0.18034 -0.02548
# Poissons Ratio (y) = 0.19137 0.25651
# Poissons Ratio (z) = -0.02519 0.23898
#
# Static dielectric constant tensor:
#      x y z
#    x 2.025140 0.042830 -0.085910 
#    y 0.042830 2.066020 -0.075260 
#    z -0.085910 -0.075260 2.181760 
# 
# From -- ./inp_files/396837.got.cif
#   From: 2010.05.17/outbox.cif.g08.bks.cpg/sg2_199_cif.got.tgz:396837.got - 2010.06.03 11:33:40.
