data_PCOD9067852
_publ_section_title
;
Structure prediction by ZEFSAII (Michael W. Deem and Ramdas Pophale) SiO2 
 PCOD9067852
Probable space group: P -1
;
_chemical_formula_sum "Si O2"
_cell_formula_units_Z 10
_cell_length_a 6.388999
_cell_length_b 11.156607
_cell_length_c 11.634725
_cell_angle_alpha 43.208292
_cell_angle_beta 48.245605
_cell_angle_gamma 69.966425
_cell_volume 406.683530
_symmetry_space_group_name_H-M "P -1"
_symmetry_group_IT_number 2
_symmetry_cell_setting 'triclinic'
loop_
_space_group_symop_operation_xyz
x,y,z
-x,-y,-z
loop_
_atom_site_type_symbol
_atom_site_label
_atom_site_fract_x
_atom_site_fract_y
_atom_site_fract_z
Si Si1 0.747711 0.413411 0.801965
Si Si2 0.898665 0.129483 0.103963
Si Si3 0.736836 0.074746 0.592780
Si Si4 0.127025 0.799418 0.301221
Si Si5 0.080271 0.328414 0.134741
O O1 0.709030 0.301959 0.773766
O O2 0.879379 0.626486 0.569376
O O3 0.940911 0.310049 0.881136
O O4 0.424582 0.373285 0.002172
O O5 0.991355 0.188852 0.158474
O O6 0.554014 0.036803 0.283368
O O7 0.025055 0.954906 0.160170
O O8 0.698244 0.094501 0.727966
O O9 0.862893 0.275232 0.358262
O O10 0.000000 0.000000 0.500000
O O11 0.000000 0.500000 0.000000
#
# Coordination Sequence:
#
# PCOD9067852 Si02
#       5
#     2   2   2   2   2
#     4  11  26  46  68 103 136 177 227 277 329 405
#     4  12  24  44  72  98 135 179 227 271 344 392
#     4  12  24  43  68 100 134 175 223 278 330 400
#     4  11  26  46  70  98 140 177 224 278 335 398
#     4  12  26  43  71 101 136 179 225 279 335 400
#
# _framework density 24.589141999999999
#
# number of rings (size 3 to 8) (size 9 to 14) (size 15 to 20)
#    0.000    0.400    4.000    3.600    2.800    6.400 
#    0.000    5.000    0.000    0.000    0.000    0.000 
#    0.000    0.000    0.000    0.000    0.000    0.000 
#
# Total GULP energy -55824.023339 kJ/mol
# GULP energy per Si atom -5582.402334 kJ/mol
# Density = 2.453318 g / cm^3
# Si number density = 24.589142 Si / 1000 Ang^3
#
#
#
# Elastic Constant Matrix: (Units=GPa)
#
#
# Indices 1 2 3 4 5 6 
#
# 1 86.0359 36.6890 34.8926 -4.8241 9.5667 4.7668
# 2 36.6890 88.0167 4.9077 -24.7977 -6.5014 8.2984
# 3 34.8926 4.9077 117.4837 -20.0680 7.1492 -14.5231
# 4 -4.8241 -24.7977 -20.0680 34.9979 -8.1787 16.4884
# 5 9.5667 -6.5014 7.1492 -8.1787 50.7380 -6.6265
# 6 4.7668 8.2984 -14.5231 16.4884 -6.6265 46.3488
#
#
#
# Elastic Compliance Matrix: (Units=1/GPa)
#
#
# Indices 1 2 3 4 5 6 
#
# 1 0.018992 -0.011120 -0.006553 -0.010832 -0.005695 0.001024
# 2 -0.011120 0.023962 0.004868 0.024262 0.007187 -0.009225
# 3 -0.006553 0.004868 0.011826 0.009576 0.001783 0.000356
# 4 -0.010832 0.024262 0.009576 0.062131 0.011108 -0.020744
# 5 -0.005695 0.007187 0.001783 0.011108 0.023141 -0.000786
# 6 0.001024 -0.009225 0.000356 -0.020744 -0.000786 0.030501
#
#
# Mechanical properties :
#
#
# Convention : Reuss Voigt Hill
#
# Bulk Modulus (GPa) = 34.28242 49.39055 41.83648
# Shear Modulus (GPa) = 24.28530 40.75342 32.51936
#
# Velocity S-wave (km/s) = 3.14609 4.07550 3.64058
# Velocity P-wave (km/s) = 5.21244 6.50202 5.89261
#
# Compressibility (1/GPa) = 0.02916947
#
# Stress axis : x y z
#
# Youngs Moduli (GPa) = 52.65350 41.73324 84.55895
#
# Poissons Ratio (x) = 0.46409 0.55414
# Poissons Ratio (y) = 0.58552 -0.41167
# Poissons Ratio (z) = 0.34506 -0.20318
#
# Static dielectric constant tensor:
#      x y z
#    x 1.887490 0.008620 -0.098170 
#    y 0.008620 2.045170 -0.128720 
#    z -0.098170 -0.128720 1.664880 
# 
# From -- ./inp_files/15335.got.cif
#   From: 2010.05.17/outbox.cif.g08.bks.cpg/sg2_8_cif.got.tgz:15335.got - 2010.06.03 11:33:40.
