data_PCOD9067739
_publ_section_title
;
Structure prediction by ZEFSAII (Michael W. Deem and Ramdas Pophale) SiO2 
 PCOD9067739
Probable space group: P -1
;
_chemical_formula_sum "Si O2"
_cell_formula_units_Z 13
_cell_length_a 4.946352
_cell_length_b 12.057629
_cell_length_c 9.004553
_cell_angle_alpha 72.775347
_cell_angle_beta 72.094801
_cell_angle_gamma 102.020600
_cell_volume 460.887519
_symmetry_space_group_name_H-M "P -1"
_symmetry_group_IT_number 2
_symmetry_cell_setting 'triclinic'
loop_
_space_group_symop_operation_xyz
x,y,z
-x,-y,-z
loop_
_atom_site_type_symbol
_atom_site_label
_atom_site_fract_x
_atom_site_fract_y
_atom_site_fract_z
Si Si1 0.480805 0.120477 0.249413
Si Si2 0.784760 0.153122 0.487165
Si Si3 0.972726 0.549670 0.319666
Si Si4 0.370546 0.316346 0.989463
Si Si5 0.242912 0.254592 0.591705
Si Si6 0.103683 0.886427 0.050213
Si Si7 0.000000 0.500000 0.000000
O O1 0.741295 0.153933 0.316671
O O2 0.577207 0.083951 0.088479
O O3 0.269643 0.990217 0.403871
O O4 0.432087 0.245629 0.152045
O O5 0.520979 0.204205 0.570429
O O6 0.102903 0.241966 0.457026
O O7 0.305824 0.634844 0.169653
O O8 0.000000 0.500000 0.500000
O O9 0.741662 0.623474 0.370643
O O10 0.880188 0.470572 0.215558
O O11 0.127241 0.221922 0.964005
O O12 0.223926 0.419963 0.010632
O O13 0.952604 0.157665 0.757268
O O14 0.000000 0.000000 0.000000
#
# Coordination Sequence:
#
# PCOD9067739 Si02
#       7
#     2   2   2   2   2   2   1
#     4  11  26  44  77 115 164 213 259 336 418 496
#     4  11  28  46  77 122 166 208 272 333 416 513
#     4  12  30  51  80 115 158 217 286 352 421 489
#     4  12  26  52  79 118 160 219 276 346 420 498
#     4  12  25  50  74 114 158 209 268 342 410 492
#     4  12  24  44  79 115 158 209 262 325 416 507
#     4  12  28  54  78 114 164 210 292 348 410 494
#
# _framework density 28.20645
#
# number of rings (size 3 to 8) (size 9 to 14) (size 15 to 20)
#    0.000    0.308    4.615    2.308    4.308    4.308 
#    0.000    0.000    0.000    0.000    0.000    0.000 
#    0.000    0.000    0.000    0.000    0.000    0.000 
#
# Total GULP energy -72467.278783 kJ/mol
# GULP energy per Si atom -5574.406060 kJ/mol
# Density = 2.814225 g / cm^3
# Si number density = 28.206450 Si / 1000 Ang^3
#
#
#
# Elastic Constant Matrix: (Units=GPa)
#
#
# Indices 1 2 3 4 5 6 
#
# 1 121.8718 44.4357 65.4447 -24.0259 0.8177 -9.9745
# 2 44.4357 99.9701 89.2982 -25.0494 -7.2310 -12.1446
# 3 65.4447 89.2982 208.8064 35.5061 16.9175 -55.1726
# 4 -24.0259 -25.0494 35.5061 14.8685 -15.8725 28.3407
# 5 0.8177 -7.2310 16.9175 -15.8725 56.7852 10.1935
# 6 -9.9745 -12.1446 -55.1726 28.3407 10.1935 55.5368
#
#
#
# Elastic Compliance Matrix: (Units=1/GPa)
#
#
# Indices 1 2 3 4 5 6 
#
# 1 0.009541 -0.005207 0.000589 -0.002502 -0.002185 0.002838
# 2 -0.005207 0.010193 0.000716 -0.008518 -0.002442 0.006800
# 3 0.000589 0.000716 0.001353 0.009734 0.003106 -0.003931
# 4 -0.002502 -0.008518 0.009734 -0.007493 -0.008324 0.012709
# 5 -0.002185 -0.002442 0.003106 -0.008324 0.013369 0.003953
# 6 0.002838 0.006800 -0.003931 0.012709 0.003953 0.008887
#
#
# Mechanical properties :
#
#
# Convention : Reuss Voigt Hill
#
# Bulk Modulus (GPa) = 75.28792 92.11172 83.69982
# Shear Modulus (GPa) = 103.98464 40.86943 72.42703
#
# Velocity S-wave (km/s) = 6.07829 3.81062 5.07279
# Velocity P-wave (km/s) = 8.71840 7.21722 8.00309
#
# Compressibility (1/GPa) = 0.01328234
#
# Stress axis : x y z
#
# Youngs Moduli (GPa) = 104.80640 98.10299 739.02131
#
# Poissons Ratio (x) = 0.51085 -0.43512
# Poissons Ratio (y) = 0.54575 -0.52892
# Poissons Ratio (z) = -0.06171 -0.07021
#
# Static dielectric constant tensor:
#      x y z
#    x 2.275620 0.038400 -0.058400 
#    y 0.038400 2.298140 -0.011600 
#    z -0.058400 -0.011600 2.167970 
# 
# From -- ./inp_files/130544.got.cif
#   From: 2010.05.17/outbox.cif.g08.bks.cpg/sg2_66_cif.got.tgz:130544.got - 2010.06.03 11:33:40.
