data_PCOD9067927
_publ_section_title
;
Structure prediction by ZEFSAII (Michael W. Deem and Ramdas Pophale) SiO2 
 PCOD9067927
Probable space group: P -1
;
_chemical_formula_sum "Si O2"
_cell_formula_units_Z 16
_cell_length_a 11.159397
_cell_length_b 11.314691
_cell_length_c 11.285210
_cell_angle_alpha 65.410976
_cell_angle_beta 96.098738
_cell_angle_gamma 41.039850
_cell_volume 604.515751
_symmetry_space_group_name_H-M "P -1"
_symmetry_group_IT_number 2
_symmetry_cell_setting 'triclinic'
loop_
_space_group_symop_operation_xyz
x,y,z
-x,-y,-z
loop_
_atom_site_type_symbol
_atom_site_label
_atom_site_fract_x
_atom_site_fract_y
_atom_site_fract_z
Si Si1 0.845906 0.859036 0.450086
Si Si2 0.012992 0.746210 0.248044
Si Si3 0.137112 0.724647 0.888120
Si Si4 0.373290 0.663939 0.742003
Si Si5 0.438154 0.139120 0.603527
Si Si6 0.013230 0.590110 0.807669
Si Si7 0.644757 0.965273 0.946914
Si Si8 0.327227 0.703177 0.286236
O O1 0.657206 0.918408 0.376334
O O2 0.046763 0.604378 0.669026
O O3 0.937975 0.821222 0.347339
O O4 0.729416 0.096188 0.403920
O O5 0.221457 0.431640 0.394839
O O6 0.144541 0.753742 0.219789
O O7 0.768849 0.950564 0.054873
O O8 0.164019 0.789997 0.747670
O O9 0.154182 0.561179 0.915482
O O10 0.375470 0.541513 0.068509
O O11 0.871248 0.998869 0.815251
O O12 0.474280 0.476907 0.725494
O O13 0.708795 0.887332 0.671705
O O14 0.482944 0.151555 0.735572
O O15 0.117725 0.348364 0.944906
O O16 0.500000 0.000000 0.000000
O O17 0.500000 0.500000 0.500000
#
# Coordination Sequence:
#
# PCOD9067927 Si02
#       8
#     2   2   2   2   2   2   2   2
#     4  12  23  45  72 101 148 188 234 301 362 433
#     4  12  26  47  73 108 148 191 244 300 365 439
#     4  11  26  50  69 108 142 188 249 298 364 429
#     4  11  26  46  74 102 144 190 241 308 359 429
#     4  12  25  46  70 108 147 188 243 293 369 437
#     4  12  27  44  75 103 146 190 240 300 362 438
#     4  12  26  46  72 109 145 193 239 296 370 437
#     4  12  27  48  74 105 143 192 248 298 369 433
#
# _framework density 26.467466999999999
#
# number of rings (size 3 to 8) (size 9 to 14) (size 15 to 20)
#    0.000    0.250    3.750    5.250    5.250    1.000 
#    4.500    0.000    0.000    0.000    0.000    0.000 
#    0.000    0.000    0.000    0.000    0.000    0.000 
#
# Total GULP energy -89824.182300 kJ/mol
# GULP energy per Si atom -5614.011394 kJ/mol
# Density = 2.640723 g / cm^3
# Si number density = 26.467467 Si / 1000 Ang^3
#
#
#
# Elastic Constant Matrix: (Units=GPa)
#
#
# Indices 1 2 3 4 5 6 
#
# 1 80.7118 20.4564 6.2563 9.0865 -2.0605 -0.5200
# 2 20.4564 125.5059 22.3701 7.7662 -0.0250 -10.1682
# 3 6.2563 22.3701 104.0243 16.9462 5.0701 14.7443
# 4 9.0865 7.7662 16.9462 42.1334 8.2560 -3.5266
# 5 -2.0605 -0.0250 5.0701 8.2560 42.1180 4.4075
# 6 -0.5200 -10.1682 14.7443 -3.5266 4.4075 41.5050
#
#
#
# Elastic Compliance Matrix: (Units=1/GPa)
#
#
# Indices 1 2 3 4 5 6 
#
# 1 0.013252 -0.002075 0.000163 -0.002854 0.001268 -0.000777
# 2 -0.002075 0.008941 -0.002204 -0.000040 -0.000132 0.002958
# 3 0.000163 -0.002204 0.011558 -0.004714 0.000068 -0.005051
# 4 -0.002854 -0.000040 -0.004714 0.027709 -0.005482 0.004565
# 5 0.001268 -0.000132 0.000068 -0.005482 0.025204 -0.003183
# 6 -0.000777 0.002958 -0.005051 0.004565 -0.003183 0.027329
#
#
# Mechanical properties :
#
#
# Convention : Reuss Voigt Hill
#
# Bulk Modulus (GPa) = 39.18879 45.37860 42.28369
# Shear Modulus (GPa) = 38.24623 42.56189 40.40406
#
# Velocity S-wave (km/s) = 3.80548 4.01444 3.91135
# Velocity P-wave (km/s) = 5.84358 6.21851 6.03396
#
# Compressibility (1/GPa) = 0.02551750
#
# Stress axis : x y z
#
# Youngs Moduli (GPa) = 75.46152 111.84482 86.52094
#
# Poissons Ratio (x) = 0.23208 -0.01407
# Poissons Ratio (y) = 0.15658 0.19071
# Poissons Ratio (z) = -0.01227 0.24652
#
# Static dielectric constant tensor:
#      x y z
#    x 1.998550 0.009020 -0.014910 
#    y 0.009020 2.094910 0.005530 
#    z -0.014910 0.005530 2.037820 
# 
# From -- ./inp_files/427973.got.cif
#   From: 2010.05.17/outbox.cif.g08.bks.cpg/sg2_214_cif.got.tgz:427973.got - 2010.06.03 11:33:40.
