data_PCOD9067205
_publ_section_title
;
Structure prediction by ZEFSAII (Michael W. Deem and Ramdas Pophale) SiO2 
 PCOD9067205
Probable space group: P -1
;
_chemical_formula_sum "Si O2"
_cell_formula_units_Z 14
_cell_length_a 9.358297
_cell_length_b 19.113982
_cell_length_c 5.542258
_cell_angle_alpha 84.468870
_cell_angle_beta 102.358026
_cell_angle_gamma 38.914531
_cell_volume 549.640771
_symmetry_space_group_name_H-M "P -1"
_symmetry_group_IT_number 2
_symmetry_cell_setting 'triclinic'
loop_
_space_group_symop_operation_xyz
x,y,z
-x,-y,-z
loop_
_atom_site_type_symbol
_atom_site_label
_atom_site_fract_x
_atom_site_fract_y
_atom_site_fract_z
Si Si1 0.291684 0.628510 0.019024
Si Si2 0.131427 0.103930 0.452963
Si Si3 0.455235 0.094429 0.742506
Si Si4 0.162288 0.349870 0.505957
Si Si5 0.442780 0.684781 0.396836
Si Si6 0.066517 0.034596 0.821114
Si Si7 0.875099 0.451676 0.874225
O O1 0.457761 0.612517 0.254447
O O2 0.133894 0.629824 0.099492
O O3 0.500000 0.500000 0.000000
O O4 0.098794 0.755326 0.763265
O O5 0.283134 0.092557 0.710421
O O6 0.043067 0.060056 0.515406
O O7 0.334449 0.009891 0.346419
O O8 0.258809 0.232243 0.547513
O O9 0.633528 0.065505 0.006101
O O10 0.404464 0.306033 0.623750
O O11 0.009038 0.418272 0.678831
O O12 0.011046 0.423283 0.177541
O O13 0.144679 0.822143 0.240964
O O14 0.591909 0.598372 0.715467
O O15 0.000000 0.000000 0.000000
#
# Coordination Sequence:
#
# PCOD9067205 Si02
#       7
#     2   2   2   2   2   2   2
#     4  12  26  50  78 118 153 206 264 326 391 465
#     4  11  26  47  77 106 154 206 263 318 394 469
#     4  11  25  48  73 111 148 209 261 316 389 472
#     4  12  28  50  81 114 160 208 263 321 395 475
#     4  12  27  49  76 115 157 203 256 335 396 459
#     4  12  26  46  72 112 152 197 254 328 396 462
#     4  12  28  51  80 113 158 212 264 317 390 477
#
# _framework density 25.47118
#
# number of rings (size 3 to 8) (size 9 to 14) (size 15 to 20)
#    0.000    0.286    4.286    3.429    4.000    2.857 
#    0.000    0.000    0.000    0.000    0.000    0.000 
#    0.000    0.000    0.000    0.000    0.000    0.000 
#
# Total GULP energy -78167.967847 kJ/mol
# GULP energy per Si atom -5583.426275 kJ/mol
# Density = 2.541321 g / cm^3
# Si number density = 25.471180 Si / 1000 Ang^3
#
#
#
# Elastic Constant Matrix: (Units=GPa)
#
#
# Indices 1 2 3 4 5 6 
#
# 1 154.7098 2.8979 40.6144 2.9796 -21.6090 2.2596
# 2 2.8979 105.9332 35.6897 -17.8415 -7.7530 -6.9332
# 3 40.6144 35.6897 123.6658 -16.7910 -12.5733 -8.1645
# 4 2.9796 -17.8415 -16.7910 39.2219 9.6023 -9.9922
# 5 -21.6090 -7.7530 -12.5733 9.6023 55.1401 -0.5149
# 6 2.2596 -6.9332 -8.1645 -9.9922 -0.5149 23.8652
#
#
#
# Elastic Compliance Matrix: (Units=1/GPa)
#
#
# Indices 1 2 3 4 5 6 
#
# 1 0.007747 0.000266 -0.002952 -0.003198 0.002930 -0.002942
# 2 0.000266 0.011445 -0.002324 0.005325 0.000300 0.004741
# 3 -0.002952 -0.002324 0.010799 0.005148 0.000133 0.005457
# 4 -0.003198 0.005325 0.005148 0.036497 -0.005511 0.018773
# 5 0.002930 0.000300 0.000133 -0.005511 0.020297 -0.002014
# 6 -0.002942 0.004741 0.005457 0.018773 -0.002014 0.053242
#
#
# Mechanical properties :
#
#
# Convention : Reuss Voigt Hill
#
# Bulk Modulus (GPa) = 50.06956 60.30143 55.18550
# Shear Modulus (GPa) = 31.90737 43.98592 37.94665
#
# Velocity S-wave (km/s) = 3.54317 4.16009 3.86396
# Velocity P-wave (km/s) = 6.03645 6.84112 6.45134
#
# Compressibility (1/GPa) = 0.01997221
#
# Stress axis : x y z
#
# Youngs Moduli (GPa) = 129.07551 87.37699 92.60025
#
# Poissons Ratio (x) = -0.02322 0.27332
# Poissons Ratio (y) = -0.03430 0.21516
# Poissons Ratio (z) = 0.38099 0.20303
#
# Static dielectric constant tensor:
#      x y z
#    x 2.149960 -0.005320 -0.005470 
#    y -0.005320 2.004740 0.066370 
#    z -0.005470 0.066370 2.168030 
# 
# From -- ./inp_files/52736.got.cif
#   From: 2010.05.17/outbox.cif.g08.bks.cpg/sg2_27_cif.got.tgz:52736.got - 2010.06.03 11:33:40.
