data_PCOD9067743
_publ_section_title
;
Structure prediction by ZEFSAII (Michael W. Deem and Ramdas Pophale) SiO2 
 PCOD9067743
Probable space group: P -1
;
_chemical_formula_sum "Si O2"
_cell_formula_units_Z 12
_cell_length_a 11.764666
_cell_length_b 8.291669
_cell_length_c 12.513089
_cell_angle_alpha 93.993692
_cell_angle_beta 148.517130
_cell_angle_gamma 65.804177
_cell_volume 470.525777
_symmetry_space_group_name_H-M "P -1"
_symmetry_group_IT_number 2
_symmetry_cell_setting 'triclinic'
loop_
_space_group_symop_operation_xyz
x,y,z
-x,-y,-z
loop_
_atom_site_type_symbol
_atom_site_label
_atom_site_fract_x
_atom_site_fract_y
_atom_site_fract_z
Si Si1 0.451890 0.148053 0.219873
Si Si2 0.587445 0.547868 0.181953
Si Si3 0.437547 0.269608 0.459627
Si Si4 0.232193 0.176826 0.713226
Si Si5 0.923991 0.243399 0.860843
Si Si6 0.908036 0.365088 0.094354
O O1 0.465273 0.206038 0.354407
O O2 0.285383 0.375597 0.033507
O O3 0.732212 0.952637 0.370050
O O4 0.238425 0.099196 0.052502
O O5 0.688997 0.677857 0.244079
O O6 0.286795 0.676649 0.012904
O O7 0.884628 0.332428 0.470239
O O8 0.500000 0.500000 0.000000
O O9 0.768644 0.150371 0.744841
O O10 0.267202 0.526181 0.346591
O O11 0.250833 0.240809 0.382515
O O12 0.500000 0.000000 0.000000
O O13 0.928775 0.322057 0.983703
#
# Coordination Sequence:
#
# PCOD9067743 Si02
#       6
#     2   2   2   2   2   2
#     4   9  18  34  58  91 123 160 210 253 305 374
#     4  11  26  45  65  93 128 167 213 265 317 372
#     4   8  15  29  54  89 124 160 201 250 309 369
#     4  11  26  45  66  93 126 168 215 262 316 377
#     4   8  15  29  55  87 122 161 199 249 309 368
#     4   9  18  34  58  90 125 160 205 257 308 368
#
# _framework density 25.503385000000002
#
# number of rings (size 3 to 8) (size 9 to 14) (size 15 to 20)
#    0.000    2.667    0.000    3.000    0.000   12.000 
#    0.000    3.333    0.000    6.000    0.000    0.000 
#    0.000    0.000    0.000    0.000    0.000    0.000 
#
# Total GULP energy -66958.552036 kJ/mol
# GULP energy per Si atom -5579.879336 kJ/mol
# Density = 2.544534 g / cm^3
# Si number density = 25.503385 Si / 1000 Ang^3
#
#
#
# Elastic Constant Matrix: (Units=GPa)
#
#
# Indices 1 2 3 4 5 6 
#
# 1 50.0966 3.4820 33.8665 -2.5995 16.1889 5.6203
# 2 3.4820 77.1300 27.1775 1.1974 0.9788 7.3452
# 3 33.8665 27.1775 138.6035 7.7933 2.1593 17.6506
# 4 -2.5995 1.1974 7.7933 34.4105 9.2245 5.5950
# 5 16.1889 0.9788 2.1593 9.2245 31.6254 4.2681
# 6 5.6203 7.3452 17.6506 5.5950 4.2681 35.3947
#
#
#
# Elastic Compliance Matrix: (Units=1/GPa)
#
#
# Indices 1 2 3 4 5 6 
#
# 1 0.031971 0.001620 -0.008298 0.009277 -0.018486 -0.000512
# 2 0.001620 0.014103 -0.002976 0.000875 -0.001087 -0.001707
# 3 -0.008298 -0.002976 0.010371 -0.003723 0.005159 -0.003270
# 4 0.009277 0.000875 -0.003723 0.034978 -0.014237 -0.003610
# 5 -0.018486 -0.001087 0.005159 -0.014237 0.045271 -0.002620
# 6 -0.000512 -0.001707 -0.003270 -0.003610 -0.002620 0.031206
#
#
# Mechanical properties :
#
#
# Convention : Reuss Voigt Hill
#
# Bulk Modulus (GPa) = 26.92679 43.87579 35.40129
# Shear Modulus (GPa) = 25.05160 33.70640 29.37900
#
# Velocity S-wave (km/s) = 3.13754 3.63939 3.39774
# Velocity P-wave (km/s) = 4.86894 5.90774 5.41332
#
# Compressibility (1/GPa) = 0.03713774
#
# Stress axis : x y z
#
# Youngs Moduli (GPa) = 31.27814 70.90477 96.41950
#
# Poissons Ratio (x) = -0.11486 0.80008
# Poissons Ratio (y) = -0.05067 0.28695
# Poissons Ratio (z) = 0.25954 0.21102
#
# Static dielectric constant tensor:
#      x y z
#    x 2.007530 0.044400 -0.058750 
#    y 0.044400 2.025100 -0.008540 
#    z -0.058750 -0.008540 2.107800 
# 
# From -- ./inp_files/514384.got.cif
#   From: 2010.05.17/outbox.cif.g08.bks.cpg/sg2_258_cif.got.tgz:514384.got - 2010.06.03 11:33:40.
