data_PCOD9067602
_publ_section_title
;
Structure prediction by ZEFSAII (Michael W. Deem and Ramdas Pophale) SiO2 
 PCOD9067602
Probable space group: P -1
;
_chemical_formula_sum "Si O2"
_cell_formula_units_Z 13
_cell_length_a 5.876040
_cell_length_b 8.032995
_cell_length_c 11.433351
_cell_angle_alpha 89.086374
_cell_angle_beta 70.807225
_cell_angle_gamma 90.609953
_cell_volume 509.545844
_symmetry_space_group_name_H-M "P -1"
_symmetry_group_IT_number 2
_symmetry_cell_setting 'triclinic'
loop_
_space_group_symop_operation_xyz
x,y,z
-x,-y,-z
loop_
_atom_site_type_symbol
_atom_site_label
_atom_site_fract_x
_atom_site_fract_y
_atom_site_fract_z
Si Si1 0.000000 0.000000 0.000000
Si Si2 0.261227 0.397952 0.074421
Si Si3 0.492218 0.877997 0.811670
Si Si4 0.913511 0.705952 0.149846
Si Si5 0.829109 0.618699 0.402154
Si Si6 0.370327 0.715554 0.601840
Si Si7 0.204570 0.887195 0.409985
O O1 0.990157 0.106055 0.874131
O O2 0.715662 0.050144 0.073066
O O3 0.334378 0.253074 0.152096
O O4 0.084028 0.546416 0.137759
O O5 0.500000 0.500000 0.000000
O O6 0.165129 0.308394 0.973324
O O7 0.348544 0.777023 0.735427
O O8 0.645382 0.015718 0.714288
O O9 0.735024 0.681754 0.289454
O O10 0.636704 0.643761 0.537437
O O11 0.834730 0.421425 0.389820
O O12 0.070395 0.723702 0.382342
O O13 0.356377 0.845741 0.499207
O O14 0.000000 0.000000 0.500000
#
# Coordination Sequence:
#
# PCOD9067602 Si02
#       7
#     1   2   2   2   2   2   2
#     4  12  28  48  76 112 154 214 258 324 390 462
#     4  11  25  51  73 113 151 215 254 318 396 473
#     4  12  27  49  85 114 166 207 267 328 398 469
#     4  11  27  45  78 111 157 198 264 319 390 479
#     4  11  26  48  79 114 150 207 256 325 393 482
#     4  11  26  51  77 115 157 206 258 325 394 475
#     4  12  27  46  79 118 153 204 259 328 404 462
#
# _framework density 25.512916000000001
#
# number of rings (size 3 to 8) (size 9 to 14) (size 15 to 20)
#    0.000    0.615    3.077    2.769    8.615    5.538 
#    0.000    0.000    0.000    0.000    0.000    0.000 
#    0.000    0.000    0.000    0.000    0.000    0.000 
#
# Total GULP energy -72522.269088 kJ/mol
# GULP energy per Si atom -5578.636084 kJ/mol
# Density = 2.545485 g / cm^3
# Si number density = 25.512916 Si / 1000 Ang^3
#
#
#
# Elastic Constant Matrix: (Units=GPa)
#
#
# Indices 1 2 3 4 5 6 
#
# 1 75.0072 49.3822 14.4044 -3.6328 12.2849 -8.7298
# 2 49.3822 122.9907 40.8484 -23.5044 13.9979 -10.8064
# 3 14.4044 40.8484 101.3081 -29.8831 -5.5703 -22.2982
# 4 -3.6328 -23.5044 -29.8831 54.7905 -6.8672 2.6645
# 5 12.2849 13.9979 -5.5703 -6.8672 43.9677 -2.3717
# 6 -8.7298 -10.8064 -22.2982 2.6645 -2.3717 51.2621
#
#
#
# Elastic Compliance Matrix: (Units=1/GPa)
#
#
# Indices 1 2 3 4 5 6 
#
# 1 0.018898 -0.007487 -0.000282 -0.002594 -0.003256 0.001502
# 2 -0.007487 0.013079 -0.003518 0.002950 -0.002073 -0.000298
# 3 -0.000282 -0.003518 0.014799 0.006832 0.004437 0.005498
# 4 -0.002594 0.002950 0.006832 0.023524 0.004440 0.002135
# 5 -0.003256 -0.002073 0.004437 0.004440 0.025672 0.001896
# 6 0.001502 -0.000298 0.005498 0.002135 0.001896 0.022069
#
#
# Mechanical properties :
#
#
# Convention : Reuss Voigt Hill
#
# Bulk Modulus (GPa) = 41.32001 56.50842 48.91421
# Shear Modulus (GPa) = 33.62877 42.98213 38.30545
#
# Velocity S-wave (km/s) = 3.63451 4.10899 3.87901
# Velocity P-wave (km/s) = 5.81754 6.68646 6.26708
#
# Compressibility (1/GPa) = 0.02420135
#
# Stress axis : x y z
#
# Youngs Moduli (GPa) = 52.91553 76.45820 67.57247
#
# Poissons Ratio (x) = 0.57247 0.01903
# Poissons Ratio (y) = 0.39620 0.23774
# Poissons Ratio (z) = 0.01490 0.26900
#
# Static dielectric constant tensor:
#      x y z
#    x 1.910860 -0.432130 -0.072030 
#    y -0.432130 0.715400 -0.347010 
#    z -0.072030 -0.347010 1.876710 
# 
# From -- ./inp_files/360159.got.cif
#   From: 2010.05.17/outbox.cif.g08.bks.cpg/sg2_181_cif.got.tgz:360159.got - 2010.06.03 11:33:40.
