data_PCOD9067272
_publ_section_title
;
Structure prediction by ZEFSAII (Michael W. Deem and Ramdas Pophale) SiO2 
 PCOD9067272
Probable space group: P -1
;
_chemical_formula_sum "Si O2"
_cell_formula_units_Z 16
_cell_length_a 11.453502
_cell_length_b 10.165563
_cell_length_c 9.183575
_cell_angle_alpha 123.621586
_cell_angle_beta 125.023362
_cell_angle_gamma 54.567086
_cell_volume 673.198293
_symmetry_space_group_name_H-M "P -1"
_symmetry_group_IT_number 2
_symmetry_cell_setting 'triclinic'
loop_
_space_group_symop_operation_xyz
x,y,z
-x,-y,-z
loop_
_atom_site_type_symbol
_atom_site_label
_atom_site_fract_x
_atom_site_fract_y
_atom_site_fract_z
Si Si1 0.453383 0.690388 0.373340
Si Si2 0.251813 0.786367 0.542200
Si Si3 0.382128 0.365254 0.811093
Si Si4 0.458346 0.200630 0.074698
Si Si5 0.057104 0.162390 0.508372
Si Si6 0.059353 0.504132 0.710348
Si Si7 0.714516 0.918273 0.603216
Si Si8 0.262169 0.288365 0.250854
O O1 0.321096 0.677153 0.377085
O O2 0.500228 0.600383 0.195488
O O3 0.615106 0.640600 0.545684
O O4 0.384230 0.894395 0.412071
O O5 0.403632 0.765347 0.726302
O O6 0.123211 0.761934 0.536315
O O7 0.157502 0.984562 0.548451
O O8 0.221331 0.524831 0.824446
O O9 0.333537 0.226133 0.597566
O O10 0.447301 0.268970 0.947070
O O11 0.302029 0.281069 0.106829
O O12 0.500000 0.000000 0.000000
O O13 0.106906 0.312905 0.690039
O O14 0.110610 0.126229 0.355938
O O15 0.000000 0.500000 0.500000
O O16 0.914666 0.617004 0.771752
O O17 0.697672 0.893170 0.747014
#
# Coordination Sequence:
#
# PCOD9067272 Si02
#       8
#     2   2   2   2   2   2   2   2
#     4   9  15  28  47  71  97 125 174 209 241 289
#     4   9  19  33  53  77 100 133 171 214 255 290
#     4  10  18  28  48  72 100 129 160 210 252 293
#     4  11  20  32  50  76 107 134 166 212 258 297
#     4   9  17  32  54  77 101 129 170 216 252 295
#     4  11  18  32  54  80  98 132 173 212 251 299
#     4   9  15  28  51  75  93 127 171 217 246 283
#     4  10  18  29  49  78 101 128 174 208 252 298
#
# _framework density 23.767143999999998
#
# number of rings (size 3 to 8) (size 9 to 14) (size 15 to 20)
#    0.000    2.250    3.750    5.250    0.000    0.500 
#    0.000    2.500    0.000   15.750    0.000    0.000 
#    0.000    0.000    0.000    0.000    0.000    0.000 
#
# Total GULP energy -89206.496770 kJ/mol
# GULP energy per Si atom -5575.406048 kJ/mol
# Density = 2.371305 g / cm^3
# Si number density = 23.767144 Si / 1000 Ang^3
#
#
#
# Elastic Constant Matrix: (Units=GPa)
#
#
# Indices 1 2 3 4 5 6 
#
# 1 202.4446 34.0664 48.5511 -3.4938 -26.7625 -54.9362
# 2 34.0664 71.4322 5.9279 -2.6945 -5.4322 -19.8221
# 3 48.5511 5.9279 67.8270 -13.9810 -26.3138 -8.7924
# 4 -3.4938 -2.6945 -13.9810 15.3840 -1.0134 -0.6033
# 5 -26.7625 -5.4322 -26.3138 -1.0134 33.8862 2.4972
# 6 -54.9362 -19.8221 -8.7924 -0.6033 2.4972 56.6378
#
#
#
# Elastic Compliance Matrix: (Units=1/GPa)
#
#
# Indices 1 2 3 4 5 6 
#
# 1 0.008404 -0.001666 -0.004543 -0.002097 0.002283 0.006740
# 2 -0.001666 0.016234 0.002669 0.005274 0.003193 0.004395
# 3 -0.004543 0.002669 0.033681 0.031658 0.023864 0.001041
# 4 -0.002097 0.005274 0.031658 0.096134 0.026309 0.004590
# 5 0.002283 0.003193 0.023864 0.026309 0.050770 0.005079
# 6 0.006740 0.004395 0.001041 0.004590 0.005079 0.025719
#
#
# Mechanical properties :
#
#
# Convention : Reuss Voigt Hill
#
# Bulk Modulus (GPa) = 19.51608 57.64384 38.57996
# Shear Modulus (GPa) = 19.60011 38.05882 28.82947
#
# Velocity S-wave (km/s) = 2.87483 4.00599 3.48659
# Velocity P-wave (km/s) = 4.38733 6.76044 5.69878
#
# Compressibility (1/GPa) = 0.05123979
#
# Stress axis : x y z
#
# Youngs Moduli (GPa) = 118.98784 61.60010 29.69043
#
# Poissons Ratio (x) = 0.10263 0.13488
# Poissons Ratio (y) = 0.19824 -0.07926
# Poissons Ratio (z) = 0.54056 -0.16444
#
# Static dielectric constant tensor:
#      x y z
#    x 2.067920 0.009400 -0.002850 
#    y 0.009400 1.969530 0.025400 
#    z -0.002850 0.025400 1.910010 
# 
# From -- ./inp_files/262818.got.cif
#   From: 2010.05.17/outbox.cif.g08.bks.cpg/sg2_132_cif.got.tgz:262818.got - 2010.06.03 11:33:40.
