data_PCOD9067906
_publ_section_title
;
Structure prediction by ZEFSAII (Michael W. Deem and Ramdas Pophale) SiO2 
 PCOD9067906
Probable space group: P -1
;
_chemical_formula_sum "Si O2"
_cell_formula_units_Z 13
_cell_length_a 9.296552
_cell_length_b 18.163456
_cell_length_c 15.107062
_cell_angle_alpha 20.599738
_cell_angle_beta 40.012904
_cell_angle_gamma 41.232821
_cell_volume 570.075084
_symmetry_space_group_name_H-M "P -1"
_symmetry_group_IT_number 2
_symmetry_cell_setting 'triclinic'
loop_
_space_group_symop_operation_xyz
x,y,z
-x,-y,-z
loop_
_atom_site_type_symbol
_atom_site_label
_atom_site_fract_x
_atom_site_fract_y
_atom_site_fract_z
Si Si1 0.500000 0.000000 0.500000
Si Si2 0.952446 0.293859 0.705273
Si Si3 0.083052 0.191854 0.190823
Si Si4 0.547151 0.541805 0.218009
Si Si5 0.360847 0.472423 0.007210
Si Si6 0.925094 0.935643 0.255827
Si Si7 0.310306 0.905563 0.249867
O O1 0.683387 0.036987 0.294263
O O2 0.661602 0.774167 0.701786
O O3 0.681342 0.325406 0.784722
O O4 0.000000 0.500000 0.500000
O O5 0.081100 0.255650 0.594563
O O6 0.017175 0.104024 0.957658
O O7 0.867056 0.358323 0.074440
O O8 0.215184 0.077965 0.173926
O O9 0.247030 0.323897 0.018640
O O10 0.000000 0.000000 0.500000
O O11 0.524702 0.491163 0.181648
O O12 0.601232 0.319164 0.493754
O O13 0.500000 0.500000 0.000000
O O14 0.106800 0.877730 0.311419
O O15 0.500000 0.000000 0.000000
#
# Coordination Sequence:
#
# PCOD9067906 Si02
#       7
#     1   2   2   2   2   2   2
#     4  12  26  44  76 110 152 186 268 312 390 440
#     4  11  26  48  74 106 156 201 257 310 391 459
#     4  12  28  49  80 113 159 205 261 325 397 464
#     4  12  27  49  77 114 155 207 260 325 392 464
#     4  12  28  46  77 114 153 204 256 324 389 465
#     4  11  26  46  72 110 147 200 253 322 374 465
#     4  12  27  49  78 111 156 204 261 319 394 468
#
# _framework density 22.804012
#
# number of rings (size 3 to 8) (size 9 to 14) (size 15 to 20)
#    0.000    0.308    3.077    4.154    6.462    6.154 
#    0.000    0.000    0.000    0.000    0.000    0.000 
#    0.000    0.000    0.000    0.000    0.000    0.000 
#
# Total GULP energy -72543.681664 kJ/mol
# GULP energy per Si atom -5580.283205 kJ/mol
# Density = 2.275211 g / cm^3
# Si number density = 22.804012 Si / 1000 Ang^3
#
#
#
# Elastic Constant Matrix: (Units=GPa)
#
#
# Indices 1 2 3 4 5 6 
#
# 1 137.3670 51.1819 53.7967 3.4285 10.5146 2.4227
# 2 51.1819 130.9740 55.2719 10.4768 12.2884 -1.3736
# 3 53.7967 55.2719 134.8644 -8.3247 15.7356 -5.3847
# 4 3.4285 10.4768 -8.3247 44.9095 -12.0116 11.2275
# 5 10.5146 12.2884 15.7356 -12.0116 39.3844 -5.2557
# 6 2.4227 -1.3736 -5.3847 11.2275 -5.2557 45.1462
#
#
#
# Elastic Compliance Matrix: (Units=1/GPa)
#
#
# Indices 1 2 3 4 5 6 
#
# 1 0.009332 -0.002356 -0.002718 -0.000727 -0.001003 -0.000833
# 2 -0.002356 0.010457 -0.003270 -0.003669 -0.002354 0.000693
# 3 -0.002718 -0.003270 0.010183 0.002318 -0.001548 0.000504
# 4 -0.000727 -0.003669 0.002318 0.027136 0.007939 -0.005621
# 5 -0.001003 -0.002354 -0.001548 0.007939 0.029602 0.001269
# 6 -0.000833 0.000693 0.000504 -0.005621 0.001269 0.023822
#
#
# Mechanical properties :
#
#
# Convention : Reuss Voigt Hill
#
# Bulk Modulus (GPa) = 75.27873 80.41184 77.84529
# Shear Modulus (GPa) = 37.97997 42.08503 40.03250
#
# Velocity S-wave (km/s) = 4.08548 4.30060 4.19442
# Velocity P-wave (km/s) = 7.43893 7.74590 7.59396
#
# Compressibility (1/GPa) = 0.01328396
#
# Stress axis : x y z
#
# Youngs Moduli (GPa) = 107.16261 95.62606 98.20277
#
# Poissons Ratio (x) = 0.22531 0.26689
# Poissons Ratio (y) = 0.25250 0.32113
# Poissons Ratio (z) = 0.29124 0.31271
#
# Static dielectric constant tensor:
#      x y z
#    x 1.868310 0.045250 -0.042190 
#    y 0.045250 1.836090 -0.024680 
#    z -0.042190 -0.024680 1.865120 
# 
# From -- ./inp_files/187178.got.cif
#   From: 2010.05.17/outbox.cif.g08.bks.cpg/sg2_94_cif.got.tgz:187178.got - 2010.06.03 11:33:40.
