data_PCOD9067110
_publ_section_title
;
Structure prediction by ZEFSAII (Michael W. Deem and Ramdas Pophale) SiO2 
 PCOD9067110
Probable space group: P -1
;
_chemical_formula_sum "Si O2"
_cell_formula_units_Z 16
_cell_length_a 5.030427
_cell_length_b 22.504545
_cell_length_c 6.315317
_cell_angle_alpha 105.950473
_cell_angle_beta 94.529413
_cell_angle_gamma 109.436767
_cell_volume 636.686416
_symmetry_space_group_name_H-M "P -1"
_symmetry_group_IT_number 2
_symmetry_cell_setting 'triclinic'
loop_
_space_group_symop_operation_xyz
x,y,z
-x,-y,-z
loop_
_atom_site_type_symbol
_atom_site_label
_atom_site_fract_x
_atom_site_fract_y
_atom_site_fract_z
Si Si1 0.094735 0.358053 0.482846
Si Si2 0.875848 0.239884 0.637511
Si Si3 0.567518 0.487369 0.753297
Si Si4 0.383561 0.888570 0.762283
Si Si5 0.050577 0.068052 0.449282
Si Si6 0.411802 0.167548 0.893168
Si Si7 0.661726 0.706890 0.936347
Si Si8 0.802818 0.429219 0.259705
O O1 0.396346 0.408531 0.640288
O O2 0.166103 0.319699 0.249651
O O3 0.891143 0.305404 0.580403
O O4 0.929658 0.404806 0.445429
O O5 0.829343 0.183417 0.404700
O O6 0.638288 0.207038 0.767616
O O7 0.167539 0.265194 0.812035
O O8 0.593033 0.468425 0.332497
O O9 0.910464 0.523123 0.789690
O O10 0.500000 0.500000 0.000000
O O11 0.671948 0.911505 0.663691
O O12 0.470351 0.877859 0.996236
O O13 0.788749 0.065463 0.277568
O O14 0.130472 0.122163 0.700007
O O15 0.000000 0.000000 0.500000
O O16 0.382744 0.227376 0.090012
O O17 0.386292 0.642319 0.918255
#
# Coordination Sequence:
#
# PCOD9067110 Si02
#       8
#     2   2   2   2   2   2   2   2
#     4  12  28  45  77 107 144 195 251 318 390 456
#     4  11  25  48  70 113 149 198 254 313 383 451
#     4  12  28  50  74 102 143 191 249 318 390 467
#     4  11  25  47  80 112 160 203 257 313 381 444
#     4  11  26  49  79 120 161 204 258 311 373 454
#     4  11  27  47  79 112 162 204 258 316 380 453
#     4  12  25  45  75 105 153 190 258 314 385 453
#     4  12  26  50  71 102 142 188 248 313 384 463
#
# _framework density 25.130109000000001
#
# number of rings (size 3 to 8) (size 9 to 14) (size 15 to 20)
#    0.000    0.500    2.500    4.500    7.000    2.000 
#    0.000    0.000    0.000    0.000    0.000    0.000 
#    0.000    0.000    0.000    0.000    0.000    0.000 
#
# Total GULP energy -89542.209042 kJ/mol
# GULP energy per Si atom -5596.388065 kJ/mol
# Density = 2.507291 g / cm^3
# Si number density = 25.130109 Si / 1000 Ang^3
#
#
#
# Elastic Constant Matrix: (Units=GPa)
#
#
# Indices 1 2 3 4 5 6 
#
# 1 120.9870 12.4629 18.4034 -15.3803 -3.9340 -13.7286
# 2 12.4629 106.6599 27.8524 -20.2212 -10.4544 -21.8716
# 3 18.4034 27.8524 51.0781 -23.9403 7.8999 1.9434
# 4 -15.3803 -20.2212 -23.9403 44.3253 -1.7361 9.2829
# 5 -3.9340 -10.4544 7.8999 -1.7361 34.9643 -6.9728
# 6 -13.7286 -21.8716 1.9434 9.2829 -6.9728 35.0701
#
#
#
# Elastic Compliance Matrix: (Units=1/GPa)
#
#
# Indices 1 2 3 4 5 6 
#
# 1 0.009726 0.001940 -0.005284 0.000301 0.004089 0.006044
# 2 0.001940 0.015895 -0.011946 -0.000981 0.010344 0.013651
# 3 -0.005284 -0.011946 0.039413 0.017463 -0.016098 -0.019525
# 4 0.000301 -0.000981 0.017463 0.033843 -0.004793 -0.011373
# 5 0.004089 0.010344 -0.016098 -0.004793 0.039141 0.017994
# 6 0.006044 0.013651 -0.019525 -0.011373 0.017994 0.047064
#
#
# Mechanical properties :
#
#
# Convention : Reuss Voigt Hill
#
# Bulk Modulus (GPa) = 29.02220 44.01807 36.52013
# Shear Modulus (GPa) = 22.01223 37.53901 29.77562
#
# Velocity S-wave (km/s) = 2.96282 3.86915 3.44591
# Velocity P-wave (km/s) = 4.82476 6.12491 5.51329
#
# Compressibility (1/GPa) = 0.03445638
#
# Stress axis : x y z
#
# Youngs Moduli (GPa) = 102.81579 62.91103 25.37232
#
# Poissons Ratio (x) = -0.12207 0.13406
# Poissons Ratio (y) = -0.19950 0.30309
# Poissons Ratio (z) = 0.54325 0.75152
#
# Static dielectric constant tensor:
#      x y z
#    x 2.055440 -0.056770 0.073070 
#    y -0.056770 1.989870 0.002870 
#    z 0.073070 0.002870 2.207050 
# 
# From -- ./inp_files/14127.got.cif
#   From: 2010.05.17/outbox.cif.g08.bks.cpg/sg2_8_cif.got.tgz:14127.got - 2010.06.03 11:33:40.
