data_PCOD9067996
_publ_section_title
;
Structure prediction by ZEFSAII (Michael W. Deem and Ramdas Pophale) SiO2 
 PCOD9067996
Probable space group: P -1
;
_chemical_formula_sum "Si O2"
_cell_formula_units_Z 16
_cell_length_a 8.610515
_cell_length_b 9.262714
_cell_length_c 14.056112
_cell_angle_alpha 86.344725
_cell_angle_beta 54.961923
_cell_angle_gamma 119.539476
_cell_volume 697.552016
_symmetry_space_group_name_H-M "P -1"
_symmetry_group_IT_number 2
_symmetry_cell_setting 'triclinic'
loop_
_space_group_symop_operation_xyz
x,y,z
-x,-y,-z
loop_
_atom_site_type_symbol
_atom_site_label
_atom_site_fract_x
_atom_site_fract_y
_atom_site_fract_z
Si Si1 0.344865 0.531622 0.358308
Si Si2 0.047033 0.019882 0.699855
Si Si3 0.183434 0.017597 0.856198
Si Si4 0.802055 0.287605 0.044196
Si Si5 0.223304 0.831737 0.139234
Si Si6 0.967694 0.495787 0.363125
Si Si7 0.628275 0.773572 0.710646
Si Si8 0.516277 0.162919 0.433960
O O1 0.573566 0.758069 0.252087
O O2 0.217015 0.499924 0.506653
O O3 0.430121 0.411017 0.308362
O O4 0.104783 0.443101 0.378993
O O5 0.891847 0.892700 0.667177
O O6 0.925648 0.107911 0.771677
O O7 0.056971 0.937744 0.799463
O O8 0.327892 0.170431 0.559057
O O9 0.236515 0.881959 0.879514
O O10 0.000000 0.000000 0.000000
O O11 0.549582 0.255954 0.141391
O O12 0.897919 0.287682 0.908032
O O13 0.000000 0.500000 0.000000
O O14 0.198245 0.700719 0.233900
O O15 0.500000 0.000000 0.000000
O O16 0.798376 0.351398 0.343974
O O17 0.580654 0.866021 0.638500
O O18 0.500000 0.000000 0.500000
#
# Coordination Sequence:
#
# PCOD9067996 Si02
#       8
#     2   2   2   2   2   2   2   2
#     4  11  26  49  75 115 147 200 254 314 388 453
#     4  12  26  45  76 109 151 198 255 310 384 447
#     4  12  25  48  78 109 152 199 255 309 379 461
#     4  12  26  46  72 108 150 198 252 315 374 452
#     4  12  25  48  73 109 148 203 252 311 384 457
#     4  11  26  46  79 103 154 198 257 316 379 457
#     4  12  27  45  73 111 153 193 254 316 378 450
#     4  12  26  47  75 111 155 200 252 313 386 450
#
# _framework density 22.937355
#
# number of rings (size 3 to 8) (size 9 to 14) (size 15 to 20)
#    0.000    0.250    3.750    4.875    1.750    3.000 
#    0.000    1.875    0.000    0.000    0.000    0.000 
#    0.000    0.000    0.000    0.000    0.000    0.000 
#
# Total GULP energy -89350.078443 kJ/mol
# GULP energy per Si atom -5584.379903 kJ/mol
# Density = 2.288515 g / cm^3
# Si number density = 22.937355 Si / 1000 Ang^3
#
#
#
# Elastic Constant Matrix: (Units=GPa)
#
#
# Indices 1 2 3 4 5 6 
#
# 1 102.3054 45.9590 21.9664 -6.0555 7.1611 15.3809
# 2 45.9590 125.7784 37.8289 0.4779 3.3569 -5.1970
# 3 21.9664 37.8289 98.4981 -7.0594 6.1468 7.5894
# 4 -6.0555 0.4779 -7.0594 35.7842 4.6756 -3.3161
# 5 7.1611 3.3569 6.1468 4.6756 38.4500 2.2293
# 6 15.3809 -5.1970 7.5894 -3.3161 2.2293 40.3648
#
#
#
# Elastic Compliance Matrix: (Units=1/GPa)
#
#
# Indices 1 2 3 4 5 6 
#
# 1 0.013069 -0.004831 -0.000396 0.001956 -0.001882 -0.005263
# 2 -0.004831 0.010929 -0.003538 -0.001371 0.000459 0.003775
# 3 -0.000396 -0.003538 0.012051 0.002368 -0.001700 -0.002282
# 4 0.001956 -0.001371 0.002368 0.029440 -0.004278 0.001288
# 5 -0.001882 0.000459 -0.001700 -0.004278 0.027154 -0.000755
# 6 -0.005263 0.003775 -0.002282 0.001288 -0.000755 0.027842
#
#
# Mechanical properties :
#
#
# Convention : Reuss Voigt Hill
#
# Bulk Modulus (GPa) = 53.99796 59.78783 56.89289
# Shear Modulus (GPa) = 34.67740 37.64163 36.15952
#
# Velocity S-wave (km/s) = 3.89245 4.05540 3.97476
# Velocity P-wave (km/s) = 6.61771 6.93186 6.77660
#
# Compressibility (1/GPa) = 0.01851922
#
# Stress axis : x y z
#
# Youngs Moduli (GPa) = 76.51979 91.50357 82.97992
#
# Poissons Ratio (x) = 0.44203 0.03287
# Poissons Ratio (y) = 0.36965 0.29356
# Poissons Ratio (z) = 0.03031 0.32371
#
# Static dielectric constant tensor:
#      x y z
#    x 2.900730 0.763200 0.133450 
#    y 0.763200 2.459290 0.050860 
#    z 0.133450 0.050860 1.913380 
# 
# From -- ./inp_files/494818.got.cif
#   From: 2010.05.17/outbox.cif.g08.bks.cpg/sg2_248_cif.got.tgz:494818.got - 2010.06.03 11:33:40.
