data_PCOD9067549
_publ_section_title
;
Structure prediction by ZEFSAII (Michael W. Deem and Ramdas Pophale) SiO2 
 PCOD9067549
Probable space group: P -1
;
_chemical_formula_sum "Si O2"
_cell_formula_units_Z 13
_cell_length_a 7.417944
_cell_length_b 6.841914
_cell_length_c 11.595578
_cell_angle_alpha 85.700913
_cell_angle_beta 75.463910
_cell_angle_gamma 57.755654
_cell_volume 480.566296
_symmetry_space_group_name_H-M "P -1"
_symmetry_group_IT_number 2
_symmetry_cell_setting 'triclinic'
loop_
_space_group_symop_operation_xyz
x,y,z
-x,-y,-z
loop_
_atom_site_type_symbol
_atom_site_label
_atom_site_fract_x
_atom_site_fract_y
_atom_site_fract_z
Si Si1 0.765137 0.013915 0.790627
Si Si2 0.250416 0.717524 0.018459
Si Si3 0.766989 0.028764 0.526073
Si Si4 0.823661 0.458892 0.185199
Si Si5 0.648590 0.965150 0.157665
Si Si6 0.000000 0.500000 0.500000
Si Si7 0.523423 0.640259 0.642658
O O1 0.697531 0.072846 0.667457
O O2 0.547375 0.037945 0.876569
O O3 0.967589 0.749184 0.773839
O O4 0.823441 0.176406 0.845990
O O5 0.151467 0.615678 0.949861
O O6 0.240035 0.930259 0.942226
O O7 0.500000 0.500000 0.000000
O O8 0.824059 0.776528 0.489092
O O9 0.603519 0.235095 0.460353
O O10 0.000000 0.000000 0.500000
O O11 0.612215 0.463174 0.271261
O O12 0.802298 0.703126 0.188527
O O13 0.536920 0.151018 0.269031
O O14 0.214947 0.510209 0.413185
#
# Coordination Sequence:
#
# PCOD9067549 Si02
#       7
#     2   2   2   2   2   1   2
#     4  12  25  48  76 111 146 204 249 308 384 440
#     4  11  25  50  78 109 153 194 251 317 376 451
#     4  12  28  48  73 110 152 197 255 310 373 455
#     4  11  26  48  78 108 153 198 251 316 378 448
#     4  11  26  48  75 111 152 195 252 314 372 455
#     4  12  28  44  76 104 150 206 248 312 374 444
#     4  11  27  48  73 113 152 199 256 311 377 456
#
# _framework density 27.051417000000001
#
# number of rings (size 3 to 8) (size 9 to 14) (size 15 to 20)
#    0.000    0.615    4.615    1.385    4.308    1.231 
#    5.538    0.000    0.000    0.000    0.000    0.000 
#    0.000    0.000    0.000    0.000    0.000    0.000 
#
# Total GULP energy -72604.638246 kJ/mol
# GULP energy per Si atom -5584.972173 kJ/mol
# Density = 2.698985 g / cm^3
# Si number density = 27.051417 Si / 1000 Ang^3
#
#
#
# Elastic Constant Matrix: (Units=GPa)
#
#
# Indices 1 2 3 4 5 6 
#
# 1 89.6149 16.8619 34.7672 -1.3918 -7.1889 -0.0387
# 2 16.8619 194.6625 35.4951 28.0274 -5.9089 -8.1204
# 3 34.7672 35.4951 142.6518 -7.7080 2.5636 -8.7571
# 4 -1.3918 28.0274 -7.7080 28.7729 -1.9077 -13.3121
# 5 -7.1889 -5.9089 2.5636 -1.9077 47.7529 -0.6778
# 6 -0.0387 -8.1204 -8.7571 -13.3121 -0.6778 52.8626
#
#
#
# Elastic Compliance Matrix: (Units=1/GPa)
#
#
# Indices 1 2 3 4 5 6 
#
# 1 0.012581 -0.000541 -0.002984 0.000245 0.001990 -0.000481
# 2 -0.000541 0.006595 -0.001998 -0.007507 0.000525 -0.001202
# 3 -0.002984 -0.001998 0.008680 0.005187 -0.000921 0.002423
# 4 0.000245 -0.007507 0.005187 0.049126 0.000964 0.012090
# 5 0.001990 0.000525 -0.000921 0.000964 0.021400 0.000447
# 6 -0.000481 -0.001202 0.002423 0.012090 0.000447 0.022184
#
#
# Mechanical properties :
#
#
# Convention : Reuss Voigt Hill
#
# Bulk Modulus (GPa) = 59.48400 66.79750 63.14075
# Shear Modulus (GPa) = 36.43912 48.53134 42.48523
#
# Velocity S-wave (km/s) = 3.67417 4.24021 3.96730
# Velocity P-wave (km/s) = 6.32743 6.97989 6.66165
#
# Compressibility (1/GPa) = 0.01681124
#
# Stress axis : x y z
#
# Youngs Moduli (GPa) = 79.48183 151.63332 115.20658
#
# Poissons Ratio (x) = 0.08199 0.34376
# Poissons Ratio (y) = 0.04298 0.23018
# Poissons Ratio (z) = 0.23716 0.30296
#
# Static dielectric constant tensor:
#      x y z
#    x 2.119190 0.079080 0.100050 
#    y 0.079080 2.141770 -0.035430 
#    z 0.100050 -0.035430 2.105300 
# 
# From -- ./inp_files/34232.got.cif
#   From: 2010.05.17/outbox.cif.g08.bks.cpg/sg2_18_cif.got.tgz:34232.got - 2010.06.03 11:33:40.
