data_PCOD9067587
_publ_section_title
;
Structure prediction by ZEFSAII (Michael W. Deem and Ramdas Pophale) SiO2 
 PCOD9067587
Probable space group: P -1
;
_chemical_formula_sum "Si O2"
_cell_formula_units_Z 12
_cell_length_a 13.619265
_cell_length_b 9.146032
_cell_length_c 4.911269
_cell_angle_alpha 52.455452
_cell_angle_beta 120.410362
_cell_angle_gamma 112.282188
_cell_volume 416.076330
_symmetry_space_group_name_H-M "P -1"
_symmetry_group_IT_number 2
_symmetry_cell_setting 'triclinic'
loop_
_space_group_symop_operation_xyz
x,y,z
-x,-y,-z
loop_
_atom_site_type_symbol
_atom_site_label
_atom_site_fract_x
_atom_site_fract_y
_atom_site_fract_z
Si Si1 0.714619 0.829168 0.353386
Si Si2 0.859294 0.084814 0.584845
Si Si3 0.765926 0.356513 0.499180
Si Si4 0.600982 0.358245 0.757389
Si Si5 0.432011 0.299543 0.217771
Si Si6 0.087791 0.274377 0.640464
O O1 0.619367 0.800959 0.011977
O O2 0.673587 0.711734 0.701030
O O3 0.827506 0.770348 0.431719
O O4 0.749875 0.030995 0.301357
O O5 0.824293 0.172510 0.719718
O O6 0.955035 0.231808 0.420101
O O7 0.902117 0.886716 0.938661
O O8 0.704579 0.408710 0.632607
O O9 0.866402 0.524342 0.414185
O O10 0.523877 0.206246 0.638317
O O11 0.663953 0.330572 0.158542
O O12 0.500000 0.500000 0.500000
O O13 0.500000 0.500000 0.000000
#
# Coordination Sequence:
#
# PCOD9067587 Si02
#       6
#     2   2   2   2   2   2
#     4  12  24  46  76 113 154 202 254 324 383 463
#     4  11  28  50  76 122 155 203 264 320 387 464
#     4  12  28  49  80 113 158 200 261 322 380 469
#     4  12  25  46  77 113 144 205 260 312 386 462
#     4  12  24  41  77 111 146 198 267 307 385 468
#     4  11  25  50  83 110 161 211 251 317 397 463
#
# _framework density 28.840861
#
# number of rings (size 3 to 8) (size 9 to 14) (size 15 to 20)
#    0.000    0.333    1.667    8.000    7.000    0.000 
#    0.000    6.667    0.000    0.000    0.000    0.000 
#    0.000    0.000    0.000    0.000    0.000    0.000 
#
# Total GULP energy -66987.365823 kJ/mol
# GULP energy per Si atom -5582.280485 kJ/mol
# Density = 2.877522 g / cm^3
# Si number density = 28.840861 Si / 1000 Ang^3
#
#
#
# Elastic Constant Matrix: (Units=GPa)
#
#
# Indices 1 2 3 4 5 6 
#
# 1 133.6345 66.3253 23.7080 10.7504 -28.9538 15.2955
# 2 66.3253 211.3656 52.7017 22.2641 -11.3718 9.4546
# 3 23.7080 52.7017 68.6100 29.4398 -18.8086 -8.1412
# 4 10.7504 22.2641 29.4398 52.8601 -16.3339 -6.6382
# 5 -28.9538 -11.3718 -18.8086 -16.3339 43.6108 10.3340
# 6 15.2955 9.4546 -8.1412 -6.6382 10.3340 56.5554
#
#
#
# Elastic Compliance Matrix: (Units=1/GPa)
#
#
# Indices 1 2 3 4 5 6 
#
# 1 0.011003 -0.002882 -0.000404 0.001099 0.007699 -0.003830
# 2 -0.002882 0.006764 -0.004704 -0.000398 -0.002167 -0.000679
# 3 -0.000404 -0.004704 0.023999 -0.009547 0.004719 0.002367
# 4 0.001099 -0.000398 -0.009547 0.026143 0.006223 0.000327
# 5 0.007699 -0.002167 0.004719 0.006223 0.033360 -0.006406
# 6 -0.003830 -0.000679 0.002367 0.000327 -0.006406 0.020381
#
#
# Mechanical properties :
#
#
# Convention : Reuss Voigt Hill
#
# Bulk Modulus (GPa) = 38.77912 77.67556 58.22734
# Shear Modulus (GPa) = 34.19399 48.66361 41.42880
#
# Velocity S-wave (km/s) = 3.44700 4.11215 3.79418
# Velocity P-wave (km/s) = 5.41457 7.03827 6.27913
#
# Compressibility (1/GPa) = 0.02578708
#
# Stress axis : x y z
#
# Youngs Moduli (GPa) = 90.88225 147.83910 41.66898
#
# Poissons Ratio (x) = 0.42613 0.01682
# Poissons Ratio (y) = 0.26196 0.19599
# Poissons Ratio (z) = 0.03668 0.69536
#
# Static dielectric constant tensor:
#      x y z
#    x 2.343950 0.056060 0.079370 
#    y 0.056060 2.474200 0.063350 
#    z 0.079370 0.063350 2.576620 
# 
# From -- ./inp_files/33808.got.cif
#   From: 2010.05.17/outbox.cif.g08.bks.cpg/sg2_17_cif.got.tgz:33808.got - 2010.06.03 11:33:40.
