data_PCOD9067213
_publ_section_title
;
Structure prediction by ZEFSAII (Michael W. Deem and Ramdas Pophale) SiO2 
 PCOD9067213
Probable space group: P -1
;
_chemical_formula_sum "Si O2"
_cell_formula_units_Z 16
_cell_length_a 17.674961
_cell_length_b 12.723638
_cell_length_c 7.733272
_cell_angle_alpha 102.866345
_cell_angle_beta 114.424656
_cell_angle_gamma 25.323664
_cell_volume 624.264887
_symmetry_space_group_name_H-M "P -1"
_symmetry_group_IT_number 2
_symmetry_cell_setting 'triclinic'
loop_
_space_group_symop_operation_xyz
x,y,z
-x,-y,-z
loop_
_atom_site_type_symbol
_atom_site_label
_atom_site_fract_x
_atom_site_fract_y
_atom_site_fract_z
Si Si1 0.747714 0.888630 0.330903
Si Si2 0.923283 0.277379 0.755342
Si Si3 0.487633 0.408068 0.226087
Si Si4 0.773542 0.237604 0.545761
Si Si5 0.862691 0.298669 0.111856
Si Si6 0.875909 0.758755 0.943723
Si Si7 0.133218 0.477385 0.744815
Si Si8 0.511255 0.113850 0.539616
O O1 0.740514 0.780865 0.191433
O O2 0.644665 0.982757 0.450144
O O3 0.988724 0.628648 0.497140
O O4 0.623091 0.139582 0.244750
O O5 0.911396 0.178039 0.606414
O O6 0.713610 0.578463 0.600184
O O7 0.910762 0.254591 0.936454
O O8 0.081552 0.189748 0.873088
O O9 0.631257 0.341712 0.315098
O O10 0.390022 0.531650 0.373747
O O11 0.293967 0.615520 0.995792
O O12 0.928732 0.970090 0.686648
O O13 0.763356 0.528832 0.167553
O O14 0.638528 0.014107 0.780855
O O15 0.977232 0.675578 0.828913
O O16 0.000000 0.500000 0.000000
O O17 0.500000 0.000000 0.500000
#
# Coordination Sequence:
#
# PCOD9067213 Si02
#       8
#     2   2   2   2   2   2   2   2
#     4  10  18  35  50  77 108 139 170 211 265 314
#     4  10  19  31  48  75 100 135 170 209 263 296
#     4  10  18  28  48  70 102 137 166 208 264 302
#     4  10  19  30  47  72 107 133 172 213 260 307
#     4  10  18  31  47  75 104 134 170 208 263 310
#     4  10  20  34  52  74 105 138 174 210 255 310
#     4   9  20  32  53  75 109 139 167 215 263 307
#     4  11  20  33  52  73 106 138 172 212 252 311
#
# _framework density 25.630146
#
# number of rings (size 3 to 8) (size 9 to 14) (size 15 to 20)
#    0.000    2.000    5.000    1.500    0.000    1.500 
#    0.000    0.000    0.000    0.000    0.000    3.500 
#    0.000   10.500    0.000    0.000    0.000    0.000 
#
# Total GULP energy -89374.723071 kJ/mol
# GULP energy per Si atom -5585.920192 kJ/mol
# Density = 2.557181 g / cm^3
# Si number density = 25.630146 Si / 1000 Ang^3
#
#
#
# Elastic Constant Matrix: (Units=GPa)
#
#
# Indices 1 2 3 4 5 6 
#
# 1 88.1661 27.1473 53.0215 18.6012 23.6262 10.4744
# 2 27.1473 122.5218 28.2875 15.0554 13.7403 21.3579
# 3 53.0215 28.2875 103.7088 9.7414 42.0470 3.3732
# 4 18.6012 15.0554 9.7414 34.8920 20.8587 14.2034
# 5 23.6262 13.7403 42.0470 20.8587 51.1009 14.1090
# 6 10.4744 21.3579 3.3732 14.2034 14.1090 32.3256
#
#
#
# Elastic Compliance Matrix: (Units=1/GPa)
#
#
# Indices 1 2 3 4 5 6 
#
# 1 0.018567 -0.000800 -0.009995 -0.007996 0.003838 -0.002607
# 2 -0.000800 0.010114 -0.003091 -0.002176 0.002845 -0.006387
# 3 -0.009995 -0.003091 0.021834 0.008358 -0.017897 0.007142
# 4 -0.007996 -0.002176 0.008358 0.046630 -0.019151 -0.008973
# 5 0.003838 0.002845 -0.017897 -0.019151 0.042748 -0.011499
# 6 -0.002607 -0.006387 0.007142 -0.008973 -0.011499 0.044216
#
#
# Mechanical properties :
#
#
# Convention : Reuss Voigt Hill
#
# Bulk Modulus (GPa) = 43.96786 59.03438 51.50112
# Shear Modulus (GPa) = 22.78295 37.39304 30.08800
#
# Velocity S-wave (km/s) = 2.98470 3.82376 3.42998
# Velocity P-wave (km/s) = 5.39165 6.52519 5.98531
#
# Compressibility (1/GPa) = 0.02274389
#
# Stress axis : x y z
#
# Youngs Moduli (GPa) = 53.85803 98.86910 45.80014
#
# Poissons Ratio (x) = 0.07909 0.45776
# Poissons Ratio (y) = 0.04308 0.14158
# Poissons Ratio (z) = 0.53829 0.30564
#
# Static dielectric constant tensor:
#      x y z
#    x 1.936060 0.029070 -0.026830 
#    y 0.029070 2.047040 0.079760 
#    z -0.026830 0.079760 2.031310 
# 
# From -- ./inp_files/423240.got.cif
#   From: 2010.05.17/outbox.cif.g08.bks.cpg/sg2_212_cif.got.tgz:423240.got - 2010.06.03 11:33:40.
