data_PCOD9067792
_publ_section_title
;
Structure prediction by ZEFSAII (Michael W. Deem and Ramdas Pophale) SiO2 
 PCOD9067792
Probable space group: P -1
;
_chemical_formula_sum "Si O2"
_cell_formula_units_Z 14
_cell_length_a 8.041073
_cell_length_b 15.554641
_cell_length_c 8.303019
_cell_angle_alpha 86.595454
_cell_angle_beta 44.624764
_cell_angle_gamma 66.396285
_cell_volume 626.079244
_symmetry_space_group_name_H-M "P -1"
_symmetry_group_IT_number 2
_symmetry_cell_setting 'triclinic'
loop_
_space_group_symop_operation_xyz
x,y,z
-x,-y,-z
loop_
_atom_site_type_symbol
_atom_site_label
_atom_site_fract_x
_atom_site_fract_y
_atom_site_fract_z
Si Si1 0.303068 0.613165 0.065512
Si Si2 0.394665 0.788658 0.012535
Si Si3 0.877842 0.798789 0.840483
Si Si4 0.375485 0.611612 0.634509
Si Si5 0.897161 0.926431 0.530460
Si Si6 0.384668 0.083261 0.709695
Si Si7 0.654428 0.737629 0.490971
O O1 0.977665 0.670941 0.323503
O O2 0.500000 0.500000 0.000000
O O3 0.423444 0.681690 0.035889
O O4 0.310180 0.613930 0.867361
O O5 0.585330 0.808983 0.998195
O O6 0.491474 0.787026 0.763688
O O7 0.072553 0.868637 0.257545
O O8 0.952683 0.846799 0.637244
O O9 0.100524 0.683151 0.717921
O O10 0.881596 0.851005 0.001088
O O11 0.500000 0.500000 0.500000
O O12 0.563192 0.662682 0.489628
O O13 0.576985 0.003293 0.722265
O O14 0.000000 0.000000 0.500000
O O15 0.407752 0.173819 0.601779
O O16 0.500000 0.000000 0.500000
#
# Coordination Sequence:
#
# PCOD9067792 Si02
#       7
#     2   2   2   2   2   2   2
#     4  11  26  47  74 102 138 187 238 289 360 416
#     4  11  26  45  73 100 143 190 233 296 344 423
#     4  12  26  47  69 110 145 181 244 289 350 433
#     4  11  28  45  74 106 143 188 230 296 362 418
#     4  12  26  44  69 104 139 193 234 283 356 415
#     4  12  25  44  73 101 145 191 233 294 352 412
#     4  11  26  50  69 107 144 182 244 292 347 434
#
# _framework density 22.361388000000002
#
# number of rings (size 3 to 8) (size 9 to 14) (size 15 to 20)
#    0.000    0.571    2.857    3.857   10.000    2.286 
#    0.000    0.000    0.000    0.000    0.000    0.000 
#    0.000    0.000    0.000    0.000    0.000    0.000 
#
# Total GULP energy -78148.590925 kJ/mol
# GULP energy per Si atom -5582.042209 kJ/mol
# Density = 2.231049 g / cm^3
# Si number density = 22.361388 Si / 1000 Ang^3
#
#
#
# Elastic Constant Matrix: (Units=GPa)
#
#
# Indices 1 2 3 4 5 6 
#
# 1 51.7549 26.5091 16.1048 5.2456 3.9846 6.4778
# 2 26.5091 151.8187 57.8997 18.9356 6.9979 -22.0137
# 3 16.1048 57.8997 122.8364 11.3412 12.0208 -1.2321
# 4 5.2456 18.9356 11.3412 38.7051 1.4862 3.8414
# 5 3.9846 6.9979 12.0208 1.4862 31.5074 9.5697
# 6 6.4778 -22.0137 -1.2321 3.8414 9.5697 42.7264
#
#
#
# Elastic Compliance Matrix: (Units=1/GPa)
#
#
# Indices 1 2 3 4 5 6 
#
# 1 0.022595 -0.004425 -0.000954 -0.000053 0.000249 -0.005784
# 2 -0.004425 0.010318 -0.003634 -0.003967 -0.002203 0.006732
# 3 -0.000954 -0.003634 0.010327 -0.000941 -0.002746 -0.000730
# 4 -0.000053 -0.003967 -0.000941 0.028496 0.001403 -0.004939
# 5 0.000249 -0.002203 -0.002746 0.001403 0.036049 -0.009452
# 6 -0.005784 0.006732 -0.000730 -0.004939 -0.009452 0.030290
#
#
# Mechanical properties :
#
#
# Convention : Reuss Voigt Hill
#
# Bulk Modulus (GPa) = 39.65966 58.60413 49.13189
# Shear Modulus (GPa) = 30.39389 37.64753 34.02071
#
# Velocity S-wave (km/s) = 3.69075 4.10762 3.90475
# Velocity P-wave (km/s) = 5.99470 6.98293 6.50760
#
# Compressibility (1/GPa) = 0.02521454
#
# Stress axis : x y z
#
# Youngs Moduli (GPa) = 44.25674 96.91990 96.83244
#
# Poissons Ratio (x) = 0.42887 0.09239
# Poissons Ratio (y) = 0.19584 0.35187
# Poissons Ratio (z) = 0.04222 0.35219
#
# Static dielectric constant tensor:
#      x y z
#    x 1.930860 0.033670 0.008220 
#    y 0.033670 1.752410 0.006460 
#    z 0.008220 0.006460 1.837900 
# 
# From -- ./inp_files/36855.got.cif
#   From: 2010.05.17/outbox.cif.g08.bks.cpg/sg2_19_cif.got.tgz:36855.got - 2010.06.03 11:33:40.
