data_PCOD9067068
_publ_section_title
;
Structure prediction by ZEFSAII (Michael W. Deem and Ramdas Pophale) SiO2 
 PCOD9067068
Probable space group: P -1
;
_chemical_formula_sum "Si O2"
_cell_formula_units_Z 16
_cell_length_a 9.741791
_cell_length_b 15.170822
_cell_length_c 8.210898
_cell_angle_alpha 74.207787
_cell_angle_beta 114.713088
_cell_angle_gamma 144.463634
_cell_volume 635.365693
_symmetry_space_group_name_H-M "P -1"
_symmetry_group_IT_number 2
_symmetry_cell_setting 'triclinic'
loop_
_space_group_symop_operation_xyz
x,y,z
-x,-y,-z
loop_
_atom_site_type_symbol
_atom_site_label
_atom_site_fract_x
_atom_site_fract_y
_atom_site_fract_z
Si Si1 0.950928 0.597885 0.014181
Si Si2 0.025781 0.159694 0.561085
Si Si3 0.998558 0.447091 0.297390
Si Si4 0.553576 0.573199 0.160433
Si Si5 0.637031 0.125529 0.367414
Si Si6 0.081856 0.068703 0.187618
Si Si7 0.261514 0.931969 0.002784
Si Si8 0.542917 0.648830 0.585317
O O1 0.057526 0.617511 0.882246
O O2 0.649215 0.445144 0.920463
O O3 0.007185 0.559635 0.213144
O O4 0.057776 0.751824 0.017432
O O5 0.162324 0.263880 0.740131
O O6 0.250607 0.243043 0.508337
O O7 0.849402 0.153541 0.402627
O O8 0.900328 0.006622 0.640181
O O9 0.271947 0.550546 0.443349
O O10 0.793135 0.295086 0.382765
O O11 0.477436 0.466232 0.317626
O O12 0.500000 0.500000 0.000000
O O13 0.500000 0.000000 0.500000
O O14 0.403024 0.034888 0.181899
O O15 0.349832 0.248645 0.252177
O O16 0.876248 0.046271 0.150307
O O17 0.000000 0.000000 0.000000
O O18 0.500000 0.000000 0.000000
#
# Coordination Sequence:
#
# PCOD9067068 Si02
#       8
#     2   2   2   2   2   2   2   2
#     4  11  25  47  77 112 146 192 250 315 378 445
#     4  12  26  46  75 108 146 198 256 312 370 451
#     4  11  25  48  78 113 145 193 255 311 373 451
#     4  12  25  45  73 105 150 191 242 312 381 439
#     4  12  27  46  69 107 155 195 240 309 379 444
#     4  12  28  48  72 110 156 198 250 314 384 449
#     4  12  26  46  76 104 151 200 246 298 380 457
#     4  12  24  48  77 106 143 194 261 311 367 450
#
# _framework density 25.182347
#
# number of rings (size 3 to 8) (size 9 to 14) (size 15 to 20)
#    0.000    0.250    5.000    3.750    7.000    0.000 
#    2.250    1.250    0.000    0.000    0.000    0.000 
#    0.000    0.000    0.000    0.000    0.000    0.000 
#
# Total GULP energy -89534.735571 kJ/mol
# GULP energy per Si atom -5595.920973 kJ/mol
# Density = 2.512503 g / cm^3
# Si number density = 25.182347 Si / 1000 Ang^3
#
#
#
# Elastic Constant Matrix: (Units=GPa)
#
#
# Indices 1 2 3 4 5 6 
#
# 1 60.8596 17.6479 17.1918 -2.0981 11.4736 -4.7992
# 2 17.6479 103.9812 26.0564 4.7892 3.2676 2.8417
# 3 17.1918 26.0564 116.5514 14.5545 25.7592 -0.3690
# 4 -2.0981 4.7892 14.5545 51.4495 -2.8023 -0.7890
# 5 11.4736 3.2676 25.7592 -2.8023 46.8467 6.1096
# 6 -4.7992 2.8417 -0.3690 -0.7890 6.1096 28.2510
#
#
#
# Elastic Compliance Matrix: (Units=1/GPa)
#
#
# Indices 1 2 3 4 5 6 
#
# 1 0.018832 -0.002905 -0.001351 0.001261 -0.004167 0.004410
# 2 -0.002905 0.010696 -0.002227 -0.000437 0.001414 -0.001916
# 3 -0.001351 -0.002227 0.010999 -0.003262 -0.005930 0.001330
# 4 0.001261 -0.000437 -0.003262 0.020603 0.002721 0.000202
# 5 -0.004167 0.001414 -0.005930 0.002721 0.026552 -0.006594
# 6 0.004410 -0.001916 0.001330 0.000202 -0.006594 0.037788
#
#
# Mechanical properties :
#
#
# Convention : Reuss Voigt Hill
#
# Bulk Modulus (GPa) = 36.28249 44.79827 40.54038
# Shear Modulus (GPa) = 33.87004 40.00919 36.93961
#
# Velocity S-wave (km/s) = 3.67139 3.99027 3.83415
# Velocity P-wave (km/s) = 5.69310 6.24963 5.97784
#
# Compressibility (1/GPa) = 0.02756150
#
# Stress axis : x y z
#
# Youngs Moduli (GPa) = 53.10076 93.49049 90.91545
#
# Poissons Ratio (x) = 0.27162 0.12282
# Poissons Ratio (y) = 0.15428 0.20244
# Poissons Ratio (z) = 0.07174 0.20818
#
# Static dielectric constant tensor:
#      x y z
#    x 2.097560 -0.035600 -0.067470 
#    y -0.035600 2.048270 -0.030610 
#    z -0.067470 -0.030610 2.053820 
# 
# From -- ./inp_files/279244.got.cif
#   From: 2010.05.17/outbox.cif.g08.bks.cpg/sg2_140_cif.got.tgz:279244.got - 2010.06.03 11:33:40.
