data_PCOD9067766
_publ_section_title
;
Structure prediction by ZEFSAII (Michael W. Deem and Ramdas Pophale) SiO2 
 PCOD9067766
Probable space group: P -1
;
_chemical_formula_sum "Si O2"
_cell_formula_units_Z 14
_cell_length_a 32.432723
_cell_length_b 5.181321
_cell_length_c 9.597002
_cell_angle_alpha 55.292519
_cell_angle_beta 27.831699
_cell_angle_gamma 61.131510
_cell_volume 618.067357
_symmetry_space_group_name_H-M "P -1"
_symmetry_group_IT_number 2
_symmetry_cell_setting 'triclinic'
loop_
_space_group_symop_operation_xyz
x,y,z
-x,-y,-z
loop_
_atom_site_type_symbol
_atom_site_label
_atom_site_fract_x
_atom_site_fract_y
_atom_site_fract_z
Si Si1 0.229671 0.927398 0.626483
Si Si2 0.966889 0.251280 0.796599
Si Si3 0.327749 0.579983 0.199364
Si Si4 0.704784 0.598349 0.201892
Si Si5 0.738011 0.297749 0.922400
Si Si6 0.924336 0.271699 0.235128
Si Si7 0.506418 0.377841 0.862989
O O1 0.278291 0.833386 0.364374
O O2 0.258156 0.654490 0.727738
O O3 0.270356 0.250759 0.468646
O O4 0.123006 0.927337 0.938137
O O5 0.000000 0.500000 0.500000
O O6 0.929835 0.338454 0.033357
O O7 0.048255 0.055136 0.672667
O O8 0.335619 0.663349 0.987128
O O9 0.424329 0.514889 0.986985
O O10 0.603630 0.508044 0.489230
O O11 0.750095 0.546358 0.933559
O O12 0.720332 0.933229 0.127405
O O13 0.828335 0.329186 0.557680
O O14 0.000000 0.500000 0.000000
O O15 0.500000 0.500000 0.000000
O O16 0.500000 0.000000 0.000000
#
# Coordination Sequence:
#
# PCOD9067766 Si02
#       7
#     2   2   2   2   2   2   2
#     4  12  24  45  71 103 134 187 237 280 351 426
#     4  11  26  45  71 105 138 187 245 293 357 432
#     4  12  24  45  73  98 140 187 225 288 352 423
#     4  12  26  44  73 104 140 185 236 294 348 430
#     4  12  27  45  69 104 145 183 235 288 366 417
#     4  11  26  47  70 100 148 189 231 309 359 415
#     4  12  23  45  71 105 140 179 237 292 351 414
#
# _framework density 22.651253000000001
#
# number of rings (size 3 to 8) (size 9 to 14) (size 15 to 20)
#    0.000    0.286    4.286    4.286    6.000    1.714 
#    0.000    0.000    0.000    0.000    0.000    0.000 
#    0.000    0.000    0.000    0.000    0.000    0.000 
#
# Total GULP energy -78174.483339 kJ/mol
# GULP energy per Si atom -5583.891667 kJ/mol
# Density = 2.259970 g / cm^3
# Si number density = 22.651253 Si / 1000 Ang^3
#
#
#
# Elastic Constant Matrix: (Units=GPa)
#
#
# Indices 1 2 3 4 5 6 
#
# 1 104.6535 13.7064 14.9489 0.1571 2.1628 -2.7257
# 2 13.7064 59.6473 5.3332 -6.8927 7.8096 -7.7173
# 3 14.9489 5.3332 62.5901 -5.7528 -1.9765 -7.9167
# 4 0.1571 -6.8927 -5.7528 33.4112 -1.8266 0.6659
# 5 2.1628 7.8096 -1.9765 -1.8266 51.2794 -1.3872
# 6 -2.7257 -7.7173 -7.9167 0.6659 -1.3872 28.7629
#
#
#
# Elastic Compliance Matrix: (Units=1/GPa)
#
#
# Indices 1 2 3 4 5 6 
#
# 1 0.010186 -0.002243 -0.002369 -0.000925 -0.000220 -0.000278
# 2 -0.002243 0.018628 -0.000229 0.003587 -0.002501 0.004519
# 3 -0.002369 -0.000229 0.017433 0.002932 0.001033 0.004494
# 4 -0.000925 0.003587 0.002932 0.031200 0.000744 0.000995
# 5 -0.000220 -0.002501 0.001033 0.000744 0.019972 0.000538
# 6 -0.000278 0.004519 0.004494 0.000995 0.000538 0.037193
#
#
# Mechanical properties :
#
#
# Convention : Reuss Voigt Hill
#
# Bulk Modulus (GPa) = 27.34876 32.76308 30.05592
# Shear Modulus (GPa) = 31.95251 35.55086 33.75168
#
# Velocity S-wave (km/s) = 3.75991 3.96597 3.86431
# Velocity P-wave (km/s) = 5.56321 5.95546 5.76267
#
# Compressibility (1/GPa) = 0.03656473
#
# Stress axis : x y z
#
# Youngs Moduli (GPa) = 98.17243 53.68333 57.36305
#
# Poissons Ratio (x) = 0.12041 0.13588
# Poissons Ratio (y) = 0.22019 0.01315
# Poissons Ratio (z) = 0.23255 0.01231
#
# Static dielectric constant tensor:
#      x y z
#    x 1.877570 -0.019000 0.076750 
#    y -0.019000 1.954880 -0.004950 
#    z 0.076750 -0.004950 1.861300 
# 
# From -- ./inp_files/55331.got.cif
#   From: 2010.05.17/outbox.cif.g08.bks.cpg/sg2_28_cif.got.tgz:55331.got - 2010.06.03 11:33:40.
