data_PCOD9067108
_publ_section_title
;
Structure prediction by ZEFSAII (Michael W. Deem and Ramdas Pophale) SiO2 
 PCOD9067108
Probable space group: P -1
;
_chemical_formula_sum "Si O2"
_cell_formula_units_Z 10
_cell_length_a 15.659541
_cell_length_b 12.811977
_cell_length_c 5.832678
_cell_angle_alpha 131.252542
_cell_angle_beta 58.263821
_cell_angle_gamma 150.564264
_cell_volume 428.660293
_symmetry_space_group_name_H-M "P -1"
_symmetry_group_IT_number 2
_symmetry_cell_setting 'triclinic'
loop_
_space_group_symop_operation_xyz
x,y,z
-x,-y,-z
loop_
_atom_site_type_symbol
_atom_site_label
_atom_site_fract_x
_atom_site_fract_y
_atom_site_fract_z
Si Si1 0.910619 0.375839 0.696821
Si Si2 0.111506 0.949707 0.589874
Si Si3 0.255898 0.397865 0.252192
Si Si4 0.627252 0.259966 0.793564
Si Si5 0.559029 0.713307 0.626893
O O1 0.862194 0.157790 0.450444
O O2 0.758274 0.317143 0.840089
O O3 0.000000 0.500000 0.500000
O O4 0.000000 0.500000 0.000000
O O5 0.904946 0.745847 0.558034
O O6 0.231841 0.052902 0.351448
O O7 0.197864 0.185925 0.917257
O O8 0.267585 0.533000 0.245023
O O9 0.446989 0.602052 0.389944
O O10 0.500000 0.000000 0.500000
O O11 0.509686 0.238148 0.057589
O O12 0.500000 0.500000 0.500000
#
# Coordination Sequence:
#
# PCOD9067108 Si02
#       5
#     2   2   2   2   2
#     4  12  28  50  78 116 162 210 265 330 406 477
#     4  11  25  47  80 107 156 204 260 327 397 477
#     4  11  25  50  72 116 150 202 266 323 396 487
#     4  12  28  49  77 111 160 204 268 332 397 478
#     4  12  27  46  76 113 155 205 263 327 401 474
#
# _framework density 23.328496999999999
#
# number of rings (size 3 to 8) (size 9 to 14) (size 15 to 20)
#    0.000    0.400    4.000    3.000    5.600    2.400 
#    0.000    0.000    0.000    0.000    0.000    0.000 
#    0.000    0.000    0.000    0.000    0.000    0.000 
#
# Total GULP energy -55915.783200 kJ/mol
# GULP energy per Si atom -5591.578320 kJ/mol
# Density = 2.327540 g / cm^3
# Si number density = 23.328497 Si / 1000 Ang^3
#
#
#
# Elastic Constant Matrix: (Units=GPa)
#
#
# Indices 1 2 3 4 5 6 
#
# 1 154.2078 35.5012 51.8342 9.8026 -20.9963 -2.0439
# 2 35.5012 122.6901 40.5215 -8.8255 -18.8234 3.6837
# 3 51.8342 40.5215 124.6043 12.8668 -24.3736 4.9141
# 4 9.8026 -8.8255 12.8668 41.0581 -1.0690 -26.3446
# 5 -20.9963 -18.8234 -24.3736 -1.0690 51.6038 2.1099
# 6 -2.0439 3.6837 4.9141 -26.3446 2.1099 52.8413
#
#
#
# Elastic Compliance Matrix: (Units=1/GPa)
#
#
# Indices 1 2 3 4 5 6 
#
# 1 0.007905 -0.001367 -0.002370 -0.001528 0.001575 -0.000203
# 2 -0.001367 0.010046 -0.002887 0.004529 0.001769 0.001703
# 3 -0.002370 -0.002887 0.011431 -0.006245 0.003424 -0.004204
# 4 -0.001528 0.004529 -0.006245 0.040850 -0.001917 0.020649
# 5 0.001575 0.001769 0.003424 -0.001917 0.022333 -0.002228
# 6 -0.000203 0.001703 -0.004204 0.020649 -0.002228 0.029573
#
#
# Mechanical properties :
#
#
# Convention : Reuss Voigt Hill
#
# Bulk Modulus (GPa) = 61.98344 73.02401 67.50372
# Shear Modulus (GPa) = 35.52069 47.34365 41.43217
#
# Velocity S-wave (km/s) = 3.90632 4.50981 4.21887
# Velocity P-wave (km/s) = 6.85371 7.64777 7.26160
#
# Compressibility (1/GPa) = 0.01613334
#
# Stress axis : x y z
#
# Youngs Moduli (GPa) = 126.50354 99.54537 87.48409
#
# Poissons Ratio (x) = 0.13605 0.20734
# Poissons Ratio (y) = 0.17289 0.25258
# Poissons Ratio (z) = 0.29982 0.28740
#
# Static dielectric constant tensor:
#      x y z
#    x 1.865850 0.024250 0.173630 
#    y 0.024250 1.907100 0.045890 
#    z 0.173630 0.045890 2.351390 
# 
# From -- ./inp_files/15826.got.cif
#   From: 2010.05.17/outbox.cif.g08.bks.cpg/sg2_8_cif.got.tgz:15826.got - 2010.06.03 11:33:40.
