data_PCOD9067994
_publ_section_title
;
Structure prediction by ZEFSAII (Michael W. Deem and Ramdas Pophale) SiO2 
 PCOD9067994
Probable space group: P -1
;
_chemical_formula_sum "Si O2"
_cell_formula_units_Z 13
_cell_length_a 8.880109
_cell_length_b 7.914330
_cell_length_c 9.418470
_cell_angle_alpha 67.821635
_cell_angle_beta 61.612754
_cell_angle_gamma 65.605110
_cell_volume 516.616226
_symmetry_space_group_name_H-M "P -1"
_symmetry_group_IT_number 2
_symmetry_cell_setting 'triclinic'
loop_
_space_group_symop_operation_xyz
x,y,z
-x,-y,-z
loop_
_atom_site_type_symbol
_atom_site_label
_atom_site_fract_x
_atom_site_fract_y
_atom_site_fract_z
Si Si1 0.176289 0.560670 0.883545
Si Si2 0.600306 0.797081 0.948940
Si Si3 0.815181 0.948965 0.587911
Si Si4 0.695623 0.370784 0.496901
Si Si5 0.238691 0.876630 0.957192
Si Si6 0.000000 0.500000 0.500000
Si Si7 0.938386 0.817959 0.265345
O O1 0.196987 0.634212 0.695349
O O2 0.334933 0.375405 0.917124
O O3 0.171294 0.735955 0.932215
O O4 0.000000 0.500000 0.000000
O O5 0.760057 0.822391 0.771129
O O6 0.442492 0.773580 0.927525
O O7 0.500000 0.000000 0.000000
O O8 0.677721 0.157735 0.592837
O O9 0.841937 0.841018 0.457184
O O10 0.000000 0.000000 0.500000
O O11 0.500000 0.500000 0.500000
O O12 0.813361 0.434932 0.545869
O O13 0.107057 0.901998 0.143785
O O14 0.200132 0.074606 0.825634
O O15 0.986818 0.407636 0.691092
#
# Coordination Sequence:
#
# PCOD9067994 Si02
#       7
#     2   2   2   2   2   1   2
#     4  12  27  50  76 109 152 206 252 314 388 464
#     4  12  29  46  77 112 156 199 260 316 380 456
#     4  12  24  49  73 108 147 203 246 318 382 453
#     4  12  28  49  77 111 156 194 257 318 385 459
#     4  11  27  50  74 110 153 203 253 317 383 464
#     4  12  28  46  80 114 150 198 252 322 390 448
#     4  11  26  46  78 107 150 196 257 309 389 453
#
# _framework density 25.163746
#
# number of rings (size 3 to 8) (size 9 to 14) (size 15 to 20)
#    0.000    0.308    3.077    4.154   12.923    1.846 
#    0.000    0.000    0.000    0.000    0.000    0.000 
#    0.000    0.000    0.000    0.000    0.000    0.000 
#
# Total GULP energy -72493.518246 kJ/mol
# GULP energy per Si atom -5576.424480 kJ/mol
# Density = 2.510647 g / cm^3
# Si number density = 25.163746 Si / 1000 Ang^3
#
#
#
# Elastic Constant Matrix: (Units=GPa)
#
#
# Indices 1 2 3 4 5 6 
#
# 1 115.7864 18.8462 1.4028 6.0782 0.0154 -0.9572
# 2 18.8462 57.5918 24.4500 9.1357 3.7214 -15.5370
# 3 1.4028 24.4500 117.2247 -19.3740 9.0343 9.3615
# 4 6.0782 9.1357 -19.3740 41.2593 -6.5807 14.2476
# 5 0.0154 3.7214 9.0343 -6.5807 27.6253 -1.9868
# 6 -0.9572 -15.5370 9.3615 14.2476 -1.9868 45.6729
#
#
#
# Elastic Compliance Matrix: (Units=1/GPa)
#
#
# Indices 1 2 3 4 5 6 
#
# 1 0.009218 -0.003840 0.000854 0.000416 0.000231 -0.001408
# 2 -0.003840 0.031191 -0.010640 -0.018233 -0.003752 0.018236
# 3 0.000854 -0.010640 0.013601 0.011986 -0.000891 -0.010167
# 4 0.000416 -0.018233 0.011986 0.042422 0.007090 -0.021575
# 5 0.000231 -0.003752 -0.000891 0.007090 0.038568 -0.001623
# 6 -0.001408 0.018236 -0.010167 -0.021575 -0.001623 0.036812
#
#
# Mechanical properties :
#
#
# Convention : Reuss Voigt Hill
#
# Bulk Modulus (GPa) = 37.37132 42.22233 39.79682
# Shear Modulus (GPa) = 24.04033 39.30509 31.67271
#
# Velocity S-wave (km/s) = 3.09424 3.95647 3.55162
# Velocity P-wave (km/s) = 5.25825 6.13897 5.71560
#
# Compressibility (1/GPa) = 0.02675848
#
# Stress axis : x y z
#
# Youngs Moduli (GPa) = 108.48702 32.06007 73.52281
#
# Poissons Ratio (x) = 0.12310 -0.06279
# Poissons Ratio (y) = 0.41655 0.78230
# Poissons Ratio (z) = -0.09265 0.34113
#
# Static dielectric constant tensor:
#      x y z
#    x 2.222030 0.048550 -0.051130 
#    y 0.048550 1.592220 0.020610 
#    z -0.051130 0.020610 2.077890 
# 
# From -- ./inp_files/156559.got.cif
#   From: 2010.05.17/outbox.cif.g08.bks.cpg/sg2_79_cif.got.tgz:156559.got - 2010.06.03 11:33:40.
