data_PCOD9067015
_publ_section_title
;
Structure prediction by ZEFSAII (Michael W. Deem and Ramdas Pophale) SiO2 
 PCOD9067015
Probable space group: P -1
;
_chemical_formula_sum "Si O2"
_cell_formula_units_Z 15
_cell_length_a 12.802565
_cell_length_b 12.257642
_cell_length_c 5.177974
_cell_angle_alpha 97.401422
_cell_angle_beta 129.974020
_cell_angle_gamma 73.848217
_cell_volume 596.750728
_symmetry_space_group_name_H-M "P -1"
_symmetry_group_IT_number 2
_symmetry_cell_setting 'triclinic'
loop_
_space_group_symop_operation_xyz
x,y,z
-x,-y,-z
loop_
_atom_site_type_symbol
_atom_site_label
_atom_site_fract_x
_atom_site_fract_y
_atom_site_fract_z
Si Si1 0.818084 0.441864 0.659759
Si Si2 0.271028 0.161170 0.239608
Si Si3 0.581163 0.653550 0.564413
Si Si4 0.935688 0.706132 0.654749
Si Si5 0.596516 0.301628 0.226561
Si Si6 0.367203 0.960998 0.665675
Si Si7 0.000000 0.500000 0.500000
Si Si8 0.079706 0.085035 0.536864
O O1 0.708102 0.549422 0.642456
O O2 0.739360 0.342425 0.470942
O O3 0.874508 0.475243 0.490094
O O4 0.949651 0.399033 0.057917
O O5 0.370564 0.229130 0.287387
O O6 0.208770 0.237352 0.413388
O O7 0.343455 0.029261 0.378181
O O8 0.133054 0.152933 0.867239
O O9 0.510335 0.626970 0.707707
O O10 0.470245 0.679458 0.158247
O O11 0.907826 0.633034 0.348566
O O12 0.003542 0.811180 0.742977
O O13 0.616864 0.171894 0.312995
O O14 0.220056 0.018009 0.593928
O O15 0.500000 0.000000 0.000000
O O16 0.000000 0.000000 0.500000
#
# Coordination Sequence:
#
# PCOD9067015 Si02
#       8
#     2   2   2   2   2   2   1   2
#     4  12  29  47  79 113 156 209 264 336 404 481
#     4  11  25  47  75 108 156 205 268 322 405 479
#     4  12  28  51  78 113 160 211 264 333 400 480
#     4  11  27  46  74 112 149 206 258 328 397 487
#     4  12  30  49  79 117 159 207 272 333 400 476
#     4  11  25  47  75 110 149 212 264 325 398 480
#     4  12  26  46  78 106 156 196 272 312 412 464
#     4  11  28  46  75 112 160 202 262 338 403 477
#
# _framework density 25.136125
#
# number of rings (size 3 to 8) (size 9 to 14) (size 15 to 20)
#    0.000    0.533    2.667    2.800   14.933    2.133 
#    0.000    0.000    0.000    0.000    0.000    0.000 
#    0.000    0.000    0.000    0.000    0.000    0.000 
#
# Total GULP energy -83764.753401 kJ/mol
# GULP energy per Si atom -5584.316893 kJ/mol
# Density = 2.507891 g / cm^3
# Si number density = 25.136125 Si / 1000 Ang^3
#
#
#
# Elastic Constant Matrix: (Units=GPa)
#
#
# Indices 1 2 3 4 5 6 
#
# 1 135.8498 50.6232 -2.1887 10.6185 15.7561 21.3964
# 2 50.6232 164.5752 27.3995 -7.0235 19.9277 32.8261
# 3 -2.1887 27.3995 81.6997 -2.0321 12.3983 25.0785
# 4 10.6185 -7.0235 -2.0321 42.3602 3.9121 6.7369
# 5 15.7561 19.9277 12.3983 3.9121 25.7897 14.6274
# 6 21.3964 32.8261 25.0785 6.7369 14.6274 60.1585
#
#
#
# Elastic Compliance Matrix: (Units=1/GPa)
#
#
# Indices 1 2 3 4 5 6 
#
# 1 0.009142 -0.002493 0.002067 -0.002023 -0.003379 -0.001704
# 2 -0.002493 0.008049 -0.001502 0.002551 -0.002977 -0.002441
# 3 0.002067 -0.001502 0.015136 0.001217 -0.004588 -0.005246
# 4 -0.002023 0.002551 0.001217 0.025416 -0.003355 -0.003210
# 5 -0.003379 -0.002977 -0.004588 -0.003355 0.049825 -0.007001
# 6 -0.001704 -0.002441 -0.005246 -0.003210 -0.007001 0.022810
#
#
# Mechanical properties :
#
#
# Convention : Reuss Voigt Hill
#
# Bulk Modulus (GPa) = 35.12431 59.31029 47.21730
# Shear Modulus (GPa) = 34.78883 46.08106 40.43495
#
# Velocity S-wave (km/s) = 3.72427 4.28630 4.01514
# Velocity P-wave (km/s) = 5.70067 6.93854 6.34984
#
# Compressibility (1/GPa) = 0.02847031
#
# Stress axis : x y z
#
# Youngs Moduli (GPa) = 109.38622 124.23157 66.06852
#
# Poissons Ratio (x) = 0.30976 -0.13654
# Poissons Ratio (y) = 0.27274 0.09922
# Poissons Ratio (z) = -0.22607 0.18657
#
# Static dielectric constant tensor:
#      x y z
#    x 1.838450 0.148620 0.240850 
#    y 0.148620 1.777900 -0.403710 
#    z 0.240850 -0.403710 1.376140 
# 
# From -- ./inp_files/70925.got.cif
#   From: 2010.05.17/outbox.cif.g08.bks.cpg/sg2_36_cif.got.tgz:70925.got - 2010.06.03 11:33:40.
