data_PCOD9067346
_publ_section_title
;
Structure prediction by ZEFSAII (Michael W. Deem and Ramdas Pophale) SiO2 
 PCOD9067346
Probable space group: P -1
;
_chemical_formula_sum "Si O2"
_cell_formula_units_Z 15
_cell_length_a 15.100494
_cell_length_b 8.715577
_cell_length_c 9.352333
_cell_angle_alpha 48.890689
_cell_angle_beta 115.645362
_cell_angle_gamma 81.962340
_cell_volume 652.762999
_symmetry_space_group_name_H-M "P -1"
_symmetry_group_IT_number 2
_symmetry_cell_setting 'triclinic'
loop_
_space_group_symop_operation_xyz
x,y,z
-x,-y,-z
loop_
_atom_site_type_symbol
_atom_site_label
_atom_site_fract_x
_atom_site_fract_y
_atom_site_fract_z
Si Si1 0.461938 0.014469 0.296126
Si Si2 0.330891 0.758570 0.023318
Si Si3 0.195613 0.709035 0.195986
Si Si4 0.911006 0.071002 0.725842
Si Si5 0.221869 0.567798 0.849427
Si Si6 0.705217 0.863313 0.445466
Si Si7 0.500000 0.500000 0.500000
Si Si8 0.888301 0.660245 0.935543
O O1 0.558440 0.026287 0.266169
O O2 0.477489 0.766076 0.399470
O O3 0.500000 0.000000 0.500000
O O4 0.323359 0.287907 0.019138
O O5 0.291935 0.617797 0.985184
O O6 0.266297 0.031599 0.734127
O O7 0.298490 0.729591 0.184658
O O8 0.473630 0.625316 0.241238
O O9 0.177457 0.715728 0.347687
O O10 0.233428 0.437548 0.337905
O O11 0.056658 0.950243 0.895894
O O12 0.850488 0.193636 0.456382
O O13 0.915709 0.831619 0.932318
O O14 0.126320 0.532305 0.876581
O O15 0.762589 0.870645 0.629039
O O16 0.000000 0.500000 0.000000
#
# Coordination Sequence:
#
# PCOD9067346 Si02
#       8
#     2   2   2   2   2   2   1   2
#     4  12  25  49  70 103 151 185 240 301 352 431
#     4  12  26  45  74 104 141 193 236 294 365 427
#     4  11  25  49  65 106 151 176 241 304 351 432
#     4  11  27  43  73 104 142 190 234 297 364 423
#     4  12  26  47  72 109 141 191 243 295 356 437
#     4  12  25  45  72 104 141 190 238 290 361 430
#     4  12  26  46  74 104 142 196 234 298 362 420
#     4  12  23  42  72 106 140 184 237 295 351 430
#
# _framework density 22.979244000000001
#
# number of rings (size 3 to 8) (size 9 to 14) (size 15 to 20)
#    0.000    0.267    8.000    0.000    5.600    3.200 
#    0.000    2.667    0.000    0.000    0.000    0.000 
#    0.000    0.000    0.000    0.000    0.000    0.000 
#
# Total GULP energy -83514.605214 kJ/mol
# GULP energy per Si atom -5567.640348 kJ/mol
# Density = 2.292694 g / cm^3
# Si number density = 22.979244 Si / 1000 Ang^3
#
#
#
# Elastic Constant Matrix: (Units=GPa)
#
#
# Indices 1 2 3 4 5 6 
#
# 1 88.6372 39.5830 18.9485 -14.0241 -15.2665 -4.9805
# 2 39.5830 88.1534 19.9722 1.8707 -2.6375 11.3742
# 3 18.9485 19.9722 79.9678 16.5538 -27.8001 6.9860
# 4 -14.0241 1.8707 16.5538 29.9358 0.4886 5.0742
# 5 -15.2665 -2.6375 -27.8001 0.4886 31.3343 -6.2414
# 6 -4.9805 11.3742 6.9860 5.0742 -6.2414 31.4050
#
#
#
# Elastic Compliance Matrix: (Units=1/GPa)
#
#
# Indices 1 2 3 4 5 6 
#
# 1 0.018846 -0.008826 -0.002043 0.009247 0.007816 0.006699
# 2 -0.008826 0.017015 -0.003870 -0.001571 -0.007873 -0.008012
# 3 -0.002043 -0.003870 0.023967 -0.014681 0.020612 0.002215
# 4 0.009247 -0.001571 -0.014681 0.046850 -0.010239 -0.004303
# 5 0.007816 -0.007873 0.020612 -0.010239 0.055953 0.012280
# 6 0.006699 -0.008012 0.002215 -0.004303 0.012280 0.038450
#
#
# Mechanical properties :
#
#
# Convention : Reuss Voigt Hill
#
# Bulk Modulus (GPa) = 32.94961 45.97400 39.46181
# Shear Modulus (GPa) = 20.77480 30.41866 25.59673
#
# Velocity S-wave (km/s) = 3.01003 3.64228 3.34114
# Velocity P-wave (km/s) = 5.14299 6.14316 5.66519
#
# Compressibility (1/GPa) = 0.03034937
#
# Stress axis : x y z
#
# Youngs Moduli (GPa) = 53.06130 58.77026 41.72405
#
# Poissons Ratio (x) = 0.51872 0.08526
# Poissons Ratio (y) = 0.46833 0.16147
# Poissons Ratio (z) = 0.10843 0.22744
#
# Static dielectric constant tensor:
#      x y z
#    x 1.755910 0.003590 -0.181050 
#    y 0.003590 1.925440 0.024690 
#    z -0.181050 0.024690 1.608820 
# 
# From -- ./inp_files/236609.got.cif
#   From: 2010.05.17/outbox.cif.g08.bks.cpg/sg2_119_cif.got.tgz:236609.got - 2010.06.03 11:33:40.
