data_PCOD9067926
_publ_section_title
;
Structure prediction by ZEFSAII (Michael W. Deem and Ramdas Pophale) SiO2 
 PCOD9067926
Probable space group: P -1
;
_chemical_formula_sum "Si O2"
_cell_formula_units_Z 12
_cell_length_a 14.870977
_cell_length_b 8.580705
_cell_length_c 13.152542
_cell_angle_alpha 44.963870
_cell_angle_beta 143.411456
_cell_angle_gamma 150.197177
_cell_volume 496.874738
_symmetry_space_group_name_H-M "P -1"
_symmetry_group_IT_number 2
_symmetry_cell_setting 'triclinic'
loop_
_space_group_symop_operation_xyz
x,y,z
-x,-y,-z
loop_
_atom_site_type_symbol
_atom_site_label
_atom_site_fract_x
_atom_site_fract_y
_atom_site_fract_z
Si Si1 0.208684 0.165429 0.178577
Si Si2 0.906895 0.432440 0.582545
Si Si3 0.800838 0.471059 0.832288
Si Si4 0.018397 0.831395 0.677626
Si Si5 0.492191 0.409373 0.916985
Si Si6 0.337577 0.781586 0.724808
O O1 0.232440 0.407558 0.157267
O O2 0.402823 0.342116 0.192855
O O3 0.170080 0.901999 0.329298
O O4 0.000000 0.000000 0.000000
O O5 0.740788 0.388439 0.378234
O O6 0.936523 0.533853 0.678782
O O7 0.136237 0.718642 0.605505
O O8 0.862560 0.697381 0.692441
O O9 0.573967 0.120298 0.769019
O O10 0.000000 0.500000 0.000000
O O11 0.259672 0.081975 0.823465
O O12 0.000000 0.000000 0.500000
O O13 0.500000 0.500000 0.000000
O O14 0.647112 0.361821 0.097835
#
# Coordination Sequence:
#
# PCOD9067926 Si02
#       6
#     2   2   2   2   2   2
#     4  12  26  45  75 107 144 190 243 299 366 427
#     4  11  27  48  73 107 147 190 245 304 363 431
#     4  12  27  47  73 108 147 194 244 298 363 436
#     4  12  28  47  73 107 149 190 246 298 367 431
#     4  12  26  47  76 106 147 192 246 299 367 434
#     4  11  26  46  74 101 148 189 247 297 367 423
#
# _framework density 24.150957999999999
#
# number of rings (size 3 to 8) (size 9 to 14) (size 15 to 20)
#    0.000    0.333    3.333    4.000    9.333    2.667 
#    0.000    0.000    0.000    0.000    0.000    0.000 
#    0.000    0.000    0.000    0.000    0.000    0.000 
#
# Total GULP energy -67062.012350 kJ/mol
# GULP energy per Si atom -5588.501029 kJ/mol
# Density = 2.409599 g / cm^3
# Si number density = 24.150958 Si / 1000 Ang^3
#
#
#
# Elastic Constant Matrix: (Units=GPa)
#
#
# Indices 1 2 3 4 5 6 
#
# 1 127.9114 45.3396 26.2919 19.3473 -18.9206 11.4509
# 2 45.3396 119.2935 47.3064 19.4504 -1.5877 23.0658
# 3 26.2919 47.3064 120.5743 12.7249 -20.1797 4.1358
# 4 19.3473 19.4504 12.7249 57.9807 -0.9450 -12.5864
# 5 -18.9206 -1.5877 -20.1797 -0.9450 34.1378 -2.4500
# 6 11.4509 23.0658 4.1358 -12.5864 -2.4500 52.6588
#
#
#
# Elastic Compliance Matrix: (Units=1/GPa)
#
#
# Indices 1 2 3 4 5 6 
#
# 1 0.010231 -0.003297 0.000296 -0.002533 0.005540 -0.001152
# 2 -0.003297 0.013087 -0.004582 -0.003599 -0.004437 -0.005722
# 3 0.000296 -0.004582 0.011160 -0.000638 0.006618 0.001222
# 4 -0.002533 -0.003599 -0.000638 0.020978 -0.000854 0.007152
# 5 0.005540 -0.004437 0.006618 -0.000854 0.036167 0.001698
# 6 -0.001152 -0.005722 0.001222 0.007152 0.001698 0.023440
#
#
# Mechanical properties :
#
#
# Convention : Reuss Voigt Hill
#
# Bulk Modulus (GPa) = 51.77888 67.29500 59.53694
# Shear Modulus (GPa) = 36.58561 45.54487 41.06524
#
# Velocity S-wave (km/s) = 3.89636 4.34734 4.12801
# Velocity P-wave (km/s) = 6.45975 7.28862 6.88666
#
# Compressibility (1/GPa) = 0.01931289
#
# Stress axis : x y z
#
# Youngs Moduli (GPa) = 97.74052 76.41205 89.60679
#
# Poissons Ratio (x) = 0.25191 -0.02656
# Poissons Ratio (y) = 0.32222 0.41060
# Poissons Ratio (z) = -0.02897 0.35014
#
# Static dielectric constant tensor:
#      x y z
#    x 2.190180 -0.053770 -0.022660 
#    y -0.053770 1.986120 -0.061430 
#    z -0.022660 -0.061430 2.002110 
# 
# From -- ./inp_files/148975.got.cif
#   From: 2010.05.17/outbox.cif.g08.bks.cpg/sg2_75_cif.got.tgz:148975.got - 2010.06.03 11:33:40.
