data_PCOD9067813
_publ_section_title
;
Structure prediction by ZEFSAII (Michael W. Deem and Ramdas Pophale) SiO2 
 PCOD9067813
Probable space group: P -1
;
_chemical_formula_sum "Si O2"
_cell_formula_units_Z 16
_cell_length_a 6.326792
_cell_length_b 8.414811
_cell_length_c 14.031463
_cell_angle_alpha 102.573597
_cell_angle_beta 111.237572
_cell_angle_gamma 95.697703
_cell_volume 666.430426
_symmetry_space_group_name_H-M "P -1"
_symmetry_group_IT_number 2
_symmetry_cell_setting 'triclinic'
loop_
_space_group_symop_operation_xyz
x,y,z
-x,-y,-z
loop_
_atom_site_type_symbol
_atom_site_label
_atom_site_fract_x
_atom_site_fract_y
_atom_site_fract_z
Si Si1 0.642210 0.066768 0.910800
Si Si2 0.594180 0.498706 0.766052
Si Si3 0.968306 0.287111 0.847801
Si Si4 0.262031 0.325257 0.388461
Si Si5 0.136654 0.220727 0.655772
Si Si6 0.604594 0.741679 0.967604
Si Si7 0.797933 0.102896 0.301324
Si Si8 0.751124 0.333532 0.481850
O O1 0.391906 0.979543 0.815962
O O2 0.807155 0.140134 0.861515
O O3 0.595166 0.214641 0.991099
O O4 0.719102 0.921587 0.965243
O O5 0.815653 0.427389 0.829489
O O6 0.666157 0.585779 0.688622
O O7 0.375029 0.350634 0.699270
O O8 0.528478 0.621196 0.851414
O O9 0.038127 0.236340 0.748049
O O10 0.207811 0.330559 0.950205
O O11 0.486260 0.274301 0.465430
O O12 0.199498 0.469324 0.465087
O O13 0.055053 0.173033 0.315947
O O14 0.942087 0.259089 0.558890
O O15 0.190364 0.037518 0.636697
O O16 0.736781 0.263132 0.363573
#
# Coordination Sequence:
#
# PCOD9067813 Si02
#       8
#     2   2   2   2   2   2   2   2
#     4  11  26  47  73 109 147 184 243 294 357 428
#     4  12  27  47  74 107 148 189 237 298 357 420
#     4  12  24  48  70 104 149 186 242 292 355 424
#     4  11  28  47  75 109 141 189 244 289 359 430
#     4  12  28  47  72 107 150 187 240 295 355 426
#     4  11  26  45  74 105 145 192 237 294 360 420
#     4  12  26  48  76 104 146 190 238 297 354 424
#     4  11  27  48  73 107 147 186 239 297 357 425
#
# _framework density 24.008510000000001
#
# number of rings (size 3 to 8) (size 9 to 14) (size 15 to 20)
#    0.000    0.500    3.750    2.250   10.500    5.500 
#    0.000    0.000    0.000    0.000    0.000    0.000 
#    0.000    0.000    0.000    0.000    0.000    0.000 
#
# Total GULP energy -89635.929316 kJ/mol
# GULP energy per Si atom -5602.245582 kJ/mol
# Density = 2.395387 g / cm^3
# Si number density = 24.008510 Si / 1000 Ang^3
#
#
#
# Elastic Constant Matrix: (Units=GPa)
#
#
# Indices 1 2 3 4 5 6 
#
# 1 63.2381 43.1602 27.9121 3.6110 2.6230 0.9834
# 2 43.1602 87.0250 35.5858 -1.0827 5.5400 5.5647
# 3 27.9121 35.5858 111.2240 -2.2831 -8.4391 -7.7530
# 4 3.6110 -1.0827 -2.2831 40.0217 -12.6320 4.6230
# 5 2.6230 5.5400 -8.4391 -12.6320 33.7269 -11.3288
# 6 0.9834 5.5647 -7.7530 4.6230 -11.3288 49.6533
#
#
#
# Elastic Compliance Matrix: (Units=1/GPa)
#
#
# Indices 1 2 3 4 5 6 
#
# 1 0.024959 -0.011099 -0.002930 -0.003390 -0.002076 0.000134
# 2 -0.011099 0.019091 -0.003889 0.000346 -0.004306 -0.003542
# 3 -0.002930 -0.003889 0.011696 0.002258 0.005791 0.003431
# 4 -0.003390 0.000346 0.002258 0.029112 0.011797 0.000362
# 5 -0.002076 -0.004306 0.005791 0.011797 0.039526 0.009348
# 6 0.000134 -0.003542 0.003431 0.000362 0.009348 0.023169
#
#
# Mechanical properties :
#
#
# Convention : Reuss Voigt Hill
#
# Bulk Modulus (GPa) = 50.22939 52.75591 51.49265
# Shear Modulus (GPa) = 26.31225 35.00232 30.65729
#
# Velocity S-wave (km/s) = 3.31411 3.82241 3.57730
# Velocity P-wave (km/s) = 5.96753 6.44225 6.20943
#
# Compressibility (1/GPa) = 0.01990866
#
# Stress axis : x y z
#
# Youngs Moduli (GPa) = 40.06522 52.38145 85.50291
#
# Poissons Ratio (x) = 0.58138 0.25055
# Poissons Ratio (y) = 0.44468 0.33254
# Poissons Ratio (z) = 0.11740 0.20372
#
# Static dielectric constant tensor:
#      x y z
#    x 1.957340 -0.014860 -0.005930 
#    y -0.014860 1.903140 -0.012770 
#    z -0.005930 -0.012770 1.898570 
# 
# From -- ./inp_files/480694.got.cif
#   From: 2010.05.17/outbox.cif.g08.bks.cpg/sg2_241_cif.got.tgz:480694.got - 2010.06.03 11:33:40.
