data_PCOD9067758
_publ_section_title
;
Structure prediction by ZEFSAII (Michael W. Deem and Ramdas Pophale) SiO2 
 PCOD9067758
Probable space group: P -1
;
_chemical_formula_sum "Si O2"
_cell_formula_units_Z 12
_cell_length_a 14.365036
_cell_length_b 7.167988
_cell_length_c 8.051256
_cell_angle_alpha 36.932689
_cell_angle_beta 90.174750
_cell_angle_gamma 77.391720
_cell_volume 463.313546
_symmetry_space_group_name_H-M "P -1"
_symmetry_group_IT_number 2
_symmetry_cell_setting 'triclinic'
loop_
_space_group_symop_operation_xyz
x,y,z
-x,-y,-z
loop_
_atom_site_type_symbol
_atom_site_label
_atom_site_fract_x
_atom_site_fract_y
_atom_site_fract_z
Si Si1 0.064956 0.337167 0.776959
Si Si2 0.349631 0.767142 0.437503
Si Si3 0.226402 0.518306 0.838521
Si Si4 0.448492 0.502400 0.175076
Si Si5 0.323265 0.231393 0.565646
Si Si6 0.867663 0.368349 0.881284
O O1 0.123434 0.956926 0.994498
O O2 0.000000 0.500000 0.500000
O O3 0.140195 0.502267 0.726011
O O4 0.979724 0.364157 0.892830
O O5 0.463513 0.605007 0.613208
O O6 0.331712 0.520991 0.477609
O O7 0.312132 0.147360 0.107330
O O8 0.278510 0.758586 0.596724
O O9 0.177979 0.620130 0.945700
O O10 0.387959 0.259885 0.383646
O O11 0.500000 0.500000 0.000000
O O12 0.370269 0.882128 0.907845
O O13 0.209722 0.329017 0.439121
#
# Coordination Sequence:
#
# PCOD9067758 Si02
#       6
#     2   2   2   2   2   2
#     4  11  26  46  72 100 141 179 237 285 352 410
#     4  12  25  46  69 105 140 183 233 281 344 413
#     4  12  26  46  73 103 143 180 234 282 345 415
#     4  12  25  43  69 104 138 183 232 281 340 413
#     4  12  24  44  71  98 143 182 229 282 346 405
#     4  11  26  45  70 104 136 187 227 292 344 410
#
# _framework density 25.900386999999998
#
# number of rings (size 3 to 8) (size 9 to 14) (size 15 to 20)
#    0.000    0.333    1.667    7.000    7.000    0.667 
#    0.000    0.000    0.000    0.000    0.000    0.000 
#    0.000    0.000    0.000    0.000    0.000    0.000 
#
# Total GULP energy -67395.403881 kJ/mol
# GULP energy per Si atom -5616.283657 kJ/mol
# Density = 2.584144 g / cm^3
# Si number density = 25.900387 Si / 1000 Ang^3
#
#
#
# Elastic Constant Matrix: (Units=GPa)
#
#
# Indices 1 2 3 4 5 6 
#
# 1 152.8797 34.2785 48.1262 -4.7493 21.3484 4.6356
# 2 34.2785 96.1720 28.3477 4.0169 16.6666 -11.7482
# 3 48.1262 28.3477 111.5471 -7.5895 4.5451 -7.8764
# 4 -4.7493 4.0169 -7.5895 44.2258 -4.0784 -6.1802
# 5 21.3484 16.6666 4.5451 -4.0784 51.5439 6.9735
# 6 4.6356 -11.7482 -7.8764 -6.1802 6.9735 36.6501
#
#
#
# Elastic Compliance Matrix: (Units=1/GPa)
#
#
# Indices 1 2 3 4 5 6 
#
# 1 0.008336 -0.001873 -0.003156 0.000047 -0.002310 -0.001886
# 2 -0.001873 0.012980 -0.002117 -0.001487 -0.003953 0.004444
# 3 -0.003156 -0.002117 0.011140 0.002169 0.000868 0.002315
# 4 0.000047 -0.001487 0.002169 0.023790 0.001655 0.003680
# 5 -0.002310 -0.003953 0.000868 0.001655 0.022334 -0.004759
# 6 -0.001886 0.004444 0.002315 0.003680 -0.004759 0.030972
#
#
# Mechanical properties :
#
#
# Convention : Reuss Voigt Hill
#
# Bulk Modulus (GPa) = 55.05441 64.67816 59.86628
# Shear Modulus (GPa) = 38.49158 43.14038 40.81598
#
# Velocity S-wave (km/s) = 3.85923 4.08564 3.97405
# Velocity P-wave (km/s) = 6.41565 6.87624 6.64993
#
# Compressibility (1/GPa) = 0.01816385
#
# Stress axis : x y z
#
# Youngs Moduli (GPa) = 119.96480 77.04388 89.76486
#
# Poissons Ratio (x) = 0.14429 0.28332
# Poissons Ratio (y) = 0.22467 0.19002
# Poissons Ratio (z) = 0.37864 0.16309
#
# Static dielectric constant tensor:
#      x y z
#    x 1.999730 -0.052420 -0.025200 
#    y -0.052420 2.076100 0.056970 
#    z -0.025200 0.056970 2.018190 
# 
# From -- ./inp_files/241782.got.cif
#   From: 2010.05.17/outbox.cif.g08.bks.cpg/sg2_121_cif.got.tgz:241782.got - 2010.06.03 11:33:40.
