data_PCOD9067887
_publ_section_title
;
Structure prediction by ZEFSAII (Michael W. Deem and Ramdas Pophale) SiO2 
 PCOD9067887
Probable space group: P -1
;
_chemical_formula_sum "Si O2"
_cell_formula_units_Z 16
_cell_length_a 9.627512
_cell_length_b 8.292918
_cell_length_c 14.066033
_cell_angle_alpha 45.421534
_cell_angle_beta 71.178160
_cell_angle_gamma 84.087992
_cell_volume 744.351016
_symmetry_space_group_name_H-M "P -1"
_symmetry_group_IT_number 2
_symmetry_cell_setting 'triclinic'
loop_
_space_group_symop_operation_xyz
x,y,z
-x,-y,-z
loop_
_atom_site_type_symbol
_atom_site_label
_atom_site_fract_x
_atom_site_fract_y
_atom_site_fract_z
Si Si1 0.133615 0.208744 0.875269
Si Si2 0.519744 0.082402 0.571327
Si Si3 0.911274 0.743186 0.626457
Si Si4 0.676320 0.576183 0.588688
Si Si5 0.597106 0.391683 0.099703
Si Si6 0.809138 0.435145 0.436602
Si Si7 0.924943 0.481797 0.920247
Si Si8 0.430690 0.222826 0.896988
O O1 0.188219 0.321711 0.716786
O O2 0.273680 0.129092 0.923256
O O3 0.059618 0.396650 0.869561
O O4 0.000000 0.000000 0.000000
O O5 0.398197 0.249294 0.531268
O O6 0.679397 0.239492 0.499405
O O7 0.500000 0.000000 0.500000
O O8 0.481910 0.854158 0.738506
O O9 0.764419 0.696187 0.611946
O O10 0.889056 0.669103 0.772670
O O11 0.027417 0.611265 0.602743
O O12 0.000000 0.000000 0.500000
O O13 0.778350 0.459167 0.544188
O O14 0.544856 0.380414 0.736822
O O15 0.610420 0.592661 0.093528
O O16 0.500000 0.500000 0.000000
O O17 0.755648 0.357687 0.034330
O O18 0.000000 0.500000 0.000000
O O19 0.500000 0.000000 0.000000
#
# Coordination Sequence:
#
# PCOD9067887 Si02
#       8
#     2   2   2   2   2   2   2   2
#     4  11  26  47  69 103 145 192 244 298 364 446
#     4  12  25  47  77 101 148 196 247 311 362 442
#     4  11  27  46  74 106 148 190 244 313 366 442
#     4  12  26  47  74 108 146 195 251 302 377 442
#     4  12  28  47  74 112 144 191 255 305 373 438
#     4  11  26  46  71 108 144 193 249 300 376 442
#     4  11  26  48  71 101 144 192 246 297 370 442
#     4  12  28  46  71 105 152 189 241 310 372 439
#
# _framework density 21.495235999999998
#
# number of rings (size 3 to 8) (size 9 to 14) (size 15 to 20)
#    0.000    0.500    3.750    2.250   14.000    0.000 
#    0.000    0.000    0.000    0.000    0.000    0.000 
#    0.000    0.000    0.000    0.000    0.000    0.000 
#
# Total GULP energy -89209.638259 kJ/mol
# GULP energy per Si atom -5575.602391 kJ/mol
# Density = 2.144631 g / cm^3
# Si number density = 21.495236 Si / 1000 Ang^3
#
#
#
# Elastic Constant Matrix: (Units=GPa)
#
#
# Indices 1 2 3 4 5 6 
#
# 1 156.9439 1.8265 72.8417 -9.8151 -3.3008 4.2170
# 2 1.8265 41.5783 31.5240 11.3418 -2.4446 1.5900
# 3 72.8417 31.5240 168.5368 -2.5595 -6.1902 16.2175
# 4 -9.8151 11.3418 -2.5595 41.5554 -5.9222 -0.5124
# 5 -3.3008 -2.4446 -6.1902 -5.9222 35.7196 -4.1364
# 6 4.2170 1.5900 16.2175 -0.5124 -4.1364 40.3902
#
#
#
# Elastic Compliance Matrix: (Units=1/GPa)
#
#
# Indices 1 2 3 4 5 6 
#
# 1 0.008295 0.002417 -0.004073 0.001129 0.000499 0.000740
# 2 0.002417 0.031697 -0.007231 -0.008528 -0.000126 0.001282
# 3 -0.004073 -0.007231 0.009382 0.001650 0.000685 -0.002966
# 4 0.001129 -0.008528 0.001650 0.027390 0.004389 0.000352
# 5 0.000499 -0.000126 0.000685 0.004389 0.029195 0.002723
# 6 0.000740 0.001282 -0.002966 0.000352 0.002723 0.026105
#
#
# Mechanical properties :
#
#
# Convention : Reuss Voigt Hill
#
# Bulk Modulus (GPa) = 31.64564 64.38260 48.01412
# Shear Modulus (GPa) = 31.17770 40.92415 36.05093
#
# Velocity S-wave (km/s) = 3.81261 4.36807 4.09976
# Velocity P-wave (km/s) = 5.84255 7.44695 6.69300
#
# Compressibility (1/GPa) = 0.03159993
#
# Stress axis : x y z
#
# Youngs Moduli (GPa) = 120.55254 31.54886 106.58910
#
# Poissons Ratio (x) = -0.07624 0.43412
# Poissons Ratio (y) = -0.29134 0.77072
# Poissons Ratio (z) = 0.49100 0.22812
#
# Static dielectric constant tensor:
#      x y z
#    x 2.001760 0.132030 0.269110 
#    y 0.132030 1.937980 0.149630 
#    z 0.269110 0.149630 1.999230 
# 
# From -- ./inp_files/494222.got.cif
#   From: 2010.05.17/outbox.cif.g08.bks.cpg/sg2_248_cif.got.tgz:494222.got - 2010.06.03 11:33:40.
