data_PCOD9067237
_publ_section_title
;
Structure prediction by ZEFSAII (Michael W. Deem and Ramdas Pophale) SiO2 
 PCOD9067237
Probable space group: P -1
;
_chemical_formula_sum "Si O2"
_cell_formula_units_Z 13
_cell_length_a 17.773849
_cell_length_b 5.350968
_cell_length_c 5.503807
_cell_angle_alpha 85.523579
_cell_angle_beta 114.622838
_cell_angle_gamma 102.523075
_cell_volume 464.489010
_symmetry_space_group_name_H-M "P -1"
_symmetry_group_IT_number 2
_symmetry_cell_setting 'triclinic'
loop_
_space_group_symop_operation_xyz
x,y,z
-x,-y,-z
loop_
_atom_site_type_symbol
_atom_site_label
_atom_site_fract_x
_atom_site_fract_y
_atom_site_fract_z
Si Si1 0.427609 0.946283 0.606301
Si Si2 0.057399 0.354823 0.427344
Si Si3 0.271797 0.767959 0.085830
Si Si4 0.644975 0.790687 0.137503
Si Si5 0.793200 0.646367 0.638209
Si Si6 0.895764 0.036580 0.080677
Si Si7 0.500000 0.500000 0.000000
O O1 0.500000 0.000000 0.500000
O O2 0.431805 0.196540 0.770538
O O3 0.441762 0.695310 0.780411
O O4 0.332638 0.902891 0.375604
O O5 0.141679 0.503308 0.394564
O O6 0.089060 0.160331 0.672469
O O7 0.000000 0.500000 0.500000
O O8 0.986605 0.216603 0.153009
O O9 0.322442 0.918242 0.920802
O O10 0.178463 0.826498 0.940490
O O11 0.252490 0.476582 0.169193
O O12 0.723437 0.693449 0.354700
O O13 0.582694 0.601671 0.897277
O O14 0.856471 0.897292 0.795929
#
# Coordination Sequence:
#
# PCOD9067237 Si02
#       7
#     2   2   2   2   2   2   1
#     4  12  27  47  74 110 150 194 248 315 380 451
#     4  11  26  48  78 115 154 202 254 318 378 451
#     4  12  26  45  75 112 147 200 255 310 378 454
#     4  12  27  49  74 112 151 195 257 311 372 461
#     4  12  26  48  80 109 153 208 248 317 385 445
#     4  11  25  48  74 114 154 198 257 314 376 458
#     4  12  26  48  74 112 146 196 244 316 376 444
#
# _framework density 27.987742000000001
#
# number of rings (size 3 to 8) (size 9 to 14) (size 15 to 20)
#    0.000    0.308    6.154    1.846    0.000   10.462 
#    0.000    0.000    0.000    0.000    0.000    0.000 
#    0.000    0.000    0.000    0.000    0.000    0.000 
#
# Total GULP energy -72630.631017 kJ/mol
# GULP energy per Si atom -5586.971617 kJ/mol
# Density = 2.792404 g / cm^3
# Si number density = 27.987742 Si / 1000 Ang^3
#
#
#
# Elastic Constant Matrix: (Units=GPa)
#
#
# Indices 1 2 3 4 5 6 
#
# 1 180.2623 54.6259 55.4792 -7.6834 23.7022 34.1424
# 2 54.6259 102.4246 38.7559 -15.6873 12.6292 16.1952
# 3 55.4792 38.7559 126.6304 -1.1311 47.0920 9.5178
# 4 -7.6834 -15.6873 -1.1311 60.3494 8.4968 6.6704
# 5 23.7022 12.6292 47.0920 8.4968 59.0817 4.5319
# 6 34.1424 16.1952 9.5178 6.6704 4.5319 45.1370
#
#
#
# Elastic Compliance Matrix: (Units=1/GPa)
#
#
# Indices 1 2 3 4 5 6 
#
# 1 0.007988 -0.002469 -0.002081 0.000976 -0.000791 -0.004782
# 2 -0.002469 0.013033 -0.002707 0.003311 0.000097 -0.002736
# 3 -0.002081 -0.002707 0.012949 0.000473 -0.009026 0.000652
# 4 0.000976 0.003311 0.000473 0.018586 -0.003812 -0.004390
# 5 -0.000791 0.000097 -0.009026 -0.003812 0.024924 0.000528
# 6 -0.004782 -0.002736 0.000652 -0.004390 0.000528 0.027212
#
#
# Mechanical properties :
#
#
# Convention : Reuss Voigt Hill
#
# Bulk Modulus (GPa) = 51.40563 78.55993 64.98278
# Shear Modulus (GPa) = 39.77942 50.27737 45.02839
#
# Velocity S-wave (km/s) = 3.77412 4.24300 4.01541
# Velocity P-wave (km/s) = 6.11548 7.22042 6.69080
#
# Compressibility (1/GPa) = 0.01945312
#
# Stress axis : x y z
#
# Youngs Moduli (GPa) = 125.19207 76.73020 77.22423
#
# Poissons Ratio (x) = 0.18947 0.16074
# Poissons Ratio (y) = 0.30914 0.20908
# Poissons Ratio (z) = 0.26058 0.20775
#
# Static dielectric constant tensor:
#      x y z
#    x 2.253280 0.024840 -0.144290 
#    y 0.024840 2.729200 0.163050 
#    z -0.144290 0.163050 2.247140 
# 
# From -- ./inp_files/4489.got.cif
#   From: 2010.05.17/outbox.cif.g08.bks.cpg/sg2_3_cif.got.tgz:4489.got - 2010.06.03 11:33:40.
