data_PCOD9067239
_publ_section_title
;
Structure prediction by ZEFSAII (Michael W. Deem and Ramdas Pophale) SiO2 
 PCOD9067239
Probable space group: P -1
;
_chemical_formula_sum "Si O2"
_cell_formula_units_Z 14
_cell_length_a 16.147900
_cell_length_b 5.487857
_cell_length_c 8.824403
_cell_angle_alpha 107.540563
_cell_angle_beta 137.621467
_cell_angle_gamma 74.176460
_cell_volume 501.051612
_symmetry_space_group_name_H-M "P -1"
_symmetry_group_IT_number 2
_symmetry_cell_setting 'triclinic'
loop_
_space_group_symop_operation_xyz
x,y,z
-x,-y,-z
loop_
_atom_site_type_symbol
_atom_site_label
_atom_site_fract_x
_atom_site_fract_y
_atom_site_fract_z
Si Si1 0.500000 0.500000 0.000000
Si Si2 0.167430 0.212600 0.227266
Si Si3 0.647421 0.211840 0.706854
Si Si4 0.772748 0.655477 0.104827
Si Si5 0.000000 0.000000 0.500000
Si Si6 0.229133 0.600086 0.618040
Si Si7 0.476395 0.990696 0.212453
Si Si8 0.048434 0.940354 0.279504
O O1 0.630049 0.343559 0.187519
O O2 0.552377 0.782067 0.171725
O O3 0.198998 0.473712 0.393570
O O4 0.271889 0.059134 0.243771
O O5 0.144691 0.040125 0.312574
O O6 0.040560 0.219795 0.967307
O O7 0.563254 0.197539 0.739745
O O8 0.560878 0.199602 0.440270
O O9 0.734481 0.440279 0.892147
O O10 0.780273 0.541426 0.263146
O O11 0.894889 0.791303 0.260773
O O12 0.649460 0.853742 0.978540
O O13 0.024023 0.843114 0.678613
O O14 0.119512 0.828932 0.508873
#
# Coordination Sequence:
#
# PCOD9067239 Si02
#       8
#     1   2   2   2   1   2   2   2
#     4  12  24  46  80 110 152 192 250 322 384 456
#     4  11  25  49  74 108 151 202 250 313 379 455
#     4  11  25  48  76 112 155 201 256 315 400 460
#     4  12  27  47  76 113 156 204 256 323 390 456
#     4  12  26  48  74 108 146 202 262 320 370 458
#     4  12  26  47  72 114 149 201 251 312 388 456
#     4  11  25  48  74 117 154 197 259 319 386 474
#     4  11  27  46  74 107 151 197 258 314 372 458
#
# _framework density 27.941236
#
# number of rings (size 3 to 8) (size 9 to 14) (size 15 to 20)
#    0.000    0.571    4.286    2.571    2.000    6.857 
#    0.000    0.000    0.000    0.000    0.000    0.000 
#    0.000    0.000    0.000    0.000    0.000    0.000 
#
# Total GULP energy -78045.266803 kJ/mol
# GULP energy per Si atom -5574.661915 kJ/mol
# Density = 2.787764 g / cm^3
# Si number density = 27.941236 Si / 1000 Ang^3
#
#
#
# Elastic Constant Matrix: (Units=GPa)
#
#
# Indices 1 2 3 4 5 6 
#
# 1 85.0173 26.2506 46.8058 1.1052 0.2737 -5.3069
# 2 26.2506 118.1716 69.1776 14.5215 -5.3728 -24.8149
# 3 46.8058 69.1776 189.4081 11.5475 32.8111 5.8203
# 4 1.1052 14.5215 11.5475 70.1288 1.1430 0.6347
# 5 0.2737 -5.3728 32.8111 1.1430 44.7804 -5.7204
# 6 -5.3069 -24.8149 5.8203 0.6347 -5.7204 41.2666
#
#
#
# Elastic Compliance Matrix: (Units=1/GPa)
#
#
# Indices 1 2 3 4 5 6 
#
# 1 0.014247 0.000027 -0.004228 0.000385 0.003376 0.002907
# 2 0.000027 0.016307 -0.007806 -0.002354 0.009299 0.012236
# 3 -0.004228 -0.007806 0.011183 0.000082 -0.010157 -0.008224
# 4 0.000385 -0.002354 0.000082 0.014759 -0.000943 -0.001735
# 5 0.003376 0.009299 -0.010157 -0.000943 0.032421 0.011967
# 6 0.002907 0.012236 -0.008224 -0.001735 0.011967 0.034810
#
#
# Mechanical properties :
#
#
# Convention : Reuss Voigt Hill
#
# Bulk Modulus (GPa) = 56.42410 75.22946 65.82678
# Shear Modulus (GPa) = 32.54179 47.92603 40.23391
#
# Velocity S-wave (km/s) = 3.41640 4.14604 3.79878
# Velocity P-wave (km/s) = 5.98332 7.06415 6.54608
#
# Compressibility (1/GPa) = 0.01772292
#
# Stress axis : x y z
#
# Youngs Moduli (GPa) = 70.18860 61.32213 89.42481
#
# Poissons Ratio (x) = -0.00164 0.37809
# Poissons Ratio (y) = -0.00188 0.69804
# Poissons Ratio (z) = 0.29676 0.47867
#
# Static dielectric constant tensor:
#      x y z
#    x 3.948440 -0.136800 -1.404420 
#    y -0.136800 2.248790 0.044320 
#    z -1.404420 0.044320 3.227810 
# 
# From -- ./inp_files/43571.got.cif
#   From: 2010.05.17/outbox.cif.g08.bks.cpg/sg2_22_cif.got.tgz:43571.got - 2010.06.03 11:33:40.
