data_PCOD9067843
_publ_section_title
;
Structure prediction by ZEFSAII (Michael W. Deem and Ramdas Pophale) SiO2 
 PCOD9067843
Probable space group: P -1
;
_chemical_formula_sum "Si O2"
_cell_formula_units_Z 16
_cell_length_a 12.294170
_cell_length_b 17.846721
_cell_length_c 8.145121
_cell_angle_alpha 125.874526
_cell_angle_beta 95.196954
_cell_angle_gamma 40.628194
_cell_volume 698.923721
_symmetry_space_group_name_H-M "P -1"
_symmetry_group_IT_number 2
_symmetry_cell_setting 'triclinic'
loop_
_space_group_symop_operation_xyz
x,y,z
-x,-y,-z
loop_
_atom_site_type_symbol
_atom_site_label
_atom_site_fract_x
_atom_site_fract_y
_atom_site_fract_z
Si Si1 0.670791 0.428570 0.310679
Si Si2 0.638420 0.971473 0.587008
Si Si3 0.351259 0.190473 0.142579
Si Si4 0.429194 0.787903 0.169813
Si Si5 0.870899 0.466676 0.317767
Si Si6 0.358456 0.687540 0.301786
Si Si7 0.078122 0.548743 0.080284
Si Si8 0.905209 0.066479 0.887146
O O1 0.500000 0.500000 0.500000
O O2 0.811868 0.417380 0.348266
O O3 0.501609 0.595170 0.366394
O O4 0.843430 0.217257 0.016961
O O5 0.871291 0.755892 0.397378
O O6 0.500000 0.000000 0.500000
O O7 0.679458 0.033556 0.571475
O O8 0.486778 0.115666 0.901788
O O9 0.301927 0.320051 0.403863
O O10 0.112365 0.324507 0.229371
O O11 0.500000 0.000000 0.000000
O O12 0.369423 0.761118 0.269351
O O13 0.320676 0.825574 0.038729
O O14 0.697016 0.602791 0.980221
O O15 0.887782 0.440835 0.089056
O O16 0.500000 0.500000 0.000000
O O17 0.099189 0.872357 0.557828
O O18 0.000000 0.500000 0.000000
O O19 0.000000 0.000000 0.000000
#
# Coordination Sequence:
#
# PCOD9067843 Si02
#       8
#     2   2   2   2   2   2   2   2
#     4  12  27  50  77 110 158 201 266 323 393 463
#     4  12  26  45  75 114 155 195 257 317 389 468
#     4  11  26  48  72 112 154 199 260 313 397 465
#     4  12  28  45  80 110 156 200 257 317 397 455
#     4  11  26  45  77 108 152 204 253 324 387 461
#     4  12  27  48  75 111 146 198 265 320 379 465
#     4  12  24  48  76 112 153 202 260 317 385 468
#     4  12  29  51  76 111 155 206 262 322 390 469
#
# _framework density 22.892339
#
# number of rings (size 3 to 8) (size 9 to 14) (size 15 to 20)
#    0.000    0.250    6.250    1.125    5.250    3.000 
#    0.000    0.000    0.000    0.000    0.000    0.000 
#    0.000    0.000    0.000    0.000    0.000    0.000 
#
# Total GULP energy -89441.658010 kJ/mol
# GULP energy per Si atom -5590.103626 kJ/mol
# Density = 2.284024 g / cm^3
# Si number density = 22.892339 Si / 1000 Ang^3
#
#
#
# Elastic Constant Matrix: (Units=GPa)
#
#
# Indices 1 2 3 4 5 6 
#
# 1 149.7950 44.9151 48.7477 9.8663 10.1910 -1.6981
# 2 44.9151 113.5646 18.9199 17.5786 2.0346 -15.0440
# 3 48.7477 18.9199 128.4433 23.5155 -0.6625 -5.4100
# 4 9.8663 17.5786 23.5155 41.5102 6.7611 -3.2681
# 5 10.1910 2.0346 -0.6625 6.7611 36.9053 8.9548
# 6 -1.6981 -15.0440 -5.4100 -3.2681 8.9548 45.7640
#
#
#
# Elastic Compliance Matrix: (Units=1/GPa)
#
#
# Indices 1 2 3 4 5 6 
#
# 1 0.008710 -0.003164 -0.003129 0.001396 -0.002418 -0.000514
# 2 -0.003164 0.011019 0.000437 -0.003941 0.000212 0.003234
# 3 -0.003129 0.000437 0.009913 -0.005328 0.001885 0.000450
# 4 0.001396 -0.003941 -0.005328 0.029538 -0.006018 0.001413
# 5 -0.002418 0.000212 0.001885 -0.006018 0.030387 -0.006173
# 6 -0.000514 0.003234 0.000450 0.001413 -0.006173 0.024257
#
#
# Mechanical properties :
#
#
# Convention : Reuss Voigt Hill
#
# Bulk Modulus (GPa) = 55.77780 68.55205 62.16492
# Shear Modulus (GPa) = 38.01924 43.45057 40.73491
#
# Velocity S-wave (km/s) = 4.07969 4.36138 4.22288
# Velocity P-wave (km/s) = 6.82715 7.44127 7.14082
#
# Compressibility (1/GPa) = 0.01792828
#
# Stress axis : x y z
#
# Youngs Moduli (GPa) = 114.81607 90.75306 100.87755
#
# Poissons Ratio (x) = 0.28716 0.31566
# Poissons Ratio (y) = 0.36330 -0.04405
# Poissons Ratio (z) = 0.35927 -0.03963
#
# Static dielectric constant tensor:
#      x y z
#    x 1.937410 -0.003070 -0.014340 
#    y -0.003070 1.844570 -0.054380 
#    z -0.014340 -0.054380 1.866030 
# 
# From -- ./inp_files/279907.got.cif
#   From: 2010.05.17/outbox.cif.g08.bks.cpg/sg2_140_cif.got.tgz:279907.got - 2010.06.03 11:33:40.
