data_PCOD9067471
_publ_section_title
;
Structure prediction by ZEFSAII (Michael W. Deem and Ramdas Pophale) SiO2 
 PCOD9067471
Probable space group: P -1
;
_chemical_formula_sum "Si O2"
_cell_formula_units_Z 16
_cell_length_a 12.800386
_cell_length_b 9.793768
_cell_length_c 13.249216
_cell_angle_alpha 71.752302
_cell_angle_beta 142.592092
_cell_angle_gamma 82.169526
_cell_volume 713.745825
_symmetry_space_group_name_H-M "P -1"
_symmetry_group_IT_number 2
_symmetry_cell_setting 'triclinic'
loop_
_space_group_symop_operation_xyz
x,y,z
-x,-y,-z
loop_
_atom_site_type_symbol
_atom_site_label
_atom_site_fract_x
_atom_site_fract_y
_atom_site_fract_z
Si Si1 0.055999 0.874763 0.816695
Si Si2 0.303806 0.346912 0.001006
Si Si3 0.113416 0.729590 0.674512
Si Si4 0.108448 0.538292 0.208821
Si Si5 0.548738 0.638090 0.316000
Si Si6 0.420285 0.052046 0.810417
Si Si7 0.764189 0.816082 0.722626
Si Si8 0.712066 0.288114 0.399302
O O1 0.872143 0.855857 0.709650
O O2 0.139755 0.797278 0.784828
O O3 0.921473 0.099731 0.663538
O O4 0.279453 0.749558 0.086744
O O5 0.241894 0.505687 0.837117
O O6 0.068392 0.439879 0.854874
O O7 0.483310 0.318286 0.224078
O O8 0.420500 0.144625 0.086347
O O9 0.219919 0.751835 0.656668
O O10 0.843694 0.852783 0.420834
O O11 0.317127 0.474962 0.452584
O O12 0.213484 0.360637 0.255440
O O13 0.939120 0.735535 0.969931
O O14 0.566966 0.794723 0.261742
O O15 0.662584 0.474753 0.355589
O O16 0.500000 0.000000 0.000000
O O17 0.500000 0.000000 0.500000
#
# Coordination Sequence:
#
# PCOD9067471 Si02
#       8
#     2   2   2   2   2   2   2   2
#     4  12  25  45  69 105 140 186 235 289 346 426
#     4  12  24  45  73  97 143 190 235 282 349 417
#     4  12  24  44  68 103 147 188 241 279 345 426
#     4  11  26  46  73 106 138 181 232 297 355 421
#     4  12  27  45  68 106 153 175 234 295 348 412
#     4  12  27  41  68 104 145 197 240 285 342 413
#     4  11  25  49  80 101 133 183 238 288 365 426
#     4  12  26  41  72 104 143 194 230 284 348 417
#
# _framework density 22.416944000000001
#
# number of rings (size 3 to 8) (size 9 to 14) (size 15 to 20)
#    0.000    0.250    5.000    3.000    7.000    2.500 
#    0.000    1.250    0.000    0.000    0.000    0.000 
#    0.000    0.000    0.000    0.000    0.000    0.000 
#
# Total GULP energy -89607.231232 kJ/mol
# GULP energy per Si atom -5600.451952 kJ/mol
# Density = 2.236592 g / cm^3
# Si number density = 22.416944 Si / 1000 Ang^3
#
#
#
# Elastic Constant Matrix: (Units=GPa)
#
#
# Indices 1 2 3 4 5 6 
#
# 1 29.5686 -2.2109 21.8449 -7.6229 0.8048 -5.1185
# 2 -2.2109 106.7259 45.4680 -26.3201 2.7613 -5.1564
# 3 21.8449 45.4680 184.1622 -9.3664 1.1897 -21.9098
# 4 -7.6229 -26.3201 -9.3664 42.0733 -0.4244 -5.6602
# 5 0.8048 2.7613 1.1897 -0.4244 37.2158 -2.3801
# 6 -5.1185 -5.1564 -21.9098 -5.6602 -2.3801 19.6351
#
#
#
# Elastic Compliance Matrix: (Units=1/GPa)
#
#
# Indices 1 2 3 4 5 6 
#
# 1 0.042896 0.006477 -0.004744 0.012253 -0.000409 0.011072
# 2 0.006477 0.013366 -0.003056 0.009444 -0.000643 0.004433
# 3 -0.004744 -0.003056 0.007480 -0.000255 0.000490 0.006293
# 4 0.012253 0.009444 -0.000255 0.033890 0.000402 0.015208
# 5 -0.000409 -0.000643 0.000490 0.000402 0.027151 0.003678
# 6 0.011072 0.004433 0.006293 0.015208 0.003678 0.066831
#
#
# Mechanical properties :
#
#
# Convention : Reuss Voigt Hill
#
# Bulk Modulus (GPa) = 16.36812 50.07341 33.22076
# Shear Modulus (GPa) = 23.29643 36.80850 30.05246
#
# Velocity S-wave (km/s) = 3.22721 4.05655 3.66541
# Velocity P-wave (km/s) = 4.60479 6.65782 5.72410
#
# Compressibility (1/GPa) = 0.06109436
#
# Stress axis : x y z
#
# Youngs Moduli (GPa) = 23.31240 74.81660 133.69181
#
# Poissons Ratio (x) = -0.48459 0.63427
# Poissons Ratio (y) = -0.15100 0.40862
# Poissons Ratio (z) = 0.11060 0.22867
#
# Static dielectric constant tensor:
#      x y z
#    x 1.821000 0.011940 -0.033430 
#    y 0.011940 1.806150 0.002580 
#    z -0.033430 0.002580 1.843710 
# 
# From -- ./inp_files/529712.got.cif
#   From: 2010.05.17/outbox.cif.g08.bks.cpg/sg2_265_cif.got.tgz:529712.got - 2010.06.03 11:33:40.
