data_PCOD9067614
_publ_section_title
;
Structure prediction by ZEFSAII (Michael W. Deem and Ramdas Pophale) SiO2 
 PCOD9067614
Probable space group: P -1
;
_chemical_formula_sum "Si O2"
_cell_formula_units_Z 16
_cell_length_a 6.014075
_cell_length_b 18.093589
_cell_length_c 11.726115
_cell_angle_alpha 44.633874
_cell_angle_beta 84.394420
_cell_angle_gamma 59.819381
_cell_volume 700.312240
_symmetry_space_group_name_H-M "P -1"
_symmetry_group_IT_number 2
_symmetry_cell_setting 'triclinic'
loop_
_space_group_symop_operation_xyz
x,y,z
-x,-y,-z
loop_
_atom_site_type_symbol
_atom_site_label
_atom_site_fract_x
_atom_site_fract_y
_atom_site_fract_z
Si Si1 0.452583 0.032453 0.100652
Si Si2 0.517878 0.740846 0.087154
Si Si3 0.455920 0.625119 0.422925
Si Si4 0.121586 0.815879 0.638554
Si Si5 0.902037 0.541429 0.670397
Si Si6 0.695697 0.546702 0.908881
Si Si7 0.004096 0.074237 0.245178
Si Si8 0.959203 0.762331 0.480488
O O1 0.214181 0.033429 0.174756
O O2 0.739831 0.913752 0.281274
O O3 0.375838 0.176109 0.969471
O O4 0.500000 0.000000 0.000000
O O5 0.362849 0.733408 0.211349
O O6 0.771441 0.587815 0.211960
O O7 0.308070 0.819106 0.907177
O O8 0.500000 0.500000 0.500000
O O9 0.752375 0.569523 0.526680
O O10 0.234874 0.690233 0.465869
O O11 0.458745 0.706488 0.761455
O O12 0.964221 0.857764 0.722072
O O13 0.026419 0.758076 0.614372
O O14 0.054659 0.945234 0.437653
O O15 0.766158 0.512335 0.809566
O O16 0.851028 0.676464 0.559516
O O17 0.500000 0.500000 0.000000
O O18 0.000000 0.500000 0.000000
#
# Coordination Sequence:
#
# PCOD9067614 Si02
#       8
#     2   2   2   2   2   2   2   2
#     4  12  28  44  75 109 152 198 258 322 390 472
#     4  12  27  47  74 113 149 201 257 320 395 469
#     4  12  27  46  78 109 156 200 257 327 397 472
#     4  11  25  51  77 108 154 208 258 325 397 474
#     4  12  27  47  75 112 155 199 259 324 404 468
#     4  12  27  47  79 115 156 207 269 330 397 477
#     4  11  27  50  73 109 154 199 260 321 394 470
#     4  12  25  49  76 113 149 208 259 319 401 477
#
# _framework density 22.846951000000001
#
# number of rings (size 3 to 8) (size 9 to 14) (size 15 to 20)
#    0.000    0.250    3.750    4.125    7.000    1.500 
#    2.250    0.000    0.000    0.000    0.000    0.000 
#    0.000    0.000    0.000    0.000    0.000    0.000 
#
# Total GULP energy -89494.737844 kJ/mol
# GULP energy per Si atom -5593.421115 kJ/mol
# Density = 2.279495 g / cm^3
# Si number density = 22.846951 Si / 1000 Ang^3
#
#
#
# Elastic Constant Matrix: (Units=GPa)
#
#
# Indices 1 2 3 4 5 6 
#
# 1 70.5216 23.5763 32.6828 14.8651 -2.2416 7.9538
# 2 23.5763 105.5631 20.9723 27.0969 5.1653 4.5790
# 3 32.6828 20.9723 120.9209 5.1540 11.8363 6.4010
# 4 14.8651 27.0969 5.1540 42.9208 -6.8481 -2.8562
# 5 -2.2416 5.1653 11.8363 -6.8481 41.9884 2.9216
# 6 7.9538 4.5790 6.4010 -2.8562 2.9216 44.1039
#
#
#
# Elastic Compliance Matrix: (Units=1/GPa)
#
#
# Indices 1 2 3 4 5 6 
#
# 1 0.018216 -0.002041 -0.004424 -0.004366 0.001957 -0.002843
# 2 -0.002041 0.012163 -0.000949 -0.007321 -0.002458 -0.001068
# 3 -0.004424 -0.000949 0.009902 0.000472 -0.002811 -0.000324
# 4 -0.004366 -0.007321 0.000472 0.030425 0.005281 0.003100
# 5 0.001957 -0.002458 -0.002811 0.005281 0.025951 -0.001067
# 6 -0.002843 -0.001068 -0.000324 0.003100 -0.001067 0.023616
#
#
# Mechanical properties :
#
#
# Convention : Reuss Voigt Hill
#
# Bulk Modulus (GPa) = 39.28735 50.16315 44.72525
# Shear Modulus (GPa) = 34.82221 40.45423 37.63822
#
# Velocity S-wave (km/s) = 3.90827 4.21249 4.06323
# Velocity P-wave (km/s) = 6.13183 6.75751 6.45226
#
# Compressibility (1/GPa) = 0.02545348
#
# Stress axis : x y z
#
# Youngs Moduli (GPa) = 54.89664 82.21503 100.98490
#
# Poissons Ratio (x) = 0.16780 0.44680
# Poissons Ratio (y) = 0.11204 0.09581
# Poissons Ratio (z) = 0.24288 0.07800
#
# Static dielectric constant tensor:
#      x y z
#    x 1.909210 -0.014400 -0.011450 
#    y -0.014400 1.854990 0.013930 
#    z -0.011450 0.013930 1.853270 
# 
# From -- ./inp_files/369361.got.cif
#   From: 2010.05.17/outbox.cif.g08.bks.cpg/sg2_185_cif.got.tgz:369361.got - 2010.06.03 11:33:40.
