data_PCOD9067117
_publ_section_title
;
Structure prediction by ZEFSAII (Michael W. Deem and Ramdas Pophale) SiO2 
 PCOD9067117
Probable space group: P -1
;
_chemical_formula_sum "Si O2"
_cell_formula_units_Z 14
_cell_length_a 9.773599
_cell_length_b 5.340223
_cell_length_c 12.672163
_cell_angle_alpha 101.051547
_cell_angle_beta 61.735762
_cell_angle_gamma 120.715496
_cell_volume 499.720374
_symmetry_space_group_name_H-M "P -1"
_symmetry_group_IT_number 2
_symmetry_cell_setting 'triclinic'
loop_
_space_group_symop_operation_xyz
x,y,z
-x,-y,-z
loop_
_atom_site_type_symbol
_atom_site_label
_atom_site_fract_x
_atom_site_fract_y
_atom_site_fract_z
Si Si1 0.546628 0.427521 0.329388
Si Si2 0.654073 0.212347 0.883592
Si Si3 0.016005 0.215921 0.224797
Si Si4 0.000000 0.000000 0.000000
Si Si5 0.000000 0.500000 0.500000
Si Si6 0.627772 0.927689 0.180949
Si Si7 0.697474 0.276935 0.440649
Si Si8 0.173011 0.069810 0.347082
O O1 0.603567 0.723034 0.271436
O O2 0.650238 0.489660 0.406810
O O3 0.602145 0.207414 0.233370
O O4 0.333491 0.262068 0.381695
O O5 0.825586 0.515623 0.876795
O O6 0.539614 0.284065 0.848130
O O7 0.738815 0.033176 0.784443
O O8 0.500000 0.000000 0.000000
O O9 0.845063 0.252105 0.311514
O O10 0.081527 0.223425 0.323375
O O11 0.980206 0.959299 0.136754
O O12 0.183447 0.978780 0.932620
O O13 0.789505 0.325496 0.524275
O O14 0.968249 0.227464 0.570458
O O15 0.500000 0.000000 0.500000
#
# Coordination Sequence:
#
# PCOD9067117 Si02
#       8
#     2   2   2   1   1   2   2   2
#     4  11  25  51  78 116 170 219 282 353 433 512
#     4  11  25  47  81 115 163 220 279 355 431 516
#     4  12  27  52  79 120 170 220 289 356 439 528
#     4  12  28  44  76 120 168 220 280 344 442 518
#     4  12  26  48  84 114 162 220 292 350 432 506
#     4  11  26  47  77 118 164 222 276 349 429 521
#     4  12  27  53  81 121 165 226 291 365 431 518
#     4  11  25  49  77 119 163 218 287 352 434 517
#
# _framework density 28.015666
#
# number of rings (size 3 to 8) (size 9 to 14) (size 15 to 20)
#    0.000    0.571    5.714    0.857    6.000    3.429 
#    5.143    1.429    0.000    0.000    0.000    0.000 
#    0.000    0.000    0.000    0.000    0.000    0.000 
#
# Total GULP energy -77990.611043 kJ/mol
# GULP energy per Si atom -5570.757932 kJ/mol
# Density = 2.795190 g / cm^3
# Si number density = 28.015666 Si / 1000 Ang^3
#
#
#
# Elastic Constant Matrix: (Units=GPa)
#
#
# Indices 1 2 3 4 5 6 
#
# 1 228.8287 30.5472 35.1748 -14.7439 -17.8735 -8.1289
# 2 30.5472 86.0041 32.2534 -27.9381 -17.9103 -13.1212
# 3 35.1748 32.2534 148.8270 -12.9174 -18.4160 -8.9607
# 4 -14.7439 -27.9381 -12.9174 45.5407 -3.0458 -4.6042
# 5 -17.8735 -17.9103 -18.4160 -3.0458 74.7438 -1.1978
# 6 -8.1289 -13.1212 -8.9607 -4.6042 -1.1978 47.6892
#
#
#
# Elastic Compliance Matrix: (Units=1/GPa)
#
#
# Indices 1 2 3 4 5 6 
#
# 1 0.004736 -0.000872 -0.000722 0.000901 0.000791 0.000539
# 2 -0.000872 0.017952 -0.001872 0.011046 0.004172 0.005610
# 3 -0.000722 -0.001872 0.007594 0.000952 0.001303 0.000914
# 4 0.000901 0.011046 0.000952 0.030240 0.004432 0.006403
# 5 0.000791 0.004172 0.001303 0.004432 0.015107 0.002335
# 6 0.000539 0.005610 0.000914 0.006403 0.002335 0.023453
#
#
# Mechanical properties :
#
#
# Convention : Reuss Voigt Hill
#
# Bulk Modulus (GPa) = 42.82307 73.29008 58.05657
# Shear Modulus (GPa) = 43.93741 57.97368 50.95555
#
# Velocity S-wave (km/s) = 3.96449 4.55392 4.26939
# Velocity P-wave (km/s) = 6.02286 7.33949 6.71353
#
# Compressibility (1/GPa) = 0.02335190
#
# Stress axis : x y z
#
# Youngs Moduli (GPa) = 211.12884 55.70404 131.67666
#
# Poissons Ratio (x) = 0.04857 0.09506
# Poissons Ratio (y) = 0.18408 0.24645
# Poissons Ratio (z) = 0.15242 0.10426
#
# Static dielectric constant tensor:
#      x y z
#    x 2.229590 0.067590 0.158140 
#    y 0.067590 2.327760 0.152270 
#    z 0.158140 0.152270 2.387070 
# 
# From -- ./inp_files/488365.got.cif
#   From: 2010.05.17/outbox.cif.g08.bks.cpg/sg2_245_cif.got.tgz:488365.got - 2010.06.03 11:33:40.
