data_PCOD9067446
_publ_section_title
;
Structure prediction by ZEFSAII (Michael W. Deem and Ramdas Pophale) SiO2 
 PCOD9067446
Probable space group: P -1
;
_chemical_formula_sum "Si O2"
_cell_formula_units_Z 11
_cell_length_a 4.826902
_cell_length_b 8.119337
_cell_length_c 14.052916
_cell_angle_alpha 137.445072
_cell_angle_beta 101.789953
_cell_angle_gamma 86.087020
_cell_volume 361.787023
_symmetry_space_group_name_H-M "P -1"
_symmetry_group_IT_number 2
_symmetry_cell_setting 'triclinic'
loop_
_space_group_symop_operation_xyz
x,y,z
-x,-y,-z
loop_
_atom_site_type_symbol
_atom_site_label
_atom_site_fract_x
_atom_site_fract_y
_atom_site_fract_z
Si Si1 0.057018 0.703259 0.905368
Si Si2 0.678358 0.736906 0.068310
Si Si3 0.365343 0.877901 0.625798
Si Si4 0.754403 0.775332 0.376685
Si Si5 0.358530 0.431637 0.333208
Si Si6 0.500000 0.000000 0.000000
O O1 0.119529 0.432938 0.763778
O O2 0.185885 0.873585 0.893004
O O3 0.425448 0.829278 0.020753
O O4 0.928314 0.681204 0.993466
O O5 0.786775 0.949716 0.239877
O O6 0.500000 0.500000 0.000000
O O7 0.470419 0.087464 0.643802
O O8 0.193993 0.631518 0.462487
O O9 0.572148 0.757490 0.662258
O O10 0.605743 0.635509 0.396822
O O11 0.000000 0.000000 0.500000
O O12 0.282125 0.284801 0.165532
#
# Coordination Sequence:
#
# PCOD9067446 Si02
#       6
#     2   2   2   2   2   1
#     4  12  26  52  83 113 163 213 261 330 399 469
#     4  12  27  47  78 117 159 206 260 323 403 471
#     4  11  25  49  77 118 155 204 264 320 391 476
#     4  12  26  47  78 116 159 203 259 326 395 465
#     4  11  26  51  78 114 159 210 263 320 394 466
#     4  12  28  52  76 114 162 210 260 326 394 466
#
# _framework density 30.404627000000001
#
# number of rings (size 3 to 8) (size 9 to 14) (size 15 to 20)
#    0.000    0.364    1.818    6.545    2.545    3.636 
#    6.545    1.818    0.000    2.182    0.000    0.000 
#    0.000    0.000    0.000    0.000    0.000    0.000 
#
# Total GULP energy -61394.548977 kJ/mol
# GULP energy per Si atom -5581.322634 kJ/mol
# Density = 3.033542 g / cm^3
# Si number density = 30.404627 Si / 1000 Ang^3
#
#
#
# Elastic Constant Matrix: (Units=GPa)
#
#
# Indices 1 2 3 4 5 6 
#
# 1 133.0823 85.8929 11.4222 -3.8241 -11.0599 53.1742
# 2 85.8929 291.8108 48.9194 20.7688 -14.6048 5.9558
# 3 11.4222 48.9194 228.6888 28.0428 -10.8417 24.8739
# 4 -3.8241 20.7688 28.0428 58.7621 -7.5944 -0.1821
# 5 -11.0599 -14.6048 -10.8417 -7.5944 43.3618 -5.9680
# 6 53.1742 5.9558 24.8739 -0.1821 -5.9680 70.1791
#
#
#
# Elastic Compliance Matrix: (Units=1/GPa)
#
#
# Indices 1 2 3 4 5 6 
#
# 1 0.014977 -0.004465 0.001244 0.002111 0.001444 -0.011282
# 2 -0.004465 0.004971 -0.000998 -0.001498 0.000485 0.003352
# 3 0.001244 -0.000998 0.005070 -0.001923 0.000552 -0.002613
# 4 0.002111 -0.001498 -0.001923 0.018963 0.002805 -0.000503
# 5 0.001444 0.000485 0.000552 0.002805 0.024325 0.000745
# 6 -0.011282 0.003352 -0.002613 -0.000503 0.000745 0.023501
#
#
# Mechanical properties :
#
#
# Convention : Reuss Voigt Hill
#
# Bulk Modulus (GPa) = 60.31321 105.11678 82.71500
# Shear Modulus (GPa) = 47.27086 68.28376 57.77731
#
# Velocity S-wave (km/s) = 3.94728 4.74416 4.36395
# Velocity P-wave (km/s) = 6.37610 8.04097 7.25644
#
# Compressibility (1/GPa) = 0.01658012
#
# Stress axis : x y z
#
# Youngs Moduli (GPa) = 66.76697 201.17245 197.22668
#
# Poissons Ratio (x) = 0.89818 -0.24530
# Poissons Ratio (y) = 0.29810 0.19688
# Poissons Ratio (z) = -0.08304 0.20082
#
# Static dielectric constant tensor:
#      x y z
#    x 2.458360 -0.242940 0.301670 
#    y -0.242940 2.371490 -0.100530 
#    z 0.301670 -0.100530 2.280570 
# 
# From -- ./inp_files/78977.got.cif
#   From: 2010.05.17/outbox.cif.g08.bks.cpg/sg2_40_cif.got.tgz:78977.got - 2010.06.03 11:33:40.
