data_PCOD9067580
_publ_section_title
;
Structure prediction by ZEFSAII (Michael W. Deem and Ramdas Pophale) SiO2 
 PCOD9067580
Probable space group: P -1
;
_chemical_formula_sum "Si O2"
_cell_formula_units_Z 12
_cell_length_a 8.508733
_cell_length_b 11.430719
_cell_length_c 9.293191
_cell_angle_alpha 39.520166
_cell_angle_beta 55.420393
_cell_angle_gamma 52.751125
_cell_volume 448.719259
_symmetry_space_group_name_H-M "P -1"
_symmetry_group_IT_number 2
_symmetry_cell_setting 'triclinic'
loop_
_space_group_symop_operation_xyz
x,y,z
-x,-y,-z
loop_
_atom_site_type_symbol
_atom_site_label
_atom_site_fract_x
_atom_site_fract_y
_atom_site_fract_z
Si Si1 0.719945 0.459847 0.860050
Si Si2 0.763175 0.023175 0.570789
Si Si3 0.750387 0.149640 0.896101
Si Si4 0.536732 0.696306 0.342090
Si Si5 0.186522 0.137321 0.607095
Si Si6 0.917150 0.659771 0.017935
O O1 0.720809 0.336591 0.834090
O O2 0.781386 0.653586 0.616100
O O3 0.883401 0.332465 0.011099
O O4 0.500000 0.500000 0.000000
O O5 0.715826 0.982670 0.470608
O O6 0.591770 0.214927 0.533737
O O7 0.770687 0.835812 0.837574
O O8 0.000000 0.000000 0.500000
O O9 0.589252 0.158684 0.851439
O O10 0.955165 0.139202 0.717298
O O11 0.752820 0.975804 0.167257
O O12 0.500000 0.500000 0.500000
O O13 0.774294 0.643491 0.240992
O O14 0.000000 0.500000 0.000000
#
# Coordination Sequence:
#
# PCOD9067580 Si02
#       6
#     2   2   2   2   2   2
#     4  12  27  51  80 117 163 217 267 334 410 487
#     4  12  24  49  81 118 159 209 270 333 402 486
#     4  11  26  50  78 117 161 210 268 332 414 479
#     4  12  27  51  82 117 157 212 269 336 406 481
#     4  11  25  50  81 115 163 211 266 335 402 485
#     4  12  25  49  80 115 159 203 273 330 397 482
#
# _framework density 26.742781000000001
#
# number of rings (size 3 to 8) (size 9 to 14) (size 15 to 20)
#    0.000    0.333    3.333    5.000    2.333    2.000 
#    6.000    0.000    0.000    0.000    0.000    0.000 
#    0.000    0.000    0.000    0.000    0.000    0.000 
#
# Total GULP energy -67241.640998 kJ/mol
# GULP energy per Si atom -5603.470083 kJ/mol
# Density = 2.668191 g / cm^3
# Si number density = 26.742781 Si / 1000 Ang^3
#
#
#
# Elastic Constant Matrix: (Units=GPa)
#
#
# Indices 1 2 3 4 5 6 
#
# 1 120.9347 34.9814 25.6542 22.6045 1.7266 -9.4817
# 2 34.9814 224.4076 46.1988 29.9944 -18.2633 24.4537
# 3 25.6542 46.1988 121.3060 2.0190 -20.7733 -0.5571
# 4 22.6045 29.9944 2.0190 52.7033 -2.1142 -4.2300
# 5 1.7266 -18.2633 -20.7733 -2.1142 38.5726 7.2624
# 6 -9.4817 24.4537 -0.5571 -4.2300 7.2624 57.3384
#
#
#
# Elastic Compliance Matrix: (Units=1/GPa)
#
#
# Indices 1 2 3 4 5 6 
#
# 1 0.009881 -0.001108 -0.002058 -0.003462 -0.002674 0.002170
# 2 -0.001108 0.005902 -0.001559 -0.002986 0.002452 -0.003246
# 3 -0.002058 -0.001559 0.010083 0.001573 0.004885 -0.000080
# 4 -0.003462 -0.002986 0.001573 0.022299 0.000375 0.002314
# 5 -0.002674 0.002452 0.004885 0.000375 0.030859 -0.005321
# 6 0.002170 -0.003246 -0.000080 0.002314 -0.005321 0.020028
#
#
# Mechanical properties :
#
#
# Convention : Reuss Voigt Hill
#
# Bulk Modulus (GPa) = 60.91383 75.59076 68.25230
# Shear Modulus (GPa) = 43.86962 53.71045 48.79003
#
# Velocity S-wave (km/s) = 4.05461 4.48639 4.27596
# Velocity P-wave (km/s) = 6.68932 7.42726 7.06792
#
# Compressibility (1/GPa) = 0.01641663
#
# Stress axis : x y z
#
# Youngs Moduli (GPa) = 101.20083 169.42511 99.18100
#
# Poissons Ratio (x) = 0.18772 0.20412
# Poissons Ratio (y) = 0.11213 0.15460
# Poissons Ratio (z) = 0.20827 0.26410
#
# Static dielectric constant tensor:
#      x y z
#    x 2.071320 -0.060920 0.001100 
#    y -0.060920 2.169350 -0.021360 
#    z 0.001100 -0.021360 2.395410 
# 
# From -- ./inp_files/173677.got.cif
#   From: 2010.05.17/outbox.cif.g08.bks.cpg/sg2_87_cif.got.tgz:173677.got - 2010.06.03 11:33:40.
