data_PCOD9067152
_publ_section_title
;
Structure prediction by ZEFSAII (Michael W. Deem and Ramdas Pophale) SiO2 
 PCOD9067152
Probable space group: P -1
;
_chemical_formula_sum "Si O2"
_cell_formula_units_Z 13
_cell_length_a 10.963778
_cell_length_b 8.463055
_cell_length_c 10.143896
_cell_angle_alpha 108.516598
_cell_angle_beta 84.148110
_cell_angle_gamma 137.980589
_cell_volume 583.961047
_symmetry_space_group_name_H-M "P -1"
_symmetry_group_IT_number 2
_symmetry_cell_setting 'triclinic'
loop_
_space_group_symop_operation_xyz
x,y,z
-x,-y,-z
loop_
_atom_site_type_symbol
_atom_site_label
_atom_site_fract_x
_atom_site_fract_y
_atom_site_fract_z
Si Si1 0.779927 0.668813 0.059280
Si Si2 0.154885 0.261364 0.631827
Si Si3 0.945002 0.356026 0.602344
Si Si4 0.603545 0.847096 0.099922
Si Si5 0.554895 0.865344 0.422823
Si Si6 0.977360 0.357630 0.090761
Si Si7 0.500000 0.500000 0.500000
O O1 0.866981 0.787476 0.223883
O O2 0.695269 0.757706 0.047539
O O3 0.597806 0.362170 0.002124
O O4 0.932749 0.729599 0.972939
O O5 0.359710 0.418017 0.608765
O O6 0.109874 0.406161 0.644631
O O7 0.000000 0.000000 0.500000
O O8 0.000000 0.500000 0.500000
O O9 0.912522 0.453783 0.747591
O O10 0.760354 0.060826 0.517564
O O11 0.571696 0.853090 0.260585
O O12 0.761263 0.125288 0.094276
O O13 0.438232 0.603068 0.440117
O O14 0.500000 0.000000 0.500000
O O15 0.000000 0.500000 0.000000
#
# Coordination Sequence:
#
# PCOD9067152 Si02
#       7
#     2   2   2   2   2   2   1
#     4  11  25  48  71 103 144 193 241 302 367 440
#     4  12  25  47  72 106 146 186 248 307 360 445
#     4  12  24  47  74 105 149 190 245 308 370 440
#     4  11  25  49  70 102 148 191 245 302 366 441
#     4  12  25  47  75 111 149 196 249 315 370 440
#     4  12  26  45  73 108 142 195 240 298 375 437
#     4  12  26  44  76 110 142 198 250 298 382 436
#
# _framework density 22.261761
#
# number of rings (size 3 to 8) (size 9 to 14) (size 15 to 20)
#    0.000    0.308    6.154    2.308    0.000    3.077 
#    0.000    0.000    0.000    0.000    0.000    0.000 
#    0.000    0.000    0.000    0.000    0.000    0.000 
#
# Total GULP energy -72437.336507 kJ/mol
# GULP energy per Si atom -5572.102808 kJ/mol
# Density = 2.221109 g / cm^3
# Si number density = 22.261761 Si / 1000 Ang^3
#
#
#
# Elastic Constant Matrix: (Units=GPa)
#
#
# Indices 1 2 3 4 5 6 
#
# 1 105.9420 -12.8784 3.3754 -4.5790 -25.5617 -8.1502
# 2 -12.8784 64.6259 26.1990 -7.8674 2.8971 -6.8319
# 3 3.3754 26.1990 133.2635 2.6508 -14.3205 6.5827
# 4 -4.5790 -7.8674 2.6508 34.6912 5.6105 9.4738
# 5 -25.5617 2.8971 -14.3205 5.6105 43.6456 -1.3667
# 6 -8.1502 -6.8319 6.5827 9.4738 -1.3667 32.4656
#
#
#
# Elastic Compliance Matrix: (Units=1/GPa)
#
#
# Indices 1 2 3 4 5 6 
#
# 1 0.011663 0.002533 -0.000262 0.000016 0.006693 0.003791
# 2 0.002533 0.018670 -0.004183 0.003989 -0.001510 0.004185
# 3 -0.000262 -0.004183 0.008809 -0.001582 0.003151 -0.002138
# 4 0.000016 0.003989 -0.001582 0.033091 -0.005301 -0.008715
# 5 0.006693 -0.001510 0.003151 -0.005301 0.028756 0.003481
# 6 0.003791 0.004185 -0.002138 -0.008715 0.003481 0.035757
#
#
# Mechanical properties :
#
#
# Convention : Reuss Voigt Hill
#
# Bulk Modulus (GPa) = 28.31458 37.46927 32.89192
# Shear Modulus (GPa) = 32.82098 41.30282 37.06190
#
# Velocity S-wave (km/s) = 3.84385 4.31202 4.08465
# Velocity P-wave (km/s) = 5.69621 6.45439 6.08712
#
# Compressibility (1/GPa) = 0.03531749
#
# Stress axis : x y z
#
# Youngs Moduli (GPa) = 85.74425 53.56216 113.52584
#
# Poissons Ratio (x) = -0.13566 0.02971
# Poissons Ratio (y) = -0.21718 0.47487
# Poissons Ratio (z) = 0.02244 0.22405
#
# Static dielectric constant tensor:
#      x y z
#    x 1.850700 -0.063110 -0.022690 
#    y -0.063110 1.884120 0.048470 
#    z -0.022690 0.048470 1.778370 
# 
# From -- ./inp_files/173737.got.cif
#   From: 2010.05.17/outbox.cif.g08.bks.cpg/sg2_87_cif.got.tgz:173737.got - 2010.06.03 11:33:40.
