data_PCOD9067821
_publ_section_title
;
Structure prediction by ZEFSAII (Michael W. Deem and Ramdas Pophale) SiO2 
 PCOD9067821
Probable space group: P -1
;
_chemical_formula_sum "Si O2"
_cell_formula_units_Z 13
_cell_length_a 8.843068
_cell_length_b 8.454194
_cell_length_c 12.205605
_cell_angle_alpha 119.495148
_cell_angle_beta 97.147963
_cell_angle_gamma 120.863449
_cell_volume 588.610259
_symmetry_space_group_name_H-M "P -1"
_symmetry_group_IT_number 2
_symmetry_cell_setting 'triclinic'
loop_
_space_group_symop_operation_xyz
x,y,z
-x,-y,-z
loop_
_atom_site_type_symbol
_atom_site_label
_atom_site_fract_x
_atom_site_fract_y
_atom_site_fract_z
Si Si1 0.571129 0.589276 0.354542
Si Si2 0.829619 0.740864 0.643517
Si Si3 0.772568 0.391178 0.926424
Si Si4 0.867757 0.853099 0.043410
Si Si5 0.000000 0.500000 0.500000
Si Si6 0.420789 0.017241 0.614883
Si Si7 0.523077 0.231832 0.060550
O O1 0.736549 0.715853 0.509237
O O2 0.354792 0.428757 0.344060
O O3 0.610259 0.792210 0.348653
O O4 0.575700 0.400940 0.226189
O O5 0.951150 0.650667 0.610746
O O6 0.982831 0.014116 0.795135
O O7 0.603744 0.137447 0.761719
O O8 0.782888 0.586359 0.928344
O O9 0.692350 0.380771 0.034606
O O10 0.000000 0.500000 0.000000
O O11 0.685487 0.850946 0.033853
O O12 0.000000 0.000000 0.000000
O O13 0.784205 0.237921 0.445384
O O14 0.500000 0.000000 0.500000
O O15 0.500000 0.000000 0.000000
#
# Coordination Sequence:
#
# PCOD9067821 Si02
#       7
#     2   2   2   2   1   2   2
#     4  11  26  49  73 107 157 205 252 326 388 464
#     4  11  26  45  74 112 149 199 261 314 388 470
#     4  12  29  48  76 113 155 204 261 323 394 474
#     4  12  24  48  75 106 151 200 251 322 391 458
#     4  12  28  46  82 114 150 204 264 318 386 472
#     4  12  27  52  78 113 159 203 259 324 391 464
#     4  12  27  47  73 109 152 203 262 317 392 464
#
# _framework density 22.085920999999999
#
# number of rings (size 3 to 8) (size 9 to 14) (size 15 to 20)
#    0.000    0.308    4.615    2.308    8.615    1.846 
#    0.000    0.000    0.000    0.000    0.000    0.000 
#    0.000    0.000    0.000    0.000    0.000    0.000 
#
# Total GULP energy -72478.173164 kJ/mol
# GULP energy per Si atom -5575.244090 kJ/mol
# Density = 2.203565 g / cm^3
# Si number density = 22.085921 Si / 1000 Ang^3
#
#
#
# Elastic Constant Matrix: (Units=GPa)
#
#
# Indices 1 2 3 4 5 6 
#
# 1 116.5029 51.4002 43.6822 0.3544 -12.1613 31.1030
# 2 51.4002 134.3870 39.9867 17.3031 1.7392 23.3695
# 3 43.6822 39.9867 158.2783 -0.3207 12.0723 16.2678
# 4 0.3544 17.3031 -0.3207 35.3088 4.3655 -9.3052
# 5 -12.1613 1.7392 12.0723 4.3655 36.7344 -2.9617
# 6 31.1030 23.3695 16.2678 -9.3052 -2.9617 48.5938
#
#
#
# Elastic Compliance Matrix: (Units=1/GPa)
#
#
# Indices 1 2 3 4 5 6 
#
# 1 0.013006 -0.003175 -0.002571 -0.000729 0.004922 -0.005777
# 2 -0.003175 0.010496 -0.001348 -0.006030 -0.000692 -0.003761
# 3 -0.002571 -0.001348 0.007662 0.001113 -0.003459 -0.000269
# 4 -0.000729 -0.006030 0.001113 0.034200 -0.003634 0.009321
# 5 0.004922 -0.000692 -0.003459 -0.003634 0.030413 -0.000502
# 6 -0.005777 -0.003761 -0.000269 0.009321 -0.000502 0.027929
#
#
# Mechanical properties :
#
#
# Convention : Reuss Voigt Hill
#
# Bulk Modulus (GPa) = 58.90534 75.47848 67.19191
# Shear Modulus (GPa) = 34.83041 42.40066 38.61554
#
# Velocity S-wave (km/s) = 3.97551 4.38631 4.18595
# Velocity P-wave (km/s) = 6.91388 7.73964 7.33839
#
# Compressibility (1/GPa) = 0.01697639
#
# Stress axis : x y z
#
# Youngs Moduli (GPa) = 76.88541 95.27368 130.51800
#
# Poissons Ratio (x) = 0.30250 0.33550
# Poissons Ratio (y) = 0.24411 0.17598
# Poissons Ratio (z) = 0.19764 0.12846
#
# Static dielectric constant tensor:
#      x y z
#    x 1.824270 -0.012280 0.035630 
#    y -0.012280 1.763550 -0.009020 
#    z 0.035630 -0.009020 1.785640 
# 
# From -- ./inp_files/236506.got.cif
#   From: 2010.05.17/outbox.cif.g08.bks.cpg/sg2_119_cif.got.tgz:236506.got - 2010.06.03 11:33:40.
