data_PCOD9067300
_publ_section_title
;
Structure prediction by ZEFSAII (Michael W. Deem and Ramdas Pophale) SiO2 
 PCOD9067300
Probable space group: P -1
;
_chemical_formula_sum "Si O2"
_cell_formula_units_Z 12
_cell_length_a 8.309372
_cell_length_b 10.927746
_cell_length_c 7.213542
_cell_angle_alpha 94.841506
_cell_angle_beta 99.480775
_cell_angle_gamma 135.255541
_cell_volume 435.242213
_symmetry_space_group_name_H-M "P -1"
_symmetry_group_IT_number 2
_symmetry_cell_setting 'triclinic'
loop_
_space_group_symop_operation_xyz
x,y,z
-x,-y,-z
loop_
_atom_site_type_symbol
_atom_site_label
_atom_site_fract_x
_atom_site_fract_y
_atom_site_fract_z
Si Si1 0.780106 0.361499 0.718711
Si Si2 0.543665 0.665330 0.078598
Si Si3 0.707817 0.393259 0.332063
Si Si4 0.889985 0.009300 0.684594
Si Si5 0.237882 0.869059 0.021950
Si Si6 0.069330 0.237429 0.407279
O O1 0.646347 0.274596 0.482646
O O2 0.123567 0.914344 0.493169
O O3 0.639800 0.390043 0.805438
O O4 0.796448 0.261554 0.856883
O O5 0.474316 0.694676 0.880860
O O6 0.500000 0.500000 0.000000
O O7 0.818536 0.840537 0.209557
O O8 0.948281 0.474945 0.286828
O O9 0.500000 0.000000 0.000000
O O10 0.197743 0.963401 0.155884
O O11 0.798927 0.818953 0.620765
O O12 0.775801 0.566750 0.448152
O O13 0.056004 0.786117 0.805723
#
# Coordination Sequence:
#
# PCOD9067300 Si02
#       6
#     2   2   2   2   2   2
#     4  11  27  47  76 112 153 199 254 304 379 448
#     4  12  25  47  76 112 152 203 245 312 378 449
#     4  11  26  48  80 112 154 197 249 315 371 453
#     4  11  26  51  75 111 156 195 256 308 379 453
#     4  12  27  51  77 108 151 204 251 314 377 449
#     4  11  25  48  77 111 150 201 245 314 373 445
#
# _framework density 27.570855999999999
#
# number of rings (size 3 to 8) (size 9 to 14) (size 15 to 20)
#    0.000    0.667    3.333    2.000    9.333    2.667 
#    6.000    0.000    0.000    0.000    0.000    0.000 
#    0.000    0.000    0.000    0.000    0.000    0.000 
#
# Total GULP energy -67383.338673 kJ/mol
# GULP energy per Si atom -5615.278223 kJ/mol
# Density = 2.750810 g / cm^3
# Si number density = 27.570856 Si / 1000 Ang^3
#
#
#
# Elastic Constant Matrix: (Units=GPa)
#
#
# Indices 1 2 3 4 5 6 
#
# 1 182.0889 69.5458 83.7597 -8.3160 -44.1075 -17.0380
# 2 69.5458 128.4915 70.6268 -19.1241 -16.1153 -14.8691
# 3 83.7597 70.6268 254.8002 -41.7996 -15.4874 -1.7974
# 4 -8.3160 -19.1241 -41.7996 56.0144 -7.6439 -12.4539
# 5 -44.1075 -16.1153 -15.4874 -7.6439 62.9291 -3.5085
# 6 -17.0380 -14.8691 -1.7974 -12.4539 -3.5085 35.9283
#
#
#
# Elastic Compliance Matrix: (Units=1/GPa)
#
#
# Indices 1 2 3 4 5 6 
#
# 1 0.009064 -0.002688 -0.001748 0.000747 0.005543 0.003899
# 2 -0.002688 0.011330 -0.001566 0.003523 0.001322 0.004687
# 3 -0.001748 -0.001566 0.005482 0.003303 0.000122 -0.000045
# 4 0.000747 0.003523 0.003303 0.024924 0.005890 0.011192
# 5 0.005543 0.001322 0.000122 0.005890 0.021267 0.007300
# 6 0.003899 0.004687 -0.000045 0.011192 0.007300 0.036212
#
#
# Mechanical properties :
#
#
# Convention : Reuss Voigt Hill
#
# Bulk Modulus (GPa) = 72.07517 112.58281 92.32899
# Shear Modulus (GPa) = 40.03033 53.73758 46.88395
#
# Velocity S-wave (km/s) = 3.81452 4.41962 4.12817
# Velocity P-wave (km/s) = 6.75273 8.18332 7.50220
#
# Compressibility (1/GPa) = 0.01387440
#
# Stress axis : x y z
#
# Youngs Moduli (GPa) = 110.33049 88.25788 182.41045
#
# Poissons Ratio (x) = 0.23721 0.31877
# Poissons Ratio (y) = 0.29653 0.28561
# Poissons Ratio (z) = 0.19281 0.13819
#
# Static dielectric constant tensor:
#      x y z
#    x 2.176550 0.025120 0.044790 
#    y 0.025120 2.268510 0.026180 
#    z 0.044790 0.026180 2.102510 
# 
# From -- ./inp_files/73259.got.cif
#   From: 2010.05.17/outbox.cif.g08.bks.cpg/sg2_37_cif.got.tgz:73259.got - 2010.06.03 11:33:40.
