data_PCOD9067279
_publ_section_title
;
Structure prediction by ZEFSAII (Michael W. Deem and Ramdas Pophale) SiO2 
 PCOD9067279
Probable space group: P -1
;
_chemical_formula_sum "Si O2"
_cell_formula_units_Z 13
_cell_length_a 15.380091
_cell_length_b 8.705183
_cell_length_c 14.853321
_cell_angle_alpha 130.053552
_cell_angle_beta 29.219847
_cell_angle_gamma 109.336366
_cell_volume 584.845006
_symmetry_space_group_name_H-M "P -1"
_symmetry_group_IT_number 2
_symmetry_cell_setting 'triclinic'
loop_
_space_group_symop_operation_xyz
x,y,z
-x,-y,-z
loop_
_atom_site_type_symbol
_atom_site_label
_atom_site_fract_x
_atom_site_fract_y
_atom_site_fract_z
Si Si1 0.510567 0.716176 0.706246
Si Si2 0.075520 0.351501 0.781100
Si Si3 0.968766 0.472616 0.414669
Si Si4 0.500000 0.000000 0.000000
Si Si5 0.703045 0.748310 0.121948
Si Si6 0.293656 0.849471 0.630133
Si Si7 0.976492 0.021492 0.833429
O O1 0.685037 0.727857 0.495495
O O2 0.633228 0.422933 0.511009
O O3 0.443241 0.891128 0.921270
O O4 0.287333 0.813826 0.888536
O O5 0.074167 0.115039 0.710601
O O6 0.000000 0.500000 0.000000
O O7 0.889184 0.536488 0.944541
O O8 0.916793 0.272347 0.381595
O O9 0.000000 0.500000 0.500000
O O10 0.761684 0.739890 0.662460
O O11 0.193772 0.352276 0.107452
O O12 0.470772 0.799469 0.373921
O O13 0.678896 0.000608 0.262002
O O14 0.048914 0.035317 0.873881
#
# Coordination Sequence:
#
# PCOD9067279 Si02
#       7
#     2   2   2   1   2   2   2
#     4  12  27  48  77 109 157 199 248 313 372 447
#     4  12  26  46  73 117 152 192 253 311 376 451
#     4  12  27  49  76 108 149 203 254 308 372 442
#     4  12  24  50  76 104 150 200 252 306 368 440
#     4  11  25  49  77 111 159 193 253 314 372 458
#     4  11  25  48  76 115 151 198 245 312 385 440
#     4  12  26  45  75 114 146 197 249 299 382 447
#
# _framework density 22.228110999999998
#
# number of rings (size 3 to 8) (size 9 to 14) (size 15 to 20)
#    0.000    0.308    7.692    0.000    4.308    1.846 
#    2.769    3.846    0.000    0.000    0.000    0.000 
#    0.000    0.000    0.000    0.000    0.000    0.000 
#
# Total GULP energy -72573.136109 kJ/mol
# GULP energy per Si atom -5582.548931 kJ/mol
# Density = 2.217752 g / cm^3
# Si number density = 22.228111 Si / 1000 Ang^3
#
#
#
# Elastic Constant Matrix: (Units=GPa)
#
#
# Indices 1 2 3 4 5 6 
#
# 1 113.2868 12.7439 42.3780 -11.3547 -5.1152 -11.5019
# 2 12.7439 110.9925 60.1784 -16.8509 3.8522 -0.9162
# 3 42.3780 60.1784 136.0807 -6.7504 -1.7134 2.5653
# 4 -11.3547 -16.8509 -6.7504 35.7101 4.8819 -2.7968
# 5 -5.1152 3.8522 -1.7134 4.8819 55.5492 -1.3357
# 6 -11.5019 -0.9162 2.5653 -2.7968 -1.3357 23.9367
#
#
#
# Elastic Compliance Matrix: (Units=1/GPa)
#
#
# Indices 1 2 3 4 5 6 
#
# 1 0.011268 0.001575 -0.004122 0.003966 0.000607 0.006414
# 2 0.001575 0.013074 -0.006044 0.005917 -0.001407 0.002518
# 3 -0.004122 -0.006044 0.011262 -0.002391 0.000509 -0.003670
# 4 0.003966 0.005917 -0.002391 0.032463 -0.002827 0.006024
# 5 0.000607 -0.001407 0.000509 -0.002827 0.018441 0.000882
# 6 0.006414 0.002518 -0.003670 0.006024 0.000882 0.046101
#
#
# Mechanical properties :
#
#
# Convention : Reuss Voigt Hill
#
# Bulk Modulus (GPa) = 54.28182 65.66229 59.97206
# Shear Modulus (GPa) = 32.06544 39.37652 35.72098
#
# Velocity S-wave (km/s) = 3.80223 4.21345 4.01311
# Velocity P-wave (km/s) = 6.61432 7.29899 6.96508
#
# Compressibility (1/GPa) = 0.01842237
#
# Stress axis : x y z
#
# Youngs Moduli (GPa) = 88.74583 76.49047 88.79416
#
# Poissons Ratio (x) = -0.12050 0.36603
# Poissons Ratio (y) = -0.13980 0.53664
# Poissons Ratio (z) = 0.36583 0.46229
#
# Static dielectric constant tensor:
#      x y z
#    x 1.873200 -0.003730 -0.016720 
#    y -0.003730 1.845290 -0.015050 
#    z -0.016720 -0.015050 1.795500 
# 
# From -- ./inp_files/530100.got.cif
#   From: 2010.05.17/outbox.cif.g08.bks.cpg/sg2_266_cif.got.tgz:530100.got - 2010.06.03 11:33:40.
