data_PCOD9067096
_publ_section_title
;
Structure prediction by ZEFSAII (Michael W. Deem and Ramdas Pophale) SiO2 
 PCOD9067096
Probable space group: P -1
;
_chemical_formula_sum "Si O2"
_cell_formula_units_Z 13
_cell_length_a 10.245789
_cell_length_b 6.059320
_cell_length_c 14.634421
_cell_angle_alpha 81.233057
_cell_angle_beta 143.492829
_cell_angle_gamma 109.767005
_cell_volume 496.957233
_symmetry_space_group_name_H-M "P -1"
_symmetry_group_IT_number 2
_symmetry_cell_setting 'triclinic'
loop_
_space_group_symop_operation_xyz
x,y,z
-x,-y,-z
loop_
_atom_site_type_symbol
_atom_site_label
_atom_site_fract_x
_atom_site_fract_y
_atom_site_fract_z
Si Si1 0.377764 0.372468 0.073156
Si Si2 0.806089 0.650499 0.607744
Si Si3 0.000000 0.500000 0.000000
Si Si4 0.750722 0.370126 0.417732
Si Si5 0.308112 0.745641 0.888387
Si Si6 0.549342 0.132364 0.682026
Si Si7 0.911257 0.901584 0.838537
O O1 0.544144 0.439745 0.251852
O O2 0.585241 0.377015 0.119304
O O3 0.267237 0.567750 0.964835
O O4 0.167822 0.111543 0.955514
O O5 0.757490 0.421815 0.527961
O O6 0.599657 0.747162 0.466852
O O7 0.849233 0.697208 0.737256
O O8 0.077131 0.789345 0.721589
O O9 0.266120 0.679754 0.161328
O O10 0.077445 0.259150 0.058884
O O11 0.000000 0.500000 0.500000
O O12 0.649469 0.084884 0.364764
O O13 0.500000 0.000000 0.000000
O O14 0.712178 0.017338 0.724444
#
# Coordination Sequence:
#
# PCOD9067096 Si02
#       7
#     2   2   1   2   2   2   2
#     4  11  26  49  80 112 163 207 272 327 405 473
#     4  12  29  47  79 118 162 210 269 332 414 475
#     4  12  28  54  80 114 158 218 282 318 406 484
#     4  12  28  51  79 120 162 210 269 347 403 481
#     4  11  25  47  78 119 154 216 271 326 396 487
#     4  12  30  49  79 119 165 214 270 332 410 484
#     4  12  28  52  82 117 163 218 267 340 393 500
#
# _framework density 26.159193999999999
#
# number of rings (size 3 to 8) (size 9 to 14) (size 15 to 20)
#    0.000    0.308    4.615    1.846    8.615    4.308 
#    0.000    0.000    0.000    0.000    0.000    0.000 
#    0.000    0.000    0.000    0.000    0.000    0.000 
#
# Total GULP energy -72390.834139 kJ/mol
# GULP energy per Si atom -5568.525703 kJ/mol
# Density = 2.609965 g / cm^3
# Si number density = 26.159194 Si / 1000 Ang^3
#
#
#
# Elastic Constant Matrix: (Units=GPa)
#
#
# Indices 1 2 3 4 5 6 
#
# 1 74.8720 3.7335 33.0004 10.1081 8.0213 -16.8169
# 2 3.7335 110.5084 30.0746 34.2926 14.3775 11.0174
# 3 33.0004 30.0746 170.4486 37.8713 36.8439 2.7121
# 4 10.1081 34.2926 37.8713 48.6728 -12.6661 22.4454
# 5 8.0213 14.3775 36.8439 -12.6661 55.5121 2.0381
# 6 -16.8169 11.0174 2.7121 22.4454 2.0381 35.4003
#
#
#
# Elastic Compliance Matrix: (Units=1/GPa)
#
#
# Indices 1 2 3 4 5 6 
#
# 1 0.023278 0.006401 0.003630 -0.029039 -0.015087 0.028069
# 2 0.006401 0.017111 0.005846 -0.030375 -0.016809 0.017495
# 3 0.003630 0.005846 0.014707 -0.030110 -0.019367 0.018985
# 4 -0.029039 -0.030375 -0.030110 0.128394 0.064543 -0.087158
# 5 -0.015087 -0.016809 -0.019367 0.064543 0.053761 -0.044471
# 6 0.028069 0.017495 0.018985 -0.087158 -0.044471 0.092506
#
#
# Mechanical properties :
#
#
# Convention : Reuss Voigt Hill
#
# Bulk Modulus (GPa) = 11.51403 54.38289 32.94846
# Shear Modulus (GPa) = 15.29276 47.18509 31.23893
#
# Velocity S-wave (km/s) = 2.42048 4.25169 3.45945
# Velocity P-wave (km/s) = 3.49610 6.70349 5.34600
#
# Compressibility (1/GPa) = 0.08685053
#
# Stress axis : x y z
#
# Youngs Moduli (GPa) = 42.95901 58.44322 67.99505
#
# Poissons Ratio (x) = -0.37412 -0.24685
# Poissons Ratio (y) = -0.27500 -0.39747
# Poissons Ratio (z) = -0.15596 -0.34164
#
# Static dielectric constant tensor:
#      x y z
#    x 2.269440 0.057990 -0.105220 
#    y 0.057990 2.071970 -0.066220 
#    z -0.105220 -0.066220 2.052510 
# 
# From -- ./inp_files/564142.got.cif
#   From: 2010.05.17/outbox.cif.g08.bks.cpg/sg2_283_cif.got.tgz:564142.got - 2010.06.03 11:33:40.
