data_PCOD9067876
_publ_section_title
;
Structure prediction by ZEFSAII (Michael W. Deem and Ramdas Pophale) SiO2 
 PCOD9067876
Probable space group: P -1
;
_chemical_formula_sum "Si O2"
_cell_formula_units_Z 14
_cell_length_a 16.968567
_cell_length_b 8.828346
_cell_length_c 8.422653
_cell_angle_alpha 97.987925
_cell_angle_beta 109.828438
_cell_angle_gamma 34.492171
_cell_volume 648.322435
_symmetry_space_group_name_H-M "P -1"
_symmetry_group_IT_number 2
_symmetry_cell_setting 'triclinic'
loop_
_space_group_symop_operation_xyz
x,y,z
-x,-y,-z
loop_
_atom_site_type_symbol
_atom_site_label
_atom_site_fract_x
_atom_site_fract_y
_atom_site_fract_z
Si Si1 0.597602 0.242743 0.249258
Si Si2 0.296598 0.873541 0.058038
Si Si3 0.138262 0.968392 0.450218
Si Si4 0.727569 0.749413 0.782299
Si Si5 0.012421 0.162906 0.045541
Si Si6 0.836941 0.421039 0.501766
Si Si7 0.437576 0.060833 0.790732
O O1 0.428978 0.569937 0.182005
O O2 0.712205 0.165516 0.423402
O O3 0.592405 0.073302 0.265307
O O4 0.657141 0.166187 0.097648
O O5 0.284002 0.053806 0.164724
O O6 0.136414 0.032743 0.985554
O O7 0.076489 0.102964 0.254211
O O8 0.003353 0.203734 0.517994
O O9 0.166835 0.742546 0.449434
O O10 0.782358 0.622692 0.626279
O O11 0.566056 0.920236 0.736131
O O12 0.853127 0.485683 0.947473
O O13 0.000000 0.000000 0.000000
O O14 0.716547 0.613262 0.304104
O O15 0.500000 0.000000 0.000000
#
# Coordination Sequence:
#
# PCOD9067876 Si02
#       7
#     2   2   2   2   2   2   2
#     4  11  26  46  71 103 140 184 231 288 348 413
#     4  11  26  46  73 100 143 182 233 287 349 411
#     4  11  26  46  71 103 140 184 231 288 348 413
#     4  12  24  48  70 104 142 184 232 290 344 414
#     4  12  25  46  73 104 140 182 234 285 346 417
#     4  11  26  46  73 100 143 182 233 287 349 411
#     4  12  25  46  73 104 140 182 234 285 346 417
#
# _framework density 21.594192
#
# number of rings (size 3 to 8) (size 9 to 14) (size 15 to 20)
#    0.000    0.571    2.857    4.286    6.000    1.143 
#    0.000    0.000    0.000    0.000    0.000    0.000 
#    0.000    0.000    0.000    0.000    0.000    0.000 
#
# Total GULP energy -78458.878284 kJ/mol
# GULP energy per Si atom -5604.205592 kJ/mol
# Density = 2.154504 g / cm^3
# Si number density = 21.594192 Si / 1000 Ang^3
#
#
#
# Elastic Constant Matrix: (Units=GPa)
#
#
# Indices 1 2 3 4 5 6 
#
# 1 91.5981 14.5360 -25.9664 -3.5134 15.6810 1.3086
# 2 14.5360 65.9778 -11.8674 -2.3973 -1.6435 2.9392
# 3 -25.9664 -11.8674 69.5467 -3.0064 -2.9901 7.2864
# 4 -3.5134 -2.3973 -3.0064 46.4890 -1.0606 -0.9968
# 5 15.6810 -1.6435 -2.9901 -1.0606 28.5810 -10.1828
# 6 1.3086 2.9392 7.2864 -0.9968 -10.1828 21.5086
#
#
#
# Elastic Compliance Matrix: (Units=1/GPa)
#
#
# Indices 1 2 3 4 5 6 
#
# 1 0.014688 -0.002147 0.005479 0.000968 -0.010143 -0.007213
# 2 -0.002147 0.016202 0.002283 0.000815 0.001653 -0.002036
# 3 0.005479 0.002283 0.017586 0.001398 -0.003985 -0.008424
# 4 0.000968 0.000815 0.001398 0.021748 0.000721 0.000705
# 5 -0.010143 0.001653 -0.003985 0.000721 0.049187 0.025061
# 6 -0.007213 -0.002036 -0.008424 0.000705 0.025061 0.061961
#
#
# Mechanical properties :
#
#
# Convention : Reuss Voigt Hill
#
# Bulk Modulus (GPa) = 16.74879 20.05856 18.40368
# Shear Modulus (GPa) = 26.31001 36.01042 31.16021
#
# Velocity S-wave (km/s) = 3.49432 4.08805 3.80279
# Velocity P-wave (km/s) = 4.90442 5.62067 5.27472
#
# Compressibility (1/GPa) = 0.05970579
#
# Stress axis : x y z
#
# Youngs Moduli (GPa) = 68.08441 61.72211 56.86412
#
# Poissons Ratio (x) = 0.13249 -0.31156
# Poissons Ratio (y) = 0.14615 -0.12981
# Poissons Ratio (z) = -0.37304 -0.14090
#
# Static dielectric constant tensor:
#      x y z
#    x 1.736210 -0.014510 -0.028450 
#    y -0.014510 1.743340 0.009030 
#    z -0.028450 0.009030 1.799020 
# 
# From -- ./inp_files/184012.got.cif
#   From: 2010.05.17/outbox.cif.g08.bks.cpg/sg2_93_cif.got.tgz:184012.got - 2010.06.03 11:33:40.
