data_PCOD9067663
_publ_section_title
;
Structure prediction by ZEFSAII (Michael W. Deem and Ramdas Pophale) SiO2 
 PCOD9067663
Probable space group: P -1
;
_chemical_formula_sum "Si O2"
_cell_formula_units_Z 12
_cell_length_a 9.285795
_cell_length_b 15.594455
_cell_length_c 12.837311
_cell_angle_alpha 17.120687
_cell_angle_beta 113.274576
_cell_angle_gamma 112.459355
_cell_volume 502.642130
_symmetry_space_group_name_H-M "P -1"
_symmetry_group_IT_number 2
_symmetry_cell_setting 'triclinic'
loop_
_space_group_symop_operation_xyz
x,y,z
-x,-y,-z
loop_
_atom_site_type_symbol
_atom_site_label
_atom_site_fract_x
_atom_site_fract_y
_atom_site_fract_z
Si Si1 0.391503 0.286737 0.650561
Si Si2 0.079939 0.910672 0.519302
Si Si3 0.115245 0.252903 0.777194
Si Si4 0.235373 0.365602 0.296949
Si Si5 0.487361 0.759785 0.611737
Si Si6 0.297699 0.284615 0.006112
O O1 0.500000 0.500000 0.500000
O O2 0.234405 0.274306 0.689571
O O3 0.332698 0.404292 0.385692
O O4 0.500000 0.000000 0.000000
O O5 0.932982 0.790090 0.549004
O O6 0.172541 0.171696 0.186881
O O7 0.193055 0.649196 0.887688
O O8 0.000000 0.000000 0.500000
O O9 0.000000 0.500000 0.500000
O O10 0.223827 0.229152 0.936957
O O11 0.000000 0.000000 0.000000
O O12 0.350498 0.185425 0.465196
O O13 0.435848 0.052270 0.312420
O O14 0.500000 0.500000 0.000000
O O15 0.361219 0.609266 0.670496
#
# Coordination Sequence:
#
# PCOD9067663 Si02
#       6
#     2   2   2   2   2   2
#     4  12  27  48  73 102 140 186 235 285 342 410
#     4  11  26  42  70 101 139 179 222 284 349 405
#     4  12  26  46  72 101 138 183 232 283 340 407
#     4  11  26  44  69 102 138 178 229 282 343 409
#     4  12  24  44  68 101 135 175 224 275 341 404
#     4  12  26  45  70 100 137 177 227 279 339 405
#
# _framework density 23.873843999999998
#
# number of rings (size 3 to 8) (size 9 to 14) (size 15 to 20)
#    0.000    0.333    1.667    6.500    9.333    0.000 
#    0.000    0.000    0.000    0.000    0.000    0.000 
#    0.000    0.000    0.000    0.000    0.000    0.000 
#
# Total GULP energy -67152.271563 kJ/mol
# GULP energy per Si atom -5596.022630 kJ/mol
# Density = 2.381951 g / cm^3
# Si number density = 23.873844 Si / 1000 Ang^3
#
#
#
# Elastic Constant Matrix: (Units=GPa)
#
#
# Indices 1 2 3 4 5 6 
#
# 1 142.8837 14.0521 25.9614 -8.5743 -6.9513 -10.6108
# 2 14.0521 138.4102 19.5062 -0.7102 10.7842 18.5627
# 3 25.9614 19.5062 47.9332 -16.5606 17.1960 2.6432
# 4 -8.5743 -0.7102 -16.5606 55.8856 -3.7986 -0.8503
# 5 -6.9513 10.7842 17.1960 -3.7986 40.8531 -4.4151
# 6 -10.6108 18.5627 2.6432 -0.8503 -4.4151 56.4601
#
#
#
# Elastic Compliance Matrix: (Units=1/GPa)
#
#
# Indices 1 2 3 4 5 6 
#
# 1 0.008580 -0.000683 -0.006180 -0.000180 0.004492 0.002475
# 2 -0.000683 0.008150 -0.002531 -0.000903 -0.001591 -0.002827
# 3 -0.006180 -0.002531 0.033087 0.007837 -0.013889 -0.002846
# 4 -0.000180 -0.000903 0.007837 0.020096 -0.001211 0.000104
# 5 0.004492 -0.001591 -0.013889 -0.001211 0.031881 0.004492
# 6 0.002475 -0.002827 -0.002846 0.000104 0.004492 0.019592
#
#
# Mechanical properties :
#
#
# Convention : Reuss Voigt Hill
#
# Bulk Modulus (GPa) = 32.22863 49.80739 41.01801
# Shear Modulus (GPa) = 33.21877 48.62025 40.91951
#
# Velocity S-wave (km/s) = 3.73423 4.51771 4.14453
# Velocity P-wave (km/s) = 5.66759 6.93693 6.33413
#
# Compressibility (1/GPa) = 0.03102831
#
# Stress axis : x y z
#
# Youngs Moduli (GPa) = 116.54773 122.70624 30.22361
#
# Poissons Ratio (x) = 0.08382 0.18677
# Poissons Ratio (y) = 0.07961 0.07651
# Poissons Ratio (z) = 0.72021 0.31063
#
# Static dielectric constant tensor:
#      x y z
#    x 1.745900 0.045340 -0.001500 
#    y 0.045340 1.899010 0.001020 
#    z -0.001500 0.001020 1.900940 
# 
# From -- ./inp_files/36769.got.cif
#   From: 2010.05.17/outbox.cif.g08.bks.cpg/sg2_19_cif.got.tgz:36769.got - 2010.06.03 11:33:40.
