data_PCOD9067425
_publ_section_title
;
Structure prediction by ZEFSAII (Michael W. Deem and Ramdas Pophale) SiO2 
 PCOD9067425
Probable space group: P -1
;
_chemical_formula_sum "Si O2"
_cell_formula_units_Z 15
_cell_length_a 20.078104
_cell_length_b 5.536944
_cell_length_c 11.579646
_cell_angle_alpha 113.404068
_cell_angle_beta 146.009137
_cell_angle_gamma 82.793153
_cell_volume 606.089480
_symmetry_space_group_name_H-M "P -1"
_symmetry_group_IT_number 2
_symmetry_cell_setting 'triclinic'
loop_
_space_group_symop_operation_xyz
x,y,z
-x,-y,-z
loop_
_atom_site_type_symbol
_atom_site_label
_atom_site_fract_x
_atom_site_fract_y
_atom_site_fract_z
Si Si1 0.920088 0.177617 0.371192
Si Si2 0.784170 0.395764 0.727236
Si Si3 0.310466 0.263451 0.179541
Si Si4 0.604223 0.472835 0.895185
Si Si5 0.947345 0.077225 0.822781
Si Si6 0.589909 0.326418 0.223144
Si Si7 0.500000 0.000000 0.500000
Si Si8 0.201253 0.472152 0.632988
O O1 0.840332 0.258849 0.373109
O O2 0.000000 0.500000 0.500000
O O3 0.000000 0.000000 0.500000
O O4 0.823518 0.991640 0.097524
O O5 0.712417 0.461778 0.747734
O O6 0.822675 0.132340 0.698845
O O7 0.692377 0.390292 0.487473
O O8 0.929755 0.647487 0.992933
O O9 0.378815 0.376801 0.176642
O O10 0.391740 0.153837 0.362331
O O11 0.509536 0.540453 0.855239
O O12 0.546135 0.138509 0.719449
O O13 0.744600 0.559041 0.170219
O O14 0.906986 0.820199 0.624991
O O15 0.000000 0.000000 0.000000
O O16 0.678601 0.456712 0.265824
O O17 0.500000 0.000000 0.000000
#
# Coordination Sequence:
#
# PCOD9067425 Si02
#       8
#     2   2   2   2   2   2   1   2
#     4  12  28  49  81 117 156 207 263 329 401 474
#     4  11  26  46  75 112 146 201 254 320 389 463
#     4  12  27  50  79 109 160 206 261 332 394 481
#     4  12  27  49  75 115 149 204 261 322 402 471
#     4  11  25  49  76 109 152 199 259 315 389 466
#     4  12  26  45  76 107 148 199 251 323 390 471
#     4  12  26  48  76 108 158 202 270 312 404 466
#     4  12  26  51  78 113 155 203 260 328 392 476
#
# _framework density 24.748819999999998
#
# number of rings (size 3 to 8) (size 9 to 14) (size 15 to 20)
#    0.000    0.267    4.000    4.000    1.867    3.200 
#    0.000    0.000    0.000    0.000    0.000    0.000 
#    0.000    0.000    0.000    0.000    0.000    0.000 
#
# Total GULP energy -83714.491671 kJ/mol
# GULP energy per Si atom -5580.966111 kJ/mol
# Density = 2.469249 g / cm^3
# Si number density = 24.748820 Si / 1000 Ang^3
#
#
#
# Elastic Constant Matrix: (Units=GPa)
#
#
# Indices 1 2 3 4 5 6 
#
# 1 92.2308 41.6056 23.2611 5.6041 4.0946 -22.2422
# 2 41.6056 121.9021 63.2293 -12.3191 -0.6228 -45.0362
# 3 23.2611 63.2293 187.5073 -3.5814 -15.6514 -15.1614
# 4 5.6041 -12.3191 -3.5814 57.8178 -7.5140 -3.8424
# 5 4.0946 -0.6228 -15.6514 -7.5140 40.0894 6.8943
# 6 -22.2422 -45.0362 -15.1614 -3.8424 6.8943 49.3500
#
#
#
# Elastic Compliance Matrix: (Units=1/GPa)
#
#
# Indices 1 2 3 4 5 6 
#
# 1 0.013504 -0.003504 -0.000514 -0.002225 -0.002552 0.002914
# 2 -0.003504 0.016966 -0.004348 0.004233 -0.002562 0.013256
# 3 -0.000514 -0.004348 0.006912 -0.000216 0.003077 -0.002522
# 4 -0.002225 0.004233 -0.000216 0.019061 0.003120 0.003842
# 5 -0.002552 -0.002562 0.003077 0.003120 0.028020 -0.006215
# 6 0.002914 0.013256 -0.002522 0.003842 -0.006215 0.034066
#
#
# Mechanical properties :
#
#
# Convention : Reuss Voigt Hill
#
# Bulk Modulus (GPa) = 48.42248 73.09248 60.75748
# Shear Modulus (GPa) = 35.17586 47.68772 41.43179
#
# Velocity S-wave (km/s) = 3.77412 4.39437 4.09601
# Velocity P-wave (km/s) = 6.21289 7.43943 6.85366
#
# Compressibility (1/GPa) = 0.02065157
#
# Stress axis : x y z
#
# Youngs Moduli (GPa) = 74.05335 58.94045 144.68322
#
# Poissons Ratio (x) = 0.20651 0.07431
# Poissons Ratio (y) = 0.25946 0.62904
# Poissons Ratio (z) = 0.03804 0.25626
#
# Static dielectric constant tensor:
#      x y z
#    x 2.024480 0.017770 0.039180 
#    y 0.017770 2.030780 -0.011040 
#    z 0.039180 -0.011040 2.056010 
# 
# From -- ./inp_files/468311.got.cif
#   From: 2010.05.17/outbox.cif.g08.bks.cpg/sg2_235_cif.got.tgz:468311.got - 2010.06.03 11:33:40.
