data_PCOD9067694
_publ_section_title
;
Structure prediction by ZEFSAII (Michael W. Deem and Ramdas Pophale) SiO2 
 PCOD9067694
Probable space group: P -1
;
_chemical_formula_sum "Si O2"
_cell_formula_units_Z 16
_cell_length_a 4.986835
_cell_length_b 24.562255
_cell_length_c 17.808549
_cell_angle_alpha 159.238197
_cell_angle_beta 58.106016
_cell_angle_gamma 121.363793
_cell_volume 653.970853
_symmetry_space_group_name_H-M "P -1"
_symmetry_group_IT_number 2
_symmetry_cell_setting 'triclinic'
loop_
_space_group_symop_operation_xyz
x,y,z
-x,-y,-z
loop_
_atom_site_type_symbol
_atom_site_label
_atom_site_fract_x
_atom_site_fract_y
_atom_site_fract_z
Si Si1 0.173752 0.314260 0.094935
Si Si2 0.157320 0.951078 0.622346
Si Si3 0.140172 0.479825 0.058545
Si Si4 0.527644 0.431019 0.730736
Si Si5 0.282533 0.149378 0.312410
Si Si6 0.161808 0.129392 0.588374
Si Si7 0.702347 0.877348 0.888072
Si Si8 0.545955 0.640988 0.732217
O O1 0.241625 0.135118 0.850953
O O2 0.386621 0.424752 0.150759
O O3 0.241583 0.376825 0.249581
O O4 0.803195 0.321794 0.141428
O O5 0.465336 0.867211 0.448136
O O6 0.029020 0.885713 0.636549
O O7 0.909051 0.915778 0.545984
O O8 0.202946 0.553533 0.226395
O O9 0.833263 0.553871 0.166043
O O10 0.500000 0.500000 0.000000
O O11 0.053252 0.296726 0.837369
O O12 0.509917 0.270515 0.482371
O O13 0.285264 0.211767 0.307486
O O14 0.406584 0.980152 0.068487
O O15 0.000000 0.000000 0.500000
O O16 0.700530 0.777439 0.833530
O O17 0.000000 0.000000 0.000000
O O18 0.500000 0.500000 0.500000
#
# Coordination Sequence:
#
# PCOD9067694 Si02
#       8
#     2   2   2   2   2   2   2   2
#     4  12  25  45  67 102 135 179 234 276 344 403
#     4  12  24  44  71 100 138 178 229 280 340 410
#     4  12  25  46  68 103 138 179 226 283 347 419
#     4  12  26  44  72  99 141 179 230 281 345 410
#     4  11  26  44  67 105 133 189 227 285 341 400
#     4  12  25  44  71 101 136 177 225 281 348 404
#     4  11  26  44  71  98 144 178 239 284 336 408
#     4  12  26  45  69  98 139 183 227 285 340 397
#
# _framework density 24.465920000000001
#
# number of rings (size 3 to 8) (size 9 to 14) (size 15 to 20)
#    0.000    0.250    1.250    7.875    7.000    0.000 
#    0.000    0.000    0.000    0.000    0.000    0.000 
#    0.000    0.000    0.000    0.000    0.000    0.000 
#
# Total GULP energy -89686.114218 kJ/mol
# GULP energy per Si atom -5605.382139 kJ/mol
# Density = 2.441023 g / cm^3
# Si number density = 24.465920 Si / 1000 Ang^3
#
#
#
# Elastic Constant Matrix: (Units=GPa)
#
#
# Indices 1 2 3 4 5 6 
#
# 1 74.5735 4.6693 -3.1445 -0.9467 10.5535 3.3077
# 2 4.6693 126.1456 2.2905 2.1742 -4.0499 10.0685
# 3 -3.1445 2.2905 98.8068 9.8159 14.9229 -1.0668
# 4 -0.9467 2.1742 9.8159 31.5298 1.7994 1.2592
# 5 10.5535 -4.0499 14.9229 1.7994 44.5739 -5.1253
# 6 3.3077 10.0685 -1.0668 1.2592 -5.1253 27.8544
#
#
#
# Elastic Compliance Matrix: (Units=1/GPa)
#
#
# Indices 1 2 3 4 5 6 
#
# 1 0.014154 -0.000501 0.000997 0.000466 -0.004004 -0.002219
# 2 -0.000501 0.008201 -0.000294 -0.000416 0.000660 -0.002776
# 3 0.000997 -0.000294 0.011054 -0.003165 -0.003853 -0.000154
# 4 0.000466 -0.000416 -0.003165 0.032843 -0.000601 -0.001622
# 5 -0.004004 0.000660 -0.003853 -0.000601 0.025306 0.004773
# 6 -0.002219 -0.002776 -0.000154 -0.001622 0.004773 0.038113
#
#
# Mechanical properties :
#
#
# Convention : Reuss Voigt Hill
#
# Bulk Modulus (GPa) = 29.57656 34.12851 31.85253
# Shear Modulus (GPa) = 35.57690 40.50567 38.04128
#
# Velocity S-wave (km/s) = 3.81746 4.07332 3.94746
# Velocity P-wave (km/s) = 5.61656 6.00851 5.81584
#
# Compressibility (1/GPa) = 0.03381056
#
# Stress axis : x y z
#
# Youngs Moduli (GPa) = 70.65118 121.93371 90.46453
#
# Poissons Ratio (x) = 0.06115 -0.09015
# Poissons Ratio (y) = 0.03543 0.02664
# Poissons Ratio (z) = -0.07041 0.03590
#
# Static dielectric constant tensor:
#      x y z
#    x 1.900230 -0.019630 -0.009520 
#    y -0.019630 1.932660 -0.024850 
#    z -0.009520 -0.024850 1.952510 
# 
# From -- ./inp_files/551444.got.cif
#   From: 2010.05.17/outbox.cif.g08.bks.cpg/sg2_276_cif.got.tgz:551444.got - 2010.06.03 11:33:40.
