data_PCOD9067040
_publ_section_title
;
Structure prediction by ZEFSAII (Michael W. Deem and Ramdas Pophale) SiO2 
 PCOD9067040
Probable space group: P -1
;
_chemical_formula_sum "Si O2"
_cell_formula_units_Z 14
_cell_length_a 17.052663
_cell_length_b 6.674588
_cell_length_c 5.190639
_cell_angle_alpha 67.633513
_cell_angle_beta 101.933900
_cell_angle_gamma 89.288862
_cell_volume 531.824889
_symmetry_space_group_name_H-M "P -1"
_symmetry_group_IT_number 2
_symmetry_cell_setting 'triclinic'
loop_
_space_group_symop_operation_xyz
x,y,z
-x,-y,-z
loop_
_atom_site_type_symbol
_atom_site_label
_atom_site_fract_x
_atom_site_fract_y
_atom_site_fract_z
Si Si1 0.809566 0.513442 0.275837
Si Si2 0.512779 0.304960 0.482494
Si Si3 0.953894 0.142446 0.619647
Si Si4 0.934687 0.675126 0.013489
Si Si5 0.271457 0.065390 0.786406
Si Si6 0.452030 0.181924 0.966561
Si Si7 0.701524 0.194212 0.572834
O O1 0.877287 0.316663 0.473017
O O2 0.847993 0.582911 0.998190
O O3 0.797981 0.741853 0.304836
O O4 0.730073 0.405692 0.349344
O O5 0.455707 0.287201 0.206127
O O6 0.499499 0.067327 0.772860
O O7 0.606105 0.232015 0.521634
O O8 0.523727 0.592769 0.306479
O O9 0.020615 0.286851 0.705628
O O10 0.000000 0.000000 0.500000
O O11 0.921182 0.933082 0.828614
O O12 0.000000 0.500000 0.000000
O O13 0.274959 0.989869 0.532557
O O14 0.359245 0.142283 0.869825
O O15 0.263440 0.873519 0.087155
#
# Coordination Sequence:
#
# PCOD9067040 Si02
#       7
#     2   2   2   2   2   2   2
#     4  12  28  46  74 108 153 190 245 308 379 454
#     4  12  24  43  75 107 142 193 260 315 365 440
#     4  11  25  47  76 109 141 186 243 305 359 444
#     4  11  25  47  79 110 142 191 248 299 370 449
#     4  12  28  48  74 108 151 205 250 311 385 437
#     4  12  22  45  75  98 143 197 255 307 367 435
#     4  12  27  49  71 110 155 198 249 315 378 446
#
# _framework density 26.324453999999999
#
# number of rings (size 3 to 8) (size 9 to 14) (size 15 to 20)
#    0.000    0.286    4.286    3.857    2.000    4.571 
#    0.000    0.000    0.000    0.000    0.000    0.000 
#    0.000    0.000    0.000    0.000    0.000    0.000 
#
# Total GULP energy -77989.046878 kJ/mol
# GULP energy per Si atom -5570.646206 kJ/mol
# Density = 2.626454 g / cm^3
# Si number density = 26.324454 Si / 1000 Ang^3
#
#
#
# Elastic Constant Matrix: (Units=GPa)
#
#
# Indices 1 2 3 4 5 6 
#
# 1 121.0895 12.7058 38.1465 2.1157 -30.7503 -5.3190
# 2 12.7058 146.5181 28.8629 -10.4520 0.4682 -30.7507
# 3 38.1465 28.8629 137.2837 -9.4305 -24.8983 1.8720
# 4 2.1157 -10.4520 -9.4305 56.6789 -5.6248 -6.7262
# 5 -30.7503 0.4682 -24.8983 -5.6248 39.6678 -17.5647
# 6 -5.3190 -30.7507 1.8720 -6.7262 -17.5647 71.0731
#
#
#
# Elastic Compliance Matrix: (Units=1/GPa)
#
#
# Indices 1 2 3 4 5 6 
#
# 1 0.011204 0.000007 -0.001423 0.000656 0.009322 0.003245
# 2 0.000007 0.008064 -0.001443 0.001816 0.001010 0.003949
# 3 -0.001423 -0.001443 0.009016 0.001840 0.005033 0.000450
# 4 0.000656 0.001816 0.001840 0.019372 0.006231 0.004159
# 5 0.009322 0.001010 0.005033 0.006231 0.041739 0.011907
# 6 0.003245 0.003949 0.000450 0.004159 0.011907 0.019346
#
#
# Mechanical properties :
#
#
# Convention : Reuss Voigt Hill
#
# Bulk Modulus (GPa) = 44.31603 62.70241 53.50922
# Shear Modulus (GPa) = 40.98982 55.16236 48.07609
#
# Velocity S-wave (km/s) = 3.95029 4.58261 4.27815
# Velocity P-wave (km/s) = 6.13820 7.20216 6.69136
#
# Compressibility (1/GPa) = 0.02256520
#
# Stress axis : x y z
#
# Youngs Moduli (GPa) = 89.25087 124.00984 110.91264
#
# Poissons Ratio (x) = -0.00084 0.15785
# Poissons Ratio (y) = -0.00061 0.16007
# Poissons Ratio (z) = 0.12702 0.17897
#
# Static dielectric constant tensor:
#      x y z
#    x 1.995810 0.075400 -0.048290 
#    y 0.075400 2.130600 -0.114510 
#    z -0.048290 -0.114510 2.168620 
# 
# From -- ./inp_files/113942.got.cif
#   From: 2010.05.17/outbox.cif.g08.bks.cpg/sg2_57_cif.got.tgz:113942.got - 2010.06.03 11:33:40.
