data_PCOD9067509
_publ_section_title
;
Structure prediction by ZEFSAII (Michael W. Deem and Ramdas Pophale) SiO2 
 PCOD9067509
Probable space group: P -1
;
_chemical_formula_sum "Si O2"
_cell_formula_units_Z 12
_cell_length_a 9.013349
_cell_length_b 15.834883
_cell_length_c 15.719837
_cell_angle_alpha 161.152260
_cell_angle_beta 48.104183
_cell_angle_gamma 132.213399
_cell_volume 532.033552
_symmetry_space_group_name_H-M "P -1"
_symmetry_group_IT_number 2
_symmetry_cell_setting 'triclinic'
loop_
_space_group_symop_operation_xyz
x,y,z
-x,-y,-z
loop_
_atom_site_type_symbol
_atom_site_label
_atom_site_fract_x
_atom_site_fract_y
_atom_site_fract_z
Si Si1 0.146712 0.941110 0.758536
Si Si2 0.243831 0.836279 0.809228
Si Si3 0.491547 0.773795 0.217239
Si Si4 0.833515 0.595937 0.447471
Si Si5 0.678042 0.110100 0.923614
Si Si6 0.859451 0.219777 0.775028
O O1 0.225320 0.821215 0.700258
O O2 0.057071 0.716592 0.510512
O O3 0.320613 0.144359 0.840788
O O4 0.959193 0.079456 0.994003
O O5 0.268465 0.557995 0.577114
O O6 0.436061 0.050897 0.966608
O O7 0.288473 0.765070 0.232504
O O8 0.500000 0.000000 0.500000
O O9 0.500000 0.500000 0.000000
O O10 0.749844 0.847759 0.682886
O O11 0.793249 0.365165 0.172576
O O12 0.731459 0.146922 0.839738
O O13 0.000000 0.000000 0.500000
O O14 0.000000 0.500000 0.000000
#
# Coordination Sequence:
#
# PCOD9067509 Si02
#       6
#     2   2   2   2   2   2
#     4  11  27  49  76 110 154 191 248 312 372 442
#     4  11  25  50  74 112 151 198 241 308 378 438
#     4  12  30  52  80 110 149 200 259 310 373 447
#     4  12  26  45  74 110 150 192 245 295 378 444
#     4  12  27  47  75 109 153 193 247 306 370 449
#     4  12  28  52  76 109 150 201 254 313 373 442
#
# _framework density 22.554967999999999
#
# number of rings (size 3 to 8) (size 9 to 14) (size 15 to 20)
#    0.000    0.333    3.333    3.500   11.667    0.000 
#    0.000    0.000    0.000    0.000    0.000    0.000 
#    0.000    0.000    0.000    0.000    0.000    0.000 
#
# Total GULP energy -67241.231518 kJ/mol
# GULP energy per Si atom -5603.435960 kJ/mol
# Density = 2.250363 g / cm^3
# Si number density = 22.554968 Si / 1000 Ang^3
#
#
#
# Elastic Constant Matrix: (Units=GPa)
#
#
# Indices 1 2 3 4 5 6 
#
# 1 196.5657 63.6635 90.2909 19.5895 21.8183 -27.8128
# 2 63.6635 135.5333 54.8415 14.9356 -10.1286 -12.3973
# 3 90.2909 54.8415 170.3244 27.5597 0.4112 -9.6232
# 4 19.5895 14.9356 27.5597 23.6550 -0.2064 4.9680
# 5 21.8183 -10.1286 0.4112 -0.2064 27.4590 13.1656
# 6 -27.8128 -12.3973 -9.6232 4.9680 13.1656 45.1469
#
#
#
# Elastic Compliance Matrix: (Units=1/GPa)
#
#
# Indices 1 2 3 4 5 6 
#
# 1 0.011690 -0.003664 -0.003448 -0.005732 -0.015755 0.010685
# 2 -0.003664 0.010154 -0.001191 -0.001559 0.007496 -0.001737
# 3 -0.003448 -0.001191 0.009186 -0.006992 0.002299 -0.000394
# 4 -0.005732 -0.001559 -0.006992 0.059508 0.011955 -0.015484
# 5 -0.015755 0.007496 0.002299 0.011955 0.064893 -0.027397
# 6 0.010685 -0.001737 -0.000394 -0.015484 -0.027397 0.037865
#
#
# Mechanical properties :
#
#
# Convention : Reuss Voigt Hill
#
# Bulk Modulus (GPa) = 69.32978 102.22393 85.77686
# Shear Modulus (GPa) = 23.28727 38.82735 31.05731
#
# Velocity S-wave (km/s) = 3.21669 4.15354 3.71477
# Velocity P-wave (km/s) = 6.67840 8.27182 7.51745
#
# Compressibility (1/GPa) = 0.01442382
#
# Stress axis : x y z
#
# Youngs Moduli (GPa) = 85.54510 98.47861 108.86151
#
# Poissons Ratio (x) = 0.36084 0.37534
# Poissons Ratio (y) = 0.31345 0.12967
# Poissons Ratio (z) = 0.29495 0.11730
#
# Static dielectric constant tensor:
#      x y z
#    x 1.832710 0.022030 -0.004750 
#    y 0.022030 1.832410 -0.032350 
#    z -0.004750 -0.032350 1.820280 
# 
# From -- ./inp_files/503421.got.cif
#   From: 2010.05.17/outbox.cif.g08.bks.cpg/sg2_252_cif.got.tgz:503421.got - 2010.06.03 11:33:40.
