data_PCOD9067805
_publ_section_title
;
Structure prediction by ZEFSAII (Michael W. Deem and Ramdas Pophale) SiO2 
 PCOD9067805
Probable space group: P -1
;
_chemical_formula_sum "Si O2"
_cell_formula_units_Z 14
_cell_length_a 8.972439
_cell_length_b 8.246406
_cell_length_c 13.940109
_cell_angle_alpha 114.428817
_cell_angle_beta 42.173581
_cell_angle_gamma 92.759629
_cell_volume 571.409697
_symmetry_space_group_name_H-M "P -1"
_symmetry_group_IT_number 2
_symmetry_cell_setting 'triclinic'
loop_
_space_group_symop_operation_xyz
x,y,z
-x,-y,-z
loop_
_atom_site_type_symbol
_atom_site_label
_atom_site_fract_x
_atom_site_fract_y
_atom_site_fract_z
Si Si1 0.621444 0.130595 0.024018
Si Si2 0.813277 0.697283 0.585529
Si Si3 0.828141 0.177453 0.284566
Si Si4 0.106221 0.547582 0.836119
Si Si5 0.655836 0.502876 0.085724
Si Si6 0.801715 0.184492 0.513424
Si Si7 0.328470 0.180941 0.521248
O O1 0.448862 0.227754 0.221409
O O2 0.625042 0.317060 0.010029
O O3 0.500000 0.000000 0.000000
O O4 0.898677 0.990512 0.883828
O O5 0.795829 0.682459 0.477117
O O6 0.000000 0.500000 0.500000
O O7 0.930202 0.851850 0.587686
O O8 0.815815 0.330133 0.246543
O O9 0.775639 0.270721 0.439185
O O10 0.618952 0.101603 0.349086
O O11 0.183916 0.578350 0.912876
O O12 0.248806 0.317442 0.685739
O O13 0.820443 0.591112 0.973371
O O14 0.396917 0.666912 0.283416
O O15 0.759114 0.990287 0.475735
#
# Coordination Sequence:
#
# PCOD9067805 Si02
#       7
#     2   2   2   2   2   2   2
#     4  12  27  47  75 108 152 199 244 307 374 442
#     4  12  26  49  75 107 152 202 249 305 376 448
#     4  12  26  47  79 109 148 197 251 306 375 438
#     4  11  26  45  73 113 149 193 248 312 369 438
#     4  11  26  46  72 109 154 192 247 310 373 434
#     4  12  25  48  74 109 153 198 245 309 373 450
#     4  12  27  46  78 112 149 197 253 306 376 444
#
# _framework density 24.500810000000001
#
# number of rings (size 3 to 8) (size 9 to 14) (size 15 to 20)
#    0.000    0.286    4.286    3.857    6.000    1.143 
#    0.000    1.429    0.000    0.000    0.000    0.000 
#    0.000    0.000    0.000    0.000    0.000    0.000 
#
# Total GULP energy -78469.881944 kJ/mol
# GULP energy per Si atom -5604.991567 kJ/mol
# Density = 2.444504 g / cm^3
# Si number density = 24.500810 Si / 1000 Ang^3
#
#
#
# Elastic Constant Matrix: (Units=GPa)
#
#
# Indices 1 2 3 4 5 6 
#
# 1 80.0809 19.6117 9.6257 -6.0859 -7.9527 12.9607
# 2 19.6117 109.4001 26.8267 -4.3673 -1.6534 25.2446
# 3 9.6257 26.8267 106.8947 -9.5024 -27.8078 13.1926
# 4 -6.0859 -4.3673 -9.5024 44.2091 6.6569 -3.3566
# 5 -7.9527 -1.6534 -27.8078 6.6569 41.0700 -9.0213
# 6 12.9607 25.2446 13.1926 -3.3566 -9.0213 45.8064
#
#
#
# Elastic Compliance Matrix: (Units=1/GPa)
#
#
# Indices 1 2 3 4 5 6 
#
# 1 0.013596 -0.001839 0.000146 0.001249 0.001927 -0.002404
# 2 -0.001839 0.011395 -0.002774 0.000314 -0.003043 -0.005537
# 3 0.000146 -0.002774 0.012255 0.001155 0.007941 -0.000393
# 4 0.001249 0.000314 0.001155 0.023503 -0.002700 0.000332
# 5 0.001927 -0.003043 0.007941 -0.002700 0.031478 0.004846
# 6 -0.002404 -0.005537 -0.000393 0.000332 0.004846 0.026655
#
#
# Mechanical properties :
#
#
# Convention : Reuss Voigt Hill
#
# Bulk Modulus (GPa) = 35.32221 45.38932 40.35576
# Shear Modulus (GPa) = 36.42905 42.23787 39.33346
#
# Velocity S-wave (km/s) = 3.86015 4.15654 4.01108
# Velocity P-wave (km/s) = 5.85797 6.44993 6.16106
#
# Compressibility (1/GPa) = 0.02831080
#
# Stress axis : x y z
#
# Youngs Moduli (GPa) = 73.55310 87.75755 81.59912
#
# Poissons Ratio (x) = 0.16142 -0.01195
# Poissons Ratio (y) = 0.13529 0.22640
# Poissons Ratio (z) = -0.01077 0.24348
#
# Static dielectric constant tensor:
#      x y z
#    x 1.961770 0.007240 0.007350 
#    y 0.007240 1.964790 -0.018810 
#    z 0.007350 -0.018810 1.919890 
# 
# From -- ./inp_files/174580.got.cif
#   From: 2010.05.17/outbox.cif.g08.bks.cpg/sg2_88_cif.got.tgz:174580.got - 2010.06.03 11:33:40.
