data_PCOD9067474
_publ_section_title
;
Structure prediction by ZEFSAII (Michael W. Deem and Ramdas Pophale) SiO2 
 PCOD9067474
Probable space group: P -1
;
_chemical_formula_sum "Si O2"
_cell_formula_units_Z 14
_cell_length_a 13.936301
_cell_length_b 9.075107
_cell_length_c 8.818924
_cell_angle_alpha 95.534120
_cell_angle_beta 44.356982
_cell_angle_gamma 65.812161
_cell_volume 563.334032
_symmetry_space_group_name_H-M "P -1"
_symmetry_group_IT_number 2
_symmetry_cell_setting 'triclinic'
loop_
_space_group_symop_operation_xyz
x,y,z
-x,-y,-z
loop_
_atom_site_type_symbol
_atom_site_label
_atom_site_fract_x
_atom_site_fract_y
_atom_site_fract_z
Si Si1 0.786954 0.288629 0.408547
Si Si2 0.502057 0.306315 0.884002
Si Si3 0.109067 0.445620 0.712473
Si Si4 0.473214 0.992300 0.352030
Si Si5 0.085064 0.632097 0.290921
Si Si6 0.173941 0.820081 0.979841
Si Si7 0.284364 0.978364 0.097907
O O1 0.617074 0.369876 0.720598
O O2 0.736671 0.281003 0.292683
O O3 0.971639 0.052614 0.214023
O O4 0.847706 0.414522 0.349062
O O5 0.554052 0.158066 0.670632
O O6 0.276608 0.478330 0.153698
O O7 0.585484 0.164537 0.922893
O O8 0.999645 0.453993 0.694965
O O9 0.075279 0.161375 0.415757
O O10 0.300435 0.212530 0.500019
O O11 0.861218 0.306375 0.907179
O O12 0.649770 0.923334 0.051579
O O13 0.500000 0.000000 0.500000
O O14 0.000000 0.500000 0.000000
O O15 0.293272 0.840437 0.952407
#
# Coordination Sequence:
#
# PCOD9067474 Si02
#       7
#     2   2   2   2   2   2   2
#     4  11  26  49  84 117 156 210 269 331 390 471
#     4  12  28  51  79 120 159 211 266 324 401 474
#     4  12  26  50  81 123 156 207 272 328 391 473
#     4  12  28  52  81 115 162 210 265 331 398 476
#     4  12  27  50  82 115 165 208 267 326 401 472
#     4  11  25  49  80 113 160 210 264 327 393 470
#     4  12  28  52  79 118 163 208 262 331 401 473
#
# _framework density 24.852041
#
# number of rings (size 3 to 8) (size 9 to 14) (size 15 to 20)
#    0.000    0.286    4.286    2.571    8.000    2.857 
#    0.000    0.000    0.000    0.000    0.000    0.000 
#    0.000    0.000    0.000    0.000    0.000    0.000 
#
# Total GULP energy -78626.061813 kJ/mol
# GULP energy per Si atom -5616.147272 kJ/mol
# Density = 2.479548 g / cm^3
# Si number density = 24.852041 Si / 1000 Ang^3
#
#
#
# Elastic Constant Matrix: (Units=GPa)
#
#
# Indices 1 2 3 4 5 6 
#
# 1 197.1331 53.3300 33.5163 -17.5575 -7.5114 -9.7004
# 2 53.3300 136.3558 43.0408 9.6935 -10.9371 -15.2675
# 3 33.5163 43.0408 109.9081 -28.3827 -0.2151 -10.0410
# 4 -17.5575 9.6935 -28.3827 44.0800 2.8540 -7.1902
# 5 -7.5114 -10.9371 -0.2151 2.8540 37.4830 -9.2073
# 6 -9.7004 -15.2675 -10.0410 -7.1902 -9.2073 37.4515
#
#
#
# Elastic Compliance Matrix: (Units=1/GPa)
#
#
# Indices 1 2 3 4 5 6 
#
# 1 0.006093 -0.002416 0.000029 0.003159 0.000609 0.001357
# 2 -0.002416 0.010835 -0.004966 -0.006433 0.003661 0.002125
# 3 0.000029 -0.004966 0.014169 0.010891 -0.001320 0.003548
# 4 0.003159 -0.006433 0.010891 0.033657 -0.002004 0.007084
# 5 0.000609 0.003661 -0.001320 -0.002004 0.030053 0.008300
# 6 0.001357 0.002125 0.003548 0.007084 0.008300 0.032271
#
#
# Mechanical properties :
#
#
# Convention : Reuss Voigt Hill
#
# Bulk Modulus (GPa) = 61.01361 78.13012 69.57186
# Shear Modulus (GPa) = 33.95669 44.70356 39.33013
#
# Velocity S-wave (km/s) = 3.70043 4.24581 3.98247
# Velocity P-wave (km/s) = 6.54688 7.45267 7.01441
#
# Compressibility (1/GPa) = 0.01638979
#
# Stress axis : x y z
#
# Youngs Moduli (GPa) = 164.13284 92.29270 70.57840
#
# Poissons Ratio (x) = 0.22295 -0.00204
# Poissons Ratio (y) = 0.39650 0.35053
# Poissons Ratio (z) = -0.00475 0.45837
#
# Static dielectric constant tensor:
#      x y z
#    x 1.978230 0.014030 -0.025330 
#    y 0.014030 1.922700 0.026300 
#    z -0.025330 0.026300 1.972810 
# 
# From -- ./inp_files/262262.got.cif
#   From: 2010.05.17/outbox.cif.g08.bks.cpg/sg2_132_cif.got.tgz:262262.got - 2010.06.03 11:33:40.
