data_PCOD9067418
_publ_section_title
;
Structure prediction by ZEFSAII (Michael W. Deem and Ramdas Pophale) SiO2 
 PCOD9067418
Probable space group: P -1
;
_chemical_formula_sum "Si O2"
_cell_formula_units_Z 16
_cell_length_a 6.603989
_cell_length_b 18.311958
_cell_length_c 9.000741
_cell_angle_alpha 71.374978
_cell_angle_beta 53.223339
_cell_angle_gamma 57.559283
_cell_volume 735.787058
_symmetry_space_group_name_H-M "P -1"
_symmetry_group_IT_number 2
_symmetry_cell_setting 'triclinic'
loop_
_space_group_symop_operation_xyz
x,y,z
-x,-y,-z
loop_
_atom_site_type_symbol
_atom_site_label
_atom_site_fract_x
_atom_site_fract_y
_atom_site_fract_z
Si Si1 0.373836 0.249840 0.969582
Si Si2 0.783081 0.470698 0.691358
Si Si3 0.688191 0.838984 0.215177
Si Si4 0.070456 0.906338 0.470041
Si Si5 0.894366 0.285102 0.670859
Si Si6 0.823655 0.979087 0.214487
Si Si7 0.343023 0.162692 0.317127
Si Si8 0.875707 0.437884 0.025234
O O1 0.332655 0.178633 0.936487
O O2 0.615826 0.271662 0.781407
O O3 0.457437 0.209409 0.122219
O O4 0.088204 0.339602 0.038679
O O5 0.817662 0.384601 0.648220
O O6 0.445525 0.535576 0.796626
O O7 0.000000 0.500000 0.500000
O O8 0.863151 0.449626 0.844149
O O9 0.395810 0.843884 0.401272
O O10 0.964343 0.758858 0.207294
O O11 0.694687 0.925020 0.215791
O O12 0.870205 0.868455 0.646896
O O13 0.000000 0.000000 0.500000
O O14 0.002271 0.921790 0.312319
O O15 0.142948 0.230830 0.480995
O O16 0.592435 0.071185 0.320502
O O17 0.000000 0.000000 0.000000
O O18 0.000000 0.500000 0.000000
#
# Coordination Sequence:
#
# PCOD9067418 Si02
#       8
#     2   2   2   2   2   2   2   2
#     4  12  27  46  71 108 137 188 237 290 360 420
#     4  11  27  47  77 112 143 189 235 290 366 434
#     4  12  23  45  70  94 147 183 231 296 348 408
#     4  12  24  42  66  96 137 185 237 286 349 413
#     4  12  25  48  69 105 148 177 237 302 343 427
#     4  12  26  46  67 100 142 191 238 291 354 419
#     4  12  26  44  70 103 138 187 239 290 351 417
#     4  11  25  49  76 103 152 187 229 297 361 436
#
# _framework density 21.745424
#
# number of rings (size 3 to 8) (size 9 to 14) (size 15 to 20)
#    0.000    0.250    6.250    2.625    3.500    3.500 
#    4.500    0.000    0.000    0.000    0.000    0.000 
#    0.000    0.000    0.000    0.000    0.000    0.000 
#
# Total GULP energy -89436.956061 kJ/mol
# GULP energy per Si atom -5589.809754 kJ/mol
# Density = 2.169593 g / cm^3
# Si number density = 21.745424 Si / 1000 Ang^3
#
#
#
# Elastic Constant Matrix: (Units=GPa)
#
#
# Indices 1 2 3 4 5 6 
#
# 1 95.7363 41.8098 28.2629 5.9423 -10.5353 11.0080
# 2 41.8098 133.3981 38.3930 18.8752 -5.1255 -0.3094
# 3 28.2629 38.3930 97.3700 3.3159 -13.5443 19.2225
# 4 5.9423 18.8752 3.3159 29.2894 1.7581 -1.0636
# 5 -10.5353 -5.1255 -13.5443 1.7581 30.9494 7.0804
# 6 11.0080 -0.3094 19.2225 -1.0636 7.0804 44.8037
#
#
#
# Elastic Compliance Matrix: (Units=1/GPa)
#
#
# Indices 1 2 3 4 5 6 
#
# 1 0.013252 -0.003582 -0.001133 -0.000634 0.004254 -0.003482
# 2 -0.003582 0.010356 -0.003552 -0.005371 -0.001339 0.002560
# 3 -0.001133 -0.003552 0.014325 0.000231 0.006877 -0.006973
# 4 -0.000634 -0.005371 0.000231 0.037969 -0.003498 0.001473
# 5 0.004254 -0.001339 0.006877 -0.003498 0.039094 -0.010266
# 6 -0.003482 0.002560 -0.006973 0.001473 -0.010266 0.027842
#
#
# Mechanical properties :
#
#
# Convention : Reuss Voigt Hill
#
# Bulk Modulus (GPa) = 46.73467 60.38174 53.55820
# Shear Modulus (GPa) = 30.02867 35.54443 32.78655
#
# Velocity S-wave (km/s) = 3.72010 4.04737 3.88718
# Velocity P-wave (km/s) = 6.32381 7.04765 6.69552
#
# Compressibility (1/GPa) = 0.02139739
#
# Stress axis : x y z
#
# Youngs Moduli (GPa) = 75.45879 96.56207 69.80706
#
# Poissons Ratio (x) = 0.34592 0.07912
# Poissons Ratio (y) = 0.27032 0.24798
# Poissons Ratio (z) = 0.08552 0.34302
#
# Static dielectric constant tensor:
#      x y z
#    x 1.796990 0.003510 0.010960 
#    y 0.003510 1.780000 0.029370 
#    z 0.010960 0.029370 1.806970 
# 
# From -- ./inp_files/138846.got.cif
#   From: 2010.05.17/outbox.cif.g08.bks.cpg/sg2_70_cif.got.tgz:138846.got - 2010.06.03 11:33:40.
