data_PCOD9067010
_publ_section_title
;
Structure prediction by ZEFSAII (Michael W. Deem and Ramdas Pophale) SiO2 
 PCOD9067010
Probable space group: P -1
;
_chemical_formula_sum "Si O2"
_cell_formula_units_Z 14
_cell_length_a 14.249397
_cell_length_b 14.888697
_cell_length_c 8.351933
_cell_angle_alpha 108.831629
_cell_angle_beta 50.681715
_cell_angle_gamma 149.998734
_cell_volume 556.361967
_symmetry_space_group_name_H-M "P -1"
_symmetry_group_IT_number 2
_symmetry_cell_setting 'triclinic'
loop_
_space_group_symop_operation_xyz
x,y,z
-x,-y,-z
loop_
_atom_site_type_symbol
_atom_site_label
_atom_site_fract_x
_atom_site_fract_y
_atom_site_fract_z
Si Si1 0.047129 0.244715 0.521509
Si Si2 0.556765 0.518535 0.264465
Si Si3 0.843422 0.985756 0.100413
Si Si4 0.042704 0.459096 0.187910
Si Si5 0.373201 0.191121 0.125903
Si Si6 0.101306 0.683066 0.083514
Si Si7 0.699281 0.053042 0.492631
O O1 0.957536 0.214063 0.426778
O O2 0.380009 0.470505 0.324678
O O3 0.876892 0.029156 0.622589
O O4 0.917607 0.226219 0.776648
O O5 0.500000 0.500000 0.500000
O O6 0.445901 0.343231 0.210953
O O7 0.890564 0.755298 0.037401
O O8 0.642046 0.912002 0.381648
O O9 0.724572 0.880907 0.993228
O O10 0.000000 0.000000 0.000000
O O11 0.083404 0.454471 0.956868
O O12 0.800709 0.218770 0.380986
O O13 0.332190 0.656631 0.086014
O O14 0.993766 0.535900 0.253410
O O15 0.419220 0.880930 0.798325
#
# Coordination Sequence:
#
# PCOD9067010 Si02
#       7
#     2   2   2   2   2   2   2
#     4  12  26  46  79 110 151 201 255 311 381 452
#     4  12  26  48  78 110 152 197 250 313 381 454
#     4  12  29  47  75 114 154 200 252 315 381 448
#     4  11  25  47  75 106 152 196 254 309 380 441
#     4  12  25  50  76 113 151 196 256 307 385 453
#     4  11  26  52  73 109 153 204 254 310 379 453
#     4  12  26  49  74 111 153 196 256 317 371 453
#
# _framework density 25.163474999999998
#
# number of rings (size 3 to 8) (size 9 to 14) (size 15 to 20)
#    0.000    0.286    4.286    3.857    4.000    4.000 
#    0.000    0.000    0.000    0.000    0.000    0.000 
#    0.000    0.000    0.000    0.000    0.000    0.000 
#
# Total GULP energy -78379.991566 kJ/mol
# GULP energy per Si atom -5598.570826 kJ/mol
# Density = 2.510620 g / cm^3
# Si number density = 25.163475 Si / 1000 Ang^3
#
#
#
# Elastic Constant Matrix: (Units=GPa)
#
#
# Indices 1 2 3 4 5 6 
#
# 1 139.0040 52.6764 15.5960 -21.7111 3.2181 24.5853
# 2 52.6764 135.9148 18.2716 1.8580 -7.6681 21.8512
# 3 15.5960 18.2716 51.0987 -12.9117 -17.1058 4.6534
# 4 -21.7111 1.8580 -12.9117 33.1485 -1.9929 -3.9465
# 5 3.2181 -7.6681 -17.1058 -1.9929 29.8919 -1.6433
# 6 24.5853 21.8512 4.6534 -3.9465 -1.6433 58.3993
#
#
#
# Elastic Compliance Matrix: (Units=1/GPa)
#
#
# Indices 1 2 3 4 5 6 
#
# 1 0.010090 -0.003616 -0.000748 0.006094 -0.002172 -0.002484
# 2 -0.003616 0.009596 -0.002960 -0.004264 0.000757 -0.002099
# 3 -0.000748 -0.002960 0.029671 0.012308 0.017142 0.000372
# 4 0.006094 -0.004264 0.012308 0.039787 0.007999 0.000963
# 5 -0.002172 0.000757 0.017142 0.007999 0.044282 0.001052
# 6 -0.002484 -0.002099 0.000372 0.000963 0.001052 0.019020
#
#
# Mechanical properties :
#
#
# Convention : Reuss Voigt Hill
#
# Bulk Modulus (GPa) = 28.81147 55.45618 42.13383
# Shear Modulus (GPa) = 27.98555 40.25283 34.11919
#
# Velocity S-wave (km/s) = 3.33851 4.00391 3.68625
# Velocity P-wave (km/s) = 5.13181 6.59251 5.90748
#
# Compressibility (1/GPa) = 0.03470840
#
# Stress axis : x y z
#
# Youngs Moduli (GPa) = 99.10961 104.21474 33.70280
#
# Poissons Ratio (x) = 0.37689 0.02519
# Poissons Ratio (y) = 0.35843 0.09976
# Poissons Ratio (z) = 0.07409 0.30849
#
# Static dielectric constant tensor:
#      x y z
#    x 2.025090 -0.062220 -0.032380 
#    y -0.062220 2.002670 -0.019840 
#    z -0.032380 -0.019840 2.045700 
# 
# From -- ./inp_files/315544.got.cif
#   From: 2010.05.17/outbox.cif.g08.bks.cpg/sg2_158_cif.got.tgz:315544.got - 2010.06.03 11:33:40.
