data_PCOD9067121
_publ_section_title
;
Structure prediction by ZEFSAII (Michael W. Deem and Ramdas Pophale) SiO2 
 PCOD9067121
Probable space group: P -1
;
_chemical_formula_sum "Si O2"
_cell_formula_units_Z 12
_cell_length_a 9.310005
_cell_length_b 6.685046
_cell_length_c 9.577350
_cell_angle_alpha 91.883881
_cell_angle_beta 130.495048
_cell_angle_gamma 85.824834
_cell_volume 452.006631
_symmetry_space_group_name_H-M "P -1"
_symmetry_group_IT_number 2
_symmetry_cell_setting 'triclinic'
loop_
_space_group_symop_operation_xyz
x,y,z
-x,-y,-z
loop_
_atom_site_type_symbol
_atom_site_label
_atom_site_fract_x
_atom_site_fract_y
_atom_site_fract_z
Si Si1 0.919634 0.715095 0.011996
Si Si2 0.946158 0.660149 0.615775
Si Si3 0.636994 0.270243 0.157344
Si Si4 0.373848 0.634889 0.529981
Si Si5 0.221832 0.004608 0.282805
Si Si6 0.255546 0.205872 0.792540
O O1 0.755179 0.823461 0.813714
O O2 0.000000 0.500000 0.000000
O O3 0.841862 0.748836 0.119146
O O4 0.103060 0.844235 0.123292
O O5 0.822458 0.481894 0.588838
O O6 0.894339 0.861309 0.674326
O O7 0.126006 0.285686 0.584427
O O8 0.577736 0.348380 0.275712
O O9 0.827759 0.368703 0.233742
O O10 0.701635 0.033401 0.205935
O O11 0.465084 0.287596 0.939923
O O12 0.500000 0.500000 0.500000
O O13 0.359994 0.856036 0.456973
#
# Coordination Sequence:
#
# PCOD9067121 Si02
#       6
#     2   2   2   2   2   2
#     4  11  25  47  82 121 160 211 270 339 414 484
#     4  12  25  53  84 112 160 220 269 337 412 486
#     4  11  25  49  79 117 163 216 272 337 409 484
#     4  12  29  48  81 122 163 216 275 333 409 491
#     4  11  25  49  79 115 166 209 266 337 413 479
#     4  11  25  49  84 115 161 215 275 339 407 486
#
# _framework density 26.548280999999999
#
# number of rings (size 3 to 8) (size 9 to 14) (size 15 to 20)
#    0.000    0.667    3.333    3.000    4.667    5.333 
#    0.000    0.000    0.000    0.000    0.000    0.000 
#    0.000    0.000    0.000    0.000    0.000    0.000 
#
# Total GULP energy -67229.892928 kJ/mol
# GULP energy per Si atom -5602.491077 kJ/mol
# Density = 2.648786 g / cm^3
# Si number density = 26.548281 Si / 1000 Ang^3
#
#
#
# Elastic Constant Matrix: (Units=GPa)
#
#
# Indices 1 2 3 4 5 6 
#
# 1 161.1872 64.2338 55.5202 -4.8295 -11.3028 -17.2879
# 2 64.2338 173.1148 35.2050 8.8180 -17.7710 -11.1633
# 3 55.5202 35.2050 152.4278 -16.5633 -6.1221 0.0955
# 4 -4.8295 8.8180 -16.5633 63.0913 5.4445 -6.6248
# 5 -11.3028 -17.7710 -6.1221 5.4445 54.0295 10.6491
# 6 -17.2879 -11.1633 0.0955 -6.6248 10.6491 50.0341
#
#
#
# Elastic Compliance Matrix: (Units=1/GPa)
#
#
# Indices 1 2 3 4 5 6 
#
# 1 0.008283 -0.002453 -0.002383 0.000589 0.000130 0.002370
# 2 -0.002453 0.007140 -0.000850 -0.001555 0.001867 0.000144
# 3 -0.002383 -0.000850 0.007835 0.001904 0.000074 -0.000792
# 4 0.000589 -0.001555 0.001904 0.017097 -0.002414 0.002630
# 5 0.000130 0.001867 0.000074 -0.002414 0.020222 -0.004162
# 6 0.002370 0.000144 -0.000792 0.002630 -0.004162 0.022073
#
#
# Mechanical properties :
#
#
# Convention : Reuss Voigt Hill
#
# Bulk Modulus (GPa) = 84.12379 88.51642 86.32010
# Shear Modulus (GPa) = 51.03008 55.54903 53.28956
#
# Velocity S-wave (km/s) = 4.38900 4.57921 4.48512
# Velocity P-wave (km/s) = 7.57894 7.83409 7.70757
#
# Compressibility (1/GPa) = 0.01188724
#
# Stress axis : x y z
#
# Youngs Moduli (GPa) = 120.72893 140.06567 127.63313
#
# Poissons Ratio (x) = 0.34354 0.30412
# Poissons Ratio (y) = 0.29611 0.10844
# Poissons Ratio (z) = 0.28767 0.11900
#
# Static dielectric constant tensor:
#      x y z
#    x 2.085390 0.068630 0.055440 
#    y 0.068630 2.104330 -0.043740 
#    z 0.055440 -0.043740 2.154540 
# 
# From -- ./inp_files/60136.got.cif
#   From: 2010.05.17/outbox.cif.g08.bks.cpg/sg2_31_cif.got.tgz:60136.got - 2010.06.03 11:33:40.
