data_PCOD9067312
_publ_section_title
;
Structure prediction by ZEFSAII (Michael W. Deem and Ramdas Pophale) SiO2 
 PCOD9067312
Probable space group: P -1
;
_chemical_formula_sum "Si O2"
_cell_formula_units_Z 12
_cell_length_a 9.734372
_cell_length_b 12.302973
_cell_length_c 8.662000
_cell_angle_alpha 128.143199
_cell_angle_beta 65.970026
_cell_angle_gamma 72.841100
_cell_volume 483.545727
_symmetry_space_group_name_H-M "P -1"
_symmetry_group_IT_number 2
_symmetry_cell_setting 'triclinic'
loop_
_space_group_symop_operation_xyz
x,y,z
-x,-y,-z
loop_
_atom_site_type_symbol
_atom_site_label
_atom_site_fract_x
_atom_site_fract_y
_atom_site_fract_z
Si Si1 0.374596 0.306070 0.740500
Si Si2 0.328033 0.089667 0.385813
Si Si3 0.839176 0.025074 0.438262
Si Si4 0.841412 0.736939 0.727327
Si Si5 0.767320 0.377954 0.659089
Si Si6 0.631055 0.429987 0.220470
O O1 0.645897 0.099631 0.475462
O O2 0.355928 0.418984 0.701232
O O3 0.263787 0.239078 0.684506
O O4 0.268155 0.468220 0.073286
O O5 0.235296 0.209488 0.370278
O O6 0.232741 0.005271 0.398519
O O7 0.605630 0.897108 0.072290
O O8 0.805023 0.212562 0.594352
O O9 0.107518 0.806441 0.097236
O O10 0.000000 0.500000 0.500000
O O11 0.012490 0.749074 0.663036
O O12 0.539027 0.519124 0.784468
O O13 0.500000 0.500000 0.500000
#
# Coordination Sequence:
#
# PCOD9067312 Si02
#       6
#     2   2   2   2   2   2
#     4  11  26  46  74 115 148 193 250 303 374 445
#     4  11  27  48  77 111 146 201 246 305 380 438
#     4  11  25  48  78 105 151 196 249 306 365 445
#     4  11  27  47  75 110 155 191 248 311 372 442
#     4  11  27  49  77 110 149 198 250 306 368 444
#     4  11  27  43  74 113 151 197 250 306 373 437
#
# _framework density 24.816683000000001
#
# number of rings (size 3 to 8) (size 9 to 14) (size 15 to 20)
#    0.000    1.000    0.000    4.500    7.000   12.667 
#    0.000    0.000    0.000    0.000    0.000    0.000 
#    0.000    0.000    0.000    0.000    0.000    0.000 
#
# Total GULP energy -67213.340681 kJ/mol
# GULP energy per Si atom -5601.111723 kJ/mol
# Density = 2.476020 g / cm^3
# Si number density = 24.816683 Si / 1000 Ang^3
#
#
#
# Elastic Constant Matrix: (Units=GPa)
#
#
# Indices 1 2 3 4 5 6 
#
# 1 80.0197 33.8948 41.5556 5.8632 -3.3998 15.2454
# 2 33.8948 163.3697 82.4635 9.8829 11.7193 12.5862
# 3 41.5556 82.4635 156.9812 -1.8439 -42.2816 0.5843
# 4 5.8632 9.8829 -1.8439 40.8093 5.2486 -20.9672
# 5 -3.3998 11.7193 -42.2816 5.2486 38.9701 2.4521
# 6 15.2454 12.5862 0.5843 -20.9672 2.4521 30.4482
#
#
#
# Elastic Compliance Matrix: (Units=1/GPa)
#
#
# Indices 1 2 3 4 5 6 
#
# 1 0.020168 0.002534 -0.007994 -0.013523 -0.004600 -0.019934
# 2 0.002534 0.014541 -0.012700 -0.008260 -0.016099 -0.011427
# 3 -0.007994 -0.012700 0.021938 0.008522 0.024978 0.012688
# 4 -0.013523 -0.008260 0.008522 0.052432 0.000589 0.046080
# 5 -0.004600 -0.016099 0.024978 0.000589 0.056851 0.004306
# 6 -0.019934 -0.011427 0.012688 0.046080 0.004306 0.078688
#
#
# Mechanical properties :
#
#
# Convention : Reuss Voigt Hill
#
# Bulk Modulus (GPa) = 49.19290 79.57761 64.38525
# Shear Modulus (GPa) = 17.37845 38.20929 27.79387
#
# Velocity S-wave (km/s) = 2.64914 3.92811 3.35022
# Velocity P-wave (km/s) = 5.40581 7.26011 6.40047
#
# Compressibility (1/GPa) = 0.02032814
#
# Stress axis : x y z
#
# Youngs Moduli (GPa) = 49.58384 68.77264 45.58260
#
# Poissons Ratio (x) = -0.17430 0.36438
# Poissons Ratio (y) = -0.12567 0.57890
# Poissons Ratio (z) = 0.39637 0.87341
#
# Static dielectric constant tensor:
#      x y z
#    x 1.972730 -0.025240 0.012220 
#    y -0.025240 1.957760 -0.012190 
#    z 0.012220 -0.012190 1.987260 
# 
# From -- ./inp_files/259364.got.cif
#   From: 2010.05.17/outbox.cif.g08.bks.cpg/sg2_130_cif.got.tgz:259364.got - 2010.06.03 11:33:40.
