data_PCOD9067167
_publ_section_title
;
Structure prediction by ZEFSAII (Michael W. Deem and Ramdas Pophale) SiO2 
 PCOD9067167
Probable space group: P -1
;
_chemical_formula_sum "Si O2"
_cell_formula_units_Z 13
_cell_length_a 12.102770
_cell_length_b 9.218740
_cell_length_c 11.709499
_cell_angle_alpha 113.958024
_cell_angle_beta 38.792957
_cell_angle_gamma 136.255005
_cell_volume 527.478057
_symmetry_space_group_name_H-M "P -1"
_symmetry_group_IT_number 2
_symmetry_cell_setting 'triclinic'
loop_
_space_group_symop_operation_xyz
x,y,z
-x,-y,-z
loop_
_atom_site_type_symbol
_atom_site_label
_atom_site_fract_x
_atom_site_fract_y
_atom_site_fract_z
Si Si1 0.775873 0.283536 0.186997
Si Si2 0.251635 0.128278 0.520438
Si Si3 0.952219 0.833547 0.077377
Si Si4 0.004937 0.520050 0.313337
Si Si5 0.490420 0.368238 0.189175
Si Si6 0.192645 0.405738 0.304682
Si Si7 0.500000 0.000000 0.000000
O O1 0.513568 0.200602 0.348049
O O2 0.839111 0.350932 0.289660
O O3 0.000000 0.500000 0.000000
O O4 0.796600 0.109614 0.084642
O O5 0.168974 0.175633 0.712725
O O6 0.293357 0.263919 0.419437
O O7 0.041186 0.862666 0.587781
O O8 0.753166 0.588233 0.101478
O O9 0.000000 0.000000 0.000000
O O10 0.163350 0.481871 0.235158
O O11 0.200831 0.775655 0.194168
O O12 0.833108 0.480915 0.538643
O O13 0.423103 0.443587 0.165632
O O14 0.472049 0.172299 0.110164
#
# Coordination Sequence:
#
# PCOD9067167 Si02
#       7
#     2   2   2   2   2   2   1
#     4  12  26  49  78 109 154 198 259 316 378 469
#     4  12  26  48  79 111 154 204 252 321 384 458
#     4  12  28  49  77 116 152 202 260 316 391 457
#     4  11  25  48  71 113 143 199 251 313 386 451
#     4  12  26  51  72 113 151 207 252 316 385 461
#     4  11  27  47  77 108 153 198 256 315 390 453
#     4  12  24  46  78 102 154 192 260 306 378 458
#
# _framework density 24.645575000000001
#
# number of rings (size 3 to 8) (size 9 to 14) (size 15 to 20)
#    0.000    0.308    4.615    2.769    2.154    6.769 
#    0.000    0.000    0.000    0.000    0.000    0.000 
#    0.000    0.000    0.000    0.000    0.000    0.000 
#
# Total GULP energy -72611.901290 kJ/mol
# GULP energy per Si atom -5585.530868 kJ/mol
# Density = 2.458948 g / cm^3
# Si number density = 24.645575 Si / 1000 Ang^3
#
#
#
# Elastic Constant Matrix: (Units=GPa)
#
#
# Indices 1 2 3 4 5 6 
#
# 1 133.1418 18.8834 43.5056 28.4206 -5.5653 -1.7870
# 2 18.8834 50.7441 -1.1916 10.6513 -14.4317 -13.8759
# 3 43.5056 -1.1916 74.8234 27.5540 -22.2637 8.7144
# 4 28.4206 10.6513 27.5540 42.2953 -8.4110 -1.7757
# 5 -5.5653 -14.4317 -22.2637 -8.4110 42.7691 -2.0651
# 6 -1.7870 -13.8759 8.7144 -1.7757 -2.0651 30.6734
#
#
#
# Elastic Compliance Matrix: (Units=1/GPa)
#
#
# Indices 1 2 3 4 5 6 
#
# 1 0.010718 -0.004836 -0.006615 -0.002510 -0.004180 -0.000110
# 2 -0.004836 0.029902 0.008263 -0.006598 0.013015 0.011392
# 3 -0.006615 0.008263 0.026173 -0.012277 0.012948 -0.003922
# 4 -0.002510 -0.006598 -0.012277 0.034682 -0.002015 0.002229
# 5 -0.004180 0.013015 0.012948 -0.002015 0.033772 0.004122
# 6 -0.000110 0.011392 -0.003922 0.002229 0.004122 0.039269
#
#
# Mechanical properties :
#
#
# Convention : Reuss Voigt Hill
#
# Bulk Modulus (GPa) = 16.55155 42.34489 29.44822
# Shear Modulus (GPa) = 24.87179 36.31502 30.59341
#
# Velocity S-wave (km/s) = 3.18020 3.84277 3.52708
# Velocity P-wave (km/s) = 4.49615 6.07520 5.34431
#
# Compressibility (1/GPa) = 0.06041729
#
# Stress axis : x y z
#
# Youngs Moduli (GPa) = 93.30160 33.44311 38.20686
#
# Poissons Ratio (x) = 0.16172 0.25275
# Poissons Ratio (y) = 0.45119 -0.31571
# Poissons Ratio (z) = 0.61721 -0.27635
#
# Static dielectric constant tensor:
#      x y z
#    x 1.986070 -0.026570 -0.006750 
#    y -0.026570 1.880360 0.041960 
#    z -0.006750 0.041960 2.090050 
# 
# From -- ./inp_files/175243.got.cif
#   From: 2010.05.17/outbox.cif.g08.bks.cpg/sg2_88_cif.got.tgz:175243.got - 2010.06.03 11:33:40.
