data_PCOD9067115
_publ_section_title
;
Structure prediction by ZEFSAII (Michael W. Deem and Ramdas Pophale) SiO2 
 PCOD9067115
Probable space group: P -1
;
_chemical_formula_sum "Si O2"
_cell_formula_units_Z 12
_cell_length_a 13.871663
_cell_length_b 5.480661
_cell_length_c 8.221033
_cell_angle_alpha 101.086921
_cell_angle_beta 52.453972
_cell_angle_gamma 116.160950
_cell_volume 442.215039
_symmetry_space_group_name_H-M "P -1"
_symmetry_group_IT_number 2
_symmetry_cell_setting 'triclinic'
loop_
_space_group_symop_operation_xyz
x,y,z
-x,-y,-z
loop_
_atom_site_type_symbol
_atom_site_label
_atom_site_fract_x
_atom_site_fract_y
_atom_site_fract_z
Si Si1 0.206123 0.081885 0.431311
Si Si2 0.098966 0.313531 0.986794
Si Si3 0.356329 0.798195 0.703614
Si Si4 0.935215 0.504559 0.391017
Si Si5 0.740467 0.862927 0.976077
Si Si6 0.501717 0.579460 0.705105
O O1 0.113087 0.251161 0.544135
O O2 0.214951 0.002256 0.224726
O O3 0.351425 0.287766 0.365340
O O4 0.173526 0.811998 0.537865
O O5 0.162829 0.273570 0.086676
O O6 0.024901 0.502370 0.144307
O O7 0.233474 0.492481 0.764952
O O8 0.000000 0.000000 0.000000
O O9 0.419201 0.763984 0.805760
O O10 0.500000 0.000000 0.500000
O O11 0.267311 0.963756 0.839081
O O12 0.000000 0.500000 0.500000
O O13 0.585918 0.653643 0.111159
O O14 0.500000 0.500000 0.500000
#
# Coordination Sequence:
#
# PCOD9067115 Si02
#       6
#     2   2   2   2   2   2
#     4  12  29  48  84 113 157 218 265 331 407 482
#     4  11  28  47  78 120 157 206 270 335 403 478
#     4  11  25  47  81 107 162 208 266 336 403 476
#     4  12  27  53  80 113 161 210 269 330 403 487
#     4  11  25  48  76 111 159 207 267 330 396 485
#     4  11  26  47  71 116 156 206 268 335 400 475
#
# _framework density 27.136120999999999
#
# number of rings (size 3 to 8) (size 9 to 14) (size 15 to 20)
#    0.000    0.667    3.333    2.000   11.667    2.667 
#    0.000    0.000    0.000    0.000    0.000    0.000 
#    0.000    0.000    0.000    0.000    0.000    0.000 
#
# Total GULP energy -66893.758909 kJ/mol
# GULP energy per Si atom -5574.479909 kJ/mol
# Density = 2.707436 g / cm^3
# Si number density = 27.136121 Si / 1000 Ang^3
#
#
#
# Elastic Constant Matrix: (Units=GPa)
#
#
# Indices 1 2 3 4 5 6 
#
# 1 63.2571 19.7564 26.4742 3.4486 -12.7046 25.0681
# 2 19.7564 139.6654 75.2484 -37.1259 -24.1095 3.7370
# 3 26.4742 75.2484 169.8369 -26.7971 -7.9368 13.7020
# 4 3.4486 -37.1259 -26.7971 68.5351 0.6610 -12.8820
# 5 -12.7046 -24.1095 -7.9368 0.6610 50.5690 -1.8987
# 6 25.0681 3.7370 13.7020 -12.8820 -1.8987 52.1334
#
#
#
# Elastic Compliance Matrix: (Units=1/GPa)
#
#
# Indices 1 2 3 4 5 6 
#
# 1 0.023289 -0.002616 -0.002246 -0.005702 0.003887 -0.011688
# 2 -0.002616 0.011822 -0.003999 0.005490 0.004392 0.002978
# 3 -0.002246 -0.003999 0.008163 0.001044 -0.001225 -0.000565
# 4 -0.005702 0.005490 0.001044 0.019554 0.001354 0.006955
# 5 0.003887 0.004392 -0.001225 0.001354 0.022609 -0.000704
# 6 -0.011688 0.002978 -0.000565 0.006955 -0.000704 0.026430
#
#
# Mechanical properties :
#
#
# Convention : Reuss Voigt Hill
#
# Bulk Modulus (GPa) = 39.13664 68.41306 53.77485
# Shear Modulus (GPa) = 36.20392 50.99952 43.60172
#
# Velocity S-wave (km/s) = 3.65658 4.33990 4.01281
# Velocity P-wave (km/s) = 5.68164 7.09780 6.42884
#
# Compressibility (1/GPa) = 0.02555150
#
# Stress axis : x y z
#
# Youngs Moduli (GPa) = 42.93908 84.58592 122.50244
#
# Poissons Ratio (x) = 0.22128 0.27517
# Poissons Ratio (y) = 0.11233 0.48990
# Poissons Ratio (z) = 0.09645 0.33827
#
# Static dielectric constant tensor:
#      x y z
#    x 2.156970 -0.102500 -0.087520 
#    y -0.102500 2.620650 0.131500 
#    z -0.087520 0.131500 2.202190 
# 
# From -- ./inp_files/287203.got.cif
#   From: 2010.05.17/outbox.cif.g08.bks.cpg/sg2_144_cif.got.tgz:287203.got - 2010.06.03 11:33:40.
