data_PCOD9067048
_publ_section_title
;
Structure prediction by ZEFSAII (Michael W. Deem and Ramdas Pophale) SiO2 
 PCOD9067048
Probable space group: P -1
;
_chemical_formula_sum "Si O2"
_cell_formula_units_Z 14
_cell_length_a 19.076373
_cell_length_b 5.052732
_cell_length_c 10.614590
_cell_angle_alpha 89.771634
_cell_angle_beta 33.753405
_cell_angle_gamma 81.528072
_cell_volume 549.032764
_symmetry_space_group_name_H-M "P -1"
_symmetry_group_IT_number 2
_symmetry_cell_setting 'triclinic'
loop_
_space_group_symop_operation_xyz
x,y,z
-x,-y,-z
loop_
_atom_site_type_symbol
_atom_site_label
_atom_site_fract_x
_atom_site_fract_y
_atom_site_fract_z
Si Si1 0.797862 0.114383 0.066699
Si Si2 0.398477 0.118245 0.790923
Si Si3 0.711953 0.959750 0.771746
Si Si4 0.980544 0.327368 0.151191
Si Si5 0.999442 0.329256 0.628052
Si Si6 0.568327 0.527305 0.552931
Si Si7 0.687263 0.454257 0.644364
O O1 0.908183 0.953725 0.999259
O O2 0.697616 0.356277 0.289670
O O3 0.717962 0.916844 0.124444
O O4 0.872806 0.219442 0.840394
O O5 0.452448 0.383857 0.697289
O O6 0.481937 0.153059 0.403816
O O7 0.350973 0.098694 0.004525
O O8 0.866844 0.910317 0.565877
O O9 0.693533 0.738968 0.696898
O O10 0.653796 0.257575 0.800271
O O11 0.996176 0.487642 0.255870
O O12 0.833150 0.303355 0.377701
O O13 0.000000 0.500000 0.000000
O O14 0.000000 0.500000 0.500000
O O15 0.597296 0.497265 0.657530
#
# Coordination Sequence:
#
# PCOD9067048 Si02
#       7
#     2   2   2   2   2   2   2
#     4  12  28  48  82 112 158 200 266 324 396 466
#     4  12  29  49  77 110 157 212 261 314 383 469
#     4  11  25  47  76 113 152 197 261 320 393 461
#     4  11  26  45  79 116 155 202 255 332 401 463
#     4  11  26  45  79 116 155 202 255 332 401 463
#     4  12  29  49  77 110 157 212 261 314 383 469
#     4  11  25  47  76 113 152 197 261 320 393 461
#
# _framework density 25.499390999999999
#
# number of rings (size 3 to 8) (size 9 to 14) (size 15 to 20)
#    0.000    0.571    1.429    4.286   16.000    5.714 
#    0.000    0.000    0.000    0.000    0.000    0.000 
#    0.000    0.000    0.000    0.000    0.000    0.000 
#
# Total GULP energy -78665.324663 kJ/mol
# GULP energy per Si atom -5618.951762 kJ/mol
# Density = 2.544135 g / cm^3
# Si number density = 25.499391 Si / 1000 Ang^3
#
#
#
# Elastic Constant Matrix: (Units=GPa)
#
#
# Indices 1 2 3 4 5 6 
#
# 1 112.5397 26.4599 48.8228 3.1613 2.6052 -8.5883
# 2 26.4599 87.6051 37.3829 -17.7620 -9.3353 -6.1162
# 3 48.8228 37.3829 165.5279 -15.6696 9.4313 -0.0763
# 4 3.1613 -17.7620 -15.6696 43.4470 -8.1838 8.6197
# 5 2.6052 -9.3353 9.4313 -8.1838 40.5038 -2.8233
# 6 -8.5883 -6.1162 -0.0763 8.6197 -2.8233 47.0103
#
#
#
# Elastic Compliance Matrix: (Units=1/GPa)
#
#
# Indices 1 2 3 4 5 6 
#
# 1 0.011128 -0.002850 -0.002916 -0.003717 -0.001287 0.002262
# 2 -0.002850 0.015217 -0.002295 0.006535 0.005587 0.000593
# 3 -0.002916 -0.002295 0.007710 0.001965 -0.001829 -0.001289
# 4 -0.003717 0.006535 0.001965 0.028883 0.006795 -0.004713
# 5 -0.001287 0.005587 -0.001829 0.006795 0.027922 0.000920
# 6 0.002262 0.000593 -0.001289 -0.004713 0.000920 0.022680
#
#
# Mechanical properties :
#
#
# Convention : Reuss Voigt Hill
#
# Bulk Modulus (GPa) = 55.76743 65.66710 60.71726
# Shear Modulus (GPa) = 36.86282 43.05936 39.96109
#
# Velocity S-wave (km/s) = 3.80628 4.11377 3.96301
# Velocity P-wave (km/s) = 6.42141 6.95503 6.69354
#
# Compressibility (1/GPa) = 0.01793161
#
# Stress axis : x y z
#
# Youngs Moduli (GPa) = 89.86629 65.71710 129.71006
#
# Poissons Ratio (x) = 0.18726 0.37825
# Poissons Ratio (y) = 0.25608 0.29775
# Poissons Ratio (z) = 0.26206 0.15085
#
# Static dielectric constant tensor:
#      x y z
#    x 1.985850 0.022270 -0.003550 
#    y 0.022270 2.002550 0.034270 
#    z -0.003550 0.034270 2.024510 
# 
# From -- ./inp_files/323803.got.cif
#   From: 2010.05.17/outbox.cif.g08.bks.cpg/sg2_162_cif.got.tgz:323803.got - 2010.06.03 11:33:40.
