data_PCOD9067902
_publ_section_title
;
Structure prediction by ZEFSAII (Michael W. Deem and Ramdas Pophale) SiO2 
 PCOD9067902
Probable space group: P -1
;
_chemical_formula_sum "Si O2"
_cell_formula_units_Z 16
_cell_length_a 9.163181
_cell_length_b 6.590123
_cell_length_c 17.255121
_cell_angle_alpha 103.864209
_cell_angle_beta 75.650144
_cell_angle_gamma 133.377609
_cell_volume 730.151701
_symmetry_space_group_name_H-M "P -1"
_symmetry_group_IT_number 2
_symmetry_cell_setting 'triclinic'
loop_
_space_group_symop_operation_xyz
x,y,z
-x,-y,-z
loop_
_atom_site_type_symbol
_atom_site_label
_atom_site_fract_x
_atom_site_fract_y
_atom_site_fract_z
Si Si1 0.008328 0.737782 0.556598
Si Si2 0.200683 0.962120 0.719717
Si Si3 0.317162 0.253123 0.449132
Si Si4 0.878819 0.488146 0.818644
Si Si5 0.437216 0.027250 0.285311
Si Si6 0.160558 0.632818 0.922490
Si Si7 0.498692 0.310547 0.922312
Si Si8 0.598574 0.491094 0.183944
O O1 0.102574 0.822946 0.637455
O O2 0.000000 0.500000 0.500000
O O3 0.793489 0.659622 0.573773
O O4 0.157269 0.005371 0.506376
O O5 0.024163 0.799251 0.792928
O O6 0.373776 0.949188 0.716272
O O7 0.290895 0.277260 0.741806
O O8 0.500000 0.500000 0.500000
O O9 0.390568 0.142111 0.370931
O O10 0.761820 0.283595 0.742389
O O11 0.713265 0.393632 0.896272
O O12 0.039355 0.498584 0.845084
O O13 0.476902 0.202146 0.219087
O O14 0.280861 0.528621 0.898252
O O15 0.316098 0.975245 0.929489
O O16 0.000000 0.500000 0.000000
O O17 0.495809 0.413538 0.846771
O O18 0.500000 0.500000 0.000000
#
# Coordination Sequence:
#
# PCOD9067902 Si02
#       8
#     2   2   2   2   2   2   2   2
#     4  11  26  46  72 109 144 185 234 287 351 416
#     4  12  26  46  70 104 142 186 238 290 346 420
#     4  11  26  46  72 109 144 185 234 287 351 416
#     4  12  24  47  69 102 143 181 239 290 348 416
#     4  12  26  46  70 104 142 186 238 290 346 420
#     4  12  28  48  70 104 140 185 232 298 350 419
#     4  12  28  48  70 106 140 182 242 288 354 428
#     4  12  24  47  69 102 143 181 239 290 348 416
#
# _framework density 21.913254999999999
#
# number of rings (size 3 to 8) (size 9 to 14) (size 15 to 20)
#    0.000    0.250    5.000    3.000    7.000    8.000 
#    0.000    0.000    0.000    0.000    0.000    0.000 
#    0.000    0.000    0.000    0.000    0.000    0.000 
#
# Total GULP energy -89371.860841 kJ/mol
# GULP energy per Si atom -5585.741303 kJ/mol
# Density = 2.186338 g / cm^3
# Si number density = 21.913255 Si / 1000 Ang^3
#
#
#
# Elastic Constant Matrix: (Units=GPa)
#
#
# Indices 1 2 3 4 5 6 
#
# 1 110.3590 53.3064 30.8471 14.0747 2.6919 2.0237
# 2 53.3064 85.0035 10.1155 14.8430 -3.8312 -0.0973
# 3 30.8471 10.1155 100.8545 22.2470 -6.3718 3.1596
# 4 14.0747 14.8430 22.2470 51.0753 -1.2610 -0.1117
# 5 2.6919 -3.8312 -6.3718 -1.2610 46.2368 -1.2320
# 6 2.0237 -0.0973 3.1596 -0.1117 -1.2320 25.9633
#
#
#
# Elastic Compliance Matrix: (Units=1/GPa)
#
#
# Indices 1 2 3 4 5 6 
#
# 1 0.014310 -0.008653 -0.003637 0.000103 -0.002070 -0.000803
# 2 -0.008653 0.017684 0.001753 -0.003464 0.002132 0.000614
# 3 -0.003637 0.001753 0.012043 -0.004709 0.001859 -0.001108
# 4 0.000103 -0.003464 -0.004709 0.022602 -0.000309 0.000635
# 5 -0.002070 0.002132 0.001859 -0.000309 0.022199 0.000995
# 6 -0.000803 0.000614 -0.001108 0.000635 0.000995 0.038766
#
#
# Mechanical properties :
#
#
# Convention : Reuss Voigt Hill
#
# Bulk Modulus (GPa) = 43.55213 53.86166 48.70689
# Shear Modulus (GPa) = 31.98311 38.11826 35.05069
#
# Velocity S-wave (km/s) = 3.82453 4.17526 4.00374
# Velocity P-wave (km/s) = 6.27858 6.91929 6.60671
#
# Compressibility (1/GPa) = 0.02296099
#
# Stress axis : x y z
#
# Youngs Moduli (GPa) = 69.88227 56.54900 83.03698
#
# Poissons Ratio (x) = 0.48933 0.30202
# Poissons Ratio (y) = 0.60470 -0.14553
# Poissons Ratio (z) = 0.25417 -0.09911
#
# Static dielectric constant tensor:
#      x y z
#    x 1.796590 0.021450 0.024620 
#    y 0.021450 1.758110 -0.019980 
#    z 0.024620 -0.019980 1.808190 
# 
# From -- ./inp_files/141215.got.cif
#   From: 2010.05.17/outbox.cif.g08.bks.cpg/sg2_71_cif.got.tgz:141215.got - 2010.06.03 11:33:40.
