data_PCOD9067688
_publ_section_title
;
Structure prediction by ZEFSAII (Michael W. Deem and Ramdas Pophale) SiO2 
 PCOD9067688
Probable space group: P -1
;
_chemical_formula_sum "Si O2"
_cell_formula_units_Z 11
_cell_length_a 4.916216
_cell_length_b 11.405823
_cell_length_c 14.708931
_cell_angle_alpha 31.643636
_cell_angle_beta 108.698451
_cell_angle_gamma 109.380783
_cell_volume 406.978661
_symmetry_space_group_name_H-M "P -1"
_symmetry_group_IT_number 2
_symmetry_cell_setting 'triclinic'
loop_
_space_group_symop_operation_xyz
x,y,z
-x,-y,-z
loop_
_atom_site_type_symbol
_atom_site_label
_atom_site_fract_x
_atom_site_fract_y
_atom_site_fract_z
Si Si1 0.751248 0.382768 0.917483
Si Si2 0.561524 0.885160 0.486921
Si Si3 0.283607 0.290129 0.148903
Si Si4 0.500000 0.500000 0.500000
Si Si5 0.019722 0.365119 0.397518
Si Si6 0.320828 0.984143 0.083645
O O1 0.747764 0.627863 0.803767
O O2 0.878772 0.440058 0.792800
O O3 0.984125 0.276956 0.073533
O O4 0.458950 0.214172 0.996492
O O5 0.869645 0.846313 0.504925
O O6 0.320195 0.665458 0.597530
O O7 0.500000 0.000000 0.500000
O O8 0.430518 0.070544 0.289669
O O9 0.500000 0.500000 0.000000
O O10 0.208724 0.385505 0.494486
O O11 0.388361 0.757799 0.292953
O O12 0.500000 0.000000 0.000000
O O13 0.000000 0.000000 0.000000
#
# Coordination Sequence:
#
# PCOD9067688 Si02
#       6
#     2   2   2   1   2   2
#     4  11  26  49  71 114 151 198 260 322 392 472
#     4  12  26  46  75 111 150 196 255 314 394 463
#     4  11  26  43  78 107 154 202 248 323 401 463
#     4  12  30  54  82 114 160 214 270 322 404 458
#     4  12  28  48  77 109 154 202 258 321 383 466
#     4  12  30  52  82 114 157 211 267 329 392 471
#
# _framework density 27.028445999999999
#
# number of rings (size 3 to 8) (size 9 to 14) (size 15 to 20)
#    0.000    0.364    3.636    2.727   12.727    2.909 
#    0.000    0.000    0.000    0.000    0.000    0.000 
#    0.000    0.000    0.000    0.000    0.000    0.000 
#
# Total GULP energy -61302.135280 kJ/mol
# GULP energy per Si atom -5572.921389 kJ/mol
# Density = 2.696693 g / cm^3
# Si number density = 27.028446 Si / 1000 Ang^3
#
#
#
# Elastic Constant Matrix: (Units=GPa)
#
#
# Indices 1 2 3 4 5 6 
#
# 1 141.9685 26.2474 28.4007 3.2723 13.3046 33.3884
# 2 26.2474 109.3005 30.9152 6.3828 9.4000 48.5645
# 3 28.4007 30.9152 129.2203 -28.7182 19.8016 14.7143
# 4 3.2723 6.3828 -28.7182 54.1008 -3.7388 10.9898
# 5 13.3046 9.4000 19.8016 -3.7388 43.4197 1.2499
# 6 33.3884 48.5645 14.7143 10.9898 1.2499 58.4528
#
#
#
# Elastic Compliance Matrix: (Units=1/GPa)
#
#
# Indices 1 2 3 4 5 6 
#
# 1 0.008555 0.000763 -0.001245 -0.000380 -0.002105 -0.005091
# 2 0.000763 0.015369 -0.002228 -0.000664 -0.002243 -0.012471
# 3 -0.001245 -0.002228 0.010505 0.005908 -0.003386 -0.001120
# 4 -0.000380 -0.000664 0.005908 0.022710 -0.000335 -0.004981
# 5 -0.002105 -0.002243 -0.003386 -0.000335 0.025578 0.003434
# 6 -0.005091 -0.012471 -0.001120 -0.004981 0.003434 0.031522
#
#
# Mechanical properties :
#
#
# Convention : Reuss Voigt Hill
#
# Bulk Modulus (GPa) = 34.47322 61.29065 47.88194
# Shear Modulus (GPa) = 38.66090 50.85639 44.75865
#
# Velocity S-wave (km/s) = 3.78614 4.34243 4.07379
# Velocity P-wave (km/s) = 5.64759 6.91866 6.31518
#
# Compressibility (1/GPa) = 0.02900802
#
# Stress axis : x y z
#
# Youngs Moduli (GPa) = 116.88951 65.06600 95.19353
#
# Poissons Ratio (x) = -0.04963 0.11851
# Poissons Ratio (y) = -0.08916 0.21213
# Poissons Ratio (z) = 0.14552 0.14499
#
# Static dielectric constant tensor:
#      x y z
#    x 1.975890 -0.113380 -0.004980 
#    y -0.113380 2.217820 0.038040 
#    z -0.004980 0.038040 2.408080 
# 
# From -- ./inp_files/18807.got.cif
#   From: 2010.05.17/outbox.cif.g08.bks.cpg/sg2_10_cif.got.tgz:18807.got - 2010.06.03 11:33:40.
