data_PCOD9067407
_publ_section_title
;
Structure prediction by ZEFSAII (Michael W. Deem and Ramdas Pophale) SiO2 
 PCOD9067407
Probable space group: P -1
;
_chemical_formula_sum "Si O2"
_cell_formula_units_Z 16
_cell_length_a 10.028896
_cell_length_b 7.832471
_cell_length_c 12.546852
_cell_angle_alpha 100.167035
_cell_angle_beta 133.440610
_cell_angle_gamma 89.733375
_cell_volume 694.914551
_symmetry_space_group_name_H-M "P -1"
_symmetry_group_IT_number 2
_symmetry_cell_setting 'triclinic'
loop_
_space_group_symop_operation_xyz
x,y,z
-x,-y,-z
loop_
_atom_site_type_symbol
_atom_site_label
_atom_site_fract_x
_atom_site_fract_y
_atom_site_fract_z
Si Si1 0.436517 0.082259 0.083270
Si Si2 0.161041 0.883931 0.078506
Si Si3 0.690149 0.627551 0.088817
Si Si4 0.281739 0.732902 0.570128
Si Si5 0.673930 0.218489 0.634048
Si Si6 0.898791 0.799810 0.419224
Si Si7 0.711202 0.660974 0.517386
Si Si8 0.976499 0.563202 0.824088
O O1 0.604915 0.160138 0.262085
O O2 0.299862 0.943782 0.063475
O O3 0.339790 0.247192 0.012346
O O4 0.500000 0.000000 0.000000
O O5 0.270249 0.899056 0.252078
O O6 0.058997 0.686903 0.978596
O O7 0.000000 0.000000 0.000000
O O8 0.758415 0.753987 0.239395
O O9 0.851620 0.515048 0.140508
O O10 0.500000 0.500000 0.000000
O O11 0.294844 0.837196 0.476518
O O12 0.349858 0.548276 0.562684
O O13 0.067044 0.690657 0.481422
O O14 0.465733 0.256616 0.534797
O O15 0.815759 0.401628 0.744514
O O16 0.792682 0.747939 0.463356
O O17 0.000000 0.000000 0.500000
O O18 0.875245 0.674508 0.696101
#
# Coordination Sequence:
#
# PCOD9067407 Si02
#       8
#     2   2   2   2   2   2   2   2
#     4  12  29  48  72 112 153 192 250 315 380 439
#     4  12  30  46  74 110 156 194 239 313 384 441
#     4  12  26  47  78 107 152 204 255 303 383 457
#     4  11  25  49  77 103 150 197 254 305 366 449
#     4  11  26  51  77 107 144 199 258 296 374 451
#     4  12  27  45  74 111 151 197 249 322 374 436
#     4  11  26  45  80 109 143 193 258 305 368 445
#     4  11  25  49  75 106 147 200 255 307 365 464
#
# _framework density 23.024415000000001
#
# number of rings (size 3 to 8) (size 9 to 14) (size 15 to 20)
#    0.000    0.500    2.500    5.250   15.750    0.500 
#    0.000    0.000    0.000    0.000    0.000    0.000 
#    0.000    0.000    0.000    0.000    0.000    0.000 
#
# Total GULP energy -89669.510997 kJ/mol
# GULP energy per Si atom -5604.344437 kJ/mol
# Density = 2.297201 g / cm^3
# Si number density = 23.024415 Si / 1000 Ang^3
#
#
#
# Elastic Constant Matrix: (Units=GPa)
#
#
# Indices 1 2 3 4 5 6 
#
# 1 142.3875 28.9087 57.7184 -17.8802 1.3201 8.6140
# 2 28.9087 75.1362 51.0810 -5.6265 -2.2403 5.2626
# 3 57.7184 51.0810 181.8804 -0.8859 -13.3414 6.7133
# 4 -17.8802 -5.6265 -0.8859 44.7322 -0.9909 -1.6972
# 5 1.3201 -2.2403 -13.3414 -0.9909 44.8075 -6.7076
# 6 8.6140 5.2626 6.7133 -1.6972 -6.7076 35.4361
#
#
#
# Elastic Compliance Matrix: (Units=1/GPa)
#
#
# Indices 1 2 3 4 5 6 
#
# 1 0.008796 -0.001438 -0.002403 0.003202 -0.001207 -0.001544
# 2 -0.001438 0.016967 -0.004292 0.001409 -0.000565 -0.001396
# 3 -0.002403 -0.004292 0.007610 -0.001299 0.002111 0.000117
# 4 0.003202 0.001409 -0.001299 0.023807 0.000181 0.000433
# 5 -0.001207 -0.000565 0.002111 0.000181 0.023625 0.004458
# 6 -0.001544 -0.001396 0.000117 0.000433 0.004458 0.029645
#
#
# Mechanical properties :
#
#
# Convention : Reuss Voigt Hill
#
# Bulk Modulus (GPa) = 58.45820 74.98006 66.71913
# Shear Modulus (GPa) = 37.75894 42.44155 40.10024
#
# Velocity S-wave (km/s) = 4.05403 4.29806 4.17782
# Velocity P-wave (km/s) = 6.88173 7.56751 7.23275
#
# Compressibility (1/GPa) = 0.01710624
#
# Stress axis : x y z
#
# Youngs Moduli (GPa) = 113.68718 58.93895 131.40086
#
# Poissons Ratio (x) = 0.08478 0.31580
# Poissons Ratio (y) = 0.16353 0.56393
# Poissons Ratio (z) = 0.27323 0.25295
#
# Static dielectric constant tensor:
#      x y z
#    x 1.840170 -0.049010 0.016390 
#    y -0.049010 1.975560 -0.069040 
#    z 0.016390 -0.069040 1.913660 
# 
# From -- ./inp_files/382787.got.cif
#   From: 2010.05.17/outbox.cif.g08.bks.cpg/sg2_192_cif.got.tgz:382787.got - 2010.06.03 11:33:40.
