data_PCOD9067967
_publ_section_title
;
Structure prediction by ZEFSAII (Michael W. Deem and Ramdas Pophale) SiO2 
 PCOD9067967
Probable space group: P -1
;
_chemical_formula_sum "Si O2"
_cell_formula_units_Z 16
_cell_length_a 8.981912
_cell_length_b 14.789357
_cell_length_c 8.455829
_cell_angle_alpha 83.157792
_cell_angle_beta 54.972245
_cell_angle_gamma 119.765357
_cell_volume 656.886584
_symmetry_space_group_name_H-M "P -1"
_symmetry_group_IT_number 2
_symmetry_cell_setting 'triclinic'
loop_
_space_group_symop_operation_xyz
x,y,z
-x,-y,-z
loop_
_atom_site_type_symbol
_atom_site_label
_atom_site_fract_x
_atom_site_fract_y
_atom_site_fract_z
Si Si1 0.239720 0.612801 0.934839
Si Si2 0.553311 0.083236 0.726327
Si Si3 0.211834 0.463827 0.273122
Si Si4 0.609061 0.821902 0.417459
Si Si5 0.008786 0.191816 0.910156
Si Si6 0.065039 0.945597 0.596092
Si Si7 0.838389 0.270436 0.780003
Si Si8 0.247609 0.314114 0.047812
O O1 0.461792 0.707326 0.655194
O O2 0.250167 0.542435 0.082997
O O3 0.230669 0.702415 0.023472
O O4 0.000000 0.500000 0.000000
O O5 0.570313 0.176070 0.578870
O O6 0.752889 0.072830 0.569668
O O7 0.612218 0.142600 0.852104
O O8 0.273679 0.945769 0.901836
O O9 0.199248 0.361186 0.218269
O O10 0.973417 0.384905 0.550364
O O11 0.464872 0.566422 0.199394
O O12 0.788692 0.818466 0.209122
O O13 0.789669 0.953734 0.373445
O O14 0.035204 0.262596 0.722840
O O15 0.061617 0.265192 0.023895
O O16 0.809023 0.807756 0.836756
O O17 0.000000 0.000000 0.500000
#
# Coordination Sequence:
#
# PCOD9067967 Si02
#       8
#     2   2   2   2   2   2   2   2
#     4  12  28  48  77 110 152 202 262 314 389 458
#     4  12  26  50  75 113 159 196 257 323 383 458
#     4  11  26  48  74 110 153 202 254 320 382 457
#     4  12  28  47  76 112 155 205 255 315 382 455
#     4  12  28  47  74 115 154 207 255 314 384 458
#     4  12  25  47  81 112 152 200 255 317 392 453
#     4  12  27  47  77 110 149 199 260 321 385 451
#     4  11  26  46  76 108 156 196 257 312 385 455
#
# _framework density 24.357327000000002
#
# number of rings (size 3 to 8) (size 9 to 14) (size 15 to 20)
#    0.000    0.250    2.500    5.250    8.750    1.500 
#    0.000    0.000    0.000    0.000    0.000    0.000 
#    0.000    0.000    0.000    0.000    0.000    0.000 
#
# Total GULP energy -89622.748183 kJ/mol
# GULP energy per Si atom -5601.421761 kJ/mol
# Density = 2.430189 g / cm^3
# Si number density = 24.357327 Si / 1000 Ang^3
#
#
#
# Elastic Constant Matrix: (Units=GPa)
#
#
# Indices 1 2 3 4 5 6 
#
# 1 137.7740 39.4951 27.2614 2.1888 25.4496 2.7661
# 2 39.4951 133.8018 34.8925 -11.0083 -3.1046 36.2025
# 3 27.2614 34.8925 111.0335 -14.9014 0.6484 6.9097
# 4 2.1888 -11.0083 -14.9014 42.5261 -5.7567 -0.0374
# 5 25.4496 -3.1046 0.6484 -5.7567 43.0172 -3.2921
# 6 2.7661 36.2025 6.9097 -0.0374 -3.2921 50.3719
#
#
#
# Elastic Compliance Matrix: (Units=1/GPa)
#
#
# Indices 1 2 3 4 5 6 
#
# 1 0.009688 -0.003195 -0.001814 -0.002797 -0.006186 0.001607
# 2 -0.003195 0.011220 -0.001926 0.002729 0.002524 -0.007457
# 3 -0.001814 -0.001926 0.010504 0.003444 0.001246 0.000127
# 4 -0.002797 0.002729 0.003444 0.026270 0.005168 -0.001923
# 5 -0.006186 0.002524 0.001246 0.005168 0.027775 0.000174
# 6 0.001607 -0.007457 0.000127 -0.001923 0.000174 0.025116
#
#
# Mechanical properties :
#
#
# Convention : Reuss Voigt Hill
#
# Bulk Modulus (GPa) = 57.00521 65.10079 61.05300
# Shear Modulus (GPa) = 38.37604 45.91371 42.14488
#
# Velocity S-wave (km/s) = 3.97362 4.34638 4.16417
# Velocity P-wave (km/s) = 6.67139 7.20926 6.94553
#
# Compressibility (1/GPa) = 0.01754225
#
# Stress axis : x y z
#
# Youngs Moduli (GPa) = 103.22059 89.12814 95.20273
#
# Poissons Ratio (x) = 0.28477 0.17268
# Poissons Ratio (y) = 0.32980 0.18334
# Poissons Ratio (z) = 0.18723 0.17164
#
# Static dielectric constant tensor:
#      x y z
#    x 2.001650 -0.055480 0.005450 
#    y -0.055480 1.926210 -0.014830 
#    z 0.005450 -0.014830 1.925990 
# 
# From -- ./inp_files/206788.got.cif
#   From: 2010.05.17/outbox.cif.g08.bks.cpg/sg2_104_cif.got.tgz:206788.got - 2010.06.03 11:33:40.
