data_PCOD9067507
_publ_section_title
;
Structure prediction by ZEFSAII (Michael W. Deem and Ramdas Pophale) SiO2 
 PCOD9067507
Probable space group: P -1
;
_chemical_formula_sum "Si O2"
_cell_formula_units_Z 14
_cell_length_a 10.908917
_cell_length_b 16.108702
_cell_length_c 8.018404
_cell_angle_alpha 129.006739
_cell_angle_beta 138.055247
_cell_angle_gamma 35.897469
_cell_volume 550.931578
_symmetry_space_group_name_H-M "P -1"
_symmetry_group_IT_number 2
_symmetry_cell_setting 'triclinic'
loop_
_space_group_symop_operation_xyz
x,y,z
-x,-y,-z
loop_
_atom_site_type_symbol
_atom_site_label
_atom_site_fract_x
_atom_site_fract_y
_atom_site_fract_z
Si Si1 0.281602 0.414112 0.327747
Si Si2 0.322822 0.632203 0.102327
Si Si3 0.263833 0.327766 0.851023
Si Si4 0.551679 0.978129 0.328250
Si Si5 0.128201 0.239751 0.032830
Si Si6 0.762756 0.165493 0.998750
Si Si7 0.986529 0.907824 0.503363
O O1 0.516469 0.376883 0.600641
O O2 0.269011 0.293231 0.203582
O O3 0.029666 0.561489 0.331184
O O4 0.284279 0.408800 0.121850
O O5 0.500000 0.500000 0.000000
O O6 0.202757 0.764614 0.026419
O O7 0.109804 0.636418 0.950423
O O8 0.339764 0.179589 0.800658
O O9 0.465839 0.262616 0.825826
O O10 0.735915 0.997448 0.470533
O O11 0.500000 0.000000 0.500000
O O12 0.304410 0.094027 0.128386
O O13 0.019036 0.202420 0.737172
O O14 0.805465 0.173126 0.248472
O O15 0.000000 0.000000 0.000000
O O16 0.000000 0.000000 0.500000
#
# Coordination Sequence:
#
# PCOD9067507 Si02
#       7
#     2   2   2   2   2   2   2
#     4  11  28  50  78 110 157 207 262 315 393 482
#     4  12  29  49  75 113 158 205 255 325 399 470
#     4  11  25  50  74 110 155 206 260 321 388 474
#     4  12  27  45  78 119 155 197 265 332 394 460
#     4  12  27  48  78 112 149 208 259 318 396 468
#     4  12  27  46  76 113 151 202 261 326 394 457
#     4  12  26  46  77 113 159 204 260 326 394 473
#
# _framework density 25.411505999999999
#
# number of rings (size 3 to 8) (size 9 to 14) (size 15 to 20)
#    0.000    0.286    1.429    6.429   12.000    1.143 
#    0.000    3.571    0.000    0.000    0.000    0.000 
#    0.000    0.000    0.000    0.000    0.000    0.000 
#
# Total GULP energy -78257.318397 kJ/mol
# GULP energy per Si atom -5589.808457 kJ/mol
# Density = 2.535367 g / cm^3
# Si number density = 25.411506 Si / 1000 Ang^3
#
#
#
# Elastic Constant Matrix: (Units=GPa)
#
#
# Indices 1 2 3 4 5 6 
#
# 1 117.6819 7.3897 3.2625 -15.1318 18.6625 -22.8910
# 2 7.3897 132.4325 12.1012 -15.0091 -2.9524 -13.5395
# 3 3.2625 12.1012 73.7329 -10.7986 -3.7531 2.8828
# 4 -15.1318 -15.0091 -10.7986 34.6990 2.0341 -5.0107
# 5 18.6625 -2.9524 -3.7531 2.0341 32.5146 -4.4758
# 6 -22.8910 -13.5395 2.8828 -5.0107 -4.4758 43.7146
#
#
#
# Elastic Compliance Matrix: (Units=1/GPa)
#
#
# Indices 1 2 3 4 5 6 
#
# 1 0.011502 0.000628 -0.000220 0.006494 -0.006102 0.006352
# 2 0.000628 0.008439 -0.000921 0.004116 0.000528 0.003529
# 3 -0.000220 -0.000921 0.014378 0.003789 0.001358 -0.000775
# 4 0.006494 0.004116 0.003789 0.036023 -0.004049 0.008140
# 5 -0.006102 0.000528 0.001358 -0.004049 0.034712 -0.000032
# 6 0.006352 0.003529 -0.000775 0.008140 -0.000032 0.028276
#
#
# Mechanical properties :
#
#
# Convention : Reuss Voigt Hill
#
# Bulk Modulus (GPa) = 30.03669 41.03935 35.53802
# Shear Modulus (GPa) = 34.37501 42.25856 38.31678
#
# Velocity S-wave (km/s) = 3.68194 4.08238 3.88732
# Velocity P-wave (km/s) = 5.47004 6.19726 5.84497
#
# Compressibility (1/GPa) = 0.03329262
#
# Stress axis : x y z
#
# Youngs Moduli (GPa) = 86.93823 118.49418 69.55222
#
# Poissons Ratio (x) = -0.07436 0.01529
# Poissons Ratio (y) = -0.05456 0.06407
# Poissons Ratio (z) = 0.01911 0.10915
#
# Static dielectric constant tensor:
#      x y z
#    x 2.084970 -0.051640 -0.025970 
#    y -0.051640 1.941420 0.070280 
#    z -0.025970 0.070280 2.039670 
# 
# From -- ./inp_files/279994.got.cif
#   From: 2010.05.17/outbox.cif.g08.bks.cpg/sg2_140_cif.got.tgz:279994.got - 2010.06.03 11:33:40.
