data_PCOD9067576
_publ_section_title
;
Structure prediction by ZEFSAII (Michael W. Deem and Ramdas Pophale) SiO2 
 PCOD9067576
Probable space group: P -1
;
_chemical_formula_sum "Si O2"
_cell_formula_units_Z 12
_cell_length_a 11.597268
_cell_length_b 14.172060
_cell_length_c 5.275472
_cell_angle_alpha 126.699115
_cell_angle_beta 96.689792
_cell_angle_gamma 47.691257
_cell_volume 450.466662
_symmetry_space_group_name_H-M "P -1"
_symmetry_group_IT_number 2
_symmetry_cell_setting 'triclinic'
loop_
_space_group_symop_operation_xyz
x,y,z
-x,-y,-z
loop_
_atom_site_type_symbol
_atom_site_label
_atom_site_fract_x
_atom_site_fract_y
_atom_site_fract_z
Si Si1 0.602069 0.798081 0.669052
Si Si2 0.073716 0.155755 0.654854
Si Si3 0.824346 0.210515 0.351247
Si Si4 0.313145 0.467079 0.342502
Si Si5 0.068207 0.306244 0.417617
Si Si6 0.387646 0.777514 0.328749
O O1 0.601618 0.690958 0.697042
O O2 0.809644 0.673178 0.505315
O O3 0.491079 0.822314 0.457496
O O4 0.500000 0.000000 0.000000
O O5 0.145238 0.163915 0.431132
O O6 0.885986 0.249200 0.660283
O O7 0.203373 0.949285 0.422930
O O8 0.076841 0.240301 0.034073
O O9 0.779212 0.334845 0.311526
O O10 0.670391 0.245783 0.472097
O O11 0.000000 0.000000 0.000000
O O12 0.140294 0.524447 0.296949
O O13 0.465832 0.397146 0.082619
#
# Coordination Sequence:
#
# PCOD9067576 Si02
#       6
#     2   2   2   2   2   2
#     4  12  27  48  79 113 161 204 257 323 388 471
#     4  11  25  50  81 111 154 209 264 318 390 463
#     4  11  27  54  80 111 156 208 264 323 393 465
#     4  11  28  47  77 114 154 207 260 327 382 468
#     4  11  26  50  79 114 159 207 260 317 395 462
#     4  12  26  46  78 116 155 203 261 324 391 460
#
# _framework density 26.639043000000001
#
# number of rings (size 3 to 8) (size 9 to 14) (size 15 to 20)
#    0.000    0.667    1.667    4.500    9.333    2.667 
#    0.000    0.000    0.000    0.000    0.000    0.000 
#    0.000    0.000    0.000    0.000    0.000    0.000 
#
# Total GULP energy -67050.640404 kJ/mol
# GULP energy per Si atom -5587.553367 kJ/mol
# Density = 2.657841 g / cm^3
# Si number density = 26.639043 Si / 1000 Ang^3
#
#
#
# Elastic Constant Matrix: (Units=GPa)
#
#
# Indices 1 2 3 4 5 6 
#
# 1 191.8654 45.3195 34.4696 -12.6726 -24.2365 -7.2441
# 2 45.3195 138.1630 40.0927 13.8497 6.3977 22.6043
# 3 34.4696 40.0927 79.5600 -10.2924 0.4269 7.0610
# 4 -12.6726 13.8497 -10.2924 44.9805 -7.8999 6.1217
# 5 -24.2365 6.3977 0.4269 -7.8999 46.1265 0.8756
# 6 -7.2441 22.6043 7.0610 6.1217 0.8756 58.6519
#
#
#
# Elastic Compliance Matrix: (Units=1/GPa)
#
#
# Indices 1 2 3 4 5 6 
#
# 1 0.006923 -0.002627 -0.001461 0.002988 0.004496 0.001664
# 2 -0.002627 0.010673 -0.004613 -0.005278 -0.003660 -0.003277
# 3 -0.001461 -0.004613 0.016242 0.004948 0.000586 -0.000883
# 4 0.002988 -0.005278 0.004948 0.027204 0.006937 -0.001135
# 5 0.004496 -0.003660 0.000586 0.006937 0.025717 0.000787
# 6 0.001664 -0.003277 -0.000883 -0.001135 0.000787 0.018731
#
#
# Mechanical properties :
#
#
# Convention : Reuss Voigt Hill
#
# Bulk Modulus (GPa) = 60.83921 72.15024 66.49472
# Shear Modulus (GPa) = 38.95002 49.26556 44.10779
#
# Velocity S-wave (km/s) = 3.82794 4.30510 4.07351
# Velocity P-wave (km/s) = 6.51348 7.20105 6.86588
#
# Compressibility (1/GPa) = 0.01643677
#
# Stress axis : x y z
#
# Youngs Moduli (GPa) = 144.44548 93.69711 61.56919
#
# Poissons Ratio (x) = 0.24613 0.08995
# Poissons Ratio (y) = 0.37945 0.28399
# Poissons Ratio (z) = 0.21102 0.43219
#
# Static dielectric constant tensor:
#      x y z
#    x 2.048220 -0.018740 -0.007730 
#    y -0.018740 2.162310 0.021610 
#    z -0.007730 0.021610 2.277700 
# 
# From -- ./inp_files/78579.got.cif
#   From: 2010.05.17/outbox.cif.g08.bks.cpg/sg2_40_cif.got.tgz:78579.got - 2010.06.03 11:33:40.
