data_PCOD9067419
_publ_section_title
;
Structure prediction by ZEFSAII (Michael W. Deem and Ramdas Pophale) SiO2 
 PCOD9067419
Probable space group: P -1
;
_chemical_formula_sum "Si O2"
_cell_formula_units_Z 14
_cell_length_a 24.709923
_cell_length_b 5.848811
_cell_length_c 14.593759
_cell_angle_alpha 56.155934
_cell_angle_beta 20.700215
_cell_angle_gamma 55.271281
_cell_volume 610.627530
_symmetry_space_group_name_H-M "P -1"
_symmetry_group_IT_number 2
_symmetry_cell_setting 'triclinic'
loop_
_space_group_symop_operation_xyz
x,y,z
-x,-y,-z
loop_
_atom_site_type_symbol
_atom_site_label
_atom_site_fract_x
_atom_site_fract_y
_atom_site_fract_z
Si Si1 0.060023 0.789196 0.366991
Si Si2 0.324550 0.473829 0.760082
Si Si3 0.742063 0.052360 0.555403
Si Si4 0.928893 0.051373 0.882778
Si Si5 0.461090 0.831322 0.971140
Si Si6 0.276111 0.403958 0.646736
Si Si7 0.375781 0.871983 0.890030
O O1 0.026817 0.982854 0.286063
O O2 0.000000 0.500000 0.500000
O O3 0.243936 0.690489 0.117464
O O4 0.000000 0.000000 0.500000
O O5 0.500000 0.500000 0.500000
O O6 0.281244 0.539394 0.708730
O O7 0.315557 0.157713 0.869182
O O8 0.204909 0.681826 0.962001
O O9 0.752551 0.366778 0.438026
O O10 0.624351 0.941473 0.697014
O O11 0.656051 0.046181 0.790310
O O12 0.918157 0.899406 0.316391
O O13 0.850457 0.799875 0.103192
O O14 0.388042 0.905652 0.971665
O O15 0.500000 0.500000 0.000000
O O16 0.450820 0.240481 0.392976
#
# Coordination Sequence:
#
# PCOD9067419 Si02
#       7
#     2   2   2   2   2   2   2
#     4  12  28  48  77 114 153 204 253 325 389 456
#     4  12  24  44  73 107 149 196 249 309 384 458
#     4  11  27  46  74 108 147 193 255 311 377 455
#     4  12  27  47  73 111 152 194 250 316 386 455
#     4  11  25  49  76 104 143 203 248 306 374 453
#     4  12  25  46  72 109 142 197 249 311 384 453
#     4  12  24  49  76 109 147 193 260 313 380 462
#
# _framework density 22.927233000000001
#
# number of rings (size 3 to 8) (size 9 to 14) (size 15 to 20)
#    0.000    0.286    4.286    4.286    2.000    2.857 
#    0.000    0.000    0.000    0.000    0.000    0.000 
#    0.000    0.000    0.000    0.000    0.000    0.000 
#
# Total GULP energy -78355.398660 kJ/mol
# GULP energy per Si atom -5596.814190 kJ/mol
# Density = 2.287505 g / cm^3
# Si number density = 22.927233 Si / 1000 Ang^3
#
#
#
# Elastic Constant Matrix: (Units=GPa)
#
#
# Indices 1 2 3 4 5 6 
#
# 1 96.4700 -6.3204 44.3172 -11.3079 -2.5811 5.6471
# 2 -6.3204 63.7117 39.7103 -4.2761 1.2375 4.6062
# 3 44.3172 39.7103 153.2850 -15.8242 -32.8622 2.2943
# 4 -11.3079 -4.2761 -15.8242 29.3491 -0.6534 -3.7307
# 5 -2.5811 1.2375 -32.8622 -0.6534 49.5086 -3.7900
# 6 5.6471 4.6062 2.2943 -3.7307 -3.7900 28.7071
#
#
#
# Elastic Compliance Matrix: (Units=1/GPa)
#
#
# Indices 1 2 3 4 5 6 
#
# 1 0.013810 0.005501 -0.005872 0.002461 -0.003534 -0.003277
# 2 0.005501 0.022067 -0.008600 -0.000051 -0.006340 -0.004779
# 3 -0.005872 -0.008600 0.012648 0.003898 0.008598 0.003166
# 4 0.002461 -0.000051 0.003898 0.037778 0.003567 0.004593
# 5 -0.003534 -0.006340 0.008598 0.003567 0.026307 0.004962
# 6 -0.003277 -0.004779 0.003166 0.004593 0.004962 0.037245
#
#
# Mechanical properties :
#
#
# Convention : Reuss Voigt Hill
#
# Bulk Modulus (GPa) = 32.69970 52.09787 42.39879
# Shear Modulus (GPa) = 28.09150 37.23025 32.66087
#
# Velocity S-wave (km/s) = 3.50415 4.03407 3.77841
# Velocity P-wave (km/s) = 5.53764 6.66864 6.12928
#
# Compressibility (1/GPa) = 0.03058132
#
# Stress axis : x y z
#
# Youngs Moduli (GPa) = 72.41371 45.31713 79.06652
#
# Poissons Ratio (x) = -0.24927 0.46428
# Poissons Ratio (y) = -0.39832 0.67996
# Poissons Ratio (z) = 0.42521 0.38972
#
# Static dielectric constant tensor:
#      x y z
#    x 1.849420 0.041880 0.020420 
#    y 0.041880 1.865260 -0.032180 
#    z 0.020420 -0.032180 1.895770 
# 
# From -- ./inp_files/71041.got.cif
#   From: 2010.05.17/outbox.cif.g08.bks.cpg/sg2_36_cif.got.tgz:71041.got - 2010.06.03 11:33:40.
