data_PCOD9067065
_publ_section_title
;
Structure prediction by ZEFSAII (Michael W. Deem and Ramdas Pophale) SiO2 
 PCOD9067065
Probable space group: P -1
;
_chemical_formula_sum "Si O2"
_cell_formula_units_Z 13
_cell_length_a 5.393544
_cell_length_b 12.304111
_cell_length_c 9.305580
_cell_angle_alpha 62.477415
_cell_angle_beta 77.278477
_cell_angle_gamma 89.939872
_cell_volume 530.579245
_symmetry_space_group_name_H-M "P -1"
_symmetry_group_IT_number 2
_symmetry_cell_setting 'triclinic'
loop_
_space_group_symop_operation_xyz
x,y,z
-x,-y,-z
loop_
_atom_site_type_symbol
_atom_site_label
_atom_site_fract_x
_atom_site_fract_y
_atom_site_fract_z
Si Si1 0.822394 0.029324 0.218416
Si Si2 0.252789 0.429890 0.994941
Si Si3 0.745014 0.553650 0.348372
Si Si4 0.113011 0.179116 0.334370
Si Si5 0.921391 0.302625 0.562503
Si Si6 0.270326 0.890590 0.109412
Si Si7 0.500000 0.000000 0.500000
O O1 0.895096 0.089203 0.330987
O O2 0.565921 0.951253 0.353213
O O3 0.795628 0.131065 0.037815
O O4 0.036652 0.950927 0.178184
O O5 0.306462 0.420066 0.825317
O O6 0.500000 0.500000 0.000000
O O7 0.189783 0.296042 0.154065
O O8 0.000000 0.500000 0.000000
O O9 0.500000 0.500000 0.500000
O O10 0.878204 0.667777 0.351644
O O11 0.906014 0.435993 0.411242
O O12 0.999307 0.220943 0.471629
O O13 0.356939 0.110936 0.376947
O O14 0.690806 0.228913 0.728932
O O15 0.500000 0.000000 0.000000
#
# Coordination Sequence:
#
# PCOD9067065 Si02
#       7
#     2   2   2   2   2   2   1
#     4  11  26  44  71 110 148 202 264 312 399 471
#     4  12  28  52  82 119 159 212 269 331 410 477
#     4  11  26  48  79 116 148 206 267 331 412 475
#     4  12  26  48  78 113 159 204 262 333 389 492
#     4  11  25  47  77 111 157 195 267 332 402 480
#     4  11  25  48  70 107 154 208 255 324 396 480
#     4  12  26  44  78 108 148 204 260 320 396 462
#
# _framework density 24.501522999999999
#
# number of rings (size 3 to 8) (size 9 to 14) (size 15 to 20)
#    0.000    0.615    3.077    3.231    6.462    6.154 
#    0.000    0.000    0.000    0.000    0.000    0.000 
#    0.000    0.000    0.000    0.000    0.000    0.000 
#
# Total GULP energy -72536.082872 kJ/mol
# GULP energy per Si atom -5579.698682 kJ/mol
# Density = 2.444576 g / cm^3
# Si number density = 24.501523 Si / 1000 Ang^3
#
#
#
# Elastic Constant Matrix: (Units=GPa)
#
#
# Indices 1 2 3 4 5 6 
#
# 1 83.0970 43.6865 33.6353 9.7402 14.3952 -0.2231
# 2 43.6865 107.9483 55.5457 22.0070 14.8346 14.9587
# 3 33.6353 55.5457 237.6207 14.0909 25.1146 11.4447
# 4 9.7402 22.0070 14.0909 64.3577 -4.5319 2.5180
# 5 14.3952 14.8346 25.1146 -4.5319 46.8655 4.0583
# 6 -0.2231 14.9587 11.4447 2.5180 4.0583 46.3279
#
#
#
# Elastic Compliance Matrix: (Units=1/GPa)
#
#
# Indices 1 2 3 4 5 6 
#
# 1 0.016017 -0.005974 -0.000645 -0.000544 -0.002948 0.002453
# 2 -0.005974 0.014112 -0.001893 -0.003473 -0.001625 -0.003786
# 3 -0.000645 -0.001893 0.004990 -0.000463 -0.001884 -0.000434
# 4 -0.000544 -0.003473 -0.000463 0.017132 0.003169 0.000025
# 5 -0.002948 -0.001625 -0.001884 0.003169 0.024188 -0.001315
# 6 0.002453 -0.003786 -0.000434 0.000025 -0.001315 0.023041
#
#
# Mechanical properties :
#
#
# Convention : Reuss Voigt Hill
#
# Bulk Modulus (GPa) = 55.26694 77.15566 66.21130
# Shear Modulus (GPa) = 40.80505 51.23011 46.01758
#
# Velocity S-wave (km/s) = 4.08537 4.57759 4.33847
# Velocity P-wave (km/s) = 6.69770 7.71347 7.22346
#
# Compressibility (1/GPa) = 0.01809400
#
# Stress axis : x y z
#
# Youngs Moduli (GPa) = 62.43359 70.86388 200.41416
#
# Poissons Ratio (x) = 0.42335 0.12928
# Poissons Ratio (y) = 0.37299 0.37937
# Poissons Ratio (z) = 0.04027 0.13414
#
# Static dielectric constant tensor:
#      x y z
#    x -0.400590 -0.260430 0.430550 
#    y -0.260430 2.148610 0.003600 
#    z 0.430550 0.003600 1.841300 
# 
# From -- ./inp_files/23054.got.cif
#   From: 2010.05.17/outbox.cif.g08.bks.cpg/sg2_12_cif.got.tgz:23054.got - 2010.06.03 11:33:40.
