data_PCOD9067343
_publ_section_title
;
Structure prediction by ZEFSAII (Michael W. Deem and Ramdas Pophale) SiO2 
 PCOD9067343
Probable space group: P -1
;
_chemical_formula_sum "Si O2"
_cell_formula_units_Z 11
_cell_length_a 14.649712
_cell_length_b 8.797235
_cell_length_c 6.261872
_cell_angle_alpha 67.579857
_cell_angle_beta 96.041660
_cell_angle_gamma 142.025979
_cell_volume 431.087886
_symmetry_space_group_name_H-M "P -1"
_symmetry_group_IT_number 2
_symmetry_cell_setting 'triclinic'
loop_
_space_group_symop_operation_xyz
x,y,z
-x,-y,-z
loop_
_atom_site_type_symbol
_atom_site_label
_atom_site_fract_x
_atom_site_fract_y
_atom_site_fract_z
Si Si1 0.653886 0.202647 0.786418
Si Si2 0.500000 0.500000 0.500000
Si Si3 0.072787 0.945704 0.212134
Si Si4 0.695120 0.975064 0.599579
Si Si5 0.120513 0.537930 0.931773
Si Si6 0.235402 0.333415 0.676087
O O1 0.664604 0.359237 0.525738
O O2 0.660681 0.034546 0.767671
O O3 0.801089 0.432626 0.860740
O O4 0.500000 0.000000 0.000000
O O5 0.547089 0.655551 0.654525
O O6 0.316862 0.303425 0.587183
O O7 0.971507 0.707614 0.128415
O O8 0.943281 0.875023 0.322914
O O9 0.154054 0.919495 0.375526
O O10 0.209669 0.246322 0.963036
O O11 0.739611 0.165047 0.318993
O O12 0.000000 0.500000 0.000000
#
# Coordination Sequence:
#
# PCOD9067343 Si02
#       6
#     2   1   2   2   2   2
#     4  12  28  48  81 114 157 207 258 320 389 465
#     4  12  30  48  76 106 162 204 254 320 384 458
#     4  11  25  48  82 110 159 199 255 326 386 461
#     4  12  27  52  76 116 156 203 266 318 386 468
#     4  12  23  45  81 117 146 202 255 321 391 458
#     4  11  27  50  74 117 151 206 255 319 387 461
#
# _framework density 25.516838
#
# number of rings (size 3 to 8) (size 9 to 14) (size 15 to 20)
#    0.000    0.364    3.636    3.818    5.091    6.545 
#    0.000    0.000    0.000    0.000    0.000    0.000 
#    0.000    0.000    0.000    0.000    0.000    0.000 
#
# Total GULP energy -61388.903650 kJ/mol
# GULP energy per Si atom -5580.809423 kJ/mol
# Density = 2.545876 g / cm^3
# Si number density = 25.516838 Si / 1000 Ang^3
#
#
#
# Elastic Constant Matrix: (Units=GPa)
#
#
# Indices 1 2 3 4 5 6 
#
# 1 151.8476 25.5600 54.3483 -3.2034 -37.4316 18.5497
# 2 25.5600 124.6855 11.6693 31.4694 -9.1757 3.8114
# 3 54.3483 11.6693 98.4779 -18.9928 -9.6562 5.0835
# 4 -3.2034 31.4694 -18.9928 41.0141 4.3563 -5.7253
# 5 -37.4316 -9.1757 -9.6562 4.3563 57.9488 -6.1072
# 6 18.5497 3.8114 5.0835 -5.7253 -6.1072 15.9896
#
#
#
# Elastic Compliance Matrix: (Units=1/GPa)
#
#
# Indices 1 2 3 4 5 6 
#
# 1 0.011231 -0.000072 -0.005852 -0.003813 0.005455 -0.010433
# 2 -0.000072 0.011354 -0.003012 -0.010975 0.001547 -0.005004
# 3 -0.005852 -0.003012 0.015171 0.009847 -0.001891 0.005487
# 4 -0.003813 -0.010975 0.009847 0.039800 -0.003791 0.016712
# 5 0.005455 0.001547 -0.001891 -0.003791 0.021057 0.000589
# 6 -0.010433 -0.005004 0.005487 0.016712 0.000589 0.080302
#
#
# Mechanical properties :
#
#
# Convention : Reuss Voigt Hill
#
# Bulk Modulus (GPa) = 50.29108 62.01848 56.15478
# Shear Modulus (GPa) = 24.58033 41.88605 33.23319
#
# Velocity S-wave (km/s) = 3.10707 4.05595 3.61280
# Velocity P-wave (km/s) = 5.71171 6.80382 6.28154
#
# Compressibility (1/GPa) = 0.01988424
#
# Stress axis : x y z
#
# Youngs Moduli (GPa) = 89.04086 88.07803 65.91388
#
# Poissons Ratio (x) = 0.00633 0.38570
# Poissons Ratio (y) = 0.00640 0.19856
# Poissons Ratio (z) = 0.52103 0.26532
#
# Static dielectric constant tensor:
#      x y z
#    x 2.010520 -0.029880 0.028370 
#    y -0.029880 1.989470 -0.069940 
#    z 0.028370 -0.069940 1.997170 
# 
# From -- ./inp_files/17691.got.cif
#   From: 2010.05.17/outbox.cif.g08.bks.cpg/sg2_9_cif.got.tgz:17691.got - 2010.06.03 11:33:40.
