data_PCOD9067584
_publ_section_title
;
Structure prediction by ZEFSAII (Michael W. Deem and Ramdas Pophale) SiO2 
 PCOD9067584
Probable space group: P -1
;
_chemical_formula_sum "Si O2"
_cell_formula_units_Z 13
_cell_length_a 8.029095
_cell_length_b 9.893368
_cell_length_c 7.382244
_cell_angle_alpha 61.547249
_cell_angle_beta 121.214167
_cell_angle_gamma 95.199606
_cell_volume 431.309730
_symmetry_space_group_name_H-M "P -1"
_symmetry_group_IT_number 2
_symmetry_cell_setting 'triclinic'
loop_
_space_group_symop_operation_xyz
x,y,z
-x,-y,-z
loop_
_atom_site_type_symbol
_atom_site_label
_atom_site_fract_x
_atom_site_fract_y
_atom_site_fract_z
Si Si1 0.496787 0.313670 0.211319
Si Si2 0.221110 0.824463 0.059112
Si Si3 0.091049 0.615886 0.601149
Si Si4 0.500000 0.500000 0.500000
Si Si5 0.747183 0.684260 0.585567
Si Si6 0.764160 0.036675 0.389055
Si Si7 0.839790 0.841475 0.039601
O O1 0.692983 0.346345 0.706115
O O2 0.673458 0.408629 0.217347
O O3 0.385774 0.383216 0.293477
O O4 0.646803 0.140005 0.418515
O O5 0.260674 0.981473 0.078256
O O6 0.299737 0.843972 0.890666
O O7 0.982808 0.844318 0.944942
O O8 0.000000 0.500000 0.500000
O O9 0.980016 0.623315 0.728465
O O10 0.636696 0.615877 0.405600
O O11 0.703753 0.869673 0.452943
O O12 0.686444 0.733729 0.968783
O O13 0.984325 0.776396 0.332216
O O14 0.000000 0.000000 0.500000
#
# Coordination Sequence:
#
# PCOD9067584 Si02
#       7
#     2   2   2   1   2   2   2
#     4  12  27  47  81 124 157 222 279 344 424 502
#     4  11  25  50  82 123 169 220 282 349 421 507
#     4  12  27  52  78 119 170 214 272 358 424 502
#     4  12  28  48  80 116 170 224 264 348 436 488
#     4  12  25  49  78 113 167 214 272 344 417 498
#     4  12  24  48  83 119 163 218 281 346 417 505
#     4  11  25  50  84 120 159 221 289 340 418 511
#
# _framework density 30.140750000000001
#
# number of rings (size 3 to 8) (size 9 to 14) (size 15 to 20)
#    0.000    0.308    3.077    5.077    2.154    5.538 
#    2.769    2.308    0.000    0.000    0.000    0.000 
#    0.000    0.000    0.000    0.000    0.000    0.000 
#
# Total GULP energy -72598.648160 kJ/mol
# GULP energy per Si atom -5584.511397 kJ/mol
# Density = 3.007215 g / cm^3
# Si number density = 30.140750 Si / 1000 Ang^3
#
#
#
# Elastic Constant Matrix: (Units=GPa)
#
#
# Indices 1 2 3 4 5 6 
#
# 1 263.8666 24.2438 44.0373 28.3105 29.5779 -2.2723
# 2 24.2438 178.9493 2.6874 18.6191 16.9459 19.1041
# 3 44.0373 2.6874 111.3277 -1.4267 16.3514 -2.7439
# 4 28.3105 18.6191 -1.4267 38.9428 -0.9901 5.3980
# 5 29.5779 16.9459 16.3514 -0.9901 67.0040 8.0781
# 6 -2.2723 19.1041 -2.7439 5.3980 8.0781 73.5031
#
#
#
# Elastic Compliance Matrix: (Units=1/GPa)
#
#
# Indices 1 2 3 4 5 6 
#
# 1 0.004646 -0.000137 -0.001609 -0.003494 -0.001744 0.000567
# 2 -0.000137 0.006153 0.000045 -0.002703 -0.001396 -0.001250
# 3 -0.001609 0.000045 0.009902 0.001412 -0.001744 0.000396
# 4 -0.003494 -0.002703 0.001412 0.029881 0.002543 -0.001827
# 5 -0.001744 -0.001396 -0.001744 0.002543 0.016725 -0.001781
# 6 0.000567 -0.001250 0.000396 -0.001827 -0.001781 0.014292
#
#
# Mechanical properties :
#
#
# Convention : Reuss Voigt Hill
#
# Bulk Modulus (GPa) = 57.80734 77.34227 67.57481
# Shear Modulus (GPa) = 55.08588 68.10163 61.59376
#
# Velocity S-wave (km/s) = 4.27971 4.75853 4.52545
# Velocity P-wave (km/s) = 6.60621 7.47713 7.05512
#
# Compressibility (1/GPa) = 0.01729884
#
# Stress axis : x y z
#
# Youngs Moduli (GPa) = 215.23042 162.52505 100.98936
#
# Poissons Ratio (x) = 0.02230 0.16252
# Poissons Ratio (y) = 0.02953 -0.00458
# Poissons Ratio (z) = 0.34636 -0.00737
#
# Static dielectric constant tensor:
#      x y z
#    x 2.370930 -0.132310 -0.161830 
#    y -0.132310 1.978740 -0.514120 
#    z -0.161830 -0.514120 1.818430 
# 
# From -- ./inp_files/151659.got.cif
#   From: 2010.05.17/outbox.cif.g08.bks.cpg/sg2_76_cif.got.tgz:151659.got - 2010.06.03 11:33:40.
