data_PCOD9067413
_publ_section_title
;
Structure prediction by ZEFSAII (Michael W. Deem and Ramdas Pophale) SiO2 
 PCOD9067413
Probable space group: P -1
;
_chemical_formula_sum "Si O2"
_cell_formula_units_Z 14
_cell_length_a 11.793415
_cell_length_b 5.639270
_cell_length_c 11.369043
_cell_angle_alpha 115.261566
_cell_angle_beta 116.746218
_cell_angle_gamma 89.984677
_cell_volume 593.175107
_symmetry_space_group_name_H-M "P -1"
_symmetry_group_IT_number 2
_symmetry_cell_setting 'triclinic'
loop_
_space_group_symop_operation_xyz
x,y,z
-x,-y,-z
loop_
_atom_site_type_symbol
_atom_site_label
_atom_site_fract_x
_atom_site_fract_y
_atom_site_fract_z
Si Si1 0.892701 0.304521 0.987278
Si Si2 0.039591 0.130368 0.226985
Si Si3 0.631579 0.489745 0.188024
Si Si4 0.392681 0.768019 0.106921
Si Si5 0.762014 0.394573 0.453868
Si Si6 0.473346 0.801095 0.558632
Si Si7 0.888533 0.946977 0.336635
O O1 0.751019 0.364263 0.938805
O O2 0.883067 0.016285 0.858032
O O3 0.000000 0.500000 0.000000
O O4 0.948877 0.274605 0.136786
O O5 0.139760 0.345021 0.396037
O O6 0.952543 0.926323 0.236018
O O7 0.501503 0.599191 0.141498
O O8 0.655865 0.452561 0.327322
O O9 0.762066 0.708811 0.253410
O O10 0.619624 0.234050 0.041357
O O11 0.443246 0.041313 0.260481
O O12 0.679795 0.233975 0.488375
O O13 0.838011 0.219114 0.376171
O O14 0.500000 0.500000 0.500000
O O15 0.500000 0.000000 0.500000
O O16 0.000000 0.000000 0.500000
#
# Coordination Sequence:
#
# PCOD9067413 Si02
#       7
#     2   2   2   2   2   2   2
#     4  11  26  47  73 105 149 201 249 312 387 457
#     4  11  26  45  72 111 145 197 256 313 377 464
#     4  11  25  49  75 115 149 202 255 320 395 454
#     4  11  25  49  75 109 154 198 256 321 383 469
#     4  12  26  47  75 108 149 195 258 317 388 458
#     4  12  28  50  78 111 154 208 257 316 389 468
#     4  12  25  44  77 109 149 195 256 316 383 460
#
# _framework density 23.601797999999999
#
# number of rings (size 3 to 8) (size 9 to 14) (size 15 to 20)
#    0.000    0.571    2.857    3.857    6.000    0.571 
#   15.429    0.000    0.000    0.000    0.000    0.000 
#    0.000    0.000    0.000    0.000    0.000    0.000 
#
# Total GULP energy -78356.359620 kJ/mol
# GULP energy per Si atom -5596.882830 kJ/mol
# Density = 2.354808 g / cm^3
# Si number density = 23.601798 Si / 1000 Ang^3
#
#
#
# Elastic Constant Matrix: (Units=GPa)
#
#
# Indices 1 2 3 4 5 6 
#
# 1 163.2812 37.2513 47.7031 -12.1751 14.7851 12.7004
# 2 37.2513 70.9910 54.3466 -5.3716 -2.2571 9.9390
# 3 47.7031 54.3466 155.7676 11.8422 -8.2099 -4.0225
# 4 -12.1751 -5.3716 11.8422 38.6472 -1.1958 -4.9743
# 5 14.7851 -2.2571 -8.2099 -1.1958 35.7859 0.2832
# 6 12.7004 9.9390 -4.0225 -4.9743 0.2832 44.3904
#
#
#
# Elastic Compliance Matrix: (Units=1/GPa)
#
#
# Indices 1 2 3 4 5 6 
#
# 1 0.007898 -0.002276 -0.002054 0.002474 -0.003782 -0.001635
# 2 -0.002276 0.021813 -0.007290 0.004001 0.000813 -0.004450
# 3 -0.002054 -0.007290 0.010125 -0.004345 0.002546 0.002634
# 4 0.002474 0.004001 -0.004345 0.028674 -0.000818 0.001221
# 5 -0.003782 0.000813 0.002546 -0.000818 0.030108 0.000847
# 6 -0.001635 -0.004450 0.002634 0.001221 0.000847 0.024362
#
#
# Mechanical properties :
#
#
# Convention : Reuss Voigt Hill
#
# Bulk Modulus (GPa) = 60.25622 74.29355 67.27488
# Shear Modulus (GPa) = 32.94894 40.48061 36.71478
#
# Velocity S-wave (km/s) = 3.74041 4.14593 3.94838
# Velocity P-wave (km/s) = 6.65131 7.38001 7.02512
#
# Compressibility (1/GPa) = 0.01659580
#
# Stress axis : x y z
#
# Youngs Moduli (GPa) = 126.61602 45.84515 98.76755
#
# Poissons Ratio (x) = 0.10433 0.20290
# Poissons Ratio (y) = 0.28815 0.71998
# Poissons Ratio (z) = 0.26011 0.33419
#
# Static dielectric constant tensor:
#      x y z
#    x -0.264020 1.733510 -2.458550 
#    y 1.733510 0.594500 1.925560 
#    z -2.458550 1.925560 -0.808040 
# 
# From -- ./inp_files/411348.got.cif
#   From: 2010.05.17/outbox.cif.g08.bks.cpg/sg2_206_cif.got.tgz:411348.got - 2010.06.03 11:33:40.
