data_PCOD9067714
_publ_section_title
;
Structure prediction by ZEFSAII (Michael W. Deem and Ramdas Pophale) SiO2 
 PCOD9067714
Probable space group: P -1
;
_chemical_formula_sum "Si O2"
_cell_formula_units_Z 14
_cell_length_a 8.755991
_cell_length_b 17.243085
_cell_length_c 17.424356
_cell_angle_alpha 159.741935
_cell_angle_beta 41.016138
_cell_angle_gamma 135.993825
_cell_volume 597.036374
_symmetry_space_group_name_H-M "P -1"
_symmetry_group_IT_number 2
_symmetry_cell_setting 'triclinic'
loop_
_space_group_symop_operation_xyz
x,y,z
-x,-y,-z
loop_
_atom_site_type_symbol
_atom_site_label
_atom_site_fract_x
_atom_site_fract_y
_atom_site_fract_z
Si Si1 0.744740 0.918631 0.301149
Si Si2 0.073865 0.256688 0.559262
Si Si3 0.329171 0.315925 0.052402
Si Si4 0.126498 0.603065 0.620303
Si Si5 0.430515 0.624896 0.721630
Si Si6 0.816517 0.514840 0.013788
Si Si7 0.477550 0.014809 0.861072
O O1 0.704533 0.820234 0.140413
O O2 0.500000 0.000000 0.500000
O O3 0.830828 0.735954 0.160555
O O4 0.938768 0.122005 0.418615
O O5 0.189787 0.497850 0.716645
O O6 0.883532 0.305319 0.740806
O O7 0.296435 0.120703 0.374959
O O8 0.549452 0.489196 0.118338
O O9 0.406786 0.170412 0.961460
O O10 0.077489 0.411853 0.253490
O O11 0.349929 0.457754 0.394107
O O12 0.000000 0.500000 0.500000
O O13 0.248548 0.851852 0.809964
O O14 0.500000 0.500000 0.500000
O O15 0.439224 0.874727 0.985750
O O16 0.000000 0.500000 0.000000
#
# Coordination Sequence:
#
# PCOD9067714 Si02
#       7
#     2   2   2   2   2   2   2
#     4  12  28  47  72 112 147 192 251 308 374 436
#     4  11  26  47  72 103 147 192 251 298 374 451
#     4  12  26  46  75 104 151 187 243 318 368 437
#     4  11  26  45  72 109 143 194 246 304 375 439
#     4  11  26  44  73 103 146 197 247 307 365 446
#     4  12  28  49  74 105 148 197 248 302 375 450
#     4  11  26  49  71 109 146 195 253 298 379 446
#
# _framework density 23.449159000000002
#
# number of rings (size 3 to 8) (size 9 to 14) (size 15 to 20)
#    0.000    0.571    2.857    3.429   10.000    2.286 
#    0.000    0.000    0.000    0.000    0.000    0.000 
#    0.000    0.000    0.000    0.000    0.000    0.000 
#
# Total GULP energy -78074.658174 kJ/mol
# GULP energy per Si atom -5576.761298 kJ/mol
# Density = 2.339579 g / cm^3
# Si number density = 23.449159 Si / 1000 Ang^3
#
#
#
# Elastic Constant Matrix: (Units=GPa)
#
#
# Indices 1 2 3 4 5 6 
#
# 1 133.3673 26.9344 36.8669 5.4784 19.1227 12.0644
# 2 26.9344 86.1570 45.0635 -61.9213 -23.7170 43.1247
# 3 36.8669 45.0635 98.2959 -4.9674 19.8367 -2.9814
# 4 5.4784 -61.9213 -4.9674 -29.0450 -26.9361 19.3237
# 5 19.1227 -23.7170 19.8367 -26.9361 28.8407 7.6898
# 6 12.0644 43.1247 -2.9814 19.3237 7.6898 43.6244
#
#
#
# Elastic Compliance Matrix: (Units=1/GPa)
#
#
# Indices 1 2 3 4 5 6 
#
# 1 0.008799 0.000509 -0.003245 0.000652 -0.001738 -0.003141
# 2 0.000509 0.005677 -0.002793 -0.009835 -0.002633 -0.001123
# 3 -0.003245 -0.002793 0.013763 0.007324 -0.003287 0.001934
# 4 0.000652 -0.009835 0.007324 0.004039 -0.012577 0.010471
# 5 -0.001738 -0.002633 -0.003287 -0.012577 0.023007 0.004375
# 6 -0.003141 -0.001123 0.001934 0.010471 0.004375 0.019625
#
#
# Mechanical properties :
#
#
# Convention : Reuss Voigt Hill
#
# Bulk Modulus (GPa) = 58.20597 59.50552 58.85575
# Shear Modulus (GPa) = 54.52799 22.61439 38.57119
#
# Velocity S-wave (km/s) = 4.82744 3.10885 4.06012
# Velocity P-wave (km/s) = 7.47986 6.19016 6.86536
#
# Compressibility (1/GPa) = 0.01718037
#
# Stress axis : x y z
#
# Youngs Moduli (GPa) = 113.65181 176.13618 72.65790
#
# Poissons Ratio (x) = -0.08961 0.23577
# Poissons Ratio (y) = -0.05782 0.20295
# Poissons Ratio (z) = 0.36880 0.49199
#
# Static dielectric constant tensor:
#      x y z
#    x 1.839160 -0.089310 -0.035010 
#    y -0.089310 1.898350 0.019290 
#    z -0.035010 0.019290 1.873280 
# 
# From -- ./inp_files/47922.got.cif
#   From: 2010.05.17/outbox.cif.g08.bks.cpg/sg2_24_cif.got.tgz:47922.got - 2010.06.03 11:33:40.
