data_PCOD9067354
_publ_section_title
;
Structure prediction by ZEFSAII (Michael W. Deem and Ramdas Pophale) SiO2 
 PCOD9067354
Probable space group: P -1
;
_chemical_formula_sum "Si O2"
_cell_formula_units_Z 15
_cell_length_a 9.613754
_cell_length_b 7.046611
_cell_length_c 12.079593
_cell_angle_alpha 128.132181
_cell_angle_beta 63.992517
_cell_angle_gamma 89.660648
_cell_volume 532.355635
_symmetry_space_group_name_H-M "P -1"
_symmetry_group_IT_number 2
_symmetry_cell_setting 'triclinic'
loop_
_space_group_symop_operation_xyz
x,y,z
-x,-y,-z
loop_
_atom_site_type_symbol
_atom_site_label
_atom_site_fract_x
_atom_site_fract_y
_atom_site_fract_z
Si Si1 0.719227 0.943754 0.783604
Si Si2 0.565319 0.768523 0.159915
Si Si3 0.520488 0.275135 0.499523
Si Si4 0.955937 0.625644 0.438297
Si Si5 0.139476 0.507010 0.790677
Si Si6 0.500000 0.000000 0.000000
Si Si7 0.697358 0.394023 0.681822
Si Si8 0.910489 0.266019 0.884656
O O1 0.434152 0.000010 0.677643
O O2 0.765084 0.821585 0.597566
O O3 0.661738 0.706289 0.783462
O O4 0.504037 0.107600 0.893717
O O5 0.746995 0.533696 0.007039
O O6 0.657380 0.088439 0.984092
O O7 0.571281 0.349408 0.796847
O O8 0.122431 0.971603 0.240874
O O9 0.500000 0.500000 0.500000
O O10 0.340011 0.376761 0.660924
O O11 0.658221 0.278060 0.541568
O O12 0.943310 0.429404 0.278656
O O13 0.000000 0.500000 0.500000
O O14 0.110223 0.706626 0.384235
O O15 0.074211 0.726956 0.985970
O O16 0.070351 0.294099 0.783602
#
# Coordination Sequence:
#
# PCOD9067354 Si02
#       8
#     2   2   2   2   2   1   2   2
#     4  12  25  45  73 109 151 197 249 316 366 447
#     4  12  25  44  76 110 140 198 254 302 373 446
#     4  12  25  48  71 105 148 196 246 310 374 439
#     4  12  26  46  72 109 147 200 251 304 376 445
#     4  11  25  49  70 106 151 192 246 312 370 447
#     4  12  24  46  70 108 154 188 246 310 370 444
#     4  12  26  44  75 107 146 195 246 305 373 447
#     4  11  26  44  75 110 151 193 249 310 380 435
#
# _framework density 28.176652000000001
#
# number of rings (size 3 to 8) (size 9 to 14) (size 15 to 20)
#    0.000    0.267    5.333    3.200    3.733    2.133 
#    0.000    1.333    0.000    0.000    0.000    0.000 
#    0.000    0.000    0.000    0.000    0.000    0.000 
#
# Total GULP energy -83771.486046 kJ/mol
# GULP energy per Si atom -5584.765736 kJ/mol
# Density = 2.811252 g / cm^3
# Si number density = 28.176652 Si / 1000 Ang^3
#
#
#
# Elastic Constant Matrix: (Units=GPa)
#
#
# Indices 1 2 3 4 5 6 
#
# 1 142.6050 43.3143 37.2707 -1.8787 5.8200 6.5267
# 2 43.3143 140.9082 63.5202 4.3115 0.9097 -0.9654
# 3 37.2707 63.5202 130.5714 -8.7638 -10.2239 12.4624
# 4 -1.8787 4.3115 -8.7638 53.7778 0.8449 2.3934
# 5 5.8200 0.9097 -10.2239 0.8449 74.5165 -11.2286
# 6 6.5267 -0.9654 12.4624 2.3934 -11.2286 47.1249
#
#
#
# Elastic Compliance Matrix: (Units=1/GPa)
#
#
# Indices 1 2 3 4 5 6 
#
# 1 0.008020 -0.001873 -0.001335 0.000274 -0.000946 -0.001035
# 2 -0.001873 0.009771 -0.004514 -0.001653 -0.000323 0.001660
# 3 -0.001335 -0.004514 0.010720 0.002157 0.001220 -0.002562
# 4 0.000274 -0.001653 0.002157 0.019165 -0.000172 -0.001657
# 5 -0.000946 -0.000323 0.001220 -0.000172 0.014146 0.003181
# 6 -0.001035 0.001660 -0.002562 -0.001657 0.003181 0.022917
#
#
# Mechanical properties :
#
#
# Convention : Reuss Voigt Hill
#
# Bulk Modulus (GPa) = 76.52043 78.03279 77.27661
# Shear Modulus (GPa) = 47.82914 53.08248 50.45581
#
# Velocity S-wave (km/s) = 4.12451 4.34512 4.23625
# Velocity P-wave (km/s) = 7.06388 7.27514 7.17029
#
# Compressibility (1/GPa) = 0.01306841
#
# Stress axis : x y z
#
# Youngs Moduli (GPa) = 124.69294 102.34090 93.28110
#
# Poissons Ratio (x) = 0.19166 0.12453
# Poissons Ratio (y) = 0.23352 0.42104
# Poissons Ratio (z) = 0.16646 0.46193
#
# Static dielectric constant tensor:
#      x y z
#    x 2.126630 -0.139830 -0.106800 
#    y -0.139830 2.401910 0.045190 
#    z -0.106800 0.045190 2.376930 
# 
# From -- ./inp_files/385761.got.cif
#   From: 2010.05.17/outbox.cif.g08.bks.cpg/sg2_193_cif.got.tgz:385761.got - 2010.06.03 11:33:40.
