data_PCOD9067244
_publ_section_title
;
Structure prediction by ZEFSAII (Michael W. Deem and Ramdas Pophale) SiO2 
 PCOD9067244
Probable space group: P -1
;
_chemical_formula_sum "Si O2"
_cell_formula_units_Z 16
_cell_length_a 9.398124
_cell_length_b 8.495245
_cell_length_c 11.947061
_cell_angle_alpha 74.748696
_cell_angle_beta 73.026429
_cell_angle_gamma 114.284366
_cell_volume 746.974697
_symmetry_space_group_name_H-M "P -1"
_symmetry_group_IT_number 2
_symmetry_cell_setting 'triclinic'
loop_
_space_group_symop_operation_xyz
x,y,z
-x,-y,-z
loop_
_atom_site_type_symbol
_atom_site_label
_atom_site_fract_x
_atom_site_fract_y
_atom_site_fract_z
Si Si1 0.332710 0.706943 0.355762
Si Si2 0.701583 0.106187 0.892913
Si Si3 0.179229 0.691799 0.950122
Si Si4 0.062607 0.049905 0.105283
Si Si5 0.187818 0.310003 0.358056
Si Si6 0.285740 0.046300 0.702673
Si Si7 0.691077 0.539759 0.946160
Si Si8 0.230864 0.966275 0.476964
O O1 0.289636 0.771814 0.237174
O O2 0.241209 0.475446 0.409860
O O3 0.289778 0.830905 0.429176
O O4 0.538507 0.789137 0.309815
O O5 0.785220 0.978710 0.875226
O O6 0.829394 0.228146 0.942615
O O7 0.500000 0.000000 0.000000
O O8 0.238011 0.850923 0.813275
O O9 0.323341 0.640320 0.954277
O O10 0.000000 0.500000 0.000000
O O11 0.159278 0.277660 0.055234
O O12 0.885294 0.940878 0.239589
O O13 0.000000 0.000000 0.000000
O O14 0.246711 0.419194 0.204750
O O15 0.978548 0.172329 0.434822
O O16 0.260610 0.165361 0.379311
O O17 0.312473 0.028682 0.569878
O O18 0.500000 0.500000 0.000000
#
# Coordination Sequence:
#
# PCOD9067244 Si02
#       8
#     2   2   2   2   2   2   2   2
#     4  12  26  46  76 106 137 195 251 296 365 430
#     4  12  23  42  69 102 140 181 237 297 356 433
#     4  12  22  43  66 101 143 181 226 290 364 427
#     4  12  23  42  66 101 143 192 224 292 374 421
#     4  11  25  48  75 106 141 188 250 302 354 440
#     4  12  26  46  69 104 152 187 237 303 364 439
#     4  12  25  41  71 106 140 179 236 301 360 427
#     4  11  26  51  72 102 149 194 246 297 361 434
#
# _framework density 21.419736
#
# number of rings (size 3 to 8) (size 9 to 14) (size 15 to 20)
#    0.000    0.250    6.250    2.250    5.250    0.500 
#    0.000    0.000    0.000    0.000    0.000    0.000 
#    0.000    0.000    0.000    0.000    0.000    0.000 
#
# Total GULP energy -89269.135936 kJ/mol
# GULP energy per Si atom -5579.320996 kJ/mol
# Density = 2.137098 g / cm^3
# Si number density = 21.419736 Si / 1000 Ang^3
#
#
#
# Elastic Constant Matrix: (Units=GPa)
#
#
# Indices 1 2 3 4 5 6 
#
# 1 122.2723 32.4751 26.2654 -10.5502 -4.3252 -8.6339
# 2 32.4751 99.1176 14.7025 6.4453 13.4684 2.1903
# 3 26.2654 14.7025 55.1587 12.3394 11.3305 1.5625
# 4 -10.5502 6.4453 12.3394 23.3613 4.7388 -4.2714
# 5 -4.3252 13.4684 11.3305 4.7388 30.2792 12.1984
# 6 -8.6339 2.1903 1.5625 -4.2714 12.1984 32.7215
#
#
#
# Elastic Compliance Matrix: (Units=1/GPa)
#
#
# Indices 1 2 3 4 5 6 
#
# 1 0.012359 -0.004102 -0.008043 0.011080 0.003181 0.004180
# 2 -0.004102 0.012366 0.000844 -0.004701 -0.005452 -0.000531
# 3 -0.008043 0.000844 0.027284 -0.017173 -0.007932 -0.002766
# 4 0.011080 -0.004701 -0.017173 0.061818 -0.005249 0.014085
# 5 0.003181 -0.005452 -0.007932 -0.005249 0.046285 -0.016357
# 6 0.004180 -0.000531 -0.002766 0.014085 -0.016357 0.039768
#
#
# Mechanical properties :
#
#
# Convention : Reuss Voigt Hill
#
# Bulk Modulus (GPa) = 34.00447 47.04828 40.52638
# Shear Modulus (GPa) = 21.52547 30.81277 26.16912
#
# Velocity S-wave (km/s) = 3.17351 3.79690 3.49912
# Velocity P-wave (km/s) = 5.41646 6.42141 5.94022
#
# Compressibility (1/GPa) = 0.02940790
#
# Stress axis : x y z
#
# Youngs Moduli (GPa) = 80.91129 80.86665 36.65187
#
# Poissons Ratio (x) = 0.33168 0.29477
# Poissons Ratio (y) = 0.33186 -0.03092
# Poissons Ratio (z) = 0.65073 -0.06822
#
# Static dielectric constant tensor:
#      x y z
#    x 1.738240 -0.053330 0.009640 
#    y -0.053330 1.944470 0.026900 
#    z 0.009640 0.026900 1.756050 
# 
# From -- ./inp_files/381672.got.cif
#   From: 2010.05.17/outbox.cif.g08.bks.cpg/sg2_191_cif.got.tgz:381672.got - 2010.06.03 11:33:40.
