data_PCOD9067548
_publ_section_title
;
Structure prediction by ZEFSAII (Michael W. Deem and Ramdas Pophale) SiO2 
 PCOD9067548
Probable space group: P -1
;
_chemical_formula_sum "Si O2"
_cell_formula_units_Z 16
_cell_length_a 15.108751
_cell_length_b 10.571702
_cell_length_c 9.053769
_cell_angle_alpha 116.800396
_cell_angle_beta 91.091844
_cell_angle_gamma 140.583171
_cell_volume 624.073439
_symmetry_space_group_name_H-M "P -1"
_symmetry_group_IT_number 2
_symmetry_cell_setting 'triclinic'
loop_
_space_group_symop_operation_xyz
x,y,z
-x,-y,-z
loop_
_atom_site_type_symbol
_atom_site_label
_atom_site_fract_x
_atom_site_fract_y
_atom_site_fract_z
Si Si1 0.804230 0.143182 0.482418
Si Si2 0.461793 0.123853 0.412919
Si Si3 0.122406 0.211381 0.256855
Si Si4 0.729849 0.414465 0.914136
Si Si5 0.992478 0.288461 0.184095
Si Si6 0.596068 0.740752 0.748694
Si Si7 0.496221 0.650706 0.014776
Si Si8 0.040539 0.909104 0.375526
O O1 0.648445 0.981675 0.504423
O O2 0.698333 0.990305 0.242879
O O3 0.962215 0.483041 0.668754
O O4 0.853064 0.057851 0.507656
O O5 0.500000 0.500000 0.500000
O O6 0.366363 0.066475 0.242242
O O7 0.442931 0.930872 0.285975
O O8 0.039978 0.253797 0.307572
O O9 0.332940 0.533162 0.395116
O O10 0.113948 0.079850 0.313024
O O11 0.000000 0.000000 0.000000
O O12 0.858198 0.549727 0.851991
O O13 0.655640 0.468419 0.968855
O O14 0.856851 0.569234 0.141717
O O15 0.789439 0.970852 0.949974
O O16 0.469819 0.603197 0.812867
O O17 0.500000 0.500000 0.000000
O O18 0.000000 0.000000 0.500000
#
# Coordination Sequence:
#
# PCOD9067548 Si02
#       8
#     2   2   2   2   2   2   2   2
#     4  11  26  51  78 110 152 203 253 309 392 457
#     4  11  26  48  79 108 150 197 253 314 379 460
#     4  12  26  46  74 113 146 193 257 316 373 449
#     4  11  25  50  78 109 151 204 248 310 390 453
#     4  11  25  50  82 110 150 203 258 315 377 462
#     4  12  28  47  76 114 153 197 257 314 375 451
#     4  12  28  47  75 111 155 199 250 315 384 452
#     4  12  28  47  72 109 156 200 251 316 382 451
#
# _framework density 25.638007000000002
#
# number of rings (size 3 to 8) (size 9 to 14) (size 15 to 20)
#    0.000    0.500    1.250    5.250    8.750    5.000 
#    4.500    0.000    0.000    0.000    0.000    0.000 
#    0.000    0.000    0.000    0.000    0.000    0.000 
#
# Total GULP energy -89526.099932 kJ/mol
# GULP energy per Si atom -5595.381246 kJ/mol
# Density = 2.557965 g / cm^3
# Si number density = 25.638007 Si / 1000 Ang^3
#
#
#
# Elastic Constant Matrix: (Units=GPa)
#
#
# Indices 1 2 3 4 5 6 
#
# 1 136.4743 34.1611 42.1618 -0.0162 -4.1084 -15.1377
# 2 34.1611 94.1130 49.8978 15.2331 -18.6756 1.6217
# 3 42.1618 49.8978 149.4057 6.6357 -8.2405 5.5328
# 4 -0.0162 15.2331 6.6357 56.0289 2.0961 0.9107
# 5 -4.1084 -18.6756 -8.2405 2.0961 52.4231 1.2568
# 6 -15.1377 1.6217 5.5328 0.9107 1.2568 42.8931
#
#
#
# Elastic Compliance Matrix: (Units=1/GPa)
#
#
# Indices 1 2 3 4 5 6 
#
# 1 0.008915 -0.002581 -0.001857 0.000891 -0.000632 0.003483
# 2 -0.002581 0.015207 -0.003877 -0.003838 0.004784 -0.001044
# 3 -0.001857 -0.003877 0.008561 0.000071 -0.000145 -0.001610
# 4 0.000891 -0.003838 0.000071 0.018958 -0.002047 0.000108
# 5 -0.000632 0.004784 -0.000145 -0.002047 0.020812 -0.000951
# 6 0.003483 -0.001044 -0.001610 0.000108 -0.000951 0.024816
#
#
# Mechanical properties :
#
#
# Convention : Reuss Voigt Hill
#
# Bulk Modulus (GPa) = 62.30064 70.27046 66.28555
# Shear Modulus (GPa) = 41.92927 47.18718 44.55822
#
# Velocity S-wave (km/s) = 4.04844 4.29478 4.17343
# Velocity P-wave (km/s) = 6.79750 7.21538 7.00955
#
# Compressibility (1/GPa) = 0.01605120
#
# Stress axis : x y z
#
# Youngs Moduli (GPa) = 112.17655 65.76114 116.81381
#
# Poissons Ratio (x) = 0.16972 0.21694
# Poissons Ratio (y) = 0.28950 0.45293
# Poissons Ratio (z) = 0.20833 0.25498
#
# Static dielectric constant tensor:
#      x y z
#    x 2.129890 0.019140 -0.053000 
#    y 0.019140 2.071810 -0.002850 
#    z -0.053000 -0.002850 2.059160 
# 
# From -- ./inp_files/299261.got.cif
#   From: 2010.05.17/outbox.cif.g08.bks.cpg/sg2_150_cif.got.tgz:299261.got - 2010.06.03 11:33:40.
