data_PCOD9067555
_publ_section_title
;
Structure prediction by ZEFSAII (Michael W. Deem and Ramdas Pophale) SiO2 
 PCOD9067555
Probable space group: P -1
;
_chemical_formula_sum "Si O2"
_cell_formula_units_Z 14
_cell_length_a 8.093396
_cell_length_b 9.084971
_cell_length_c 9.153552
_cell_angle_alpha 124.267722
_cell_angle_beta 92.460413
_cell_angle_gamma 87.585754
_cell_volume 555.570625
_symmetry_space_group_name_H-M "P -1"
_symmetry_group_IT_number 2
_symmetry_cell_setting 'triclinic'
loop_
_space_group_symop_operation_xyz
x,y,z
-x,-y,-z
loop_
_atom_site_type_symbol
_atom_site_label
_atom_site_fract_x
_atom_site_fract_y
_atom_site_fract_z
Si Si1 0.405561 0.763063 0.779690
Si Si2 0.852351 0.051371 0.907244
Si Si3 0.363619 0.493604 0.208142
Si Si4 0.923677 0.954695 0.317960
Si Si5 0.621839 0.694836 0.183379
Si Si6 0.860420 0.367955 0.476263
Si Si7 0.433228 0.014369 0.334999
O O1 0.575169 0.687961 0.812549
O O2 0.290633 0.608359 0.628867
O O3 0.448308 0.870524 0.695400
O O4 0.291868 0.874288 0.950441
O O5 0.961232 0.157892 0.852931
O O6 0.747634 0.939824 0.715725
O O7 0.000000 0.000000 0.000000
O O8 0.532741 0.606699 0.268450
O O9 0.214515 0.581665 0.340555
O O10 0.323191 0.448423 0.014551
O O11 0.767076 0.834204 0.279950
O O12 0.901200 0.154952 0.359765
O O13 0.000000 0.000000 0.500000
O O14 0.467337 0.809574 0.177913
O O15 0.000000 0.500000 0.500000
O O16 0.500000 0.000000 0.500000
#
# Coordination Sequence:
#
# PCOD9067555 Si02
#       7
#     2   2   2   2   2   2   2
#     4  12  26  48  77 113 149 219 268 328 403 479
#     4  12  26  45  80 117 158 203 268 336 397 478
#     4  11  28  48  77 115 154 210 265 339 395 489
#     4  12  29  48  77 114 158 213 262 331 407 474
#     4  11  25  50  78 112 154 207 278 322 405 467
#     4  12  29  47  72 113 161 198 264 329 413 464
#     4  12  25  46  83 112 155 209 275 327 388 493
#
# _framework density 25.199313
#
# number of rings (size 3 to 8) (size 9 to 14) (size 15 to 20)
#    0.000    0.286    4.286    2.571   10.000    0.000 
#    0.000    1.429    0.000    0.000    0.000    0.000 
#    0.000    0.000    0.000    0.000    0.000    0.000 
#
# Total GULP energy -77974.036814 kJ/mol
# GULP energy per Si atom -5569.574058 kJ/mol
# Density = 2.514196 g / cm^3
# Si number density = 25.199313 Si / 1000 Ang^3
#
#
#
# Elastic Constant Matrix: (Units=GPa)
#
#
# Indices 1 2 3 4 5 6 
#
# 1 137.5151 53.1571 62.8830 -16.3176 2.0232 28.9653
# 2 53.1571 122.9766 45.6177 -14.9729 5.5206 29.4592
# 3 62.8830 45.6177 146.3271 -26.6856 -15.1886 14.7620
# 4 -16.3176 -14.9729 -26.6856 44.0593 3.0870 0.2055
# 5 2.0232 5.5206 -15.1886 3.0870 54.3791 -11.4769
# 6 28.9653 29.4592 14.7620 0.2055 -11.4769 50.7140
#
#
#
# Elastic Compliance Matrix: (Units=1/GPa)
#
#
# Indices 1 2 3 4 5 6 
#
# 1 0.010810 -0.002023 -0.003548 0.001343 -0.002208 -0.004471
# 2 -0.002023 0.011514 -0.002072 0.002143 -0.002979 -0.005613
# 3 -0.003548 -0.002072 0.009910 0.003761 0.003115 0.001036
# 4 0.001343 0.002143 0.003761 0.026319 -0.001459 -0.003543
# 5 -0.002208 -0.002979 0.003115 -0.001459 0.021180 0.006883
# 6 -0.004471 -0.005613 0.001036 -0.003543 0.006883 0.026803
#
#
# Mechanical properties :
#
#
# Convention : Reuss Voigt Hill
#
# Bulk Modulus (GPa) = 59.00741 81.12606 70.06674
# Shear Modulus (GPa) = 39.22481 46.17454 42.69967
#
# Velocity S-wave (km/s) = 3.94963 4.28527 4.12087
# Velocity P-wave (km/s) = 6.65332 7.53315 7.10686
#
# Compressibility (1/GPa) = 0.01694702
#
# Stress axis : x y z
#
# Youngs Moduli (GPa) = 92.50732 86.85179 100.91311
#
# Poissons Ratio (x) = 0.17568 0.35805
# Poissons Ratio (y) = 0.18712 0.20912
# Poissons Ratio (z) = 0.32823 0.17998
#
# Static dielectric constant tensor:
#      x y z
#    x 2.106210 0.012400 -0.036940 
#    y 0.012400 2.193600 0.048390 
#    z -0.036940 0.048390 2.143890 
# 
# From -- ./inp_files/160161.got.cif
#   From: 2010.05.17/outbox.cif.g08.bks.cpg/sg2_81_cif.got.tgz:160161.got - 2010.06.03 11:33:40.
