data_PCOD9067389
_publ_section_title
;
Structure prediction by ZEFSAII (Michael W. Deem and Ramdas Pophale) SiO2 
 PCOD9067389
Probable space group: P -1
;
_chemical_formula_sum "Si O2"
_cell_formula_units_Z 14
_cell_length_a 6.924555
_cell_length_b 8.368250
_cell_length_c 22.728709
_cell_angle_alpha 36.215341
_cell_angle_beta 124.081685
_cell_angle_gamma 124.305276
_cell_volume 627.535587
_symmetry_space_group_name_H-M "P -1"
_symmetry_group_IT_number 2
_symmetry_cell_setting 'triclinic'
loop_
_space_group_symop_operation_xyz
x,y,z
-x,-y,-z
loop_
_atom_site_type_symbol
_atom_site_label
_atom_site_fract_x
_atom_site_fract_y
_atom_site_fract_z
Si Si1 0.463845 0.778488 0.612391
Si Si2 0.735098 0.519756 0.967865
Si Si3 0.908693 0.563773 0.726479
Si Si4 0.975226 0.438802 0.584280
Si Si5 0.210069 0.283993 0.947801
Si Si6 0.729360 0.915842 0.406998
Si Si7 0.708804 0.098288 0.733812
O O1 0.681444 0.628613 0.701973
O O2 0.406124 0.951077 0.606352
O O3 0.232678 0.546337 0.624386
O O4 0.500000 0.000000 0.500000
O O5 0.490832 0.283640 0.982146
O O6 0.694960 0.797403 0.847301
O O7 0.761403 0.570976 0.026892
O O8 0.000000 0.500000 0.000000
O O9 0.826869 0.327872 0.733585
O O10 0.104519 0.469341 0.828299
O O11 0.029273 0.857330 0.630843
O O12 0.859868 0.151184 0.682607
O O13 0.000000 0.500000 0.500000
O O14 0.799887 0.632206 0.518960
O O15 0.000000 0.000000 0.000000
O O16 0.558676 0.871610 0.334670
#
# Coordination Sequence:
#
# PCOD9067389 Si02
#       7
#     2   2   2   2   2   2   2
#     4  12  24  42  69 100 138 189 234 284 349 414
#     4  11  27  47  75 107 145 184 241 304 362 430
#     4  12  25  45  73 100 142 187 233 290 355 424
#     4  12  25  44  71 105 146 191 237 289 351 425
#     4  11  25  49  74 105 140 189 239 302 363 428
#     4  12  25  46  68 101 147 182 235 288 347 422
#     4  12  25  46  70 104 142 186 237 292 357 422
#
# _framework density 22.309491999999999
#
# number of rings (size 3 to 8) (size 9 to 14) (size 15 to 20)
#    0.000    0.286    5.714    3.429    2.000    1.714 
#    0.000    0.000    0.000    0.000    0.000    0.000 
#    0.000    0.000    0.000    0.000    0.000    0.000 
#
# Total GULP energy -78259.985995 kJ/mol
# GULP energy per Si atom -5589.999000 kJ/mol
# Density = 2.225872 g / cm^3
# Si number density = 22.309492 Si / 1000 Ang^3
#
#
#
# Elastic Constant Matrix: (Units=GPa)
#
#
# Indices 1 2 3 4 5 6 
#
# 1 117.0337 40.7902 9.9499 22.6328 17.5931 12.2458
# 2 40.7902 113.9048 23.2142 19.9097 0.0298 28.0464
# 3 9.9499 23.2142 60.2502 15.0967 6.1619 1.1327
# 4 22.6328 19.9097 15.0967 35.2391 8.4969 -1.0610
# 5 17.5931 0.0298 6.1619 8.4969 35.7884 12.9502
# 6 12.2458 28.0464 1.1327 -1.0610 12.9502 34.4483
#
#
#
# Elastic Compliance Matrix: (Units=1/GPa)
#
#
# Indices 1 2 3 4 5 6 
#
# 1 0.011246 -0.003633 0.001150 -0.004466 -0.004889 0.000623
# 2 -0.003633 0.016264 -0.004431 -0.007881 0.010146 -0.015861
# 3 0.001150 -0.004431 0.019873 -0.005655 -0.004049 0.003894
# 4 -0.004466 -0.007881 -0.005655 0.041347 -0.011650 0.013843
# 5 -0.004889 0.010146 -0.004049 -0.011650 0.041948 -0.022518
# 6 0.000623 -0.015861 0.003894 0.013843 -0.022518 0.050484
#
#
# Mechanical properties :
#
#
# Convention : Reuss Voigt Hill
#
# Bulk Modulus (GPa) = 29.80301 48.78859 39.29580
# Shear Modulus (GPa) = 24.25123 35.57746 29.91434
#
# Velocity S-wave (km/s) = 3.30060 3.99773 3.66577
# Velocity P-wave (km/s) = 5.28329 6.57462 5.96401
#
# Compressibility (1/GPa) = 0.03355366
#
# Stress axis : x y z
#
# Youngs Moduli (GPa) = 88.91731 61.48702 50.32021
#
# Poissons Ratio (x) = 0.22340 -0.05786
# Poissons Ratio (y) = 0.32306 0.22297
# Poissons Ratio (z) = -0.10223 0.27245
#
# Static dielectric constant tensor:
#      x y z
#    x 1.846050 0.040240 -0.040870 
#    y 0.040240 1.843440 0.007000 
#    z -0.040870 0.007000 1.780970 
# 
# From -- ./inp_files/52665.got.cif
#   From: 2010.05.17/outbox.cif.g08.bks.cpg/sg2_27_cif.got.tgz:52665.got - 2010.06.03 11:33:40.
