data_PCOD9067301
_publ_section_title
;
Structure prediction by ZEFSAII (Michael W. Deem and Ramdas Pophale) SiO2 
 PCOD9067301
Probable space group: P -1
;
_chemical_formula_sum "Si O2"
_cell_formula_units_Z 10
_cell_length_a 8.589347
_cell_length_b 10.791277
_cell_length_c 13.067952
_cell_angle_alpha 144.718711
_cell_angle_beta 146.706971
_cell_angle_gamma 40.703969
_cell_volume 372.915226
_symmetry_space_group_name_H-M "P -1"
_symmetry_group_IT_number 2
_symmetry_cell_setting 'triclinic'
loop_
_space_group_symop_operation_xyz
x,y,z
-x,-y,-z
loop_
_atom_site_type_symbol
_atom_site_label
_atom_site_fract_x
_atom_site_fract_y
_atom_site_fract_z
Si Si1 0.298497 0.860580 0.521142
Si Si2 0.732391 0.496090 0.271983
Si Si3 0.449525 0.368988 0.224050
Si Si4 0.328063 0.856091 0.151687
Si Si5 0.035870 0.037434 0.789224
O O1 0.388889 0.597732 0.407421
O O2 0.231414 0.884943 0.380600
O O3 0.546348 0.993671 0.758086
O O4 0.000000 0.000000 0.500000
O O5 0.491558 0.428760 0.168567
O O6 0.583223 0.712540 0.269254
O O7 0.000000 0.500000 0.500000
O O8 0.806009 0.316362 0.101357
O O9 0.746934 0.183601 0.283990
O O10 0.203417 0.234674 0.014310
O O11 0.091279 0.993483 0.191430
#
# Coordination Sequence:
#
# PCOD9067301 Si02
#       5
#     2   2   2   2   2
#     4  12  26  45  74 110 154 200 249 317 381 445
#     4  11  25  48  77 111 151 200 254 313 380 455
#     4  11  26  46  74 107 156 200 248 315 378 445
#     4  11  26  47  79 111 149 201 254 313 380 451
#     4  11  25  49  73 112 153 196 262 307 371 468
#
# _framework density 26.815747999999999
#
# number of rings (size 3 to 8) (size 9 to 14) (size 15 to 20)
#    0.000    0.800    2.000    3.600    8.400    1.600 
#    7.200    0.000    0.000    0.000    0.000    0.000 
#    0.000    0.000    0.000    0.000    0.000    0.000 
#
# Total GULP energy -56029.356972 kJ/mol
# GULP energy per Si atom -5602.935697 kJ/mol
# Density = 2.675471 g / cm^3
# Si number density = 26.815748 Si / 1000 Ang^3
#
#
#
# Elastic Constant Matrix: (Units=GPa)
#
#
# Indices 1 2 3 4 5 6 
#
# 1 108.4342 26.2391 34.7960 22.2275 0.1857 -18.3367
# 2 26.2391 171.0215 85.9752 28.0414 -17.7604 3.4504
# 3 34.7960 85.9752 137.8871 20.5612 -5.4670 -8.1887
# 4 22.2275 28.0414 20.5612 59.6176 7.6003 -13.1018
# 5 0.1857 -17.7604 -5.4670 7.6003 51.1235 7.2289
# 6 -18.3367 3.4504 -8.1887 -13.1018 7.2289 58.0930
#
#
#
# Elastic Compliance Matrix: (Units=1/GPa)
#
#
# Indices 1 2 3 4 5 6 
#
# 1 0.010931 -0.000322 -0.002027 -0.002599 -0.000356 0.002642
# 2 -0.000322 0.009648 -0.005409 -0.003620 0.003696 -0.002714
# 3 -0.002027 -0.005409 0.011207 -0.000167 -0.000836 0.001328
# 4 -0.002599 -0.003620 -0.000167 0.021204 -0.005095 0.004787
# 5 -0.000356 0.003696 -0.000836 -0.005095 0.022129 -0.004353
# 6 0.002642 -0.002714 0.001328 0.004787 -0.004353 0.020017
#
#
# Mechanical properties :
#
#
# Convention : Reuss Voigt Hill
#
# Bulk Modulus (GPa) = 61.46720 79.04038 70.25379
# Shear Modulus (GPa) = 43.07473 51.78897 47.43185
#
# Velocity S-wave (km/s) = 4.01224 4.39941 4.21028
# Velocity P-wave (km/s) = 6.66603 7.43947 7.06335
#
# Compressibility (1/GPa) = 0.01626884
#
# Stress axis : x y z
#
# Youngs Moduli (GPa) = 91.48544 103.64701 89.22788
#
# Poissons Ratio (x) = 0.03337 0.18089
# Poissons Ratio (y) = 0.02946 0.48266
# Poissons Ratio (z) = 0.18547 0.56066
#
# Static dielectric constant tensor:
#      x y z
#    x 2.049890 0.025810 0.029380 
#    y 0.025810 2.118690 0.013610 
#    z 0.029380 0.013610 2.126480 
# 
# From -- ./inp_files/236978.got.cif
#   From: 2010.05.17/outbox.cif.g08.bks.cpg/sg2_119_cif.got.tgz:236978.got - 2010.06.03 11:33:40.
