data_PCOD9067030
_publ_section_title
;
Structure prediction by ZEFSAII (Michael W. Deem and Ramdas Pophale) SiO2 
 PCOD9067030
Probable space group: P -1
;
_chemical_formula_sum "Si O2"
_cell_formula_units_Z 12
_cell_length_a 5.136918
_cell_length_b 9.586002
_cell_length_c 11.317029
_cell_angle_alpha 57.214280
_cell_angle_beta 82.484941
_cell_angle_gamma 79.371040
_cell_volume 460.144465
_symmetry_space_group_name_H-M "P -1"
_symmetry_group_IT_number 2
_symmetry_cell_setting 'triclinic'
loop_
_space_group_symop_operation_xyz
x,y,z
-x,-y,-z
loop_
_atom_site_type_symbol
_atom_site_label
_atom_site_fract_x
_atom_site_fract_y
_atom_site_fract_z
Si Si1 0.561901 0.845281 0.763908
Si Si2 0.921578 0.691091 0.460186
Si Si3 0.771850 0.240229 0.964004
Si Si4 0.013836 0.551615 0.840148
Si Si5 0.634616 0.271203 0.392510
Si Si6 0.178898 0.938711 0.179898
O O1 0.425781 0.746882 0.919582
O O2 0.828724 0.729033 0.762779
O O3 0.384886 0.867029 0.646076
O O4 0.640948 0.006342 0.751074
O O5 0.631224 0.704949 0.527092
O O6 0.000000 0.500000 0.500000
O O7 0.123456 0.738620 0.526988
O O8 0.970093 0.821464 0.294428
O O9 0.884438 0.409036 0.846818
O O10 0.662624 0.160076 0.890881
O O11 0.016291 0.107284 0.058788
O O12 0.301837 0.572206 0.764565
O O13 0.000000 0.500000 0.000000
#
# Coordination Sequence:
#
# PCOD9067030 Si02
#       6
#     2   2   2   2   2   2
#     4  12  24  46  75 118 151 197 252 318 382 445
#     4  12  29  54  77 110 155 207 254 309 380 463
#     4  11  25  47  75 115 154 200 255 316 382 448
#     4  12  23  45  77 113 151 196 254 315 376 447
#     4  12  27  49  81 112 147 202 258 312 372 456
#     4  11  27  47  74 111 159 201 251 318 381 450
#
# _framework density 26.078766999999999
#
# number of rings (size 3 to 8) (size 9 to 14) (size 15 to 20)
#    0.000    0.333    5.000    2.500    2.333    1.333 
#    3.000    0.000    0.000    0.000    0.000    0.000 
#    0.000    0.000    0.000    0.000    0.000    0.000 
#
# Total GULP energy -67265.468569 kJ/mol
# GULP energy per Si atom -5605.455714 kJ/mol
# Density = 2.601941 g / cm^3
# Si number density = 26.078767 Si / 1000 Ang^3
#
#
#
# Elastic Constant Matrix: (Units=GPa)
#
#
# Indices 1 2 3 4 5 6 
#
# 1 125.7731 51.9000 41.5397 10.3422 -21.5342 12.7237
# 2 51.9000 164.8771 41.7873 16.9512 -3.2609 32.5163
# 3 41.5397 41.7873 125.3113 5.0224 -35.2448 3.1264
# 4 10.3422 16.9512 5.0224 41.6904 2.4904 -7.5013
# 5 -21.5342 -3.2609 -35.2448 2.4904 51.8659 1.8815
# 6 12.7237 32.5163 3.1264 -7.5013 1.8815 32.3899
#
#
#
# Elastic Compliance Matrix: (Units=1/GPa)
#
#
# Indices 1 2 3 4 5 6 
#
# 1 0.010336 -0.002034 -0.001694 -0.002183 0.003210 -0.002547
# 2 -0.002034 0.009742 -0.002518 -0.004831 -0.001357 -0.009778
# 3 -0.001694 -0.002518 0.011224 0.000002 0.006703 0.001721
# 4 -0.002183 -0.004831 0.000002 0.028939 -0.003055 0.012587
# 5 0.003210 -0.001357 0.006703 -0.003055 0.025328 -0.002725
# 6 -0.002547 -0.009778 0.001721 0.012587 -0.002725 0.044598
#
#
# Mechanical properties :
#
#
# Convention : Reuss Voigt Hill
#
# Bulk Modulus (GPa) = 53.16746 76.26839 64.71793
# Shear Modulus (GPa) = 33.57276 43.90486 38.73881
#
# Velocity S-wave (km/s) = 3.59187 4.10756 3.85834
# Velocity P-wave (km/s) = 6.13462 7.19756 6.68725
#
# Compressibility (1/GPa) = 0.01880850
#
# Stress axis : x y z
#
# Youngs Moduli (GPa) = 96.74466 102.64943 89.09696
#
# Poissons Ratio (x) = 0.20880 0.15097
# Poissons Ratio (y) = 0.19679 0.22437
# Poissons Ratio (z) = 0.16393 0.25850
#
# Static dielectric constant tensor:
#      x y z
#    x 2.052610 0.033260 0.045290 
#    y 0.033260 2.050330 -0.028120 
#    z 0.045290 -0.028120 2.098390 
# 
# From -- ./inp_files/67770.got.cif
#   From: 2010.05.17/outbox.cif.g08.bks.cpg/sg2_34_cif.got.tgz:67770.got - 2010.06.03 11:33:40.
