data_PCOD9067955
_publ_section_title
;
Structure prediction by ZEFSAII (Michael W. Deem and Ramdas Pophale) SiO2 
 PCOD9067955
Probable space group: P -1
;
_chemical_formula_sum "Si O2"
_cell_formula_units_Z 12
_cell_length_a 9.355467
_cell_length_b 7.713892
_cell_length_c 15.596770
_cell_angle_alpha 136.157563
_cell_angle_beta 144.973940
_cell_angle_gamma 49.931902
_cell_volume 443.479056
_symmetry_space_group_name_H-M "P -1"
_symmetry_group_IT_number 2
_symmetry_cell_setting 'triclinic'
loop_
_space_group_symop_operation_xyz
x,y,z
-x,-y,-z
loop_
_atom_site_type_symbol
_atom_site_label
_atom_site_fract_x
_atom_site_fract_y
_atom_site_fract_z
Si Si1 0.646174 0.157166 0.195476
Si Si2 0.157097 0.430796 0.138776
Si Si3 0.693514 0.821393 0.253440
Si Si4 0.120092 0.229846 0.361808
Si Si5 0.362881 0.866690 0.490372
Si Si6 0.874666 0.261689 0.098008
O O1 0.430414 0.325004 0.200912
O O2 0.858357 0.309998 0.315195
O O3 0.770447 0.964079 0.258419
O O4 0.500000 0.000000 0.000000
O O5 0.193123 0.677314 0.298162
O O6 0.037160 0.267977 0.094587
O O7 0.000000 0.500000 0.000000
O O8 0.851656 0.541608 0.233508
O O9 0.690964 0.012014 0.399507
O O10 0.405308 0.774306 0.079360
O O11 0.353086 0.284529 0.433048
O O12 0.984598 0.084853 0.167598
O O13 0.296927 0.107572 0.481496
#
# Coordination Sequence:
#
# PCOD9067955 Si02
#       6
#     2   2   2   2   2   2
#     4  12  25  47  75 108 146 197 242 300 366 439
#     4  12  29  48  76 106 150 195 249 299 374 438
#     4  11  26  47  77 110 149 192 250 297 365 437
#     4  11  26  46  75 109 148 190 243 300 369 426
#     4  11  28  49  73 111 148 195 243 312 361 432
#     4  11  26  47  77 110 146 198 242 300 365 444
#
# _framework density 27.058772999999999
#
# number of rings (size 3 to 8) (size 9 to 14) (size 15 to 20)
#    0.000    0.667    1.667    4.000    9.333    9.333 
#    0.000    0.000    0.000    0.000    0.000    0.000 
#    0.000    0.000    0.000    0.000    0.000    0.000 
#
# Total GULP energy -66982.675584 kJ/mol
# GULP energy per Si atom -5581.889632 kJ/mol
# Density = 2.699719 g / cm^3
# Si number density = 27.058773 Si / 1000 Ang^3
#
#
#
# Elastic Constant Matrix: (Units=GPa)
#
#
# Indices 1 2 3 4 5 6 
#
# 1 222.1823 56.7362 74.1051 -9.5619 -5.8678 -28.1113
# 2 56.7362 72.8325 29.0315 -0.8982 -12.6647 -22.5431
# 3 74.1051 29.0315 155.0290 3.2280 -30.2850 -18.8084
# 4 -9.5619 -0.8982 3.2280 47.4391 -11.3724 -2.9513
# 5 -5.8678 -12.6647 -30.2850 -11.3724 47.3977 -17.8783
# 6 -28.1113 -22.5431 -18.8084 -2.9513 -17.8783 59.6082
#
#
#
# Elastic Compliance Matrix: (Units=1/GPa)
#
#
# Indices 1 2 3 4 5 6 
#
# 1 0.006481 -0.004233 -0.002643 0.001004 -0.001717 0.000156
# 2 -0.004233 0.021334 0.001110 0.002491 0.010094 0.009573
# 3 -0.002643 0.001110 0.009655 0.001087 0.008183 0.004728
# 4 0.001004 0.002491 0.001087 0.023862 0.009380 0.005753
# 5 -0.001717 0.010094 0.008183 0.009380 0.037599 0.017331
# 6 0.000156 0.009573 0.004728 0.005753 0.017331 0.027445
#
#
# Mechanical properties :
#
#
# Convention : Reuss Voigt Hill
#
# Bulk Modulus (GPa) = 38.55271 85.53215 62.04243
# Shear Modulus (GPa) = 34.11705 50.23373 42.17539
#
# Velocity S-wave (km/s) = 3.55470 4.31335 3.95227
# Velocity P-wave (km/s) = 5.57911 7.51565 6.61859
#
# Compressibility (1/GPa) = 0.02593852
#
# Stress axis : x y z
#
# Youngs Moduli (GPa) = 154.30274 46.87278 103.56962
#
# Poissons Ratio (x) = 0.19841 0.27370
# Poissons Ratio (y) = 0.65317 -0.11493
# Poissons Ratio (z) = 0.40776 -0.05202
#
# Static dielectric constant tensor:
#      x y z
#    x 2.152580 0.013880 0.059650 
#    y 0.013880 2.527470 0.078330 
#    z 0.059650 0.078330 2.156970 
# 
# From -- ./inp_files/155961.got.cif
#   From: 2010.05.17/outbox.cif.g08.bks.cpg/sg2_78_cif.got.tgz:155961.got - 2010.06.03 11:33:40.
