data_PCOD9067260
_publ_section_title
;
Structure prediction by ZEFSAII (Michael W. Deem and Ramdas Pophale) SiO2 
 PCOD9067260
Probable space group: P -1
;
_chemical_formula_sum "Si O2"
_cell_formula_units_Z 15
_cell_length_a 9.071906
_cell_length_b 8.041720
_cell_length_c 11.445884
_cell_angle_alpha 52.558965
_cell_angle_beta 64.836241
_cell_angle_gamma 67.859760
_cell_volume 591.871717
_symmetry_space_group_name_H-M "P -1"
_symmetry_group_IT_number 2
_symmetry_cell_setting 'triclinic'
loop_
_space_group_symop_operation_xyz
x,y,z
-x,-y,-z
loop_
_atom_site_type_symbol
_atom_site_label
_atom_site_fract_x
_atom_site_fract_y
_atom_site_fract_z
Si Si1 0.293035 0.428610 0.806797
Si Si2 0.950416 0.771891 0.537270
Si Si3 0.239178 0.984785 0.299149
Si Si4 0.225022 0.067536 0.692393
Si Si5 0.475588 0.812793 0.494770
Si Si6 0.981025 0.343827 0.796611
Si Si7 0.500000 0.000000 0.000000
Si Si8 0.672787 0.376910 0.046492
O O1 0.388483 0.616961 0.646923
O O2 0.123809 0.407601 0.806433
O O3 0.264163 0.493046 0.925008
O O4 0.416950 0.206357 0.863839
O O5 0.936251 0.528261 0.637579
O O6 0.890410 0.833081 0.664934
O O7 0.838537 0.932371 0.418679
O O8 0.132558 0.797075 0.425876
O O9 0.382520 0.928583 0.368047
O O10 0.324578 0.020927 0.132717
O O11 0.334373 0.254842 0.580275
O O12 0.063623 0.128564 0.799211
O O13 0.329026 0.853883 0.799692
O O14 0.500000 0.000000 0.500000
O O15 0.809773 0.334836 0.919819
O O16 0.500000 0.500000 0.000000
#
# Coordination Sequence:
#
# PCOD9067260 Si02
#       8
#     2   2   2   2   2   2   1   2
#     4  12  28  50  80 117 161 218 267 334 411 487
#     4  11  25  48  80 110 157 213 273 324 406 492
#     4  11  25  48  75 115 154 208 269 329 408 481
#     4  12  28  49  80 118 158 213 268 340 397 486
#     4  12  24  50  80 111 154 211 274 326 397 484
#     4  12  28  50  78 118 162 209 274 337 408 484
#     4  12  30  44  80 118 166 202 268 340 404 480
#     4  12  30  51  79 116 167 217 268 334 419 488
#
# _framework density 25.343329000000001
#
# number of rings (size 3 to 8) (size 9 to 14) (size 15 to 20)
#    0.000    0.267    4.000    2.800   13.067    2.133 
#    0.000    0.000    0.000    0.000    0.000    0.000 
#    0.000    0.000    0.000    0.000    0.000    0.000 
#
# Total GULP energy -83576.283068 kJ/mol
# GULP energy per Si atom -5571.752205 kJ/mol
# Density = 2.528565 g / cm^3
# Si number density = 25.343329 Si / 1000 Ang^3
#
#
#
# Elastic Constant Matrix: (Units=GPa)
#
#
# Indices 1 2 3 4 5 6 
#
# 1 94.4550 25.9396 40.8688 -1.3037 -3.7269 -16.5341
# 2 25.9396 98.3252 61.6600 2.4481 3.9975 -31.0131
# 3 40.8688 61.6600 149.3376 6.1938 -16.5707 -14.2845
# 4 -1.3037 2.4481 6.1938 61.2152 -15.2333 4.7308
# 5 -3.7269 3.9975 -16.5707 -15.2333 35.3620 8.2574
# 6 -16.5341 -31.0131 -14.2845 4.7308 8.2574 29.5710
#
#
#
# Elastic Compliance Matrix: (Units=1/GPa)
#
#
# Indices 1 2 3 4 5 6 
#
# 1 0.013052 0.001521 -0.003708 -0.000693 -0.002692 0.007964
# 2 0.001521 0.026166 -0.010053 -0.006528 -0.017156 0.029271
# 3 -0.003708 -0.010053 0.011885 0.002280 0.009615 -0.009925
# 4 -0.000693 -0.006528 0.002280 0.020818 0.013812 -0.013320
# 5 -0.002692 -0.017156 0.009615 0.013812 0.047470 -0.030318
# 6 0.007964 0.029271 -0.009925 -0.013320 -0.030318 0.074771
#
#
# Mechanical properties :
#
#
# Convention : Reuss Voigt Hill
#
# Bulk Modulus (GPa) = 37.56233 66.56160 52.06197
# Shear Modulus (GPa) = 21.97649 39.47292 30.72471
#
# Velocity S-wave (km/s) = 2.94794 3.95083 3.48564
# Velocity P-wave (km/s) = 5.14205 6.86535 6.06522
#
# Compressibility (1/GPa) = 0.02662241
#
# Stress axis : x y z
#
# Youngs Moduli (GPa) = 76.61576 38.21777 84.14215
#
# Poissons Ratio (x) = -0.05812 0.31200
# Poissons Ratio (y) = -0.11651 0.84587
# Poissons Ratio (z) = 0.28409 0.38420
#
# Static dielectric constant tensor:
#      x y z
#    x 2.001680 0.009380 -0.119380 
#    y 0.009380 2.187970 0.072920 
#    z -0.119380 0.072920 1.922650 
# 
# From -- ./inp_files/380940.got.cif
#   From: 2010.05.17/outbox.cif.g08.bks.cpg/sg2_191_cif.got.tgz:380940.got - 2010.06.03 11:33:40.
