data_PCOD9067846
_publ_section_title
;
Structure prediction by ZEFSAII (Michael W. Deem and Ramdas Pophale) SiO2 
 PCOD9067846
Probable space group: P -1
;
_chemical_formula_sum "Si O2"
_cell_formula_units_Z 16
_cell_length_a 14.177597
_cell_length_b 9.781557
_cell_length_c 9.215396
_cell_angle_alpha 102.401781
_cell_angle_beta 51.876272
_cell_angle_gamma 137.920899
_cell_volume 597.609656
_symmetry_space_group_name_H-M "P -1"
_symmetry_group_IT_number 2
_symmetry_cell_setting 'triclinic'
loop_
_space_group_symop_operation_xyz
x,y,z
-x,-y,-z
loop_
_atom_site_type_symbol
_atom_site_label
_atom_site_fract_x
_atom_site_fract_y
_atom_site_fract_z
Si Si1 0.707411 0.733397 0.929053
Si Si2 0.093533 0.363006 0.342525
Si Si3 0.683032 0.299933 0.034286
Si Si4 0.725950 0.049923 0.303113
Si Si5 0.286201 0.977912 0.181023
Si Si6 0.292592 0.273530 0.721753
Si Si7 0.893021 0.616544 0.159509
Si Si8 0.315856 0.697392 0.457220
O O1 0.860890 0.758819 0.734922
O O2 0.754503 0.929745 0.865555
O O3 0.500000 0.500000 0.000000
O O4 0.694225 0.711643 0.111645
O O5 0.267612 0.604068 0.321198
O O6 0.129205 0.459335 0.172004
O O7 0.891358 0.206460 0.579034
O O8 0.301429 0.847827 0.537800
O O9 0.484837 0.184428 0.133471
O O10 0.719237 0.375630 0.181968
O O11 0.765723 0.937562 0.313487
O O12 0.526334 0.846804 0.352852
O O13 0.902237 0.243218 0.068305
O O14 0.319290 0.865844 0.034517
O O15 0.500000 0.500000 0.500000
O O16 0.140559 0.250655 0.808000
O O17 0.852201 0.536428 0.343258
#
# Coordination Sequence:
#
# PCOD9067846 Si02
#       8
#     2   2   2   2   2   2   2   2
#     4  12  25  49  74 104 149 191 244 304 357 438
#     4  12  25  49  73 113 146 192 244 297 364 439
#     4  11  26  47  72 112 152 182 251 301 356 436
#     4  11  26  46  73 104 147 190 236 295 367 419
#     4  11  26  45  79 107 148 198 236 303 372 422
#     4  12  26  49  73 106 145 192 247 303 360 430
#     4  12  25  48  71 107 144 193 239 302 356 430
#     4  11  27  45  75 109 144 188 242 296 359 437
#
# _framework density 26.773330000000001
#
# number of rings (size 3 to 8) (size 9 to 14) (size 15 to 20)
#    0.000    0.500    3.750    3.000    3.500    4.000 
#    4.500    0.000    0.000    0.000    0.000    0.000 
#    0.000    0.000    0.000    0.000    0.000    0.000 
#
# Total GULP energy -90010.026019 kJ/mol
# GULP energy per Si atom -5625.626626 kJ/mol
# Density = 2.671239 g / cm^3
# Si number density = 26.773330 Si / 1000 Ang^3
#
#
#
# Elastic Constant Matrix: (Units=GPa)
#
#
# Indices 1 2 3 4 5 6 
#
# 1 112.2291 47.7931 30.7123 11.2081 0.6630 -22.3738
# 2 47.7931 102.5494 30.6397 -4.1770 -8.1509 -11.7692
# 3 30.7123 30.6397 117.6214 -12.5227 -1.2063 15.5007
# 4 11.2081 -4.1770 -12.5227 46.0799 -8.7541 -1.6900
# 5 0.6630 -8.1509 -1.2063 -8.7541 44.6222 3.6699
# 6 -22.3738 -11.7692 15.5007 -1.6900 3.6699 58.5951
#
#
#
# Elastic Compliance Matrix: (Units=1/GPa)
#
#
# Indices 1 2 3 4 5 6 
#
# 1 0.013561 -0.005124 -0.003436 -0.005010 -0.002631 0.005078
# 2 -0.005124 0.013172 -0.001944 0.002489 0.002828 0.001098
# 3 -0.003436 -0.001944 0.010906 0.003662 0.001083 -0.004550
# 4 -0.005010 0.002489 0.003662 0.025155 0.005729 -0.002015
# 5 -0.002631 0.002828 0.001083 0.005729 0.024290 -0.002079
# 6 0.005078 0.001098 -0.004550 -0.002015 -0.002079 0.020502
#
#
# Mechanical properties :
#
#
# Convention : Reuss Voigt Hill
#
# Bulk Modulus (GPa) = 60.12594 61.18779 60.65686
# Shear Modulus (GPa) = 37.27510 44.74310 41.00910
#
# Velocity S-wave (km/s) = 3.73533 4.09244 3.91796
# Velocity P-wave (km/s) = 6.41169 6.72565 6.57055
#
# Compressibility (1/GPa) = 0.01663176
#
# Stress axis : x y z
#
# Youngs Moduli (GPa) = 73.74192 75.91607 91.69276
#
# Poissons Ratio (x) = 0.38898 0.31503
# Poissons Ratio (y) = 0.37784 0.17826
# Poissons Ratio (z) = 0.25336 0.14759
#
# Static dielectric constant tensor:
#      x y z
#    x 2.046160 0.006700 -0.004960 
#    y 0.006700 2.063020 -0.030000 
#    z -0.004960 -0.030000 2.004330 
# 
# From -- ./inp_files/317023.got.cif
#   From: 2010.05.17/outbox.cif.g08.bks.cpg/sg2_159_cif.got.tgz:317023.got - 2010.06.03 11:33:40.
