data_PCOD9067222
_publ_section_title
;
Structure prediction by ZEFSAII (Michael W. Deem and Ramdas Pophale) SiO2 
 PCOD9067222
Probable space group: P -1
;
_chemical_formula_sum "Si O2"
_cell_formula_units_Z 16
_cell_length_a 15.354710
_cell_length_b 8.747760
_cell_length_c 9.493517
_cell_angle_alpha 114.172983
_cell_angle_beta 37.180424
_cell_angle_gamma 105.604344
_cell_volume 699.239932
_symmetry_space_group_name_H-M "P -1"
_symmetry_group_IT_number 2
_symmetry_cell_setting 'triclinic'
loop_
_space_group_symop_operation_xyz
x,y,z
-x,-y,-z
loop_
_atom_site_type_symbol
_atom_site_label
_atom_site_fract_x
_atom_site_fract_y
_atom_site_fract_z
Si Si1 0.295225 0.131776 0.437967
Si Si2 0.073038 0.598513 0.568059
Si Si3 0.169419 0.149996 0.885638
Si Si4 0.381498 0.903852 0.995373
Si Si5 0.573245 0.624107 0.340214
Si Si6 0.151113 0.494629 0.723254
Si Si7 0.714480 0.175017 0.211646
Si Si8 0.606017 0.402252 0.940819
O O1 0.175614 0.087101 0.690791
O O2 0.265861 0.333508 0.538853
O O3 0.292198 0.049464 0.255812
O O4 0.458232 0.067841 0.259017
O O5 0.108943 0.479355 0.609753
O O6 0.230876 0.644402 0.339245
O O7 0.000000 0.500000 0.500000
O O8 0.972285 0.754373 0.824371
O O9 0.280980 0.292764 0.784070
O O10 0.223692 0.995434 0.857338
O O11 0.432397 0.767048 0.998960
O O12 0.288230 0.842456 0.962535
O O13 0.500000 0.500000 0.500000
O O14 0.453151 0.776786 0.519613
O O15 0.607921 0.524406 0.116245
O O16 0.212924 0.666133 0.758503
O O17 0.000000 0.500000 0.000000
O O18 0.500000 0.500000 0.000000
#
# Coordination Sequence:
#
# PCOD9067222 Si02
#       8
#     2   2   2   2   2   2   2   2
#     4  11  25  48  74 107 151 197 249 317 378 461
#     4  12  28  48  76 109 153 199 252 316 391 447
#     4  12  26  47  73 111 156 197 251 316 384 468
#     4  11  26  44  77 110 150 193 259 315 386 444
#     4  12  23  45  79 108 149 201 252 307 383 457
#     4  12  28  50  75 103 148 208 259 312 390 465
#     4  12  27  45  76 114 150 201 255 318 390 449
#     4  12  26  46  77 112 150 195 259 319 376 466
#
# _framework density 22.881989000000001
#
# number of rings (size 3 to 8) (size 9 to 14) (size 15 to 20)
#    0.000    0.250    5.000    3.375    7.000    2.500 
#    0.000    1.250    0.000    0.000    0.000    0.000 
#    0.000    0.000    0.000    0.000    0.000    0.000 
#
# Total GULP energy -89337.604064 kJ/mol
# GULP energy per Si atom -5583.600254 kJ/mol
# Density = 2.282991 g / cm^3
# Si number density = 22.881989 Si / 1000 Ang^3
#
#
#
# Elastic Constant Matrix: (Units=GPa)
#
#
# Indices 1 2 3 4 5 6 
#
# 1 124.0883 53.3581 51.7483 9.1887 21.4074 -1.0922
# 2 53.3581 97.0245 44.1810 26.8521 8.6868 -15.2441
# 3 51.7483 44.1810 201.1211 19.3949 2.3434 -2.9086
# 4 9.1887 26.8521 19.3949 37.3561 0.6625 -1.8988
# 5 21.4074 8.6868 2.3434 0.6625 40.0859 3.8009
# 6 -1.0922 -15.2441 -2.9086 -1.8988 3.8009 39.5595
#
#
#
# Elastic Compliance Matrix: (Units=1/GPa)
#
#
# Indices 1 2 3 4 5 6 
#
# 1 0.012275 -0.006393 -0.001971 0.002602 -0.004939 -0.001670
# 2 -0.006393 0.018453 -0.001274 -0.010687 -0.000942 0.006418
# 3 -0.001971 -0.001274 0.005907 -0.001699 0.001040 -0.000293
# 4 0.002602 -0.010687 -0.001699 0.034550 0.000699 -0.002580
# 5 -0.004939 -0.000942 0.001040 0.000699 0.028008 -0.003081
# 6 -0.001670 0.006418 -0.000293 -0.002580 -0.003081 0.027856
#
#
# Mechanical properties :
#
#
# Convention : Reuss Voigt Hill
#
# Bulk Modulus (GPa) = 57.61334 80.08987 68.85161
# Shear Modulus (GPa) = 32.87038 41.59673 37.23356
#
# Velocity S-wave (km/s) = 3.79425 4.26829 4.03823
# Velocity P-wave (km/s) = 6.66545 7.70508 7.20405
#
# Compressibility (1/GPa) = 0.01735709
#
# Stress axis : x y z
#
# Youngs Moduli (GPa) = 81.46888 54.19062 169.29561
#
# Poissons Ratio (x) = 0.34645 0.33375
# Poissons Ratio (y) = 0.52084 0.21574
# Poissons Ratio (z) = 0.16061 0.06906
#
# Static dielectric constant tensor:
#      x y z
#    x 1.869840 0.006540 0.168160 
#    y 0.006540 2.067770 0.271040 
#    z 0.168160 0.271040 2.020240 
# 
# From -- ./inp_files/299046.got.cif
#   From: 2010.05.17/outbox.cif.g08.bks.cpg/sg2_150_cif.got.tgz:299046.got - 2010.06.03 11:33:40.
