data_PCOD9067597
_publ_section_title
;
Structure prediction by ZEFSAII (Michael W. Deem and Ramdas Pophale) SiO2 
 PCOD9067597
Probable space group: P -1
;
_chemical_formula_sum "Si O2"
_cell_formula_units_Z 16
_cell_length_a 8.714591
_cell_length_b 10.388019
_cell_length_c 13.969357
_cell_angle_alpha 46.718695
_cell_angle_beta 74.236788
_cell_angle_gamma 45.884749
_cell_volume 607.685792
_symmetry_space_group_name_H-M "P -1"
_symmetry_group_IT_number 2
_symmetry_cell_setting 'triclinic'
loop_
_space_group_symop_operation_xyz
x,y,z
-x,-y,-z
loop_
_atom_site_type_symbol
_atom_site_label
_atom_site_fract_x
_atom_site_fract_y
_atom_site_fract_z
Si Si1 0.838734 0.042328 0.793493
Si Si2 0.710546 0.204290 0.211910
Si Si3 0.862010 0.380241 0.195487
Si Si4 0.766354 0.738701 0.315668
Si Si5 0.305310 0.355028 0.268266
Si Si6 0.783794 0.828114 0.066479
Si Si7 0.730017 0.512735 0.586338
Si Si8 0.931409 0.806074 0.550189
O O1 0.099490 0.905905 0.844508
O O2 0.917814 0.837525 0.802610
O O3 0.711720 0.041779 0.899307
O O4 0.707025 0.331299 0.644457
O O5 0.658388 0.437942 0.146949
O O6 0.491756 0.256845 0.206325
O O7 0.842874 0.999043 0.381739
O O8 0.793989 0.633356 0.106420
O O9 0.948597 0.221629 0.360422
O O10 0.630215 0.755046 0.416518
O O11 0.669826 0.908961 0.149921
O O12 0.993851 0.658609 0.358171
O O13 0.873478 0.473937 0.387421
O O14 0.057028 0.633801 0.140289
O O15 0.372827 0.392234 0.338195
O O16 0.256046 0.190598 0.385465
#
# Coordination Sequence:
#
# PCOD9067597 Si02
#       8
#     2   2   2   2   2   2   2   2
#     4  10  19  28  53  75  93 123 173 193 228 285
#     4  10  18  28  48  80  95 123 158 201 242 279
#     4   8  18  29  51  69  96 123 166 197 235 272
#     4   8  15  28  49  66  95 123 158 194 236 267
#     4   9  20  30  48  71 105 128 146 199 254 278
#     4   9  18  33  48  73  96 130 159 200 233 284
#     4   9  16  30  47  73  94 126 160 199 231 287
#     4   9  15  31  49  72  94 127 160 195 236 283
#
# _framework density 26.329394000000001
#
# number of rings (size 3 to 8) (size 9 to 14) (size 15 to 20)
#    0.750    2.750    1.250    1.125    0.000    2.500 
#    0.000    0.000    0.000    7.500    6.500    0.000 
#    0.000    0.000    0.000    0.000    0.000    0.000 
#
# Total GULP energy -89141.249840 kJ/mol
# GULP energy per Si atom -5571.328115 kJ/mol
# Density = 2.626947 g / cm^3
# Si number density = 26.329394 Si / 1000 Ang^3
#
#
#
# Elastic Constant Matrix: (Units=GPa)
#
#
# Indices 1 2 3 4 5 6 
#
# 1 43.1090 16.9364 25.8474 2.2678 -7.1411 1.8880
# 2 16.9364 63.3262 27.9604 12.4017 -8.5981 13.4696
# 3 25.8474 27.9604 145.2368 15.0066 -22.5024 8.5518
# 4 2.2678 12.4017 15.0066 14.9598 -5.5056 -4.6911
# 5 -7.1411 -8.5981 -22.5024 -5.5056 26.6569 -7.3198
# 6 1.8880 13.4696 8.5518 -4.6911 -7.3198 33.7947
#
#
#
# Elastic Compliance Matrix: (Units=1/GPa)
#
#
# Indices 1 2 3 4 5 6 
#
# 1 0.029049 -0.008380 -0.004127 0.010249 0.005168 0.005304
# 2 -0.008380 0.025665 -0.000580 -0.025020 -0.003421 -0.013828
# 3 -0.004127 -0.000580 0.009284 -0.007123 0.004555 -0.001890
# 4 0.010249 -0.025020 -0.007123 0.110148 0.019868 0.030795
# 5 0.005168 -0.003421 0.004555 0.019868 0.049418 0.013384
# 6 0.005304 -0.013828 -0.001890 0.030795 0.013384 0.042458
#
#
# Mechanical properties :
#
#
# Convention : Reuss Voigt Hill
#
# Bulk Modulus (GPa) = 26.43856 43.68451 35.06154
# Shear Modulus (GPa) = 16.40394 27.14414 21.77404
#
# Velocity S-wave (km/s) = 2.49876 3.21432 2.87886
# Velocity P-wave (km/s) = 4.28816 5.51392 4.93921
#
# Compressibility (1/GPa) = 0.03782354
#
# Stress axis : x y z
#
# Youngs Moduli (GPa) = 34.42517 38.96300 107.70731
#
# Poissons Ratio (x) = 0.32652 0.44449
# Poissons Ratio (y) = 0.28849 0.06249
# Poissons Ratio (z) = 0.14207 0.02261
#
# Static dielectric constant tensor:
#      x y z
#    x 2.080460 -0.007880 0.022360 
#    y -0.007880 2.107090 0.021390 
#    z 0.022360 0.021390 2.099160 
# 
# From -- ./inp_files/558355.got.cif
#   From: 2010.05.17/outbox.cif.g08.bks.cpg/sg2_280_cif.got.tgz:558355.got - 2010.06.03 11:33:40.
