data_PCOD9067105
_publ_section_title
;
Structure prediction by ZEFSAII (Michael W. Deem and Ramdas Pophale) SiO2 
 PCOD9067105
Probable space group: P -1
;
_chemical_formula_sum "Si O2"
_cell_formula_units_Z 12
_cell_length_a 15.241941
_cell_length_b 11.902134
_cell_length_c 7.931104
_cell_angle_alpha 123.986576
_cell_angle_beta 74.130014
_cell_angle_gamma 150.819013
_cell_volume 492.959671
_symmetry_space_group_name_H-M "P -1"
_symmetry_group_IT_number 2
_symmetry_cell_setting 'triclinic'
loop_
_space_group_symop_operation_xyz
x,y,z
-x,-y,-z
loop_
_atom_site_type_symbol
_atom_site_label
_atom_site_fract_x
_atom_site_fract_y
_atom_site_fract_z
Si Si1 0.892505 0.858678 0.664351
Si Si2 0.817593 0.235587 0.737543
Si Si3 0.929449 0.552626 0.639231
Si Si4 0.605014 0.243923 0.280254
Si Si5 0.776981 0.870817 0.438435
Si Si6 0.663195 0.708347 0.926508
O O1 0.753221 0.558348 0.388712
O O2 0.881048 0.975107 0.651560
O O3 0.785458 0.743092 0.805103
O O4 0.123407 0.099240 0.728454
O O5 0.829234 0.378416 0.724911
O O6 0.589001 0.937970 0.689239
O O7 0.831263 0.098574 0.549883
O O8 0.000000 0.500000 0.000000
O O9 0.754942 0.376674 0.454649
O O10 0.000000 0.500000 0.500000
O O11 0.142158 0.926412 0.858673
O O12 0.500000 0.000000 0.000000
O O13 0.525430 0.513773 0.293276
O O14 0.500000 0.500000 0.000000
#
# Coordination Sequence:
#
# PCOD9067105 Si02
#       6
#     2   2   2   2   2   2
#     4  11  25  47  79 113 153 198 270 308 396 462
#     4  12  25  49  77 112 156 203 257 317 393 463
#     4  12  28  48  75 112 156 200 260 319 387 466
#     4  12  27  47  77 110 157 206 256 321 389 464
#     4  11  25  48  76 114 150 205 253 324 383 467
#     4  12  26  47  77 108 156 201 253 323 387 458
#
# _framework density 24.342760999999999
#
# number of rings (size 3 to 8) (size 9 to 14) (size 15 to 20)
#    0.000    0.333    1.667    7.000    4.667    4.000 
#    0.000    0.000    0.000    0.000    0.000    0.000 
#    0.000    0.000    0.000    0.000    0.000    0.000 
#
# Total GULP energy -67011.972513 kJ/mol
# GULP energy per Si atom -5584.331043 kJ/mol
# Density = 2.428736 g / cm^3
# Si number density = 24.342761 Si / 1000 Ang^3
#
#
#
# Elastic Constant Matrix: (Units=GPa)
#
#
# Indices 1 2 3 4 5 6 
#
# 1 133.8232 43.3733 52.5159 9.6603 10.2708 19.2909
# 2 43.3733 120.9331 36.2461 -0.2841 12.1178 19.1217
# 3 52.5159 36.2461 153.9879 22.2762 -3.8678 6.6015
# 4 9.6603 -0.2841 22.2762 50.8013 9.9879 -2.1449
# 5 10.2708 12.1178 -3.8678 9.9879 40.2756 5.3834
# 6 19.2909 19.1217 6.6015 -2.1449 5.3834 62.1264
#
#
#
# Elastic Compliance Matrix: (Units=1/GPa)
#
#
# Indices 1 2 3 4 5 6 
#
# 1 0.009673 -0.002193 -0.002683 -0.000421 -0.001705 -0.001910
# 2 -0.002193 0.010230 -0.001909 0.001796 -0.002886 -0.001953
# 3 -0.002683 -0.001909 0.008478 -0.003802 0.002998 0.000128
# 4 -0.000421 0.001796 -0.003802 0.022803 -0.006633 0.001344
# 5 -0.001705 -0.002886 0.002998 -0.006633 0.028276 -0.001580
# 6 -0.001910 -0.001953 0.000128 0.001344 -0.001580 0.017460
#
#
# Mechanical properties :
#
#
# Convention : Reuss Voigt Hill
#
# Bulk Modulus (GPa) = 67.51419 74.77941 71.14680
# Shear Modulus (GPa) = 43.31813 49.08127 46.19970
#
# Velocity S-wave (km/s) = 4.22300 4.49515 4.36120
# Velocity P-wave (km/s) = 7.18146 7.59788 7.39260
#
# Compressibility (1/GPa) = 0.01481170
#
# Stress axis : x y z
#
# Youngs Moduli (GPa) = 103.38393 97.75275 117.95318
#
# Poissons Ratio (x) = 0.21440 0.31642
# Poissons Ratio (y) = 0.22675 0.22512
# Poissons Ratio (z) = 0.27733 0.18657
#
# Static dielectric constant tensor:
#      x y z
#    x 2.016770 -0.066920 0.008220 
#    y -0.066920 1.986060 -0.014920 
#    z 0.008220 -0.014920 1.940120 
# 
# From -- ./inp_files/308532.got.cif
#   From: 2010.05.17/outbox.cif.g08.bks.cpg/sg2_155_cif.got.tgz:308532.got - 2010.06.03 11:33:40.
