data_PCOD9067586
_publ_section_title
;
Structure prediction by ZEFSAII (Michael W. Deem and Ramdas Pophale) SiO2 
 PCOD9067586
Probable space group: P -1
;
_chemical_formula_sum "Si O2"
_cell_formula_units_Z 14
_cell_length_a 7.773302
_cell_length_b 14.206337
_cell_length_c 8.809857
_cell_angle_alpha 43.837945
_cell_angle_beta 85.045261
_cell_angle_gamma 69.651489
_cell_volume 611.189419
_symmetry_space_group_name_H-M "P -1"
_symmetry_group_IT_number 2
_symmetry_cell_setting 'triclinic'
loop_
_space_group_symop_operation_xyz
x,y,z
-x,-y,-z
loop_
_atom_site_type_symbol
_atom_site_label
_atom_site_fract_x
_atom_site_fract_y
_atom_site_fract_z
Si Si1 0.670051 0.532422 0.385085
Si Si2 0.784471 0.598341 0.864062
Si Si3 0.712184 0.308210 0.280087
Si Si4 0.314462 0.945558 0.002293
Si Si5 0.055777 0.785621 0.343249
Si Si6 0.603381 0.728740 0.438208
Si Si7 0.476928 0.777760 0.876913
O O1 0.500000 0.500000 0.500000
O O2 0.855189 0.386329 0.511116
O O3 0.692946 0.639716 0.383001
O O4 0.575424 0.622724 0.138737
O O5 0.767527 0.669645 0.617464
O O6 0.662825 0.749609 0.793913
O O7 0.706666 0.467010 0.040356
O O8 0.000000 0.500000 0.000000
O O9 0.897641 0.217532 0.475744
O O10 0.547586 0.318603 0.401536
O O11 0.677031 0.224986 0.231020
O O12 0.186444 0.853545 0.162447
O O13 0.467101 0.891230 0.192617
O O14 0.400100 0.894543 0.885072
O O15 0.158347 0.114121 0.806806
#
# Coordination Sequence:
#
# PCOD9067586 Si02
#       7
#     2   2   2   2   2   2   2
#     4  11  14  27  51  75  98 131 159 202 249 297
#     4  11  21  32  51  78  99 126 173 214 240 286
#     4  10  18  30  53  75  99 133 161 201 254 291
#     4   9  19  30  48  79 107 127 158 206 251 292
#     4  10  18  28  48  80 108 123 163 204 246 299
#     4   9  18  32  54  75 101 129 159 203 260 294
#     4  10  18  31  54  74 102 132 160 202 258 290
#
# _framework density 22.906158000000001
#
# number of rings (size 3 to 8) (size 9 to 14) (size 15 to 20)
#    0.000    2.000    5.714    2.571    0.000    0.571 
#    0.000    2.857    0.000    1.714    0.000    0.000 
#    0.000    0.000    0.000    0.000    0.000    0.000 
#
# Total GULP energy -77945.405036 kJ/mol
# GULP energy per Si atom -5567.528931 kJ/mol
# Density = 2.285402 g / cm^3
# Si number density = 22.906158 Si / 1000 Ang^3
#
#
#
# Elastic Constant Matrix: (Units=GPa)
#
#
# Indices 1 2 3 4 5 6 
#
# 1 80.2483 21.6893 44.3054 -2.6036 33.5718 -13.5504
# 2 21.6893 94.2839 48.4688 5.9128 28.6503 -1.8953
# 3 44.3054 48.4688 166.9578 2.2337 38.0588 -0.4401
# 4 -2.6036 5.9128 2.2337 46.1878 0.4444 14.4776
# 5 33.5718 28.6503 38.0588 0.4444 53.8209 -6.9931
# 6 -13.5504 -1.8953 -0.4401 14.4776 -6.9931 22.2667
#
#
#
# Elastic Compliance Matrix: (Units=1/GPa)
#
#
# Indices 1 2 3 4 5 6 
#
# 1 0.019469 0.000095 -0.003185 -0.001921 -0.008583 0.010347
# 2 0.000095 0.013753 -0.002781 -0.001777 -0.005313 0.000660
# 3 -0.003185 -0.002781 0.008268 0.000897 -0.002840 -0.003486
# 4 -0.001921 -0.001777 0.000897 0.027978 -0.001307 -0.019904
# 5 -0.008583 -0.005313 -0.002840 -0.001307 0.029345 0.004335
# 6 0.010347 0.000660 -0.003486 -0.019904 0.004335 0.065497
#
#
# Mechanical properties :
#
#
# Convention : Reuss Voigt Hill
#
# Bulk Modulus (GPa) = 33.61440 63.37966 48.49703
# Shear Modulus (GPa) = 26.88622 39.59018 33.23820
#
# Velocity S-wave (km/s) = 3.42973 4.16187 3.81341
# Velocity P-wave (km/s) = 5.51278 7.12911 6.37240
#
# Compressibility (1/GPa) = 0.02974916
#
# Stress axis : x y z
#
# Youngs Moduli (GPa) = 51.36306 72.70906 120.94390
#
# Poissons Ratio (x) = -0.00690 0.38517
# Poissons Ratio (y) = -0.00487 0.33636
# Poissons Ratio (z) = 0.16357 0.20221
#
# Static dielectric constant tensor:
#      x y z
#    x 2.012960 0.138460 0.041970 
#    y 0.138460 1.787790 -0.082360 
#    z 0.041970 -0.082360 1.791180 
# 
# From -- ./inp_files/170495.got.cif
#   From: 2010.05.17/outbox.cif.g08.bks.cpg/sg2_86_cif.got.tgz:170495.got - 2010.06.03 11:33:40.
