data_PCOD9067899
_publ_section_title
;
Structure prediction by ZEFSAII (Michael W. Deem and Ramdas Pophale) SiO2 
 PCOD9067899
Probable space group: P -1
;
_chemical_formula_sum "Si O2"
_cell_formula_units_Z 16
_cell_length_a 20.342527
_cell_length_b 6.754874
_cell_length_c 9.741383
_cell_angle_alpha 44.583472
_cell_angle_beta 55.846725
_cell_angle_gamma 57.077146
_cell_volume 753.409997
_symmetry_space_group_name_H-M "P -1"
_symmetry_group_IT_number 2
_symmetry_cell_setting 'triclinic'
loop_
_space_group_symop_operation_xyz
x,y,z
-x,-y,-z
loop_
_atom_site_type_symbol
_atom_site_label
_atom_site_fract_x
_atom_site_fract_y
_atom_site_fract_z
Si Si1 0.287303 0.514767 0.426889
Si Si2 0.711305 0.139102 0.245017
Si Si3 0.072811 0.307713 0.419505
Si Si4 0.552358 0.277361 0.939906
Si Si5 0.179776 0.746331 0.698366
Si Si6 0.072913 0.312364 0.098161
Si Si7 0.818641 0.294419 0.808100
Si Si8 0.551009 0.631011 0.264740
O O1 0.362164 0.644709 0.229684
O O2 0.248226 0.648087 0.549819
O O3 0.217846 0.597157 0.350548
O O4 0.313427 0.165867 0.580075
O O5 0.782493 0.119786 0.284107
O O6 0.636130 0.400655 0.248413
O O7 0.748636 0.208819 0.023159
O O8 0.049711 0.304255 0.288977
O O9 0.148231 0.459752 0.274439
O O10 0.000000 0.500000 0.500000
O O11 0.104999 0.986223 0.601423
O O12 0.501184 0.317924 0.838991
O O13 0.500000 0.500000 0.000000
O O14 0.564518 0.943758 0.137762
O O15 0.146756 0.473273 0.920095
O O16 0.107152 0.989222 0.159781
O O17 0.000000 0.500000 0.000000
O O18 0.500000 0.500000 0.500000
#
# Coordination Sequence:
#
# PCOD9067899 Si02
#       8
#     2   2   2   2   2   2   2   2
#     4  12  26  44  72 102 140 186 233 286 345 414
#     4  12  26  44  72 102 140 186 233 286 345 414
#     4  12  28  46  72 100 142 184 232 294 350 414
#     4  11  26  46  72 107 145 183 230 285 347 412
#     4  12  26  45  69 104 139 183 237 288 348 412
#     4  12  28  46  72 102 140 183 236 292 352 419
#     4  12  26  45  69 104 139 183 237 288 348 412
#     4  11  26  46  72 107 145 183 230 285 347 412
#
# _framework density 21.236775000000002
#
# number of rings (size 3 to 8) (size 9 to 14) (size 15 to 20)
#    0.000    0.250    5.000    3.000    7.000    8.000 
#    0.000    0.000    0.000    0.000    0.000    0.000 
#    0.000    0.000    0.000    0.000    0.000    0.000 
#
# Total GULP energy -89643.976102 kJ/mol
# GULP energy per Si atom -5602.748506 kJ/mol
# Density = 2.118844 g / cm^3
# Si number density = 21.236775 Si / 1000 Ang^3
#
#
#
# Elastic Constant Matrix: (Units=GPa)
#
#
# Indices 1 2 3 4 5 6 
#
# 1 37.0983 -14.5480 -4.4891 -4.4123 -1.1942 -1.6600
# 2 -14.5480 113.1910 36.0184 -4.3880 -4.1863 -12.7894
# 3 -4.4891 36.0184 105.1345 -3.3648 -9.2072 1.7561
# 4 -4.4123 -4.3880 -3.3648 47.2324 3.7008 -2.0206
# 5 -1.1942 -4.1863 -9.2072 3.7008 42.9134 -2.2594
# 6 -1.6600 -12.7894 1.7561 -2.0206 -2.2594 39.6986
#
#
#
# Elastic Compliance Matrix: (Units=1/GPa)
#
#
# Indices 1 2 3 4 5 6 
#
# 1 0.029148 0.004246 -0.000061 0.003148 0.001089 0.002812
# 2 0.004246 0.011040 -0.003580 0.001297 0.000525 0.003988
# 3 -0.000061 -0.003580 0.010934 0.000227 0.001895 -0.001520
# 4 0.003148 0.001297 0.000227 0.021790 -0.001534 0.001561
# 5 0.001089 0.000525 0.001895 -0.001534 0.023998 0.001419
# 6 0.002812 0.003988 -0.001520 0.001561 0.001419 0.026820
#
#
# Mechanical properties :
#
#
# Convention : Reuss Voigt Hill
#
# Bulk Modulus (GPa) = 19.10878 32.15402 25.63140
# Shear Modulus (GPa) = 35.72351 41.86505 38.79428
#
# Velocity S-wave (km/s) = 4.10586 4.44480 4.27869
# Velocity P-wave (km/s) = 5.61203 6.44324 6.04194
#
# Compressibility (1/GPa) = 0.05233196
#
# Stress axis : x y z
#
# Youngs Moduli (GPa) = 34.30734 90.58103 91.45636
#
# Poissons Ratio (x) = -0.38457 0.00556
# Poissons Ratio (y) = -0.14566 0.32742
# Poissons Ratio (z) = 0.00209 0.32428
#
# Static dielectric constant tensor:
#      x y z
#    x 1.759350 0.005440 -0.009690 
#    y 0.005440 1.713240 -0.015200 
#    z -0.009690 -0.015200 1.738390 
# 
# From -- ./inp_files/47291.got.cif
#   From: 2010.05.17/outbox.cif.g08.bks.cpg/sg2_24_cif.got.tgz:47291.got - 2010.06.03 11:33:40.
