data_PCOD9067589
_publ_section_title
;
Structure prediction by ZEFSAII (Michael W. Deem and Ramdas Pophale) SiO2 
 PCOD9067589
Probable space group: P -1
;
_chemical_formula_sum "Si O2"
_cell_formula_units_Z 12
_cell_length_a 14.299084
_cell_length_b 21.444917
_cell_length_c 6.955027
_cell_angle_alpha 146.404097
_cell_angle_beta 138.886717
_cell_angle_gamma 22.556516
_cell_volume 451.417593
_symmetry_space_group_name_H-M "P -1"
_symmetry_group_IT_number 2
_symmetry_cell_setting 'triclinic'
loop_
_space_group_symop_operation_xyz
x,y,z
-x,-y,-z
loop_
_atom_site_type_symbol
_atom_site_label
_atom_site_fract_x
_atom_site_fract_y
_atom_site_fract_z
Si Si1 0.157787 0.184757 0.913498
Si Si2 0.732390 0.909394 0.722657
Si Si3 0.567349 0.210501 0.781511
Si Si4 0.296365 0.819631 0.507741
Si Si5 0.690546 0.326099 0.499077
Si Si6 0.042195 0.567932 0.080305
O O1 0.203029 0.176432 0.185220
O O2 0.134771 0.309863 0.066781
O O3 0.909566 0.271625 0.730645
O O4 0.355414 0.968459 0.585986
O O5 0.966553 0.731498 0.495040
O O6 0.500000 0.000000 0.500000
O O7 0.667017 0.081442 0.088569
O O8 0.500000 0.500000 0.500000
O O9 0.748238 0.168808 0.084320
O O10 0.583125 0.253462 0.702859
O O11 0.309546 0.385625 0.938731
O O12 0.397431 0.657826 0.386832
O O13 0.000000 0.000000 0.500000
O O14 0.000000 0.500000 0.000000
#
# Coordination Sequence:
#
# PCOD9067589 Si02
#       6
#     2   2   2   2   2   2
#     4  11  26  53  81 119 164 215 277 345 412 499
#     4  11  28  54  83 116 168 225 277 338 415 494
#     4  11  26  49  84 120 163 212 276 341 414 489
#     4  11  25  50  88 120 163 220 275 340 418 496
#     4  12  24  45  84 127 164 205 272 345 423 492
#     4  12  30  52  77 119 168 222 281 335 412 497
#
# _framework density 26.582926
#
# number of rings (size 3 to 8) (size 9 to 14) (size 15 to 20)
#    0.000    0.667    5.000    1.500    7.000    3.333 
#    6.000    0.000    0.000    0.000    0.000    0.000 
#    0.000    0.000    0.000    0.000    0.000    0.000 
#
# Total GULP energy -67311.593036 kJ/mol
# GULP energy per Si atom -5609.299420 kJ/mol
# Density = 2.652242 g / cm^3
# Si number density = 26.582926 Si / 1000 Ang^3
#
#
#
# Elastic Constant Matrix: (Units=GPa)
#
#
# Indices 1 2 3 4 5 6 
#
# 1 253.3673 116.9995 73.5421 12.4258 1.4399 22.6368
# 2 116.9995 172.9477 39.9658 -11.9592 1.3432 20.5450
# 3 73.5421 39.9658 94.2915 -22.7186 -21.0960 -0.9798
# 4 12.4258 -11.9592 -22.7186 47.3697 2.9016 6.8895
# 5 1.4399 1.3432 -21.0960 2.9016 50.8906 17.5682
# 6 22.6368 20.5450 -0.9798 6.8895 17.5682 72.0901
#
#
#
# Elastic Compliance Matrix: (Units=1/GPa)
#
#
# Indices 1 2 3 4 5 6 
#
# 1 0.008266 -0.004451 -0.006619 -0.006285 -0.002424 -0.000226
# 2 -0.004451 0.009113 0.000674 0.004007 0.000524 -0.001701
# 3 -0.006619 0.000674 0.019967 0.011114 0.008118 -0.000883
# 4 -0.006285 0.004007 0.011114 0.029262 0.003971 -0.002781
# 5 -0.002424 0.000524 0.008118 0.003971 0.024812 -0.005704
# 6 -0.000226 -0.001701 -0.000883 -0.002781 -0.005704 0.016071
#
#
# Mechanical properties :
#
#
# Convention : Reuss Voigt Hill
#
# Bulk Modulus (GPa) = 60.41264 109.06904 84.74084
# Shear Modulus (GPa) = 37.36878 53.41001 45.38939
#
# Velocity S-wave (km/s) = 3.75339 4.48726 4.13663
# Velocity P-wave (km/s) = 6.44666 8.24415 7.40018
#
# Compressibility (1/GPa) = 0.01655283
#
# Stress axis : x y z
#
# Youngs Moduli (GPa) = 120.98051 109.73822 50.08236
#
# Poissons Ratio (x) = 0.48847 0.33151
# Poissons Ratio (y) = 0.53851 -0.03376
# Poissons Ratio (z) = 0.80080 -0.07398
#
# Static dielectric constant tensor:
#      x y z
#    x 2.099220 0.017240 0.040360 
#    y 0.017240 2.115750 0.023620 
#    z 0.040360 0.023620 2.086840 
# 
# From -- ./inp_files/319159.got.cif
#   From: 2010.05.17/outbox.cif.g08.bks.cpg/sg2_160_cif.got.tgz:319159.got - 2010.06.03 11:33:40.
