data_PCOD9067932
_publ_section_title
;
Structure prediction by ZEFSAII (Michael W. Deem and Ramdas Pophale) SiO2 
 PCOD9067932
Probable space group: P -1
;
_chemical_formula_sum "Si O2"
_cell_formula_units_Z 16
_cell_length_a 18.678639
_cell_length_b 10.500904
_cell_length_c 5.355147
_cell_angle_alpha 91.817321
_cell_angle_beta 94.618936
_cell_angle_gamma 42.250710
_cell_volume 703.341499
_symmetry_space_group_name_H-M "P -1"
_symmetry_group_IT_number 2
_symmetry_cell_setting 'triclinic'
loop_
_space_group_symop_operation_xyz
x,y,z
-x,-y,-z
loop_
_atom_site_type_symbol
_atom_site_label
_atom_site_fract_x
_atom_site_fract_y
_atom_site_fract_z
Si Si1 0.697739 0.990709 0.770154
Si Si2 0.060433 0.554698 0.974866
Si Si3 0.522832 0.121246 0.997411
Si Si4 0.502085 0.648082 0.557484
Si Si5 0.680751 0.564447 0.379297
Si Si6 0.874700 0.133822 0.455987
Si Si7 0.141327 0.003084 0.058594
Si Si8 0.196719 0.359755 0.494559
O O1 0.648304 0.949856 0.933643
O O2 0.584539 0.191016 0.656918
O O3 0.767779 0.009034 0.905926
O O4 0.765956 0.832383 0.566750
O O5 0.125314 0.494360 0.244288
O O6 0.133264 0.449931 0.742098
O O7 0.000000 0.500000 0.000000
O O8 0.972223 0.778740 0.922974
O O9 0.408540 0.312509 0.851777
O O10 0.534189 0.222721 0.205436
O O11 0.500000 0.000000 0.000000
O O12 0.500000 0.500000 0.500000
O O13 0.620823 0.546070 0.545652
O O14 0.799078 0.351667 0.372464
O O15 0.700934 0.682024 0.476601
O O16 0.843536 0.114276 0.714059
O O17 0.000000 0.000000 0.500000
O O18 0.857685 0.060221 0.217073
#
# Coordination Sequence:
#
# PCOD9067932 Si02
#       8
#     2   2   2   2   2   2   2   2
#     4  11  27  43  73 111 145 194 249 313 372 451
#     4  12  26  46  73 111 153 192 250 308 380 449
#     4  11  26  48  76 109 151 198 256 314 381 453
#     4  11  26  46  74 106 152 194 255 310 382 452
#     4  11  27  45  75 106 150 199 249 308 375 448
#     4  12  28  50  75 108 149 197 250 304 371 453
#     4  12  27  46  77 106 150 193 248 310 374 442
#     4  12  27  46  76 112 146 199 248 310 378 450
#
# _framework density 22.748553000000001
#
# number of rings (size 3 to 8) (size 9 to 14) (size 15 to 20)
#    0.000    0.500    1.250    5.250   14.000    3.000 
#    0.000    0.000    0.000    0.000    0.000    0.000 
#    0.000    0.000    0.000    0.000    0.000    0.000 
#
# Total GULP energy -89233.577219 kJ/mol
# GULP energy per Si atom -5577.098576 kJ/mol
# Density = 2.269678 g / cm^3
# Si number density = 22.748553 Si / 1000 Ang^3
#
#
#
# Elastic Constant Matrix: (Units=GPa)
#
#
# Indices 1 2 3 4 5 6 
#
# 1 121.4736 -14.8845 54.2639 -2.4175 22.8651 -7.4309
# 2 -14.8845 76.0139 5.1115 -12.8161 13.2474 -13.0336
# 3 54.2639 5.1115 97.6723 9.0717 28.2480 -3.0709
# 4 -2.4175 -12.8161 9.0717 29.8962 0.8059 7.9903
# 5 22.8651 13.2474 28.2480 0.8059 35.9310 0.1468
# 6 -7.4309 -13.0336 -3.0709 7.9903 0.1468 38.4079
#
#
#
# Elastic Compliance Matrix: (Units=1/GPa)
#
#
# Indices 1 2 3 4 5 6 
#
# 1 0.012905 0.005116 -0.006233 0.004519 -0.005312 0.002815
# 2 0.005116 0.017973 -0.001801 0.007447 -0.008656 0.005429
# 3 -0.006233 -0.001801 0.016876 -0.006408 -0.008497 0.000898
# 4 0.004519 0.007447 -0.006408 0.040467 -0.001469 -0.005524
# 5 -0.005312 -0.008656 -0.008497 -0.001469 0.041135 -0.004496
# 6 0.002815 0.005429 0.000898 -0.005524 -0.004496 0.029661
#
#
# Mechanical properties :
#
#
# Convention : Reuss Voigt Hill
#
# Bulk Modulus (GPa) = 23.85428 42.68240 33.26834
# Shear Modulus (GPa) = 27.96018 37.55829 32.75924
#
# Velocity S-wave (km/s) = 3.50965 4.06768 3.79893
# Velocity P-wave (km/s) = 5.18964 6.39256 5.82225
#
# Compressibility (1/GPa) = 0.04192120
#
# Stress axis : x y z
#
# Youngs Moduli (GPa) = 77.48750 55.63753 59.25527
#
# Poissons Ratio (x) = -0.28466 0.36931
# Poissons Ratio (y) = -0.39646 0.10670
# Poissons Ratio (z) = 0.48294 0.10019
#
# Static dielectric constant tensor:
#      x y z
#    x 1.805740 0.004700 -0.035520 
#    y 0.004700 1.801710 -0.047990 
#    z -0.035520 -0.047990 1.815690 
# 
# From -- ./inp_files/106985.got.cif
#   From: 2010.05.17/outbox.cif.g08.bks.cpg/sg2_54_cif.got.tgz:106985.got - 2010.06.03 11:33:40.
