data_PCOD9067930
_publ_section_title
;
Structure prediction by ZEFSAII (Michael W. Deem and Ramdas Pophale) SiO2 
 PCOD9067930
Probable space group: P -1
;
_chemical_formula_sum "Si O2"
_cell_formula_units_Z 13
_cell_length_a 9.134675
_cell_length_b 7.391709
_cell_length_c 9.188461
_cell_angle_alpha 58.390610
_cell_angle_beta 96.884679
_cell_angle_gamma 114.026645
_cell_volume 479.087587
_symmetry_space_group_name_H-M "P -1"
_symmetry_group_IT_number 2
_symmetry_cell_setting 'triclinic'
loop_
_space_group_symop_operation_xyz
x,y,z
-x,-y,-z
loop_
_atom_site_type_symbol
_atom_site_label
_atom_site_fract_x
_atom_site_fract_y
_atom_site_fract_z
Si Si1 0.643162 0.820630 0.394928
Si Si2 0.313613 0.388758 0.253392
Si Si3 0.341505 0.926930 0.327983
Si Si4 0.000000 0.500000 0.500000
Si Si5 0.902858 0.646613 0.121482
Si Si6 0.947413 0.216909 0.205149
Si Si7 0.618224 0.804824 0.054944
O O1 0.632557 0.594596 0.577470
O O2 0.504276 0.897315 0.399683
O O3 0.637364 0.840076 0.213824
O O4 0.831200 0.992284 0.371862
O O5 0.126656 0.336361 0.242524
O O6 0.435946 0.614809 0.091286
O O7 0.334953 0.161628 0.292444
O O8 0.184534 0.704543 0.450310
O O9 0.346645 0.973180 0.134957
O O10 0.967964 0.637236 0.293532
O O11 0.743862 0.693146 0.079092
O O12 0.870330 0.400949 0.144648
O O13 0.027998 0.822366 0.945686
#
# Coordination Sequence:
#
# PCOD9067930 Si02
#       7
#     2   2   2   1   2   2   2
#     4  12  27  46  73 110 150 194 247 302 364 434
#     4  12  26  48  77 110 147 195 246 301 369 440
#     4  12  27  49  76 106 152 195 244 304 367 439
#     4  12  28  46  78 110 146 190 252 304 366 422
#     4  11  26  46  74 105 150 194 241 306 362 437
#     4  11  26  46  76 107 149 197 246 297 369 441
#     4  12  27  48  76 110 150 193 245 302 375 432
#
# _framework density 27.134912
#
# number of rings (size 3 to 8) (size 9 to 14) (size 15 to 20)
#    0.000    0.308    1.538    6.000   10.769    1.231 
#    0.000    0.000    0.000    0.000    0.000    0.000 
#    0.000    0.000    0.000    0.000    0.000    0.000 
#
# Total GULP energy -72694.588418 kJ/mol
# GULP energy per Si atom -5591.891417 kJ/mol
# Density = 2.707315 g / cm^3
# Si number density = 27.134912 Si / 1000 Ang^3
#
#
#
# Elastic Constant Matrix: (Units=GPa)
#
#
# Indices 1 2 3 4 5 6 
#
# 1 161.5390 40.1583 31.9345 -0.1136 0.4696 12.2237
# 2 40.1583 49.8738 26.1263 -7.3960 -24.0488 15.1539
# 3 31.9345 26.1263 160.8550 -6.4681 7.7872 21.4353
# 4 -0.1136 -7.3960 -6.4681 58.8107 24.4599 -6.5706
# 5 0.4696 -24.0488 7.7872 24.4599 49.6738 0.2847
# 6 12.2237 15.1539 21.4353 -6.5706 0.2847 48.7016
#
#
#
# Elastic Compliance Matrix: (Units=1/GPa)
#
#
# Indices 1 2 3 4 5 6 
#
# 1 0.008493 -0.009522 0.000026 0.001117 -0.005250 0.001001
# 2 -0.009522 0.045699 -0.005723 -0.007173 0.026703 -0.010435
# 3 0.000026 -0.005723 0.007634 0.002042 -0.004966 -0.001282
# 4 0.001117 -0.007173 0.002042 0.023135 -0.015219 0.004263
# 5 -0.005250 0.026703 -0.004966 -0.015219 0.041422 -0.007101
# 6 0.001001 -0.010435 -0.001282 0.004263 -0.007101 0.024709
#
#
# Mechanical properties :
#
#
# Convention : Reuss Voigt Hill
#
# Bulk Modulus (GPa) = 31.85902 63.18955 47.52429
# Shear Modulus (GPa) = 26.04275 49.70714 37.87495
#
# Velocity S-wave (km/s) = 3.10135 4.28466 3.74010
# Velocity P-wave (km/s) = 4.95892 6.91487 6.01691
#
# Compressibility (1/GPa) = 0.03138828
#
# Stress axis : x y z
#
# Youngs Moduli (GPa) = 117.74691 21.88251 130.98726
#
# Poissons Ratio (x) = 0.20837 -0.00344
# Poissons Ratio (y) = 1.12123 0.74959
# Poissons Ratio (z) = -0.00309 0.12522
#
# Static dielectric constant tensor:
#      x y z
#    x 2.026280 -0.019060 -0.036260 
#    y -0.019060 2.223160 0.104320 
#    z -0.036260 0.104320 2.163650 
# 
# From -- ./inp_files/153300.got.cif
#   From: 2010.05.17/outbox.cif.g08.bks.cpg/sg2_77_cif.got.tgz:153300.got - 2010.06.03 11:33:40.
