data_PCOD9067786
_publ_section_title
;
Structure prediction by ZEFSAII (Michael W. Deem and Ramdas Pophale) SiO2 
 PCOD9067786
Probable space group: P -1
;
_chemical_formula_sum "Si O2"
_cell_formula_units_Z 14
_cell_length_a 7.662227
_cell_length_b 14.462542
_cell_length_c 11.473116
_cell_angle_alpha 32.110894
_cell_angle_beta 125.011736
_cell_angle_gamma 113.283641
_cell_volume 541.380015
_symmetry_space_group_name_H-M "P -1"
_symmetry_group_IT_number 2
_symmetry_cell_setting 'triclinic'
loop_
_space_group_symop_operation_xyz
x,y,z
-x,-y,-z
loop_
_atom_site_type_symbol
_atom_site_label
_atom_site_fract_x
_atom_site_fract_y
_atom_site_fract_z
Si Si1 0.954613 0.206915 0.302426
Si Si2 0.990926 0.625353 0.096679
Si Si3 0.621535 0.313019 0.520105
Si Si4 0.105297 0.917679 0.972490
Si Si5 0.601259 0.046933 0.612551
Si Si6 0.759792 0.756052 0.404233
Si Si7 0.452061 0.304470 0.004814
O O1 0.112790 0.213093 0.462587
O O2 0.703157 0.280088 0.166270
O O3 0.000000 0.000000 0.500000
O O4 0.004207 0.334012 0.081719
O O5 0.744323 0.666479 0.007159
O O6 0.099815 0.429049 0.390359
O O7 0.135364 0.758930 0.059738
O O8 0.537973 0.235016 0.452204
O O9 0.469354 0.276831 0.605627
O O10 0.606764 0.520956 0.282082
O O11 0.854051 0.190461 0.775200
O O12 0.242769 0.069628 0.857621
O O13 0.860377 0.013126 0.742215
O O14 0.500000 0.000000 0.500000
O O15 0.551640 0.888436 0.844843
#
# Coordination Sequence:
#
# PCOD9067786 Si02
#       7
#     2   2   2   2   2   2   2
#     4  12  24  47  72 107 151 189 246 317 367 433
#     4  11  26  45  72 107 145 191 247 303 372 437
#     4  12  27  46  73 107 148 197 244 299 374 439
#     4  11  26  47  72 105 147 197 246 302 363 445
#     4  11  26  46  75 107 144 193 247 305 366 436
#     4  12  25  44  72 106 148 192 248 305 366 440
#     4  11  27  45  73 108 144 193 243 305 371 438
#
# _framework density 25.859839000000001
#
# number of rings (size 3 to 8) (size 9 to 14) (size 15 to 20)
#    0.000    0.571    2.857    3.857    6.000    5.143 
#    0.000    0.000    0.000    0.000    0.000    0.000 
#    0.000    0.000    0.000    0.000    0.000    0.000 
#
# Total GULP energy -78337.111437 kJ/mol
# GULP energy per Si atom -5595.507960 kJ/mol
# Density = 2.580098 g / cm^3
# Si number density = 25.859839 Si / 1000 Ang^3
#
#
#
# Elastic Constant Matrix: (Units=GPa)
#
#
# Indices 1 2 3 4 5 6 
#
# 1 107.4371 5.3041 29.6325 2.3397 11.3437 25.9171
# 2 5.3041 56.9717 27.2954 3.7703 -3.9429 -8.0933
# 3 29.6325 27.2954 157.0314 -22.8725 -11.8325 7.9275
# 4 2.3397 3.7703 -22.8725 56.0971 9.3298 -0.5085
# 5 11.3437 -3.9429 -11.8325 9.3298 45.5073 -7.4853
# 6 25.9171 -8.0933 7.9275 -0.5085 -7.4853 28.9959
#
#
#
# Elastic Compliance Matrix: (Units=1/GPa)
#
#
# Indices 1 2 3 4 5 6 
#
# 1 0.014275 -0.002930 -0.001977 -0.000222 -0.006710 -0.014773
# 2 -0.002930 0.021785 -0.003987 -0.003549 0.004082 0.010781
# 3 -0.001977 -0.003987 0.008092 0.003413 0.001363 -0.001147
# 4 -0.000222 -0.003549 0.003413 0.020088 -0.003873 -0.002373
# 5 -0.006710 0.004082 0.001363 -0.003873 0.027415 0.013774
# 6 -0.014773 0.010781 -0.001147 -0.002373 0.013774 0.054529
#
#
# Mechanical properties :
#
#
# Convention : Reuss Voigt Hill
#
# Bulk Modulus (GPa) = 37.93216 49.54493 43.73855
# Shear Modulus (GPa) = 28.94207 43.40061 36.17134
#
# Velocity S-wave (km/s) = 3.34906 4.10115 3.74404
# Velocity P-wave (km/s) = 5.44565 6.45186 5.97000
#
# Compressibility (1/GPa) = 0.02636285
#
# Stress axis : x y z
#
# Youngs Moduli (GPa) = 70.05472 45.90383 123.58070
#
# Poissons Ratio (x) = 0.13451 0.24426
# Poissons Ratio (y) = 0.20528 0.49275
# Poissons Ratio (z) = 0.13847 0.18303
#
# Static dielectric constant tensor:
#      x y z
#    x 2.143220 -0.028570 0.025210 
#    y -0.028570 2.064910 0.005460 
#    z 0.025210 0.005460 2.115290 
# 
# From -- ./inp_files/398312.got.cif
#   From: 2010.05.17/outbox.cif.g08.bks.cpg/sg2_200_cif.got.tgz:398312.got - 2010.06.03 11:33:40.
