data_PCOD9067828
_publ_section_title
;
Structure prediction by ZEFSAII (Michael W. Deem and Ramdas Pophale) SiO2 
 PCOD9067828
Probable space group: P -1
;
_chemical_formula_sum "Si O2"
_cell_formula_units_Z 14
_cell_length_a 9.435168
_cell_length_b 8.338813
_cell_length_c 16.459473
_cell_angle_alpha 111.179645
_cell_angle_beta 37.067720
_cell_angle_gamma 125.060542
_cell_volume 626.446836
_symmetry_space_group_name_H-M "P -1"
_symmetry_group_IT_number 2
_symmetry_cell_setting 'triclinic'
loop_
_space_group_symop_operation_xyz
x,y,z
-x,-y,-z
loop_
_atom_site_type_symbol
_atom_site_label
_atom_site_fract_x
_atom_site_fract_y
_atom_site_fract_z
Si Si1 0.445349 0.234278 0.313987
Si Si2 0.016024 0.147198 0.610424
Si Si3 0.229720 0.352614 0.149036
Si Si4 0.806718 0.047260 0.860940
Si Si5 0.060700 0.823746 0.913020
Si Si6 0.730189 0.659384 0.176086
Si Si7 0.807020 0.384867 0.643139
O O1 0.644420 0.145402 0.197971
O O2 0.591431 0.455513 0.252322
O O3 0.326552 0.223636 0.456648
O O4 0.173068 0.089393 0.361626
O O5 0.955786 0.172210 0.734918
O O6 0.902036 0.247013 0.618501
O O7 0.179183 0.473083 0.263661
O O8 0.001727 0.241841 0.163482
O O9 0.234483 0.172044 0.158375
O O10 0.500000 0.500000 0.000000
O O11 0.006642 0.173853 0.865912
O O12 0.500000 0.000000 0.000000
O O13 0.845510 0.638564 0.033257
O O14 0.000000 0.000000 0.000000
O O15 0.500024 0.716216 0.271124
O O16 0.000000 0.500000 0.500000
#
# Coordination Sequence:
#
# PCOD9067828 Si02
#       7
#     2   2   2   2   2   2   2
#     4  11  26  45  75 107 146 203 245 310 381 446
#     4  11  26  48  73 107 154 193 251 311 376 455
#     4  12  27  46  74 109 150 195 251 313 377 442
#     4  12  28  47  74 113 151 196 254 319 376 450
#     4  12  25  48  74 112 148 198 253 313 373 453
#     4  12  25  47  77 107 151 196 255 306 378 448
#     4  12  26  50  76 109 151 198 253 307 383 450
#
# _framework density 22.348267
#
# number of rings (size 3 to 8) (size 9 to 14) (size 15 to 20)
#    0.000    0.286    4.286    3.857    6.000    1.714 
#    0.000    1.429    0.000    0.000    0.000    0.000 
#    0.000    0.000    0.000    0.000    0.000    0.000 
#
# Total GULP energy -78281.433203 kJ/mol
# GULP energy per Si atom -5591.530943 kJ/mol
# Density = 2.229740 g / cm^3
# Si number density = 22.348267 Si / 1000 Ang^3
#
#
#
# Elastic Constant Matrix: (Units=GPa)
#
#
# Indices 1 2 3 4 5 6 
#
# 1 106.9170 33.1307 62.6161 7.5897 7.0858 -2.0169
# 2 33.1307 106.0500 33.9474 0.1953 -3.6493 -7.0210
# 3 62.6161 33.9474 183.7881 -0.7926 9.8286 -12.1750
# 4 7.5897 0.1953 -0.7926 37.9299 -4.0036 7.3335
# 5 7.0858 -3.6493 9.8286 -4.0036 48.1683 3.0198
# 6 -2.0169 -7.0210 -12.1750 7.3335 3.0198 34.5292
#
#
#
# Elastic Compliance Matrix: (Units=1/GPa)
#
#
# Indices 1 2 3 4 5 6 
#
# 1 0.012725 -0.002846 -0.003771 -0.002680 -0.001512 -0.000464
# 2 -0.002846 0.010782 -0.000996 0.000352 0.001375 0.001480
# 3 -0.003771 -0.000996 0.007107 0.000390 -0.001070 0.002094
# 4 -0.002680 0.000352 0.000390 0.028444 0.003098 -0.006259
# 5 -0.001512 0.001375 -0.001070 0.003098 0.021735 -0.002745
# 6 -0.000464 0.001480 0.002094 -0.006259 -0.002745 0.031543
#
#
# Mechanical properties :
#
#
# Convention : Reuss Voigt Hill
#
# Bulk Modulus (GPa) = 64.98356 72.90483 68.94420
# Shear Modulus (GPa) = 37.68109 41.92953 39.80531
#
# Velocity S-wave (km/s) = 4.11065 4.33620 4.22493
# Velocity P-wave (km/s) = 7.18824 7.60020 7.39709
#
# Compressibility (1/GPa) = 0.01538851
#
# Stress axis : x y z
#
# Youngs Moduli (GPa) = 78.58371 92.74640 140.69760
#
# Poissons Ratio (x) = 0.26396 0.53060
# Poissons Ratio (y) = 0.22365 0.14012
# Poissons Ratio (z) = 0.29635 0.09237
#
# Static dielectric constant tensor:
#      x y z
#    x 1.873540 -0.000490 0.003940 
#    y -0.000490 1.877720 0.026740 
#    z 0.003940 0.026740 1.886920 
# 
# From -- ./inp_files/224034.got.cif
#   From: 2010.05.17/outbox.cif.g08.bks.cpg/sg2_113_cif.got.tgz:224034.got - 2010.06.03 11:33:40.
