data_PCOD9067639
_publ_section_title
;
Structure prediction by ZEFSAII (Michael W. Deem and Ramdas Pophale) SiO2 
 PCOD9067639
Probable space group: P -1
;
_chemical_formula_sum "Si O2"
_cell_formula_units_Z 12
_cell_length_a 7.195370
_cell_length_b 14.722447
_cell_length_c 4.920955
_cell_angle_alpha 87.454844
_cell_angle_beta 102.402666
_cell_angle_gamma 67.484971
_cell_volume 465.664641
_symmetry_space_group_name_H-M "P -1"
_symmetry_group_IT_number 2
_symmetry_cell_setting 'triclinic'
loop_
_space_group_symop_operation_xyz
x,y,z
-x,-y,-z
loop_
_atom_site_type_symbol
_atom_site_label
_atom_site_fract_x
_atom_site_fract_y
_atom_site_fract_z
Si Si1 0.707898 0.205024 0.732443
Si Si2 0.415483 0.436215 0.172839
Si Si3 0.819893 0.365053 0.677694
Si Si4 0.702474 0.725703 0.144295
Si Si5 0.062983 0.901419 0.709191
Si Si6 0.378820 0.069972 0.202076
O O1 0.787538 0.285163 0.880268
O O2 0.814517 0.176852 0.477183
O O3 0.461325 0.243679 0.664292
O O4 0.142981 0.097218 0.217494
O O5 0.617780 0.382014 0.428500
O O6 0.227685 0.523569 0.256412
O O7 0.335694 0.362287 0.009012
O O8 0.500000 0.500000 0.000000
O O9 0.059787 0.313164 0.675628
O O10 0.209670 0.886637 0.018257
O O11 0.639757 0.821294 0.916245
O O12 0.000000 0.000000 0.500000
O O13 0.500000 0.000000 0.500000
O O14 0.500000 0.000000 0.000000
#
# Coordination Sequence:
#
# PCOD9067639 Si02
#       6
#     2   2   2   2   2   2
#     4  12  25  48  75 117 157 213 266 332 408 489
#     4  11  25  52  78 119 162 210 278 343 417 499
#     4  11  26  50  79 116 166 208 276 343 411 499
#     4  12  26  51  85 117 165 221 271 339 422 486
#     4  12  25  48  75 110 166 209 269 345 399 473
#     4  12  27  50  80 124 165 215 282 336 408 503
#
# _framework density 25.769615000000002
#
# number of rings (size 3 to 8) (size 9 to 14) (size 15 to 20)
#    0.000    0.333    3.333    5.000    0.000    2.000 
#    6.000    0.000    0.000    0.000    0.000    0.000 
#    0.000    0.000    0.000    0.000    0.000    0.000 
#
# Total GULP energy -67082.704723 kJ/mol
# GULP energy per Si atom -5590.225394 kJ/mol
# Density = 2.571096 g / cm^3
# Si number density = 25.769615 Si / 1000 Ang^3
#
#
#
# Elastic Constant Matrix: (Units=GPa)
#
#
# Indices 1 2 3 4 5 6 
#
# 1 242.1987 76.6681 58.7574 -3.4784 2.5301 -32.4521
# 2 76.6681 174.8913 39.5978 -12.9636 -13.1701 -12.4287
# 3 58.7574 39.5978 117.6131 -7.8096 -14.5676 -24.9570
# 4 -3.4784 -12.9636 -7.8096 38.8565 -13.1905 -1.7167
# 5 2.5301 -13.1701 -14.5676 -13.1905 46.0290 -10.4258
# 6 -32.4521 -12.4287 -24.9570 -1.7167 -10.4258 59.6516
#
#
#
# Elastic Compliance Matrix: (Units=1/GPa)
#
#
# Indices 1 2 3 4 5 6 
#
# 1 0.005442 -0.002022 -0.001988 -0.001027 -0.001480 0.001419
# 2 -0.002022 0.007280 -0.000691 0.003180 0.003058 0.000754
# 3 -0.001988 -0.000691 0.011773 0.004188 0.005938 0.004858
# 4 -0.001027 0.003180 0.004188 0.032045 0.012603 0.004981
# 5 -0.001480 0.003058 0.005938 0.012603 0.029966 0.007917
# 6 0.001419 0.000754 0.004858 0.004981 0.007917 0.021253
#
#
# Mechanical properties :
#
#
# Convention : Reuss Voigt Hill
#
# Bulk Modulus (GPa) = 66.25891 98.30551 82.28221
# Shear Modulus (GPa) = 40.91882 52.88605 46.90244
#
# Velocity S-wave (km/s) = 3.98913 4.53511 4.27085
# Velocity P-wave (km/s) = 6.85459 8.10269 7.50463
#
# Compressibility (1/GPa) = 0.01509231
#
# Stress axis : x y z
#
# Youngs Moduli (GPa) = 183.74823 137.35619 84.94066
#
# Poissons Ratio (x) = 0.27777 0.16889
# Poissons Ratio (y) = 0.37158 0.05870
# Poissons Ratio (z) = 0.36534 0.09492
#
# Static dielectric constant tensor:
#      x y z
#    x 1.971260 0.031250 -0.014540 
#    y 0.031250 2.418990 -0.153900 
#    z -0.014540 -0.153900 2.217010 
# 
# From -- ./inp_files/30716.got.cif
#   From: 2010.05.17/outbox.cif.g08.bks.cpg/sg2_16_cif.got.tgz:30716.got - 2010.06.03 11:33:40.
