data_PCOD9067909
_publ_section_title
;
Structure prediction by ZEFSAII (Michael W. Deem and Ramdas Pophale) SiO2 
 PCOD9067909
Probable space group: P -1
;
_chemical_formula_sum "Si O2"
_cell_formula_units_Z 12
_cell_length_a 4.947961
_cell_length_b 12.248927
_cell_length_c 8.740700
_cell_angle_alpha 66.719305
_cell_angle_beta 96.095763
_cell_angle_gamma 103.184483
_cell_volume 473.713951
_symmetry_space_group_name_H-M "P -1"
_symmetry_group_IT_number 2
_symmetry_cell_setting 'triclinic'
loop_
_space_group_symop_operation_xyz
x,y,z
-x,-y,-z
loop_
_atom_site_type_symbol
_atom_site_label
_atom_site_fract_x
_atom_site_fract_y
_atom_site_fract_z
Si Si1 0.351553 0.177487 0.122558
Si Si2 0.165979 0.746658 0.640739
Si Si3 0.788331 0.589774 0.932130
Si Si4 0.977835 0.929072 0.296126
Si Si5 0.706956 0.411219 0.538184
Si Si6 0.397221 0.834777 0.176492
O O1 0.604415 0.212740 0.237873
O O2 0.218570 0.295842 0.020588
O O3 0.114632 0.070169 0.232643
O O4 0.487175 0.136521 0.000927
O O5 0.077370 0.856279 0.482849
O O6 0.301665 0.667435 0.572601
O O7 0.889247 0.662631 0.741533
O O8 0.500000 0.500000 0.000000
O O9 0.000000 0.500000 0.000000
O O10 0.121949 0.879929 0.183777
O O11 0.648571 0.894340 0.272856
O O12 0.500000 0.500000 0.500000
O O13 0.664385 0.310107 0.723630
O O14 0.000000 0.500000 0.500000
#
# Coordination Sequence:
#
# PCOD9067909 Si02
#       6
#     2   2   2   2   2   2
#     4  12  28  48  82 109 154 202 248 320 378 441
#     4  11  28  49  78 115 149 198 260 314 370 455
#     4  12  29  47  72 112 159 190 253 310 383 443
#     4  11  27  51  76 111 154 197 258 307 383 449
#     4  11  26  46  73 102 151 200 243 301 378 445
#     4  11  27  47  74 113 151 199 254 310 377 451
#
# _framework density 25.331742999999999
#
# number of rings (size 3 to 8) (size 9 to 14) (size 15 to 20)
#    0.000    0.667    1.667    3.500   16.333    0.667 
#    0.000    0.000    0.000    0.000    0.000    0.000 
#    0.000    0.000    0.000    0.000    0.000    0.000 
#
# Total GULP energy -67303.857740 kJ/mol
# GULP energy per Si atom -5608.654812 kJ/mol
# Density = 2.527409 g / cm^3
# Si number density = 25.331743 Si / 1000 Ang^3
#
#
#
# Elastic Constant Matrix: (Units=GPa)
#
#
# Indices 1 2 3 4 5 6 
#
# 1 161.5764 43.5613 29.8892 -20.9534 -9.7800 9.1835
# 2 43.5613 127.5240 46.3256 -47.4515 7.6053 9.5204
# 3 29.8892 46.3256 104.2426 -19.2817 -17.0831 20.0169
# 4 -20.9534 -47.4515 -19.2817 64.3993 6.6890 -9.4389
# 5 -9.7800 7.6053 -17.0831 6.6890 43.4616 1.8039
# 6 9.1835 9.5204 20.0169 -9.4389 1.8039 53.1535
#
#
#
# Elastic Compliance Matrix: (Units=1/GPa)
#
#
# Indices 1 2 3 4 5 6 
#
# 1 0.007054 -0.002139 -0.000627 0.000266 0.001699 -0.000610
# 2 -0.002139 0.014170 -0.005409 0.009055 -0.006551 0.001699
# 3 -0.000627 -0.005409 0.013902 -0.001400 0.006677 -0.004633
# 4 0.000266 0.009055 -0.001400 0.022921 -0.005733 0.003124
# 5 0.001699 -0.006551 0.006677 -0.005733 0.028194 -0.003610
# 6 -0.000610 0.001699 -0.004633 0.003124 -0.003610 0.021037
#
#
# Mechanical properties :
#
#
# Convention : Reuss Voigt Hill
#
# Bulk Modulus (GPa) = 53.26005 70.32169 61.79087
# Shear Modulus (GPa) = 38.49524 50.44068 44.46796
#
# Velocity S-wave (km/s) = 3.90249 4.46713 4.19432
# Velocity P-wave (km/s) = 6.43246 7.37751 6.92113
#
# Compressibility (1/GPa) = 0.01877580
#
# Stress axis : x y z
#
# Youngs Moduli (GPa) = 141.77174 70.56914 71.93387
#
# Poissons Ratio (x) = 0.15092 0.04513
# Poissons Ratio (y) = 0.30319 0.38909
# Poissons Ratio (z) = 0.08894 0.38171
#
# Static dielectric constant tensor:
#      x y z
#    x 1.931730 -0.019950 0.031780 
#    y -0.019950 1.988060 0.040350 
#    z 0.031780 0.040350 1.985000 
# 
# From -- ./inp_files/130623.got.cif
#   From: 2010.05.17/outbox.cif.g08.bks.cpg/sg2_66_cif.got.tgz:130623.got - 2010.06.03 11:33:40.
