data_PCOD9067754
_publ_section_title
;
Structure prediction by ZEFSAII (Michael W. Deem and Ramdas Pophale) SiO2 
 PCOD9067754
Probable space group: P -1
;
_chemical_formula_sum "Si O2"
_cell_formula_units_Z 16
_cell_length_a 11.870778
_cell_length_b 9.319095
_cell_length_c 18.700509
_cell_angle_alpha 60.255547
_cell_angle_beta 151.147711
_cell_angle_gamma 127.337342
_cell_volume 790.383402
_symmetry_space_group_name_H-M "P -1"
_symmetry_group_IT_number 2
_symmetry_cell_setting 'triclinic'
loop_
_space_group_symop_operation_xyz
x,y,z
-x,-y,-z
loop_
_atom_site_type_symbol
_atom_site_label
_atom_site_fract_x
_atom_site_fract_y
_atom_site_fract_z
Si Si1 0.927547 0.037808 0.163675
Si Si2 0.836737 0.350105 0.116816
Si Si3 0.885558 0.194039 0.573119
Si Si4 0.579228 0.428468 0.634262
Si Si5 0.562299 0.487770 0.188096
Si Si6 0.560569 0.693571 0.681548
Si Si7 0.259375 0.014295 0.602993
Si Si8 0.553361 0.205600 0.133910
O O1 0.829044 0.174011 0.114508
O O2 0.155946 0.153905 0.209263
O O3 0.049479 0.952170 0.311108
O O4 0.698364 0.885147 0.031949
O O5 0.786763 0.300622 0.184943
O O6 0.115026 0.509007 0.217628
O O7 0.613902 0.405115 0.951962
O O8 0.651936 0.227881 0.468458
O O9 0.813393 0.123281 0.470010
O O10 0.142211 0.376533 0.672874
O O11 0.500000 0.500000 0.500000
O O12 0.529036 0.537215 0.645645
O O13 0.423960 0.215734 0.614922
O O14 0.475766 0.382432 0.240125
O O15 0.533974 0.352647 0.140556
O O16 0.409190 0.948806 0.760768
O O17 0.000000 0.000000 0.500000
#
# Coordination Sequence:
#
# PCOD9067754 Si02
#       8
#     2   2   2   2   2   2   2   2
#     4  11  26  45  73 101 137 185 231 291 351 409
#     4  11  26  46  71 100 145 181 235 286 352 413
#     4  12  25  48  68 102 141 186 229 285 356 414
#     4  11  26  46  74 105 137 187 233 289 348 413
#     4  12  27  44  70 103 141 189 225 291 354 413
#     4  11  26  45  70 102 144 178 232 289 354 416
#     4  12  26  43  74 104 140 183 236 290 340 418
#     4  12  26  46  68 106 137 185 238 284 348 418
#
# _framework density 20.243341000000001
#
# number of rings (size 3 to 8) (size 9 to 14) (size 15 to 20)
#    0.000    0.500    2.500    5.250    8.750    2.500 
#    0.000    0.000    0.000    0.000    0.000    0.000 
#    0.000    0.000    0.000    0.000    0.000    0.000 
#
# Total GULP energy -89593.898364 kJ/mol
# GULP energy per Si atom -5599.618648 kJ/mol
# Density = 2.019727 g / cm^3
# Si number density = 20.243341 Si / 1000 Ang^3
#
#
#
# Elastic Constant Matrix: (Units=GPa)
#
#
# Indices 1 2 3 4 5 6 
#
# 1 150.0018 47.6473 48.0473 2.5765 6.9396 1.8231
# 2 47.6473 144.6825 18.1135 41.6528 36.4706 -29.7423
# 3 48.0473 18.1135 89.4748 -6.8568 5.5523 -4.9043
# 4 2.5765 41.6528 -6.8568 53.6846 9.0806 -22.1313
# 5 6.9396 36.4706 5.5523 9.0806 38.0589 -18.7495
# 6 1.8231 -29.7423 -4.9043 -22.1313 -18.7495 48.2593
#
#
#
# Elastic Compliance Matrix: (Units=1/GPa)
#
#
# Indices 1 2 3 4 5 6 
#
# 1 0.009076 -0.003263 -0.004355 0.000467 0.000895 -0.002234
# 2 -0.003263 0.012948 -0.000875 -0.008154 -0.009440 0.000607
# 3 -0.004355 -0.000875 0.014141 0.003861 0.000054 0.002854
# 4 0.000467 -0.008154 0.003861 0.028926 0.005574 0.010780
# 5 0.000895 -0.009440 0.000054 0.005574 0.039821 0.012181
# 6 -0.002234 0.000607 0.002854 0.010780 0.012181 0.031146
#
#
# Mechanical properties :
#
#
# Convention : Reuss Voigt Hill
#
# Bulk Modulus (GPa) = 52.14169 67.97504 60.05837
# Shear Modulus (GPa) = 31.36034 46.02395 38.69214
#
# Velocity S-wave (km/s) = 3.94022 4.77333 4.37664
# Velocity P-wave (km/s) = 6.82010 8.00197 7.43456
#
# Compressibility (1/GPa) = 0.01917851
#
# Stress axis : x y z
#
# Youngs Moduli (GPa) = 110.18210 77.23375 70.71566
#
# Poissons Ratio (x) = 0.25203 0.30799
# Poissons Ratio (y) = 0.35955 0.06185
# Poissons Ratio (z) = 0.47987 0.06755
#
# Static dielectric constant tensor:
#      x y z
#    x 1.689380 0.017110 0.005500 
#    y 0.017110 1.717590 -0.006270 
#    z 0.005500 -0.006270 1.689250 
# 
# From -- ./inp_files/185273.got.cif
#   From: 2010.05.17/outbox.cif.g08.bks.cpg/sg2_93_cif.got.tgz:185273.got - 2010.06.03 11:33:40.
