data_PCOD9067159
_publ_section_title
;
Structure prediction by ZEFSAII (Michael W. Deem and Ramdas Pophale) SiO2 
 PCOD9067159
Probable space group: P -1
;
_chemical_formula_sum "Si O2"
_cell_formula_units_Z 15
_cell_length_a 9.432267
_cell_length_b 19.366898
_cell_length_c 22.426912
_cell_angle_alpha 162.734465
_cell_angle_beta 36.836900
_cell_angle_gamma 143.226636
_cell_volume 713.302785
_symmetry_space_group_name_H-M "P -1"
_symmetry_group_IT_number 2
_symmetry_cell_setting 'triclinic'
loop_
_space_group_symop_operation_xyz
x,y,z
-x,-y,-z
loop_
_atom_site_type_symbol
_atom_site_label
_atom_site_fract_x
_atom_site_fract_y
_atom_site_fract_z
Si Si1 0.698810 0.853186 0.828578
Si Si2 0.960153 0.769422 0.239239
Si Si3 0.255808 0.045556 0.649726
Si Si4 0.386978 0.120403 0.450607
Si Si5 0.500000 0.500000 0.500000
Si Si6 0.056702 0.511426 0.317092
Si Si7 0.781858 0.820216 0.104060
Si Si8 0.218968 0.438229 0.337048
O O1 0.621989 0.619983 0.620934
O O2 0.719223 0.792002 0.841238
O O3 0.959339 0.002496 0.845032
O O4 0.500000 0.000000 0.000000
O O5 0.743750 0.793655 0.377168
O O6 0.899682 0.864350 0.274236
O O7 0.188949 0.956768 0.341684
O O8 0.000000 0.500000 0.000000
O O9 0.130970 0.793404 0.512743
O O10 0.500000 0.000000 0.500000
O O11 0.273811 0.234443 0.853011
O O12 0.545008 0.355969 0.563312
O O13 0.575374 0.958338 0.269472
O O14 0.768956 0.437571 0.342216
O O15 0.141806 0.438158 0.293495
O O16 0.201935 0.394246 0.121909
O O17 0.000000 0.500000 0.500000
#
# Coordination Sequence:
#
# PCOD9067159 Si02
#       8
#     2   2   2   2   1   2   2   2
#     4  12  26  45  69 108 145 186 237 288 353 428
#     4  11  28  48  74 104 139 188 239 298 362 418
#     4  12  25  49  73 102 144 182 238 301 349 425
#     4  11  25  48  71 106 143 181 243 297 349 429
#     4  12  22  46  70 102 150 176 236 296 350 416
#     4  12  27  44  73 108 141 193 235 294 359 418
#     4  12  25  46  73 106 143 188 242 287 359 426
#     4  12  23  47  74 101 148 188 232 290 356 424
#
# _framework density 21.028938
#
# number of rings (size 3 to 8) (size 9 to 14) (size 15 to 20)
#    0.000    0.267    8.000    0.000    5.600    4.267 
#    2.400    0.000    0.000    0.000    0.000    0.000 
#    0.000    0.000    0.000    0.000    0.000    0.000 
#
# Total GULP energy -83558.382371 kJ/mol
# GULP energy per Si atom -5570.558825 kJ/mol
# Density = 2.098108 g / cm^3
# Si number density = 21.028938 Si / 1000 Ang^3
#
#
#
# Elastic Constant Matrix: (Units=GPa)
#
#
# Indices 1 2 3 4 5 6 
#
# 1 116.6082 45.2062 50.0478 -10.6045 -16.3328 -24.7163
# 2 45.2062 94.6434 36.6560 -14.2944 -2.5355 -1.3893
# 3 50.0478 36.6560 119.8689 -29.7070 -1.1263 -15.5542
# 4 -10.6045 -14.2944 -29.7070 32.7999 0.5101 -0.1108
# 5 -16.3328 -2.5355 -1.1263 0.5101 42.8945 -8.3681
# 6 -24.7163 -1.3893 -15.5542 -0.1108 -8.3681 40.1896
#
#
#
# Elastic Compliance Matrix: (Units=1/GPa)
#
#
# Indices 1 2 3 4 5 6 
#
# 1 0.015193 -0.005684 -0.003548 -0.000859 0.007173 0.009265
# 2 -0.005684 0.014302 -0.001896 0.002698 -0.002218 -0.004189
# 3 -0.003548 -0.001896 0.013244 0.010042 -0.000696 0.002761
# 4 -0.000859 0.002698 0.010042 0.040488 0.000323 0.003630
# 5 0.007173 -0.002218 -0.000696 0.000323 0.027814 0.009858
# 6 0.009265 -0.004189 0.002761 0.003630 0.009858 0.033566
#
#
# Mechanical properties :
#
#
# Convention : Reuss Voigt Hill
#
# Bulk Modulus (GPa) = 48.82431 66.10453 57.46442
# Shear Modulus (GPa) = 28.78668 36.45749 32.62208
#
# Velocity S-wave (km/s) = 3.70389 4.16827 3.94292
# Velocity P-wave (km/s) = 6.44669 7.39386 6.93646
#
# Compressibility (1/GPa) = 0.02048160
#
# Stress axis : x y z
#
# Youngs Moduli (GPa) = 65.82145 69.92073 75.50487
#
# Poissons Ratio (x) = 0.39743 0.26792
# Poissons Ratio (y) = 0.37413 0.14317
# Poissons Ratio (z) = 0.23356 0.13258
#
# Static dielectric constant tensor:
#      x y z
#    x 1.731840 -0.015210 -0.089060 
#    y -0.015210 1.795190 0.049330 
#    z -0.089060 0.049330 1.655000 
# 
# From -- ./inp_files/591253.got.cif
#   From: 2010.05.17/outbox.cif.g08.bks.cpg/sg2_296_cif.got.tgz:591253.got - 2010.06.03 11:33:40.
