data_PCOD9067100
_publ_section_title
;
Structure prediction by ZEFSAII (Michael W. Deem and Ramdas Pophale) SiO2 
 PCOD9067100
Probable space group: P -1
;
_chemical_formula_sum "Si O2"
_cell_formula_units_Z 14
_cell_length_a 9.976178
_cell_length_b 15.055881
_cell_length_c 10.828824
_cell_angle_alpha 146.821751
_cell_angle_beta 141.532849
_cell_angle_gamma 42.948695
_cell_volume 539.478651
_symmetry_space_group_name_H-M "P -1"
_symmetry_group_IT_number 2
_symmetry_cell_setting 'triclinic'
loop_
_space_group_symop_operation_xyz
x,y,z
-x,-y,-z
loop_
_atom_site_type_symbol
_atom_site_label
_atom_site_fract_x
_atom_site_fract_y
_atom_site_fract_z
Si Si1 0.354188 0.957879 0.709322
Si Si2 0.310369 0.835970 0.119774
Si Si3 0.280579 0.327248 0.137292
Si Si4 0.971049 0.214817 0.618374
Si Si5 0.537918 0.698353 0.358346
Si Si6 0.613573 0.440792 0.317248
Si Si7 0.813848 0.792815 0.477513
O O1 0.537129 0.854400 0.630759
O O2 0.261783 0.824449 0.567781
O O3 0.148956 0.040070 0.564633
O O4 0.373192 0.127247 0.988123
O O5 0.338685 0.751118 0.177270
O O6 0.571318 0.831705 0.276773
O O7 0.179505 0.024639 0.255703
O O8 0.240263 0.725752 0.833253
O O9 0.434211 0.391086 0.221429
O O10 0.276121 0.432962 0.379534
O O11 0.044251 0.333083 0.910040
O O12 0.006664 0.269589 0.570216
O O13 0.513307 0.544769 0.244672
O O14 0.760322 0.675062 0.410380
#
# Coordination Sequence:
#
# PCOD9067100 Si02
#       7
#     2   2   2   2   2   2   2
#     4   9  17  32  53  69  92 122 172 188 227 277
#     4   9  15  28  46  69  95 119 153 196 230 275
#     4   9  18  32  45  68  97 134 151 187 245 285
#     4   9  15  32  56  68  86 129 166 195 216 287
#     4  10  18  28  47  80  92 121 156 206 229 271
#     4  11  19  27  47  72 108 118 147 201 248 279
#     4   9  15  29  53  68  93 115 173 192 226 269
#
# _framework density 25.950980999999999
#
# number of rings (size 3 to 8) (size 9 to 14) (size 15 to 20)
#    1.714    0.857    2.857    1.286    0.000    0.571 
#    0.000    0.714    0.000    4.286    0.000    0.000 
#    0.000    0.000    0.000    0.000    0.000    0.000 
#
# Total GULP energy -78205.034958 kJ/mol
# GULP energy per Si atom -5586.073926 kJ/mol
# Density = 2.589192 g / cm^3
# Si number density = 25.950981 Si / 1000 Ang^3
#
#
#
# Elastic Constant Matrix: (Units=GPa)
#
#
# Indices 1 2 3 4 5 6 
#
# 1 95.0482 31.2290 44.2967 -5.6920 0.5825 28.5940
# 2 31.2290 89.5021 32.4463 20.9488 3.1744 5.3307
# 3 44.2967 32.4463 208.0403 -13.9833 -27.0334 11.5666
# 4 -5.6920 20.9488 -13.9833 33.6904 5.2695 4.9437
# 5 0.5825 3.1744 -27.0334 5.2695 36.4517 3.4946
# 6 28.5940 5.3307 11.5666 4.9437 3.4946 19.2651
#
#
#
# Elastic Compliance Matrix: (Units=1/GPa)
#
#
# Indices 1 2 3 4 5 6 
#
# 1 0.029090 -0.011682 -0.000411 0.018276 0.001894 -0.044731
# 2 -0.011682 0.019556 -0.003223 -0.017765 -0.003160 0.018995
# 3 -0.000411 -0.003223 0.006600 0.004564 0.004956 -0.004531
# 4 0.018276 -0.017765 0.004564 0.051181 0.000908 -0.038248
# 5 0.001894 -0.003160 0.004956 0.000908 0.032278 -0.011001
# 6 -0.044731 0.018995 -0.004531 -0.038248 -0.011001 0.127575
#
#
# Mechanical properties :
#
#
# Convention : Reuss Voigt Hill
#
# Bulk Modulus (GPa) = 40.62657 67.61495 54.12076
# Shear Modulus (GPa) = 16.38725 36.85601 26.62163
#
# Velocity S-wave (km/s) = 2.51563 3.77266 3.20635
# Velocity P-wave (km/s) = 4.91192 6.71482 5.88285
#
# Compressibility (1/GPa) = 0.02461443
#
# Stress axis : x y z
#
# Youngs Moduli (GPa) = 34.37596 51.13462 151.52367
#
# Poissons Ratio (x) = 0.59735 0.06221
# Poissons Ratio (y) = 0.40158 0.48842
# Poissons Ratio (z) = 0.01411 0.16483
#
# Static dielectric constant tensor:
#      x y z
#    x 2.009250 -0.008530 0.010940 
#    y -0.008530 2.135250 -0.055880 
#    z 0.010940 -0.055880 2.046400 
# 
# From -- ./inp_files/435201.got.cif
#   From: 2010.05.17/outbox.cif.g08.bks.cpg/sg2_218_cif.got.tgz:435201.got - 2010.06.03 11:33:40.
