data_PCOD9067396
_publ_section_title
;
Structure prediction by ZEFSAII (Michael W. Deem and Ramdas Pophale) SiO2 
 PCOD9067396
Probable space group: P -1
;
_chemical_formula_sum "Si O2"
_cell_formula_units_Z 14
_cell_length_a 23.014274
_cell_length_b 13.978265
_cell_length_c 5.304811
_cell_angle_alpha 118.326230
_cell_angle_beta 119.475777
_cell_angle_gamma 20.858916
_cell_volume 528.404085
_symmetry_space_group_name_H-M "P -1"
_symmetry_group_IT_number 2
_symmetry_cell_setting 'triclinic'
loop_
_space_group_symop_operation_xyz
x,y,z
-x,-y,-z
loop_
_atom_site_type_symbol
_atom_site_label
_atom_site_fract_x
_atom_site_fract_y
_atom_site_fract_z
Si Si1 0.014462 0.863898 0.730535
Si Si2 0.330094 0.701333 0.637823
Si Si3 0.427026 0.788433 0.806376
Si Si4 0.513306 0.052939 0.340154
Si Si5 0.125485 0.484492 0.544677
Si Si6 0.292348 0.555743 0.678422
Si Si7 0.899249 0.576671 0.080075
O O1 0.127493 0.606130 0.783135
O O2 0.122832 0.743659 0.577377
O O3 0.836875 0.069489 0.594354
O O4 0.000000 0.000000 0.000000
O O5 0.365449 0.776678 0.832728
O O6 0.491286 0.401467 0.487861
O O7 0.279316 0.701663 0.764421
O O8 0.272042 0.101307 0.845716
O O9 0.579764 0.629079 0.046815
O O10 0.389914 0.336448 0.416505
O O11 0.500000 0.000000 0.500000
O O12 0.694314 0.834380 0.463667
O O13 0.500000 0.000000 0.000000
O O14 0.033437 0.560116 0.672582
O O15 0.097414 0.531526 0.240267
O O16 0.000000 0.500000 0.000000
#
# Coordination Sequence:
#
# PCOD9067396 Si02
#       7
#     2   2   2   2   2   2   2
#     4  12  27  46  72 112 152 199 251 314 382 458
#     4  11  26  47  73 105 153 198 256 307 382 455
#     4  11  25  49  74 109 144 200 254 316 378 457
#     4  12  26  45  77 110 151 195 251 316 385 455
#     4  12  27  48  74 110 150 195 252 318 380 451
#     4  12  25  47  77 108 148 202 251 315 383 456
#     4  12  27  50  78 110 148 200 256 317 382 452
#
# _framework density 26.494872999999998
#
# number of rings (size 3 to 8) (size 9 to 14) (size 15 to 20)
#    0.000    0.286    4.286    3.857    4.000    2.286 
#    2.571    0.000    0.000    0.000    0.000    0.000 
#    0.000    0.000    0.000    0.000    0.000    0.000 
#
# Total GULP energy -78081.964200 kJ/mol
# GULP energy per Si atom -5577.283157 kJ/mol
# Density = 2.643457 g / cm^3
# Si number density = 26.494873 Si / 1000 Ang^3
#
#
#
# Elastic Constant Matrix: (Units=GPa)
#
#
# Indices 1 2 3 4 5 6 
#
# 1 175.2654 20.8666 29.5726 3.9257 -3.2755 11.1558
# 2 20.8666 77.7993 14.8478 17.3683 -6.7298 -0.3713
# 3 29.5726 14.8478 90.3348 10.6581 1.2302 10.5596
# 4 3.9257 17.3683 10.6581 30.9415 1.5318 11.2658
# 5 -3.2755 -6.7298 1.2302 1.5318 46.2647 2.1163
# 6 11.1558 -0.3713 10.5596 11.2658 2.1163 43.6819
#
#
#
# Elastic Compliance Matrix: (Units=1/GPa)
#
#
# Indices 1 2 3 4 5 6 
#
# 1 0.006269 -0.001608 -0.001761 0.001256 0.000285 -0.001526
# 2 -0.001608 0.015900 -0.001371 -0.009541 0.002404 0.003221
# 3 -0.001761 -0.001371 0.012401 -0.002573 -0.000483 -0.001873
# 4 0.001256 -0.009541 -0.002573 0.042368 -0.002148 -0.010603
# 5 0.000285 0.002404 -0.000483 -0.002148 0.022089 -0.000452
# 6 -0.001526 0.003221 -0.001873 -0.010603 -0.000452 0.026519
#
#
# Mechanical properties :
#
#
# Convention : Reuss Voigt Hill
#
# Bulk Modulus (GPa) = 39.85803 52.66373 46.26088
# Shear Modulus (GPa) = 34.87016 42.71845 38.79430
#
# Velocity S-wave (km/s) = 3.63176 4.01974 3.83066
# Velocity P-wave (km/s) = 5.71512 6.43929 6.08798
#
# Compressibility (1/GPa) = 0.02508905
#
# Stress axis : x y z
#
# Youngs Moduli (GPa) = 159.52364 62.89430 80.63936
#
# Poissons Ratio (x) = 0.10114 0.14204
# Poissons Ratio (y) = 0.25654 0.11052
# Poissons Ratio (z) = 0.28099 0.08620
#
# Static dielectric constant tensor:
#      x y z
#    x 2.471000 -0.033510 -0.412770 
#    y -0.033510 2.134500 -0.214840 
#    z -0.412770 -0.214840 4.041830 
# 
# From -- ./inp_files/124138.got.cif
#   From: 2010.05.17/outbox.cif.g08.bks.cpg/sg2_63_cif.got.tgz:124138.got - 2010.06.03 11:33:40.
