data_PCOD9067332
_publ_section_title
;
Structure prediction by ZEFSAII (Michael W. Deem and Ramdas Pophale) SiO2 
 PCOD9067332
Probable space group: P -1
;
_chemical_formula_sum "Si O2"
_cell_formula_units_Z 16
_cell_length_a 19.766211
_cell_length_b 5.394999
_cell_length_c 14.303712
_cell_angle_alpha 98.069295
_cell_angle_beta 152.655581
_cell_angle_gamma 73.271136
_cell_volume 647.527025
_symmetry_space_group_name_H-M "P -1"
_symmetry_group_IT_number 2
_symmetry_cell_setting 'triclinic'
loop_
_space_group_symop_operation_xyz
x,y,z
-x,-y,-z
loop_
_atom_site_type_symbol
_atom_site_label
_atom_site_fract_x
_atom_site_fract_y
_atom_site_fract_z
Si Si1 0.773494 0.835121 0.306807
Si Si2 0.081056 0.720434 0.445838
Si Si3 0.092446 0.222445 0.051216
Si Si4 0.783294 0.230873 0.725006
Si Si5 0.647354 0.522608 0.392124
Si Si6 0.640799 0.450877 0.746260
Si Si7 0.487727 0.925684 0.839803
Si Si8 0.251101 0.097480 0.044571
O O1 0.877722 0.531095 0.446117
O O2 0.865203 0.041602 0.436796
O O3 0.636885 0.931313 0.223592
O O4 0.667458 0.866888 0.086243
O O5 0.193486 0.598148 0.484676
O O6 0.893896 0.841104 0.201947
O O7 0.153082 0.214707 0.023986
O O8 0.236735 0.045977 0.284846
O O9 0.000000 0.500000 0.000000
O O10 0.948440 0.113515 0.866214
O O11 0.679336 0.440258 0.535349
O O12 0.778360 0.347855 0.829644
O O13 0.539358 0.352687 0.221076
O O14 0.565789 0.838424 0.290403
O O15 0.500000 0.500000 0.500000
O O16 0.643836 0.712873 0.818604
O O17 0.663719 0.212306 0.835958
#
# Coordination Sequence:
#
# PCOD9067332 Si02
#       8
#     2   2   2   2   2   2   2   2
#     4   9  17  29  43  65 102 137 162 186 245 300
#     4  10  18  28  48  72  97 128 165 208 240 295
#     4  10  19  31  50  73 104 132 162 212 263 294
#     4  10  21  32  49  75 101 135 172 211 251 302
#     4  10  19  28  46  70 100 129 170 200 242 293
#     4  11  24  39  53  70 103 142 173 212 255 301
#     4   9  18  29  42  65 101 141 160 190 234 310
#     4  11  21  35  54  76 101 131 178 214 250 297
#
# _framework density 24.709392999999999
#
# number of rings (size 3 to 8) (size 9 to 14) (size 15 to 20)
#    0.000    2.000    2.500    1.875    1.750    4.000 
#    0.000    0.000    0.000    0.000    0.000    0.000 
#    0.000   20.000    0.000    0.000    0.000    0.000 
#
# Total GULP energy -89177.307643 kJ/mol
# GULP energy per Si atom -5573.581728 kJ/mol
# Density = 2.465315 g / cm^3
# Si number density = 24.709393 Si / 1000 Ang^3
#
#
#
# Elastic Constant Matrix: (Units=GPa)
#
#
# Indices 1 2 3 4 5 6 
#
# 1 67.8934 3.6819 5.3733 -3.4532 15.0365 2.9714
# 2 3.6819 136.4298 95.3663 1.2754 6.7873 3.9310
# 3 5.3733 95.3663 171.8358 -14.1063 -0.3275 13.7418
# 4 -3.4532 1.2754 -14.1063 29.5977 3.9587 5.1403
# 5 15.0365 6.7873 -0.3275 3.9587 21.6055 -0.0759
# 6 2.9714 3.9310 13.7418 5.1403 -0.0759 12.5770
#
#
#
# Elastic Compliance Matrix: (Units=1/GPa)
#
#
# Indices 1 2 3 4 5 6 
#
# 1 0.018330 0.000102 0.000345 0.005361 -0.013791 -0.007013
# 2 0.000102 0.013144 -0.008306 -0.005299 -0.003331 0.007088
# 3 0.000345 -0.008306 0.012283 0.008635 0.000923 -0.014429
# 4 0.005361 -0.005299 0.008635 0.044896 -0.010258 -0.027456
# 5 -0.013791 -0.003331 0.000923 -0.010258 0.058850 0.007838
# 6 -0.007013 0.007088 -0.014429 -0.027456 0.007838 0.105986
#
#
# Mechanical properties :
#
#
# Convention : Reuss Voigt Hill
#
# Bulk Modulus (GPa) = 35.66462 65.00025 50.33244
# Shear Modulus (GPa) = 17.94990 30.87188 24.41089
#
# Velocity S-wave (km/s) = 2.69818 3.53852 3.14653
# Velocity P-wave (km/s) = 4.91649 6.56184 5.79783
#
# Compressibility (1/GPa) = 0.02803899
#
# Stress axis : x y z
#
# Youngs Moduli (GPa) = 54.55529 76.07945 81.41280
#
# Poissons Ratio (x) = -0.00780 -0.02806
# Poissons Ratio (y) = -0.00559 0.67623
# Poissons Ratio (z) = -0.01880 0.63193
#
# Static dielectric constant tensor:
#      x y z
#    x 2.105570 0.125940 0.157400 
#    y 0.125940 2.257600 0.068110 
#    z 0.157400 0.068110 2.303480 
# 
# From -- ./inp_files/78560.got.cif
#   From: 2010.05.17/outbox.cif.g08.bks.cpg/sg2_40_cif.got.tgz:78560.got - 2010.06.03 11:33:40.
