data_PCOD9067966
_publ_section_title
;
Structure prediction by ZEFSAII (Michael W. Deem and Ramdas Pophale) SiO2 
 PCOD9067966
Probable space group: P -1
;
_chemical_formula_sum "Si O2"
_cell_formula_units_Z 12
_cell_length_a 26.397602
_cell_length_b 5.132182
_cell_length_c 11.801236
_cell_angle_alpha 126.903015
_cell_angle_beta 22.146782
_cell_angle_gamma 125.726410
_cell_volume 479.917004
_symmetry_space_group_name_H-M "P -1"
_symmetry_group_IT_number 2
_symmetry_cell_setting 'triclinic'
loop_
_space_group_symop_operation_xyz
x,y,z
-x,-y,-z
loop_
_atom_site_type_symbol
_atom_site_label
_atom_site_fract_x
_atom_site_fract_y
_atom_site_fract_z
Si Si1 0.467108 0.665637 0.410746
Si Si2 0.371964 0.406293 0.159632
Si Si3 0.136070 0.972414 0.592730
Si Si4 0.138466 0.871461 0.819088
Si Si5 0.695912 0.866103 0.250843
Si Si6 0.074873 0.355894 0.415016
O O1 0.423373 0.370371 0.508407
O O2 0.500000 0.000000 0.500000
O O3 0.347509 0.786368 0.610463
O O4 0.577103 0.567865 0.067643
O O5 0.253910 0.627254 0.497448
O O6 0.287519 0.054966 0.256180
O O7 0.500000 0.500000 0.000000
O O8 0.140073 0.035872 0.734967
O O9 0.081612 0.607788 0.571357
O O10 0.021185 0.191068 0.839239
O O11 0.196802 0.084786 0.858042
O O12 0.771453 0.694097 0.949907
O O13 0.000000 0.500000 0.500000
O O14 0.000000 0.000000 0.500000
#
# Coordination Sequence:
#
# PCOD9067966 Si02
#       6
#     2   2   2   2   2   2
#     4  12  28  47  76 108 154 204 254 318 384 460
#     4  12  26  47  77 110 156 205 257 316 388 461
#     4  11  27  47  76 114 152 205 260 323 383 465
#     4  11  26  46  76 107 157 197 262 314 391 445
#     4  12  26  49  75 110 154 197 260 317 385 454
#     4  12  27  48  79 112 153 201 254 317 387 454
#
# _framework density 25.004321999999998
#
# number of rings (size 3 to 8) (size 9 to 14) (size 15 to 20)
#    0.000    0.333    3.333    4.000    7.000    2.667 
#    0.000    0.000    0.000    0.000    0.000    0.000 
#    0.000    0.000    0.000    0.000    0.000    0.000 
#
# Total GULP energy -67115.115636 kJ/mol
# GULP energy per Si atom -5592.926303 kJ/mol
# Density = 2.494741 g / cm^3
# Si number density = 25.004322 Si / 1000 Ang^3
#
#
#
# Elastic Constant Matrix: (Units=GPa)
#
#
# Indices 1 2 3 4 5 6 
#
# 1 107.4114 36.6533 29.5956 -7.4377 -2.6404 16.1061
# 2 36.6533 98.4353 46.1216 1.8406 -5.5413 4.3686
# 3 29.5956 46.1216 164.7751 -4.2395 4.4706 6.0808
# 4 -7.4377 1.8406 -4.2395 48.0673 8.0661 5.0107
# 5 -2.6404 -5.5413 4.4706 8.0661 48.0443 1.0033
# 6 16.1061 4.3686 6.0808 5.0107 1.0033 48.0703
#
#
#
# Elastic Compliance Matrix: (Units=1/GPa)
#
#
# Indices 1 2 3 4 5 6 
#
# 1 0.011531 -0.003793 -0.000816 0.002243 -0.000028 -0.003649
# 2 -0.003793 0.013142 -0.003116 -0.001744 0.001877 0.000613
# 3 -0.000816 -0.003116 0.007158 0.000870 -0.001208 -0.000414
# 4 0.002243 -0.001744 0.000870 0.022244 -0.003832 -0.002942
# 5 -0.000028 0.001877 -0.001208 -0.003832 0.021786 -0.000064
# 6 -0.003649 0.000613 -0.000414 -0.002942 -0.000064 0.022330
#
#
# Mechanical properties :
#
#
# Convention : Reuss Voigt Hill
#
# Bulk Modulus (GPa) = 61.04483 66.15142 63.59813
# Shear Modulus (GPa) = 41.98086 46.05312 44.01699
#
# Velocity S-wave (km/s) = 4.10194 4.29628 4.20023
# Velocity P-wave (km/s) = 6.84845 7.15012 7.00091
#
# Compressibility (1/GPa) = 0.01638140
#
# Stress axis : x y z
#
# Youngs Moduli (GPa) = 86.72371 76.09096 139.70219
#
# Poissons Ratio (x) = 0.28859 0.11405
# Poissons Ratio (y) = 0.32892 0.43528
# Poissons Ratio (z) = 0.07080 0.23708
#
# Static dielectric constant tensor:
#      x y z
#    x 1.962770 0.023900 -0.088060 
#    y 0.023900 2.143020 0.040850 
#    z -0.088060 0.040850 1.936360 
# 
# From -- ./inp_files/36891.got.cif
#   From: 2010.05.17/outbox.cif.g08.bks.cpg/sg2_19_cif.got.tgz:36891.got - 2010.06.03 11:33:40.
