data_PCOD9067984
_publ_section_title
;
Structure prediction by ZEFSAII (Michael W. Deem and Ramdas Pophale) SiO2 
 PCOD9067984
Probable space group: P -1
;
_chemical_formula_sum "Si O2"
_cell_formula_units_Z 13
_cell_length_a 13.975340
_cell_length_b 13.106485
_cell_length_c 10.854489
_cell_angle_alpha 134.013496
_cell_angle_beta 135.969729
_cell_angle_gamma 22.127869
_cell_volume 517.353799
_symmetry_space_group_name_H-M "P -1"
_symmetry_group_IT_number 2
_symmetry_cell_setting 'triclinic'
loop_
_space_group_symop_operation_xyz
x,y,z
-x,-y,-z
loop_
_atom_site_type_symbol
_atom_site_label
_atom_site_fract_x
_atom_site_fract_y
_atom_site_fract_z
Si Si1 0.948182 0.888845 0.230240
Si Si2 0.500000 0.500000 0.000000
Si Si3 0.020197 0.722240 0.717900
Si Si4 0.499765 0.298065 0.345518
Si Si5 0.354932 0.129065 0.134545
Si Si6 0.276863 0.775374 0.258835
Si Si7 0.930346 0.566536 0.296776
O O1 0.228797 0.609471 0.318844
O O2 0.030325 0.913017 0.210553
O O3 0.736040 0.136566 0.337802
O O4 0.823462 0.847414 0.044970
O O5 0.693389 0.462343 0.180693
O O6 0.445064 0.520907 0.118557
O O7 0.993111 0.650585 0.753009
O O8 0.961118 0.665897 0.506021
O O9 0.829841 0.024671 0.779200
O O10 0.456923 0.167048 0.174385
O O11 0.583120 0.262713 0.532881
O O12 0.148538 0.398986 0.254753
O O13 0.626149 0.834781 0.199436
#
# Coordination Sequence:
#
# PCOD9067984 Si02
#       7
#     2   1   2   2   2   2   2
#     4  12  28  47  79 113 151 200 256 310 374 450
#     4  12  28  46  78 108 152 196 252 312 384 442
#     4  11  27  46  72 110 150 203 249 309 377 461
#     4  12  26  50  77 111 150 205 253 310 375 448
#     4  12  24  48  76 111 150 194 254 318 369 445
#     4  12  28  49  75 111 158 197 252 315 382 453
#     4  11  26  46  77 109 153 198 249 307 386 447
#
# _framework density 25.127872
#
# number of rings (size 3 to 8) (size 9 to 14) (size 15 to 20)
#    0.000    0.308    1.538    6.000    8.615    1.231 
#    0.000    0.000    0.000    0.000    0.000    0.000 
#    0.000    0.000    0.000    0.000    0.000    0.000 
#
# Total GULP energy -72570.694867 kJ/mol
# GULP energy per Si atom -5582.361144 kJ/mol
# Density = 2.507068 g / cm^3
# Si number density = 25.127872 Si / 1000 Ang^3
#
#
#
# Elastic Constant Matrix: (Units=GPa)
#
#
# Indices 1 2 3 4 5 6 
#
# 1 -91.8974 16.7712 -17.2841 -94.4857 -6.3933 -20.5485
# 2 16.7712 160.8166 52.6628 13.1894 19.1842 -24.5815
# 3 -17.2841 52.6628 84.8948 -9.8699 7.7262 -10.8868
# 4 -94.4857 13.1894 -9.8699 54.0616 12.3139 1.1667
# 5 -6.3933 19.1842 7.7262 12.3139 49.0397 8.2345
# 6 -20.5485 -24.5815 -10.8868 1.1667 8.2345 49.7490
#
#
#
# Elastic Compliance Matrix: (Units=1/GPa)
#
#
# Indices 1 2 3 4 5 6 
#
# 1 -0.003171 0.001352 -0.002536 -0.006611 0.001329 -0.001262
# 2 0.001352 0.008460 -0.004089 0.000204 -0.003276 0.004381
# 3 -0.002536 -0.004089 0.013790 -0.000752 -0.000729 0.000088
# 4 -0.006611 0.000204 -0.000752 0.007319 -0.002225 -0.002598
# 5 0.001329 -0.003276 -0.000729 -0.002225 0.023367 -0.005045
# 6 -0.001262 0.004381 0.000088 -0.002598 -0.005045 0.022660
#
#
# Mechanical properties :
#
#
# Convention : Reuss Voigt Hill
#
# Bulk Modulus (GPa) = 117.19368 28.67932 72.93650
# Shear Modulus (GPa) = 58.26487 37.34764 47.80625
#
# Velocity S-wave (km/s) = 4.82055 3.85944 4.36652
# Velocity P-wave (km/s) = 8.81611 5.59451 7.38317
#
# Compressibility (1/GPa) = 0.00853288
#
# Stress axis : x y z
#
# Youngs Moduli (GPa) = -315.32534 118.20124 72.51644
#
# Poissons Ratio (x) = -0.15979 0.18387
# Poissons Ratio (y) = 0.42627 0.29653
# Poissons Ratio (z) = -0.79954 0.48335
#
# Static dielectric constant tensor:
#      x y z
#    x 1.942610 0.180240 0.133680 
#    y 0.180240 1.604630 -0.494500 
#    z 0.133680 -0.494500 1.279490 
# 
# From -- ./inp_files/366606.got.cif
#   From: 2010.05.17/outbox.cif.g08.bks.cpg/sg2_184_cif.got.tgz:366606.got - 2010.06.03 11:33:40.
