data_PCOD9067014
_publ_section_title
;
Structure prediction by ZEFSAII (Michael W. Deem and Ramdas Pophale) SiO2 
 PCOD9067014
Probable space group: P -1
;
_chemical_formula_sum "Si O2"
_cell_formula_units_Z 14
_cell_length_a 15.669234
_cell_length_b 24.000370
_cell_length_c 14.661364
_cell_angle_alpha 159.446770
_cell_angle_beta 29.062497
_cell_angle_gamma 161.750306
_cell_volume 600.398796
_symmetry_space_group_name_H-M "P -1"
_symmetry_group_IT_number 2
_symmetry_cell_setting 'triclinic'
loop_
_space_group_symop_operation_xyz
x,y,z
-x,-y,-z
loop_
_atom_site_type_symbol
_atom_site_label
_atom_site_fract_x
_atom_site_fract_y
_atom_site_fract_z
Si Si1 0.714285 0.022202 0.297195
Si Si2 0.549982 0.920070 0.085276
Si Si3 0.393089 0.495184 0.789127
Si Si4 0.130276 0.901871 0.424633
Si Si5 0.198742 0.383868 0.531842
Si Si6 0.091373 0.380469 0.211099
Si Si7 0.382931 0.365147 0.787721
O O1 0.684963 0.998056 0.178471
O O2 0.500000 0.000000 0.500000
O O3 0.601136 0.774070 0.056163
O O4 0.006569 0.265214 0.440235
O O5 0.397115 0.981708 0.314601
O O6 0.315056 0.628023 0.837670
O O7 0.800439 0.087336 0.036917
O O8 0.536765 0.524988 0.611142
O O9 0.354948 0.343378 0.672541
O O10 0.095262 0.346957 0.807852
O O11 0.987013 0.829241 0.544701
O O12 0.213187 0.115053 0.618389
O O13 0.302547 0.456139 0.204938
O O14 0.000000 0.500000 0.500000
O O15 0.260787 0.449046 0.066820
#
# Coordination Sequence:
#
# PCOD9067014 Si02
#       7
#     2   2   2   2   2   2   2
#     4  12  26  43  74 106 148 189 248 312 368 443
#     4  12  25  49  76 112 147 197 259 308 379 448
#     4  12  27  47  70 111 153 198 249 311 378 449
#     4  12  24  47  75 106 152 198 244 315 377 444
#     4  12  26  47  74 110 148 195 251 309 380 444
#     4  11  25  47  75 108 148 204 250 307 375 450
#     4  11  27  47  74 109 154 198 254 308 376 451
#
# _framework density 23.317834000000001
#
# number of rings (size 3 to 8) (size 9 to 14) (size 15 to 20)
#    0.000    0.286    4.286    4.286    8.000    0.000 
#    2.571    1.429    0.000    0.000    0.000    0.000 
#    0.000    0.000    0.000    0.000    0.000    0.000 
#
# Total GULP energy -78316.847946 kJ/mol
# GULP energy per Si atom -5594.060568 kJ/mol
# Density = 2.326476 g / cm^3
# Si number density = 23.317834 Si / 1000 Ang^3
#
#
#
# Elastic Constant Matrix: (Units=GPa)
#
#
# Indices 1 2 3 4 5 6 
#
# 1 115.0312 54.1536 20.8341 -0.1588 7.0765 3.9409
# 2 54.1536 139.9170 32.5031 -9.7450 -6.2786 9.0676
# 3 20.8341 32.5031 91.6019 -3.7766 -5.3686 -6.4078
# 4 -0.1588 -9.7450 -3.7766 34.1597 12.0693 6.8909
# 5 7.0765 -6.2786 -5.3686 12.0693 33.0913 9.1905
# 6 3.9409 9.0676 -6.4078 6.8909 9.1905 48.3525
#
#
#
# Elastic Compliance Matrix: (Units=1/GPa)
#
#
# Indices 1 2 3 4 5 6 
#
# 1 0.011086 -0.004199 -0.001210 -0.000152 -0.003418 0.000395
# 2 -0.004199 0.009766 -0.002466 0.002214 0.002254 -0.002560
# 3 -0.001210 -0.002466 0.012273 -0.000213 0.001313 0.001968
# 4 -0.000152 0.002214 -0.000213 0.034514 -0.011280 -0.003206
# 5 -0.003418 0.002254 0.001313 -0.011280 0.037215 -0.005436
# 6 0.000395 -0.002560 0.001968 -0.003206 -0.005436 0.022880
#
#
# Mechanical properties :
#
#
# Convention : Reuss Voigt Hill
#
# Bulk Modulus (GPa) = 57.55652 62.39241 59.97447
# Shear Modulus (GPa) = 33.49485 39.05800 36.27642
#
# Velocity S-wave (km/s) = 3.79416 4.09715 3.94856
# Velocity P-wave (km/s) = 6.62807 7.01410 6.82382
#
# Compressibility (1/GPa) = 0.01737423
#
# Stress axis : x y z
#
# Youngs Moduli (GPa) = 90.20501 102.39141 81.47974
#
# Poissons Ratio (x) = 0.42995 0.09862
# Poissons Ratio (y) = 0.37878 0.20093
# Poissons Ratio (z) = 0.10918 0.25250
#
# Static dielectric constant tensor:
#      x y z
#    x 1.909550 0.019090 -0.000220 
#    y 0.019090 1.869920 0.041860 
#    z -0.000220 0.041860 1.968220 
# 
# From -- ./inp_files/535438.got.cif
#   From: 2010.05.17/outbox.cif.g08.bks.cpg/sg2_268_cif.got.tgz:535438.got - 2010.06.03 11:33:40.
