data_PCOD9067894
_publ_section_title
;
Structure prediction by ZEFSAII (Michael W. Deem and Ramdas Pophale) SiO2 
 PCOD9067894
Probable space group: P -1
;
_chemical_formula_sum "Si O2"
_cell_formula_units_Z 13
_cell_length_a 5.374083
_cell_length_b 13.762883
_cell_length_c 17.329877
_cell_angle_alpha 31.250860
_cell_angle_beta 80.278738
_cell_angle_gamma 97.956791
_cell_volume 546.069194
_symmetry_space_group_name_H-M "P -1"
_symmetry_group_IT_number 2
_symmetry_cell_setting 'triclinic'
loop_
_space_group_symop_operation_xyz
x,y,z
-x,-y,-z
loop_
_atom_site_type_symbol
_atom_site_label
_atom_site_fract_x
_atom_site_fract_y
_atom_site_fract_z
Si Si1 0.108660 0.720964 0.236495
Si Si2 0.667139 0.002000 0.110816
Si Si3 0.812882 0.302079 0.201562
Si Si4 0.500000 0.500000 0.500000
Si Si5 0.419663 0.058101 0.674648
Si Si6 0.148800 0.329443 0.452096
Si Si7 0.226510 0.264663 0.319070
O O1 0.341823 0.923461 0.143262
O O2 0.247578 0.573282 0.309000
O O3 0.808223 0.538244 0.421964
O O4 0.097658 0.824519 0.083846
O O5 0.640128 0.767414 0.282286
O O6 0.702169 0.082296 0.143514
O O7 0.539088 0.314384 0.237618
O O8 0.048522 0.345863 0.225389
O O9 0.694199 0.079581 0.306533
O O10 0.000000 0.500000 0.000000
O O11 0.300627 0.225661 0.564318
O O12 0.782539 0.176838 0.575629
O O13 0.257374 0.340889 0.352566
O O14 0.000000 0.000000 0.500000
#
# Coordination Sequence:
#
# PCOD9067894 Si02
#       7
#     2   2   2   1   2   2   2
#     4  11  27  47  71 110 143 193 247 300 367 439
#     4  11  26  46  72 105 149 187 245 301 364 440
#     4  12  26  46  70 109 149 193 240 308 359 430
#     4  12  22  48  76 100 146 194 236 306 366 432
#     4  12  25  46  74 105 146 196 240 297 378 432
#     4  12  26  46  76 107 141 196 247 301 368 438
#     4  12  23  47  74 102 143 191 250 293 360 436
#
# _framework density 23.806505999999999
#
# number of rings (size 3 to 8) (size 9 to 14) (size 15 to 20)
#    0.000    0.308    4.615    3.692    4.308    0.000 
#    0.000    0.000    0.000    0.000    0.000    0.000 
#    0.000    0.000    0.000    0.000    0.000    0.000 
#
# Total GULP energy -72472.131867 kJ/mol
# GULP energy per Si atom -5574.779374 kJ/mol
# Density = 2.375232 g / cm^3
# Si number density = 23.806506 Si / 1000 Ang^3
#
#
#
# Elastic Constant Matrix: (Units=GPa)
#
#
# Indices 1 2 3 4 5 6 
#
# 1 154.4985 36.9484 64.3554 24.0776 5.7633 -2.1720
# 2 36.9484 97.0205 35.9542 31.1441 14.0069 7.6989
# 3 64.3554 35.9542 108.1395 32.3775 2.8227 -14.8624
# 4 24.0776 31.1441 32.3775 44.7259 3.0817 4.9649
# 5 5.7633 14.0069 2.8227 3.0817 53.8726 3.4720
# 6 -2.1720 7.6989 -14.8624 4.9649 3.4720 49.2135
#
#
#
# Elastic Compliance Matrix: (Units=1/GPa)
#
#
# Indices 1 2 3 4 5 6 
#
# 1 0.008859 -0.001421 -0.004860 -0.000152 -0.000262 -0.000821
# 2 -0.001421 0.014576 -0.001925 -0.007570 -0.002978 -0.001950
# 3 -0.004860 -0.001925 0.016055 -0.008325 0.000284 0.005755
# 4 -0.000152 -0.007570 -0.008325 0.034222 0.000775 -0.004844
# 5 -0.000262 -0.002978 0.000284 0.000775 0.019364 -0.000904
# 6 -0.000821 -0.001950 0.005755 -0.004844 -0.000904 0.022879
#
#
# Mechanical properties :
#
#
# Convention : Reuss Voigt Hill
#
# Bulk Modulus (GPa) = 43.32790 70.46382 56.89586
# Shear Modulus (GPa) = 35.69926 44.38909 40.04418
#
# Velocity S-wave (km/s) = 3.87662 4.32276 4.10575
# Velocity P-wave (km/s) = 6.18685 7.38768 6.81377
#
# Compressibility (1/GPa) = 0.02307982
#
# Stress axis : x y z
#
# Youngs Moduli (GPa) = 112.88375 68.60516 62.28450
#
# Poissons Ratio (x) = 0.09748 0.30269
# Poissons Ratio (y) = 0.16039 0.11987
# Poissons Ratio (z) = 0.54860 0.13203
#
# Static dielectric constant tensor:
#      x y z
#    x 1.941990 0.040090 0.047000 
#    y 0.040090 2.133960 -0.063330 
#    z 0.047000 -0.063330 1.960970 
# 
# From -- ./inp_files/549922.got.cif
#   From: 2010.05.17/outbox.cif.g08.bks.cpg/sg2_275_cif.got.tgz:549922.got - 2010.06.03 11:33:40.
