data_PCOD9067721
_publ_section_title
;
Structure prediction by ZEFSAII (Michael W. Deem and Ramdas Pophale) SiO2 
 PCOD9067721
Probable space group: P -1
;
_chemical_formula_sum "Si O2"
_cell_formula_units_Z 12
_cell_length_a 5.180687
_cell_length_b 5.336304
_cell_length_c 18.500485
_cell_angle_alpha 99.190151
_cell_angle_beta 103.839823
_cell_angle_gamma 78.563596
_cell_volume 483.351145
_symmetry_space_group_name_H-M "P -1"
_symmetry_group_IT_number 2
_symmetry_cell_setting 'triclinic'
loop_
_space_group_symop_operation_xyz
x,y,z
-x,-y,-z
loop_
_atom_site_type_symbol
_atom_site_label
_atom_site_fract_x
_atom_site_fract_y
_atom_site_fract_z
Si Si1 0.636033 0.352279 0.711720
Si Si2 0.504795 0.775250 0.049052
Si Si3 0.914017 0.306935 0.259054
Si Si4 0.709862 0.710255 0.441851
Si Si5 0.991755 0.869749 0.588921
Si Si6 0.046770 0.900340 0.142945
O O1 0.366961 0.517561 0.734622
O O2 0.544218 0.232663 0.625969
O O3 0.764089 0.187576 0.780089
O O4 0.845261 0.534140 0.712828
O O5 0.243690 0.859332 0.086052
O O6 0.789251 0.761431 0.109188
O O7 0.500000 0.500000 0.000000
O O8 0.500000 0.000000 0.000000
O O9 0.966476 0.112734 0.321726
O O10 0.918216 0.184994 0.174286
O O11 0.720905 0.798508 0.529907
O O12 0.807661 0.401647 0.429862
O O13 0.919400 0.877347 0.427809
#
# Coordination Sequence:
#
# PCOD9067721 Si02
#       6
#     2   2   2   2   2   2
#     4  11  26  44  73 108 149 196 247 305 366 426
#     4  12  30  54  82 112 149 192 237 296 370 454
#     4  11  26  44  73 108 149 196 247 305 366 426
#     4   9  20  40  66  99 145 197 250 303 357 421
#     4   9  20  40  66  99 145 197 250 303 357 421
#     4  12  28  48  81 110 150 190 242 300 369 440
#
# _framework density 24.826671999999999
#
# number of rings (size 3 to 8) (size 9 to 14) (size 15 to 20)
#    0.000    1.333    0.000    3.000   18.667    0.667 
#    0.000    0.833    0.000    0.000    0.000    0.000 
#    0.000    0.000    0.000    0.000    0.000    0.000 
#
# Total GULP energy -67149.243209 kJ/mol
# GULP energy per Si atom -5595.770267 kJ/mol
# Density = 2.477017 g / cm^3
# Si number density = 24.826672 Si / 1000 Ang^3
#
#
#
# Elastic Constant Matrix: (Units=GPa)
#
#
# Indices 1 2 3 4 5 6 
#
# 1 149.6644 31.8435 43.0223 36.3947 -2.1542 -7.0605
# 2 31.8435 112.8579 51.6565 12.4910 -14.4220 0.8962
# 3 43.0223 51.6565 123.8602 53.2836 -0.2604 -11.1698
# 4 36.3947 12.4910 53.2836 62.8790 -1.9800 7.1663
# 5 -2.1542 -14.4220 -0.2604 -1.9800 60.0267 1.0513
# 6 -7.0605 0.8962 -11.1698 7.1663 1.0513 40.4113
#
#
#
# Elastic Compliance Matrix: (Units=1/GPa)
#
#
# Indices 1 2 3 4 5 6 
#
# 1 0.008346 -0.002015 0.000311 -0.004989 -0.000391 0.002484
# 2 -0.002015 0.012518 -0.007061 0.005170 0.003138 -0.003580
# 3 0.000311 -0.007061 0.018126 -0.015115 -0.002245 0.007960
# 4 -0.004989 0.005170 -0.015115 0.031883 0.002240 -0.010876
# 5 -0.000391 0.003138 -0.002245 0.002240 0.017491 -0.001611
# 6 0.002484 -0.003580 0.007960 -0.010876 -0.001611 0.029430
#
#
# Mechanical properties :
#
#
# Convention : Reuss Voigt Hill
#
# Bulk Modulus (GPa) = 46.59871 71.04745 58.82308
# Shear Modulus (GPa) = 35.09322 49.98743 42.54032
#
# Velocity S-wave (km/s) = 3.76377 4.49202 4.14393
# Velocity P-wave (km/s) = 6.13990 7.45546 6.82943
#
# Compressibility (1/GPa) = 0.02145982
#
# Stress axis : x y z
#
# Youngs Moduli (GPa) = 119.82288 79.88226 55.16899
#
# Poissons Ratio (x) = 0.16093 -0.01714
# Poissons Ratio (y) = 0.24139 0.38957
# Poissons Ratio (z) = -0.03723 0.56408
#
# Static dielectric constant tensor:
#      x y z
#    x 1.945780 -0.109370 0.016190 
#    y -0.109370 2.065470 -0.051950 
#    z 0.016190 -0.051950 2.016680 
# 
# From -- ./inp_files/545763.got.cif
#   From: 2010.05.17/outbox.cif.g08.bks.cpg/sg2_273_cif.got.tgz:545763.got - 2010.06.03 11:33:40.
