data_PCOD9067416
_publ_section_title
;
Structure prediction by ZEFSAII (Michael W. Deem and Ramdas Pophale) SiO2 
 PCOD9067416
Probable space group: P -1
;
_chemical_formula_sum "Si O2"
_cell_formula_units_Z 14
_cell_length_a 8.001691
_cell_length_b 12.344530
_cell_length_c 14.476680
_cell_angle_alpha 137.275338
_cell_angle_beta 140.975518
_cell_angle_gamma 70.116279
_cell_volume 514.245495
_symmetry_space_group_name_H-M "P -1"
_symmetry_group_IT_number 2
_symmetry_cell_setting 'triclinic'
loop_
_space_group_symop_operation_xyz
x,y,z
-x,-y,-z
loop_
_atom_site_type_symbol
_atom_site_label
_atom_site_fract_x
_atom_site_fract_y
_atom_site_fract_z
Si Si1 0.043524 0.498282 0.910019
Si Si2 0.118116 0.459521 0.390110
Si Si3 0.235872 0.343815 0.705862
Si Si4 0.939301 0.178201 0.990804
Si Si5 0.934165 0.000197 0.692318
Si Si6 0.415272 0.790044 0.855841
Si Si7 0.740351 0.098343 0.483960
O O1 0.386008 0.536524 0.054255
O O2 0.036039 0.669599 0.974231
O O3 0.000000 0.500000 0.000000
O O4 0.760946 0.295478 0.628275
O O5 0.911873 0.528584 0.290767
O O6 0.903845 0.329701 0.300489
O O7 0.391945 0.657879 0.677311
O O8 0.159786 0.315590 0.254259
O O9 0.048564 0.180096 0.601810
O O10 0.148801 0.210000 0.494707
O O11 0.931295 0.030991 0.820959
O O12 0.581051 0.056840 0.800453
O O13 0.743774 0.031435 0.548797
O O14 0.292923 0.165863 0.927186
O O15 0.500000 0.000000 0.000000
#
# Coordination Sequence:
#
# PCOD9067416 Si02
#       7
#     2   2   2   2   2   2   2
#     4  12  24  40  65 105 149 179 219 280 353 418
#     4  11  26  46  72 103 131 182 241 281 340 411
#     4  12  24  42  73 106 138 184 230 281 346 415
#     4  12  26  43  67 106 145 181 223 287 354 414
#     4  12  24  43  71 100 143 185 224 289 348 401
#     4  11  25  49  75  97 131 182 242 294 331 405
#     4  12  24  42  69 109 143 182 228 279 344 424
#
# _framework density 27.224352
#
# number of rings (size 3 to 8) (size 9 to 14) (size 15 to 20)
#    0.000    0.286    5.714    3.857    2.000    0.571 
#    0.000    0.714    0.000    0.000    0.000    0.000 
#    0.000    0.000    0.000    0.000    0.000    0.000 
#
# Total GULP energy -78251.583862 kJ/mol
# GULP energy per Si atom -5589.398847 kJ/mol
# Density = 2.716239 g / cm^3
# Si number density = 27.224352 Si / 1000 Ang^3
#
#
#
# Elastic Constant Matrix: (Units=GPa)
#
#
# Indices 1 2 3 4 5 6 
#
# 1 126.6911 12.2786 17.7052 19.0236 -32.8195 18.5892
# 2 12.2786 77.3889 15.1489 11.9266 4.0149 15.1055
# 3 17.7052 15.1489 191.4836 17.4526 -22.0815 3.2150
# 4 19.0236 11.9266 17.4526 36.3006 -3.3903 1.9608
# 5 -32.8195 4.0149 -22.0815 -3.3903 50.7046 5.0101
# 6 18.5892 15.1055 3.2150 1.9608 5.0101 31.8512
#
#
#
# Elastic Compliance Matrix: (Units=1/GPa)
#
#
# Indices 1 2 3 4 5 6 
#
# 1 0.011975 -0.000054 0.000481 -0.005272 0.008404 -0.008009
# 2 -0.000054 0.015105 -0.000830 -0.004294 -0.001228 -0.006590
# 3 0.000481 -0.000830 0.005806 -0.002467 0.002816 -0.000765
# 4 -0.005272 -0.004294 -0.002467 0.032487 -0.002343 0.003731
# 5 0.008404 -0.001228 0.002816 -0.002343 0.027192 -0.008739
# 6 -0.008009 -0.006590 -0.000765 0.003731 -0.008739 0.040418
#
#
# Mechanical properties :
#
#
# Convention : Reuss Voigt Hill
#
# Bulk Modulus (GPa) = 31.17236 53.98098 42.57667
# Shear Modulus (GPa) = 34.60654 47.13335 40.86995
#
# Velocity S-wave (km/s) = 3.56920 4.16540 3.87877
# Velocity P-wave (km/s) = 5.33485 6.55784 5.97771
#
# Compressibility (1/GPa) = 0.03207970
#
# Stress axis : x y z
#
# Youngs Moduli (GPa) = 83.50744 66.20490 172.23750
#
# Poissons Ratio (x) = 0.00360 -0.08287
# Poissons Ratio (y) = 0.00455 0.14289
# Poissons Ratio (z) = -0.04018 0.05492
#
# Static dielectric constant tensor:
#      x y z
#    x 2.347200 -0.068810 -0.044290 
#    y -0.068810 2.097940 -0.086050 
#    z -0.044290 -0.086050 2.194010 
# 
# From -- ./inp_files/502226.got.cif
#   From: 2010.05.17/outbox.cif.g08.bks.cpg/sg2_252_cif.got.tgz:502226.got - 2010.06.03 11:33:40.
