data_PCOD9067119
_publ_section_title
;
Structure prediction by ZEFSAII (Michael W. Deem and Ramdas Pophale) SiO2 
 PCOD9067119
Probable space group: P -1
;
_chemical_formula_sum "Si O2"
_cell_formula_units_Z 13
_cell_length_a 15.391119
_cell_length_b 5.962231
_cell_length_c 8.638887
_cell_angle_alpha 78.359631
_cell_angle_beta 49.171208
_cell_angle_gamma 94.194804
_cell_volume 564.572667
_symmetry_space_group_name_H-M "P -1"
_symmetry_group_IT_number 2
_symmetry_cell_setting 'triclinic'
loop_
_space_group_symop_operation_xyz
x,y,z
-x,-y,-z
loop_
_atom_site_type_symbol
_atom_site_label
_atom_site_fract_x
_atom_site_fract_y
_atom_site_fract_z
Si Si1 0.863440 0.602903 0.471750
Si Si2 0.555947 0.691176 0.040038
Si Si3 0.780613 0.936098 0.279932
Si Si4 0.335476 0.830198 0.344658
Si Si5 0.929028 0.410310 0.940855
Si Si6 0.230343 0.261392 0.994574
Si Si7 0.000000 0.000000 0.500000
O O1 0.823866 0.743713 0.355520
O O2 0.755565 0.362330 0.632056
O O3 0.977111 0.504748 0.317367
O O4 0.910724 0.800467 0.518569
O O5 0.445956 0.723558 0.265950
O O6 0.500000 0.500000 0.000000
O O7 0.663067 0.648558 0.020695
O O8 0.614231 0.935619 0.848134
O O9 0.721584 0.083411 0.448832
O O10 0.716130 0.821411 0.213806
O O11 0.890710 0.131215 0.049958
O O12 0.821064 0.520345 0.024569
O O13 0.000000 0.500000 0.000000
O O14 0.114128 0.063342 0.228064
#
# Coordination Sequence:
#
# PCOD9067119 Si02
#       7
#     2   2   2   2   2   2   1
#     4  12  25  46  72 109 149 192 242 298 364 435
#     4  11  27  53  73 105 148 191 248 308 356 432
#     4  12  23  45  71 108 145 190 241 300 358 431
#     4  11  25  47  81  99 141 204 240 297 373 420
#     4  12  23  42  73 107 151 192 231 296 370 435
#     4  12  27  43  72 111 144 188 247 298 364 436
#     4  12  26  42  68 106 150 188 230 304 358 432
#
# _framework density 23.026268999999999
#
# number of rings (size 3 to 8) (size 9 to 14) (size 15 to 20)
#    0.000    0.308    4.615    4.154    2.154    4.923 
#    2.769    5.385    0.000    0.000    0.000    0.000 
#    0.000    0.000    0.000    0.000    0.000    0.000 
#
# Total GULP energy -72378.969178 kJ/mol
# GULP energy per Si atom -5567.613014 kJ/mol
# Density = 2.297386 g / cm^3
# Si number density = 23.026269 Si / 1000 Ang^3
#
#
#
# Elastic Constant Matrix: (Units=GPa)
#
#
# Indices 1 2 3 4 5 6 
#
# 1 153.2719 79.1447 35.9784 7.9183 -3.6701 24.4796
# 2 79.1447 117.7430 43.7842 -3.6565 -7.1441 41.3747
# 3 35.9784 43.7842 84.2225 16.7244 -9.0013 23.0513
# 4 7.9183 -3.6565 16.7244 58.9173 6.5389 -0.8431
# 5 -3.6701 -7.1441 -9.0013 6.5389 27.3949 9.2630
# 6 24.4796 41.3747 23.0513 -0.8431 9.2630 47.6460
#
#
#
# Elastic Compliance Matrix: (Units=1/GPa)
#
#
# Indices 1 2 3 4 5 6 
#
# 1 0.010265 -0.007245 -0.000880 -0.001445 -0.001004 0.001613
# 2 -0.007245 0.019662 -0.003205 0.002135 0.007034 -0.013131
# 3 -0.000880 -0.003205 0.018177 -0.006351 0.009047 -0.007430
# 4 -0.001445 0.002135 -0.006351 0.020023 -0.007798 0.003831
# 5 -0.001004 0.007034 0.009047 -0.007798 0.049723 -0.019774
# 6 0.001613 -0.013131 -0.007430 0.003831 -0.019774 0.039069
#
#
# Mechanical properties :
#
#
# Convention : Reuss Voigt Hill
#
# Bulk Modulus (GPa) = 39.30357 74.78354 57.04355
# Shear Modulus (GPa) = 26.58699 39.88030 33.23365
#
# Velocity S-wave (km/s) = 3.40168 4.16618 3.80319
# Velocity P-wave (km/s) = 5.70392 7.46262 6.64174
#
# Compressibility (1/GPa) = 0.02544298
#
# Stress axis : x y z
#
# Youngs Moduli (GPa) = 97.41586 50.85835 55.01428
#
# Poissons Ratio (x) = 0.36849 0.04844
# Poissons Ratio (y) = 0.70582 0.17632
# Poissons Ratio (z) = 0.08577 0.16300
#
# Static dielectric constant tensor:
#      x y z
#    x 1.842020 -0.002260 0.024380 
#    y -0.002260 1.925960 0.024400 
#    z 0.024380 0.024400 1.957990 
# 
# From -- ./inp_files/34727.got.cif
#   From: 2010.05.17/outbox.cif.g08.bks.cpg/sg2_18_cif.got.tgz:34727.got - 2010.06.03 11:33:40.
