data_PCOD9067195
_publ_section_title
;
Structure prediction by ZEFSAII (Michael W. Deem and Ramdas Pophale) SiO2 
 PCOD9067195
Probable space group: P -1
;
_chemical_formula_sum "Si O2"
_cell_formula_units_Z 13
_cell_length_a 13.386113
_cell_length_b 9.484208
_cell_length_c 7.839551
_cell_angle_alpha 31.866196
_cell_angle_beta 116.040845
_cell_angle_gamma 116.741779
_cell_volume 465.822318
_symmetry_space_group_name_H-M "P -1"
_symmetry_group_IT_number 2
_symmetry_cell_setting 'triclinic'
loop_
_space_group_symop_operation_xyz
x,y,z
-x,-y,-z
loop_
_atom_site_type_symbol
_atom_site_label
_atom_site_fract_x
_atom_site_fract_y
_atom_site_fract_z
Si Si1 0.761452 0.609438 0.833337
Si Si2 0.989738 0.691451 0.463184
Si Si3 0.815799 0.822833 0.994229
Si Si4 0.493853 0.513032 0.277864
Si Si5 0.000000 0.000000 0.500000
Si Si6 0.811333 0.136898 0.120726
Si Si7 0.370479 0.932776 0.244040
O O1 0.801369 0.600130 0.064486
O O2 0.630127 0.627725 0.719319
O O3 0.832452 0.880417 0.522648
O O4 0.773562 0.358948 0.984199
O O5 0.000000 0.500000 0.500000
O O6 0.004797 0.748048 0.619616
O O7 0.854167 0.702920 0.322279
O O8 0.085128 0.941245 0.220769
O O9 0.705811 0.966183 0.772188
O O10 0.500000 0.500000 0.500000
O O11 0.585483 0.351366 0.428226
O O12 0.522495 0.829362 0.932043
O O13 0.939987 0.185721 0.108301
O O14 0.711661 0.067164 0.982504
#
# Coordination Sequence:
#
# PCOD9067195 Si02
#       7
#     2   2   2   2   1   2   2
#     4  12  26  45  73 101 148 188 239 309 367 427
#     4  11  25  48  73 106 151 194 248 306 369 457
#     4  11  27  45  65 108 149 187 242 304 375 436
#     4  12  24  44  74 106 138 187 257 303 360 439
#     4  12  24  46  78 112 142 200 250 298 374 454
#     4  12  24  44  71 109 139 189 245 298 365 446
#     4  12  25  44  74 103 145 190 238 311 367 432
#
# _framework density 27.907634999999999
#
# number of rings (size 3 to 8) (size 9 to 14) (size 15 to 20)
#    0.000    0.308    6.154    2.308    2.154    3.077 
#    0.000    0.000    0.000    0.000    0.000    0.000 
#    0.000    0.000    0.000    0.000    0.000    0.000 
#
# Total GULP energy -72568.560078 kJ/mol
# GULP energy per Si atom -5582.196929 kJ/mol
# Density = 2.784412 g / cm^3
# Si number density = 27.907635 Si / 1000 Ang^3
#
#
#
# Elastic Constant Matrix: (Units=GPa)
#
#
# Indices 1 2 3 4 5 6 
#
# 1 111.9036 46.9718 14.0280 -10.0512 17.2378 -2.6079
# 2 46.9718 208.2867 35.5181 -9.0741 -0.9677 -15.8515
# 3 14.0280 35.5181 61.7931 -24.2259 20.6154 -10.3833
# 4 -10.0512 -9.0741 -24.2259 50.8321 -0.3505 13.1388
# 5 17.2378 -0.9677 20.6154 -0.3505 42.6726 -1.8836
# 6 -2.6079 -15.8515 -10.3833 13.1388 -1.8836 42.9286
#
#
#
# Elastic Compliance Matrix: (Units=1/GPa)
#
#
# Indices 1 2 3 4 5 6 
#
# 1 0.010914 -0.002749 0.001801 0.002745 -0.005362 -0.000992
# 2 -0.002749 0.006287 -0.004710 -0.002112 0.003592 0.001819
# 3 0.001801 -0.004710 0.028425 0.012782 -0.014431 0.000700
# 4 0.002745 -0.002112 0.012782 0.027497 -0.007382 -0.006261
# 5 -0.005362 0.003592 -0.014431 -0.007382 0.032646 0.001202
# 6 -0.000992 0.001819 0.000700 -0.006261 0.001202 0.026044
#
#
# Mechanical properties :
#
#
# Convention : Reuss Voigt Hill
#
# Bulk Modulus (GPa) = 29.14654 63.89101 46.51878
# Shear Modulus (GPa) = 32.34852 46.31771 39.33311
#
# Velocity S-wave (km/s) = 3.40829 4.07834 3.75827
# Velocity P-wave (km/s) = 5.09462 6.71718 5.96136
#
# Compressibility (1/GPa) = 0.03430939
#
# Stress axis : x y z
#
# Youngs Moduli (GPa) = 91.62579 159.04781 35.18089
#
# Poissons Ratio (x) = 0.43726 -0.06337
# Poissons Ratio (y) = 0.25190 0.16571
# Poissons Ratio (z) = -0.16503 0.74915
#
# Static dielectric constant tensor:
#      x y z
#    x 2.779080 0.157190 -0.077600 
#    y 0.157190 2.226000 0.056650 
#    z -0.077600 0.056650 2.502400 
# 
# From -- ./inp_files/23974.got.cif
#   From: 2010.05.17/outbox.cif.g08.bks.cpg/sg2_12_cif.got.tgz:23974.got - 2010.06.03 11:33:40.
