data_PCOD9067765
_publ_section_title
;
Structure prediction by ZEFSAII (Michael W. Deem and Ramdas Pophale) SiO2 
 PCOD9067765
Probable space group: P -1
;
_chemical_formula_sum "Si O2"
_cell_formula_units_Z 16
_cell_length_a 10.985941
_cell_length_b 9.591639
_cell_length_c 9.396925
_cell_angle_alpha 116.755021
_cell_angle_beta 111.046027
_cell_angle_gamma 108.820354
_cell_volume 671.572078
_symmetry_space_group_name_H-M "P -1"
_symmetry_group_IT_number 2
_symmetry_cell_setting 'triclinic'
loop_
_space_group_symop_operation_xyz
x,y,z
-x,-y,-z
loop_
_atom_site_type_symbol
_atom_site_label
_atom_site_fract_x
_atom_site_fract_y
_atom_site_fract_z
Si Si1 0.406178 0.933752 0.079615
Si Si2 0.902740 0.591468 0.531743
Si Si3 0.883424 0.963421 0.203461
Si Si4 0.058324 0.627294 0.873273
Si Si5 0.678891 0.783521 0.772609
Si Si6 0.386483 0.422790 0.632475
Si Si7 0.928199 0.216158 0.738769
Si Si8 0.635700 0.864581 0.290136
O O1 0.484593 0.863990 0.186405
O O2 0.408882 0.110506 0.223813
O O3 0.218777 0.763903 0.912259
O O4 0.500000 0.000000 0.000000
O O5 0.724304 0.501162 0.359147
O O6 0.000000 0.500000 0.500000
O O7 0.909821 0.596260 0.709595
O O8 0.005381 0.809649 0.621545
O O9 0.722846 0.881446 0.187469
O O10 0.968317 0.868698 0.253134
O O11 0.834739 0.912304 0.994819
O O12 0.018127 0.418989 0.789082
O O13 0.088748 0.733964 0.084284
O O14 0.558274 0.586780 0.717003
O O15 0.703425 0.736376 0.603759
O O16 0.399504 0.318177 0.723354
O O17 0.760887 0.055671 0.521319
#
# Coordination Sequence:
#
# PCOD9067765 Si02
#       8
#     2   2   2   2   2   2   2   2
#     4  12  26  47  71 103 144 188 239 289 360 425
#     4  12  26  44  73 102 140 186 237 296 353 421
#     4  12  25  46  73 100 143 186 237 294 358 423
#     4  11  26  45  71 104 142 192 232 298 356 423
#     4  11  26  48  70 100 145 193 232 288 354 435
#     4  11  28  45  71 106 141 186 240 290 357 420
#     4  11  26  45  71 106 143 181 243 292 359 427
#     4  12  26  45  71 106 139 187 234 302 348 422
#
# _framework density 23.824694000000001
#
# number of rings (size 3 to 8) (size 9 to 14) (size 15 to 20)
#    0.000    0.500    3.750    2.625    8.750    3.500 
#    0.000    0.000    0.000    0.000    0.000    0.000 
#    0.000    0.000    0.000    0.000    0.000    0.000 
#
# Total GULP energy -89675.923526 kJ/mol
# GULP energy per Si atom -5604.745220 kJ/mol
# Density = 2.377047 g / cm^3
# Si number density = 23.824694 Si / 1000 Ang^3
#
#
#
# Elastic Constant Matrix: (Units=GPa)
#
#
# Indices 1 2 3 4 5 6 
#
# 1 65.4090 36.1553 -0.1539 -0.5964 -2.5734 -20.7828
# 2 36.1553 130.3197 -1.8766 -3.4111 -0.1022 -15.0426
# 3 -0.1539 -1.8766 69.4669 -5.9566 -2.7712 -16.3294
# 4 -0.5964 -3.4111 -5.9566 34.7018 -6.9918 2.6356
# 5 -2.5734 -0.1022 -2.7712 -6.9918 41.7482 -4.1690
# 6 -20.7828 -15.0426 -16.3294 2.6356 -4.1690 48.5525
#
#
#
# Elastic Compliance Matrix: (Units=1/GPa)
#
#
# Indices 1 2 3 4 5 6 
#
# 1 0.020602 -0.004740 0.001934 0.000044 0.002212 0.008188
# 2 -0.004740 0.009125 0.000526 0.000835 -0.000002 0.000930
# 3 0.001934 0.000526 0.016282 0.002855 0.002330 0.006512
# 4 0.000044 0.000835 0.002855 0.030454 0.005299 0.000039
# 5 0.002212 -0.000002 0.002330 0.005299 0.025494 0.003631
# 6 0.008188 0.000930 0.006512 0.000039 0.003631 0.026889
#
#
# Mechanical properties :
#
#
# Convention : Reuss Voigt Hill
#
# Bulk Modulus (GPa) = 24.12501 37.04947 30.58724
# Shear Modulus (GPa) = 33.96207 40.40521 37.18364
#
# Velocity S-wave (km/s) = 3.77967 4.12264 3.95488
# Velocity P-wave (km/s) = 5.40333 6.18435 5.80699
#
# Compressibility (1/GPa) = 0.04145076
#
# Stress axis : x y z
#
# Youngs Moduli (GPa) = 48.53874 109.58684 61.41615
#
# Poissons Ratio (x) = 0.51943 -0.11880
# Poissons Ratio (y) = 0.23007 -0.03231
# Poissons Ratio (z) = -0.09389 -0.05765
#
# Static dielectric constant tensor:
#      x y z
#    x 1.905140 0.003950 -0.048110 
#    y 0.003950 1.874140 0.005490 
#    z -0.048110 0.005490 1.960520 
# 
# From -- ./inp_files/245139.got.cif
#   From: 2010.05.17/outbox.cif.g08.bks.cpg/sg2_123_cif.got.tgz:245139.got - 2010.06.03 11:33:40.
