data_PCOD9068899
_publ_section_title
;
Structure prediction by ZEFSAII (Michael W. Deem and Ramdas Pophale) SiO2 
 PCOD9068899
Probable space group: P -1
;
_chemical_formula_sum "Si O2"
_cell_formula_units_Z 14
_cell_length_a 14.161912
_cell_length_b 8.231439
_cell_length_c 14.450396
_cell_angle_alpha 52.684737
_cell_angle_beta 138.100753
_cell_angle_gamma 142.806004
_cell_volume 679.690321
_symmetry_space_group_name_H-M "P -1"
_symmetry_group_IT_number 2
_symmetry_cell_setting 'triclinic'
loop_
_space_group_symop_operation_xyz
x,y,z
-x,-y,-z
loop_
_atom_site_type_symbol
_atom_site_label
_atom_site_fract_x
_atom_site_fract_y
_atom_site_fract_z
Si Si1 0.792584 0.725682 0.458497
Si Si2 0.360566 0.944468 0.185650
Si Si3 0.329640 0.939898 0.952054
Si Si4 0.380128 0.193413 0.548731
Si Si5 0.651124 0.557326 0.211854
Si Si6 0.070355 0.539107 0.259430
Si Si7 0.984150 0.308369 0.633177
O O1 0.679312 0.807317 0.389943
O O2 0.813907 0.559489 0.602449
O O3 0.362553 0.213643 0.885320
O O4 0.000000 0.000000 0.500000
O O5 0.508452 0.912350 0.337855
O O6 0.184348 0.769287 0.185520
O O7 0.465464 0.259366 0.157090
O O8 0.315233 0.852805 0.077772
O O9 0.134649 0.710560 0.838982
O O10 0.500000 0.000000 0.000000
O O11 0.500000 0.500000 0.500000
O O12 0.190870 0.993243 0.421274
O O13 0.705997 0.566991 0.355261
O O14 0.000000 0.500000 0.500000
O O15 0.822897 0.633655 0.250415
O O16 0.051728 0.633331 0.312070
#
# Coordination Sequence:
#
# PCOD9068899 Si02
#       7
#     2   2   2   2   2   2   2
#     4  12  21  40  71 101 133 180 227 283 336 401
#     4  12  27  45  67 105 143 177 229 285 342 407
#     4  12  27  50  74  94 135 190 236 272 336 422
#     4  12  24  40  68 104 140 175 224 284 351 393
#     4  12  25  44  74  99 138 178 234 279 343 404
#     4  12  25  45  68 102 140 177 225 290 342 397
#     4  12  23  43  71 104 139 176 225 285 340 409
#
# _framework density 20.597615999999999
#
# number of rings (size 3 to 8) (size 9 to 14) (size 15 to 20)
#    0.000    0.000    7.143    2.571    2.000    1.143 
#    0.000    1.429    0.000    0.000    0.000    0.000 
#    0.000    0.000    0.000    0.000    0.000    0.000 
#
# Total GULP energy -78353.271041 kJ/mol
# GULP energy per Si atom -5596.662217 kJ/mol
# Density = 2.055074 g / cm^3
# Si number density = 20.597616 Si / 1000 Ang^3
#
#
#
# Elastic Constant Matrix: (Units=GPa)
#
#
# Indices 1 2 3 4 5 6 
#
# 1 165.7290 55.3124 35.0136 0.3273 -2.6664 5.8460
# 2 55.3124 131.6812 27.1449 6.7471 -0.4704 6.9147
# 3 35.0136 27.1449 66.8953 3.1708 -11.9250 7.4122
# 4 0.3273 6.7471 3.1708 26.7599 -13.6598 -4.0551
# 5 -2.6664 -0.4704 -11.9250 -13.6598 44.4580 -2.3571
# 6 5.8460 6.9147 7.4122 -4.0551 -2.3571 31.3990
#
#
#
# Elastic Compliance Matrix: (Units=1/GPa)
#
#
# Indices 1 2 3 4 5 6 
#
# 1 0.007518 -0.002595 -0.002938 0.000852 -0.000104 -0.000033
# 2 -0.002595 0.009431 -0.002462 -0.003201 -0.001782 -0.001560
# 3 -0.002938 -0.002462 0.018637 0.000451 0.004782 -0.002893
# 4 0.000852 -0.003201 0.000451 0.046899 0.014952 0.007619
# 5 -0.000104 -0.001782 0.004782 0.014952 0.028523 0.003355
# 6 -0.000033 -0.001560 -0.002893 0.007619 0.003355 0.034117
#
#
# Mechanical properties :
#
#
# Convention : Reuss Voigt Hill
#
# Bulk Modulus (GPa) = 51.02674 66.58300 58.80487
# Shear Modulus (GPa) = 29.82465 36.97902 33.40183
#
# Velocity S-wave (km/s) = 3.80934 4.24170 4.03132
# Velocity P-wave (km/s) = 6.64643 7.50900 7.09085
#
# Compressibility (1/GPa) = 0.01959757
#
# Stress axis : x y z
#
# Youngs Moduli (GPa) = 133.00690 106.03215 53.65668
#
# Poissons Ratio (x) = 0.27514 0.15762
# Poissons Ratio (y) = 0.34513 0.13210
# Poissons Ratio (z) = 0.39073 0.26105
#
# Static dielectric constant tensor:
#      x y z
#    x 1.603930 -0.016960 0.038810 
#    y -0.016960 1.708770 -0.011970 
#    z 0.038810 -0.011970 1.725820 
# 
# From -- ./inp_files/528303.got.cif
#   From: 2010.05.17/outbox.cif.g08.bks.cpg/sg2_265_cif.got.tgz:528303.got - 2010.06.03 11:33:40.
