data_PCOD9068155
_publ_section_title
;
Structure prediction by ZEFSAII (Michael W. Deem and Ramdas Pophale) SiO2 
 PCOD9068155
Probable space group: P -1
;
_chemical_formula_sum "Si O2"
_cell_formula_units_Z 10
_cell_length_a 14.202718
_cell_length_b 11.829585
_cell_length_c 7.501721
_cell_angle_alpha 45.318239
_cell_angle_beta 141.709004
_cell_angle_gamma 149.493258
_cell_volume 395.010601
_symmetry_space_group_name_H-M "P -1"
_symmetry_group_IT_number 2
_symmetry_cell_setting 'triclinic'
loop_
_space_group_symop_operation_xyz
x,y,z
-x,-y,-z
loop_
_atom_site_type_symbol
_atom_site_label
_atom_site_fract_x
_atom_site_fract_y
_atom_site_fract_z
Si Si1 0.065977 0.897030 0.587848
Si Si2 0.875757 0.379799 0.170690
Si Si3 0.291368 0.239511 0.028327
Si Si4 0.478478 0.308156 0.609675
Si Si5 0.732852 0.141318 0.605879
O O1 0.056529 0.697962 0.792723
O O2 0.914434 0.814930 0.279737
O O3 0.000000 0.000000 0.500000
O O4 0.319680 0.101789 0.731640
O O5 0.762072 0.204245 0.367853
O O6 0.082630 0.618597 0.294630
O O7 0.697583 0.375134 0.847438
O O8 0.345191 0.237600 0.312026
O O9 0.240582 0.024616 0.123154
O O10 0.500000 0.500000 0.000000
O O11 0.500000 0.500000 0.500000
O O12 0.500000 0.000000 0.500000
#
# Coordination Sequence:
#
# PCOD9068155 Si02
#       5
#     2   2   2   2   2
#     4  12  27  49  80 114 159 211 271 329 404 479
#     4  11  27  52  80 119 163 209 272 338 402 475
#     4  12  27  48  75 115 160 209 267 325 400 479
#     4  12  27  48  79 115 162 207 267 338 401 478
#     4  11  26  47  84 117 163 210 269 335 408 479
#
# _framework density 25.315776
#
# number of rings (size 3 to 8) (size 9 to 14) (size 15 to 20)
#    0.000    0.400    2.000    4.800   11.200    0.000 
#    0.000    6.000    0.000    0.000    0.000    0.000 
#    0.000    0.000    0.000    0.000    0.000    0.000 
#
# Total GULP energy -55832.079880 kJ/mol
# GULP energy per Si atom -5583.207988 kJ/mol
# Density = 2.525816 g / cm^3
# Si number density = 25.315776 Si / 1000 Ang^3
#
#
#
# Elastic Constant Matrix: (Units=GPa)
#
#
# Indices 1 2 3 4 5 6 
#
# 1 128.7095 59.5039 57.9639 6.8698 19.5795 -2.3469
# 2 59.5039 206.9175 38.5697 -11.5529 36.6459 0.2004
# 3 57.9639 38.5697 164.6927 5.2587 33.9606 -12.1294
# 4 6.8698 -11.5529 5.2587 50.1870 -3.1709 18.1495
# 5 19.5795 36.6459 33.9606 -3.1709 55.5481 -1.9314
# 6 -2.3469 0.2004 -12.1294 18.1495 -1.9314 56.9659
#
#
#
# Elastic Compliance Matrix: (Units=1/GPa)
#
#
# Indices 1 2 3 4 5 6 
#
# 1 0.010391 -0.002490 -0.002918 -0.001853 -0.000328 0.000395
# 2 -0.002490 0.006217 -0.000061 0.001887 -0.003108 -0.000844
# 3 -0.002918 -0.000061 0.008104 -0.001405 -0.003899 0.001921
# 4 -0.001853 0.001887 -0.001405 0.023698 0.001346 -0.007887
# 5 -0.000328 -0.003108 -0.003899 0.001346 0.022612 -0.000495
# 6 0.000395 -0.000844 0.001921 -0.007887 -0.000495 0.020479
#
#
# Mechanical properties :
#
#
# Convention : Reuss Voigt Hill
#
# Bulk Modulus (GPa) = 72.60666 90.26609 81.43637
# Shear Modulus (GPa) = 46.71661 55.49235 51.10448
#
# Velocity S-wave (km/s) = 4.30042 4.68697 4.49785
# Velocity P-wave (km/s) = 7.30759 8.06373 7.69495
#
# Compressibility (1/GPa) = 0.01377284
#
# Stress axis : x y z
#
# Youngs Moduli (GPa) = 96.24006 160.85171 123.40332
#
# Poissons Ratio (x) = 0.40051 0.36009
# Poissons Ratio (y) = 0.23963 0.00755
# Poissons Ratio (z) = 0.28083 0.00984
#
# Static dielectric constant tensor:
#      x y z
#    x 1.980100 0.058170 -0.030420 
#    y 0.058170 2.098470 -0.143160 
#    z -0.030420 -0.143160 1.824490 
# 
# From -- ./inp_files/144313.got.cif
#   From: 2010.05.17/outbox.cif.g08.bks.cpg/sg2_73_cif.got.tgz:144313.got - 2010.06.03 11:33:40.
