data_PCOD9068786
_publ_section_title
;
Structure prediction by ZEFSAII (Michael W. Deem and Ramdas Pophale) SiO2 
 PCOD9068786
Probable space group: P -1
;
_chemical_formula_sum "Si O2"
_cell_formula_units_Z 12
_cell_length_a 8.813814
_cell_length_b 9.768468
_cell_length_c 13.619134
_cell_angle_alpha 126.201470
_cell_angle_beta 116.988381
_cell_angle_gamma 30.380037
_cell_volume 474.044847
_symmetry_space_group_name_H-M "P -1"
_symmetry_group_IT_number 2
_symmetry_cell_setting 'triclinic'
loop_
_space_group_symop_operation_xyz
x,y,z
-x,-y,-z
loop_
_atom_site_type_symbol
_atom_site_label
_atom_site_fract_x
_atom_site_fract_y
_atom_site_fract_z
Si Si1 0.528992 0.745844 0.254431
Si Si2 0.109074 0.686065 0.991747
Si Si3 0.125163 0.836251 0.276571
Si Si4 0.513952 0.918926 0.078604
Si Si5 0.543563 0.662602 0.675632
Si Si6 0.107647 0.407231 0.381042
O O1 0.648626 0.508544 0.109614
O O2 0.818141 0.616234 0.316261
O O3 0.364216 0.791575 0.316621
O O4 0.298434 0.075473 0.285900
O O5 0.783801 0.955690 0.957577
O O6 0.201721 0.424753 0.950365
O O7 0.093042 0.806915 0.139015
O O8 0.269450 0.581306 0.285825
O O9 0.786725 0.148301 0.347859
O O10 0.514183 0.094510 0.209726
O O11 0.500000 0.000000 0.000000
O O12 0.729470 0.551898 0.584868
O O13 0.000000 0.500000 0.500000
#
# Coordination Sequence:
#
# PCOD9068786 Si02
#       6
#     2   2   2   2   2   2
#     4  12  25  45  66  99 135 170 210 268 326 382
#     4  12  21  37  62  97 135 176 204 245 315 398
#     4  12  25  39  66 103 141 167 202 257 332 398
#     4  12  20  33  61  93 133 170 217 254 297 381
#     4  12  23  42  65  96 130 173 219 266 312 380
#     4  12  27  49  72  91 120 172 232 277 318 372
#
# _framework density 25.314060000000001
#
# number of rings (size 3 to 8) (size 9 to 14) (size 15 to 20)
#    0.000    0.000    6.667    4.500    0.000    0.000 
#    0.000   10.000    0.000    0.000    0.000    0.000 
#    0.000    0.000    0.000    0.000    0.000    0.000 
#
# Total GULP energy -67074.318446 kJ/mol
# GULP energy per Si atom -5589.526537 kJ/mol
# Density = 2.525644 g / cm^3
# Si number density = 25.314060 Si / 1000 Ang^3
#
#
#
# Elastic Constant Matrix: (Units=GPa)
#
#
# Indices 1 2 3 4 5 6 
#
# 1 161.2717 17.8536 19.6170 16.5980 -47.0310 -5.4040
# 2 17.8536 83.8931 -9.2975 5.6587 -4.0425 -16.6471
# 3 19.6170 -9.2975 52.8484 8.6632 -10.0351 0.4400
# 4 16.5980 5.6587 8.6632 1.8837 15.5560 -16.3393
# 5 -47.0310 -4.0425 -10.0351 15.5560 39.7802 4.3410
# 6 -5.4040 -16.6471 0.4400 -16.3393 4.3410 31.2712
#
#
#
# Elastic Compliance Matrix: (Units=1/GPa)
#
#
# Indices 1 2 3 4 5 6 
#
# 1 0.006260 -0.001278 -0.004197 0.011130 0.001193 0.006110
# 2 -0.001278 0.013930 0.003384 -0.002049 0.000910 0.005950
# 3 -0.004197 0.003384 0.019266 0.007181 -0.003111 0.004989
# 4 0.011130 -0.002049 0.007181 -0.034606 0.030652 -0.021605
# 5 0.001193 0.000910 -0.003111 0.030652 0.012227 0.015053
# 6 0.006110 0.005950 0.004989 -0.021605 0.015053 0.022753
#
#
# Mechanical properties :
#
#
# Convention : Reuss Voigt Hill
#
# Bulk Modulus (GPa) = 28.35031 39.37327 33.86179
# Shear Modulus (GPa) = 89.65230 32.57637 61.11433
#
# Velocity S-wave (km/s) = 5.95759 3.59121 4.91883
# Velocity P-wave (km/s) = 7.65164 5.72568 6.75763
#
# Compressibility (1/GPa) = 0.03527298
#
# Stress axis : x y z
#
# Youngs Moduli (GPa) = 159.74404 71.78893 51.90504
#
# Poissons Ratio (x) = 0.09176 0.21786
# Poissons Ratio (y) = 0.20418 -0.17565
# Poissons Ratio (z) = 0.67050 -0.24294
#
# Static dielectric constant tensor:
#      x y z
#    x 2.099280 -0.076000 -0.060090 
#    y -0.076000 1.883500 0.009330 
#    z -0.060090 0.009330 2.086930 
# 
# From -- ./inp_files/53290.got.cif
#   From: 2010.05.17/outbox.cif.g08.bks.cpg/sg2_27_cif.got.tgz:53290.got - 2010.06.03 11:33:40.
