data_PCOD9068617
_publ_section_title
;
Structure prediction by ZEFSAII (Michael W. Deem and Ramdas Pophale) SiO2 
 PCOD9068617
Probable space group: P -1
;
_chemical_formula_sum "Si O2"
_cell_formula_units_Z 16
_cell_length_a 11.801711
_cell_length_b 4.806113
_cell_length_c 12.532678
_cell_angle_alpha 90.440945
_cell_angle_beta 120.352506
_cell_angle_gamma 93.427341
_cell_volume 611.732377
_symmetry_space_group_name_H-M "P -1"
_symmetry_group_IT_number 2
_symmetry_cell_setting 'triclinic'
loop_
_space_group_symop_operation_xyz
x,y,z
-x,-y,-z
loop_
_atom_site_type_symbol
_atom_site_label
_atom_site_fract_x
_atom_site_fract_y
_atom_site_fract_z
Si Si1 0.177855 0.505300 0.460671
Si Si2 0.072018 0.219003 0.614643
Si Si3 0.735493 0.479343 0.004526
Si Si4 0.714149 0.985533 0.131582
Si Si5 0.122009 0.816909 0.092623
Si Si6 0.511027 0.849109 0.212187
Si Si7 0.541633 0.373538 0.369934
Si Si8 0.243226 0.325811 0.281224
O O1 0.156534 0.423689 0.574898
O O2 0.316691 0.690311 0.514493
O O3 0.189242 0.270881 0.374919
O O4 0.040726 0.639316 0.374935
O O5 0.163997 0.069107 0.737259
O O6 0.000000 0.000000 0.500000
O O7 0.726660 0.799749 0.030297
O O8 0.715757 0.308325 0.104427
O O9 0.862306 0.374982 0.006628
O O10 0.622792 0.337073 0.874703
O O11 0.587274 0.875621 0.137289
O O12 0.162565 0.582215 0.198914
O O13 0.217570 0.074081 0.185376
O O14 0.000000 0.000000 0.000000
O O15 0.574310 0.677321 0.335396
O O16 0.510274 0.156147 0.258839
O O17 0.403102 0.379126 0.365675
#
# Coordination Sequence:
#
# PCOD9068617 Si02
#       8
#     2   2   2   2   2   2   2   2
#     4  11  28  45  76 104 144 190 243 300 364 428
#     4  11  27  49  71 107 146 187 243 305 359 432
#     4  12  25  45  70 106 142 189 238 293 356 431
#     4  12  26  42  75 103 142 193 236 292 364 427
#     4  12  28  48  73 106 149 186 242 300 355 426
#     4  12  23  45  71 103 150 185 239 294 361 421
#     4  12  23  47  73 106 146 192 236 304 357 423
#     4  12  26  49  76 109 141 196 240 295 361 434
#
# _framework density 26.155228999999999
#
# number of rings (size 3 to 8) (size 9 to 14) (size 15 to 20)
#    0.000    0.250    3.750    4.500    8.750    0.000 
#    0.000    2.500    0.000    0.000    0.000    0.000 
#    0.000    0.000    0.000    0.000    0.000    0.000 
#
# Total GULP energy -89425.218845 kJ/mol
# GULP energy per Si atom -5589.076178 kJ/mol
# Density = 2.609570 g / cm^3
# Si number density = 26.155229 Si / 1000 Ang^3
#
#
#
# Elastic Constant Matrix: (Units=GPa)
#
#
# Indices 1 2 3 4 5 6 
#
# 1 125.9659 20.8466 26.2698 12.0345 -2.7129 -32.6836
# 2 20.8466 111.4390 10.2766 2.9052 -9.6319 -9.6054
# 3 26.2698 10.2766 70.3490 12.1248 8.6435 -3.7344
# 4 12.0345 2.9052 12.1248 47.2937 -7.9741 -6.6078
# 5 -2.7129 -9.6319 8.6435 -7.9741 52.5168 8.7766
# 6 -32.6836 -9.6054 -3.7344 -6.6078 8.7766 29.3585
#
#
#
# Elastic Compliance Matrix: (Units=1/GPa)
#
#
# Indices 1 2 3 4 5 6 
#
# 1 0.012258 -0.000930 -0.003499 -0.000537 -0.001240 0.013147
# 2 -0.000930 0.009531 -0.001259 0.000477 0.001727 0.001513
# 3 -0.003499 -0.001259 0.016743 -0.004199 -0.003456 -0.002089
# 4 -0.000537 0.000477 -0.004199 0.023407 0.003776 0.003163
# 5 -0.001240 0.001727 -0.003456 0.003776 0.021582 -0.006857
# 6 0.013147 0.001513 -0.002089 0.003163 -0.006857 0.051689
#
#
# Mechanical properties :
#
#
# Convention : Reuss Voigt Hill
#
# Bulk Modulus (GPa) = 36.82440 46.94886 41.88663
# Shear Modulus (GPa) = 32.12604 42.52453 37.32528
#
# Velocity S-wave (km/s) = 3.50849 4.03656 3.78175
# Velocity P-wave (km/s) = 5.52471 6.30192 5.92607
#
# Compressibility (1/GPa) = 0.02715591
#
# Stress axis : x y z
#
# Youngs Moduli (GPa) = 81.57961 104.92172 59.72782
#
# Poissons Ratio (x) = 0.09763 0.20896
# Poissons Ratio (y) = 0.07591 0.07518
# Poissons Ratio (z) = 0.28541 0.13207
#
# Static dielectric constant tensor:
#      x y z
#    x 2.156900 0.016110 0.003160 
#    y 0.016110 2.016910 -0.083660 
#    z 0.003160 -0.083660 2.094170 
# 
# From -- ./inp_files/410910.got.cif
#   From: 2010.05.17/outbox.cif.g08.bks.cpg/sg2_206_cif.got.tgz:410910.got - 2010.06.03 11:33:40.
