data_PCOD9068545
_publ_section_title
;
Structure prediction by ZEFSAII (Michael W. Deem and Ramdas Pophale) SiO2 
 PCOD9068545
Probable space group: P -1
;
_chemical_formula_sum "Si O2"
_cell_formula_units_Z 14
_cell_length_a 25.269316
_cell_length_b 4.774806
_cell_length_c 7.865168
_cell_angle_alpha 104.362865
_cell_angle_beta 145.617389
_cell_angle_gamma 82.981362
_cell_volume 513.213194
_symmetry_space_group_name_H-M "P -1"
_symmetry_group_IT_number 2
_symmetry_cell_setting 'triclinic'
loop_
_space_group_symop_operation_xyz
x,y,z
-x,-y,-z
loop_
_atom_site_type_symbol
_atom_site_label
_atom_site_fract_x
_atom_site_fract_y
_atom_site_fract_z
Si Si1 0.500000 0.500000 0.000000
Si Si2 0.500000 0.000000 0.000000
Si Si3 0.177631 0.221211 0.129325
Si Si4 0.703684 0.172388 0.424269
Si Si5 0.860985 0.646943 0.343179
Si Si6 0.498720 0.285641 0.652241
Si Si7 0.670856 0.609028 0.018120
Si Si8 0.980116 0.247633 0.767685
O O1 0.525964 0.697430 0.929679
O O2 0.539088 0.802419 0.263058
O O3 0.602988 0.236432 0.249012
O O4 0.230268 0.525049 0.392640
O O5 0.242988 0.977694 0.304604
O O6 0.164082 0.280408 0.904272
O O7 0.076392 0.151078 0.940382
O O8 0.696215 0.922294 0.223468
O O9 0.765948 0.533745 0.177464
O O10 0.929873 0.405385 0.507173
O O11 0.912175 0.956127 0.601666
O O12 0.500000 0.000000 0.500000
O O13 0.613786 0.382145 0.962527
O O14 0.410938 0.403416 0.344635
O O15 0.000000 0.500000 0.000000
#
# Coordination Sequence:
#
# PCOD9068545 Si02
#       8
#     1   1   2   2   2   2   2   2
#     4  12  26  48  74 106 144 210 250 306 378 434
#     4  12  26  44  74 106 150 190 258 296 364 438
#     4  12  27  47  76 107 143 190 248 300 379 446
#     4  12  26  46  73 105 146 196 240 307 363 452
#     4  12  27  45  76 109 144 184 246 309 367 445
#     4  11  27  47  74 103 156 202 249 317 366 454
#     4  11  27  46  65 110 143 194 248 302 370 445
#     4  12  25  50  76 105 144 190 235 310 376 443
#
# _framework density 27.279111
#
# number of rings (size 3 to 8) (size 9 to 14) (size 15 to 20)
#    0.000    0.286    1.429    6.429   10.000    0.000 
#    0.000    0.000    0.000    0.000    0.000    0.000 
#    0.000    0.000    0.000    0.000    0.000    0.000 
#
# Total GULP energy -78177.211881 kJ/mol
# GULP energy per Si atom -5584.086563 kJ/mol
# Density = 2.721702 g / cm^3
# Si number density = 27.279111 Si / 1000 Ang^3
#
#
#
# Elastic Constant Matrix: (Units=GPa)
#
#
# Indices 1 2 3 4 5 6 
#
# 1 122.5666 -17.4331 36.2248 -0.3452 17.6480 -14.9707
# 2 -17.4331 96.0883 -1.1117 9.9831 19.2588 30.6637
# 3 36.2248 -1.1117 124.9154 2.2604 15.2151 -8.3771
# 4 -0.3452 9.9831 2.2604 53.4430 5.3844 7.7155
# 5 17.6480 19.2588 15.2151 5.3844 59.2383 -1.1559
# 6 -14.9707 30.6637 -8.3771 7.7155 -1.1559 43.8346
#
#
#
# Elastic Compliance Matrix: (Units=1/GPa)
#
#
# Indices 1 2 3 4 5 6 
#
# 1 0.009709 0.001826 -0.002348 -0.000114 -0.002843 0.001535
# 2 0.001826 0.015116 -0.000385 -0.000795 -0.005483 -0.010029
# 3 -0.002348 -0.000385 0.008942 -0.000352 -0.001417 0.001201
# 4 -0.000114 -0.000795 -0.000352 0.019455 -0.001444 -0.003012
# 5 -0.002843 -0.005483 -0.001417 -0.001444 0.020071 0.003377
# 6 0.001535 -0.010029 0.001201 -0.003012 0.003377 0.031201
#
#
# Mechanical properties :
#
#
# Convention : Reuss Voigt Hill
#
# Bulk Modulus (GPa) = 31.29639 42.10338 36.69988
# Shear Modulus (GPa) = 42.74971 53.02921 47.88946
#
# Velocity S-wave (km/s) = 3.96298 4.41381 4.19446
# Velocity P-wave (km/s) = 5.69543 6.43765 6.07788
#
# Compressibility (1/GPa) = 0.03195257
#
# Stress axis : x y z
#
# Youngs Moduli (GPa) = 102.99714 66.15602 111.82701
#
# Poissons Ratio (x) = -0.12081 0.26258
# Poissons Ratio (y) = -0.18809 0.04310
# Poissons Ratio (z) = 0.24184 0.02550
#
# Static dielectric constant tensor:
#      x y z
#    x 2.185460 0.109230 -0.313900 
#    y 0.109230 1.656740 -0.308610 
#    z -0.313900 -0.308610 2.029480 
# 
# From -- ./inp_files/356076.got.cif
#   From: 2010.05.17/outbox.cif.g08.bks.cpg/sg2_179_cif.got.tgz:356076.got - 2010.06.03 11:33:40.
