data_PCOD9068955
_publ_section_title
;
Structure prediction by ZEFSAII (Michael W. Deem and Ramdas Pophale) SiO2 
 PCOD9068955
Probable space group: P -1
;
_chemical_formula_sum "Si O2"
_cell_formula_units_Z 16
_cell_length_a 11.811240
_cell_length_b 14.412262
_cell_length_c 10.694134
_cell_angle_alpha 82.018581
_cell_angle_beta 119.355130
_cell_angle_gamma 148.786492
_cell_volume 644.630861
_symmetry_space_group_name_H-M "P -1"
_symmetry_group_IT_number 2
_symmetry_cell_setting 'triclinic'
loop_
_space_group_symop_operation_xyz
x,y,z
-x,-y,-z
loop_
_atom_site_type_symbol
_atom_site_label
_atom_site_fract_x
_atom_site_fract_y
_atom_site_fract_z
Si Si1 0.328563 0.212254 0.779505
Si Si2 0.214657 0.808717 0.718028
Si Si3 0.123651 0.237703 0.336304
Si Si4 0.712165 0.634821 0.864457
Si Si5 0.522231 0.093539 0.601954
Si Si6 0.382969 0.615475 0.695988
Si Si7 0.771668 0.376003 0.136645
Si Si8 0.061417 0.912511 0.237850
O O1 0.518753 0.414501 0.766383
O O2 0.203704 0.194136 0.830110
O O3 0.584513 0.302706 0.938412
O O4 0.019507 0.945973 0.634056
O O5 0.312228 0.787649 0.862209
O O6 0.050263 0.785509 0.704055
O O7 0.939322 0.588415 0.518219
O O8 0.480724 0.020759 0.728523
O O9 0.500000 0.500000 0.500000
O O10 0.068076 0.191633 0.165597
O O11 0.479396 0.570088 0.772422
O O12 0.906485 0.747275 0.076399
O O13 0.852818 0.364374 0.722827
O O14 0.500000 0.000000 0.500000
O O15 0.229897 0.968933 0.431601
O O16 0.329789 0.634452 0.792088
O O17 0.666710 0.849555 0.728726
#
# Coordination Sequence:
#
# PCOD9068955 Si02
#       8
#     2   2   2   2   2   2   2   2
#     4  12  27  46  75 111 146 193 242 306 361 429
#     4  12  26  48  73 103 149 199 243 293 362 438
#     4  12  28  51  73 105 145 199 248 294 360 440
#     4  12  25  45  75 111 149 186 242 304 365 428
#     4  12  25  43  73 111 147 188 237 299 367 428
#     4  12  21  45  72 113 147 185 236 309 366 424
#     4  12  26  46  73 111 150 185 241 303 372 425
#     4  12  23  44  76 112 150 183 243 308 365 423
#
# _framework density 24.820406999999999
#
# number of rings (size 3 to 8) (size 9 to 14) (size 15 to 20)
#    0.000    0.000    6.250    4.125    0.000    3.000 
#    0.000    1.250    0.000    0.000    0.000    0.000 
#    0.000    0.000    0.000    0.000    0.000    0.000 
#
# Total GULP energy -89724.474011 kJ/mol
# GULP energy per Si atom -5607.779626 kJ/mol
# Density = 2.476392 g / cm^3
# Si number density = 24.820407 Si / 1000 Ang^3
#
#
#
# Elastic Constant Matrix: (Units=GPa)
#
#
# Indices 1 2 3 4 5 6 
#
# 1 104.2298 33.6512 -4.9223 -8.7648 17.9137 -14.6949
# 2 33.6512 160.1145 23.0502 -5.5165 22.9696 -26.5296
# 3 -4.9223 23.0502 75.0678 10.7518 7.2889 -16.4826
# 4 -8.7648 -5.5165 10.7518 21.5377 -4.3485 1.3997
# 5 17.9137 22.9696 7.2889 -4.3485 23.6168 0.6458
# 6 -14.6949 -26.5296 -16.4826 1.3997 0.6458 45.8279
#
#
#
# Elastic Compliance Matrix: (Units=1/GPa)
#
#
# Indices 1 2 3 4 5 6 
#
# 1 0.012349 -0.000869 0.002802 0.001233 -0.009284 0.004557
# 2 -0.000869 0.008326 -0.001081 0.000608 -0.007109 0.004234
# 3 0.002802 -0.001081 0.017676 -0.010154 -0.008593 0.007062
# 4 0.001233 0.000608 -0.010154 0.054856 0.011838 -0.004747
# 5 -0.009284 -0.007109 -0.008593 0.011838 0.061442 -0.011410
# 6 0.004557 0.004234 0.007062 -0.004747 -0.011410 0.028579
#
#
# Mechanical properties :
#
#
# Convention : Reuss Voigt Hill
#
# Bulk Modulus (GPa) = 24.96545 49.21893 37.09219
# Shear Modulus (GPa) = 25.65739 37.37199 31.51469
#
# Velocity S-wave (km/s) = 3.21864 3.88454 3.56716
# Velocity P-wave (km/s) = 4.88806 6.32397 5.65180
#
# Compressibility (1/GPa) = 0.04005536
#
# Stress axis : x y z
#
# Youngs Moduli (GPa) = 80.97807 120.10365 56.57364
#
# Poissons Ratio (x) = 0.10441 -0.15853
# Poissons Ratio (y) = 0.07040 0.06114
# Poissons Ratio (z) = -0.22691 0.12980
#
# Static dielectric constant tensor:
#      x y z
#    x 1.898380 -0.030860 -0.010680 
#    y -0.030860 1.961800 -0.005730 
#    z -0.010680 -0.005730 1.982180 
# 
# From -- ./inp_files/433962.got.cif
#   From: 2010.05.17/outbox.cif.g08.bks.cpg/sg2_217_cif.got.tgz:433962.got - 2010.06.03 11:33:40.
