data_PCOD9068005
_publ_section_title
;
Structure prediction by ZEFSAII (Michael W. Deem and Ramdas Pophale) SiO2 
 PCOD9068005
Probable space group: P -1
;
_chemical_formula_sum "Si O2"
_cell_formula_units_Z 12
_cell_length_a 14.428386
_cell_length_b 9.545320
_cell_length_c 11.603186
_cell_angle_alpha 36.521180
_cell_angle_beta 148.137292
_cell_angle_gamma 136.637661
_cell_volume 496.971594
_symmetry_space_group_name_H-M "P -1"
_symmetry_group_IT_number 2
_symmetry_cell_setting 'triclinic'
loop_
_space_group_symop_operation_xyz
x,y,z
-x,-y,-z
loop_
_atom_site_type_symbol
_atom_site_label
_atom_site_fract_x
_atom_site_fract_y
_atom_site_fract_z
Si Si1 0.775845 0.988587 0.549278
Si Si2 0.272770 0.521051 0.477472
Si Si3 0.698598 0.472296 0.761439
Si Si4 0.497963 0.745134 0.767681
Si Si5 0.789073 0.001649 0.285441
Si Si6 0.110359 0.956401 0.034465
O O1 0.648419 0.119064 0.410008
O O2 0.988229 0.053313 0.743074
O O3 0.757819 0.706543 0.742651
O O4 0.731289 0.006614 0.355081
O O5 0.225592 0.523806 0.289448
O O6 0.437458 0.665082 0.626396
O O7 0.287468 0.245442 0.693645
O O8 0.123151 0.676821 0.252544
O O9 0.500000 0.500000 0.500000
O O10 0.729662 0.230271 0.012508
O O11 0.500000 0.500000 0.000000
O O12 0.691165 0.903709 0.863470
O O13 0.000000 0.000000 0.500000
O O14 0.000000 0.000000 0.000000
#
# Coordination Sequence:
#
# PCOD9068005 Si02
#       6
#     2   2   2   2   2   2
#     4  11  27  50  77 116 152 205 261 323 393 468
#     4  11  26  48  76 113 153 203 258 321 392 467
#     4  11  26  46  80 108 154 200 263 320 389 462
#     4  12  30  48  79 116 159 205 263 323 396 469
#     4  11  26  48  80 112 154 207 263 325 389 470
#     4  12  26  50  79 113 160 206 259 322 395 469
#
# _framework density 24.146249999999998
#
# number of rings (size 3 to 8) (size 9 to 14) (size 15 to 20)
#    0.000    0.667    1.667    3.500   11.667    6.000 
#    0.000    0.000    0.000    0.000    0.000    0.000 
#    0.000    0.000    0.000    0.000    0.000    0.000 
#
# Total GULP energy -66967.037767 kJ/mol
# GULP energy per Si atom -5580.586481 kJ/mol
# Density = 2.409129 g / cm^3
# Si number density = 24.146250 Si / 1000 Ang^3
#
#
#
# Elastic Constant Matrix: (Units=GPa)
#
#
# Indices 1 2 3 4 5 6 
#
# 1 83.0874 62.1197 43.1254 -24.9681 10.9937 -8.8502
# 2 62.1197 153.9926 97.8796 -18.4575 16.3343 -11.4869
# 3 43.1254 97.8796 185.4094 -40.3234 7.7072 11.7965
# 4 -24.9681 -18.4575 -40.3234 60.4639 10.5994 6.4367
# 5 10.9937 16.3343 7.7072 10.5994 41.4188 -7.2591
# 6 -8.8502 -11.4869 11.7965 6.4367 -7.2591 35.1221
#
#
#
# Elastic Compliance Matrix: (Units=1/GPa)
#
#
# Indices 1 2 3 4 5 6 
#
# 1 0.019745 -0.007270 0.001048 0.007422 -0.004475 -0.000039
# 2 -0.007270 0.013665 -0.006701 -0.003844 -0.000258 0.005539
# 3 0.001048 -0.006701 0.010743 0.006798 -0.002659 -0.007331
# 4 0.007422 -0.003844 0.006798 0.025559 -0.009726 -0.008364
# 5 -0.004475 -0.000258 -0.002659 -0.009726 0.029751 0.007612
# 6 -0.000039 0.005539 -0.007331 -0.008364 0.007612 0.035842
#
#
# Mechanical properties :
#
#
# Convention : Reuss Voigt Hill
#
# Bulk Modulus (GPa) = 54.62212 92.08209 73.35211
# Shear Modulus (GPa) = 29.89471 42.02526 35.95998
#
# Velocity S-wave (km/s) = 3.52244 4.17639 3.86328
# Velocity P-wave (km/s) = 6.26210 7.84055 7.09536
#
# Compressibility (1/GPa) = 0.01830760
#
# Stress axis : x y z
#
# Youngs Moduli (GPa) = 50.64557 73.17770 93.08764
#
# Poissons Ratio (x) = 0.53198 -0.09753
# Poissons Ratio (y) = 0.36818 0.62376
# Poissons Ratio (z) = -0.05306 0.49035
#
# Static dielectric constant tensor:
#      x y z
#    x 1.924810 0.042760 -0.113650 
#    y 0.042760 2.004860 0.049050 
#    z -0.113650 0.049050 1.949260 
# 
# From -- ./inp_files/446719.got.cif
#   From: 2010.05.17/outbox.cif.g08.bks.cpg/sg2_224_cif.got.tgz:446719.got - 2010.06.03 11:33:40.
