data_PCOD9068756
_publ_section_title
;
Structure prediction by ZEFSAII (Michael W. Deem and Ramdas Pophale) SiO2 
 PCOD9068756
Probable space group: P -1
;
_chemical_formula_sum "Si O2"
_cell_formula_units_Z 11
_cell_length_a 12.638723
_cell_length_b 4.865849
_cell_length_c 13.251310
_cell_angle_alpha 69.133245
_cell_angle_beta 33.568230
_cell_angle_gamma 81.633492
_cell_volume 402.590092
_symmetry_space_group_name_H-M "P -1"
_symmetry_group_IT_number 2
_symmetry_cell_setting 'triclinic'
loop_
_space_group_symop_operation_xyz
x,y,z
-x,-y,-z
loop_
_atom_site_type_symbol
_atom_site_label
_atom_site_fract_x
_atom_site_fract_y
_atom_site_fract_z
Si Si1 0.662072 0.225182 0.056310
Si Si2 0.511169 0.719480 0.596006
Si Si3 0.850177 0.664389 0.194185
Si Si4 0.500000 0.500000 0.000000
Si Si5 0.940605 0.829330 0.825981
Si Si6 0.114137 0.251492 0.456189
O O1 0.539512 0.196902 0.261524
O O2 0.556277 0.185814 0.038213
O O3 0.821234 0.034217 0.950713
O O4 0.780313 0.591410 0.912045
O O5 0.718739 0.665965 0.400345
O O6 0.500000 0.000000 0.500000
O O7 0.322444 0.449311 0.738666
O O8 0.961640 0.399951 0.159326
O O9 0.000000 0.000000 0.000000
O O10 0.337980 0.433916 0.227392
O O11 0.092622 0.066806 0.601587
O O12 0.000000 0.500000 0.500000
O O13 0.000000 0.000000 0.500000
#
# Coordination Sequence:
#
# PCOD9068756 Si02
#       6
#     2   2   2   1   2   2
#     4  12  30  50  86 122 172 221 294 345 437 510
#     4  11  29  54  83 129 165 227 291 356 431 524
#     4  11  29  57  88 123 176 227 287 355 441 516
#     4  12  28  54  88 120 170 228 278 362 426 504
#     4  12  28  52  85 124 167 229 278 362 425 521
#     4  12  26  53  80 122 163 216 289 348 424 508
#
# _framework density 27.323077999999999
#
# number of rings (size 3 to 8) (size 9 to 14) (size 15 to 20)
#    0.000    0.364    3.636    1.091   12.727    6.545 
#    0.000    0.000    0.000    0.000    0.000    0.000 
#    0.000    0.000    0.000    0.000    0.000    0.000 
#
# Total GULP energy -61351.263184 kJ/mol
# GULP energy per Si atom -5577.387562 kJ/mol
# Density = 2.726089 g / cm^3
# Si number density = 27.323078 Si / 1000 Ang^3
#
#
#
# Elastic Constant Matrix: (Units=GPa)
#
#
# Indices 1 2 3 4 5 6 
#
# 1 91.2502 61.1135 46.0675 1.2536 23.3021 3.6434
# 2 61.1135 219.9465 121.2814 8.9271 11.3823 -14.3591
# 3 46.0675 121.2814 275.8458 -5.1754 26.2842 -20.5234
# 4 1.2536 8.9271 -5.1754 56.6771 -4.0601 1.3440
# 5 23.3021 11.3823 26.2842 -4.0601 56.4428 -7.0094
# 6 3.6434 -14.3591 -20.5234 1.3440 -7.0094 59.4478
#
#
#
# Elastic Compliance Matrix: (Units=1/GPa)
#
#
# Indices 1 2 3 4 5 6 
#
# 1 0.015368 -0.003853 -0.000538 -0.000123 -0.005664 -0.002723
# 2 -0.003853 0.007068 -0.002527 -0.001188 0.001414 0.001265
# 3 -0.000538 -0.002527 0.005051 0.000744 -0.001445 0.000979
# 4 -0.000123 -0.001188 0.000744 0.017995 0.001202 -0.000287
# 5 -0.005664 0.001414 -0.001445 0.001202 0.020855 0.002622
# 6 -0.002723 0.001265 0.000979 -0.000287 0.002622 0.017947
#
#
# Mechanical properties :
#
#
# Convention : Reuss Voigt Hill
#
# Bulk Modulus (GPa) = 73.25563 115.99637 94.62600
# Shear Modulus (GPa) = 48.69961 58.41888 53.55925
#
# Velocity S-wave (km/s) = 4.22638 4.62895 4.43224
# Velocity P-wave (km/s) = 7.11938 8.43299 7.80387
#
# Compressibility (1/GPa) = 0.01365083
#
# Stress axis : x y z
#
# Youngs Moduli (GPa) = 65.07111 141.47673 197.99615
#
# Poissons Ratio (x) = 0.54515 0.10643
# Poissons Ratio (y) = 0.25074 0.50036
# Poissons Ratio (z) = 0.03498 0.35753
#
# Static dielectric constant tensor:
#      x y z
#    x 2.581990 -0.051920 -0.035600 
#    y -0.051920 2.604440 0.099450 
#    z -0.035600 0.099450 2.177170 
# 
# From -- ./inp_files/524923.got.cif
#   From: 2010.05.17/outbox.cif.g08.bks.cpg/sg2_263_cif.got.tgz:524923.got - 2010.06.03 11:33:40.
