data_PCOD9068648
_publ_section_title
;
Structure prediction by ZEFSAII (Michael W. Deem and Ramdas Pophale) SiO2 
 PCOD9068648
Probable space group: P -1
;
_chemical_formula_sum "Si O2"
_cell_formula_units_Z 10
_cell_length_a 8.878971
_cell_length_b 18.139820
_cell_length_c 9.781782
_cell_angle_alpha 150.079725
_cell_angle_beta 30.511221
_cell_angle_gamma 140.807178
_cell_volume 396.475196
_symmetry_space_group_name_H-M "P -1"
_symmetry_group_IT_number 2
_symmetry_cell_setting 'triclinic'
loop_
_space_group_symop_operation_xyz
x,y,z
-x,-y,-z
loop_
_atom_site_type_symbol
_atom_site_label
_atom_site_fract_x
_atom_site_fract_y
_atom_site_fract_z
Si Si1 0.346922 0.527398 0.306842
Si Si2 0.128998 0.401425 0.540899
Si Si3 0.147889 0.995066 0.523832
Si Si4 0.188763 0.317781 0.657478
Si Si5 0.161458 0.897065 0.813499
O O1 0.353801 0.428359 0.280926
O O2 0.514096 0.683158 0.483962
O O3 0.000000 0.500000 0.500000
O O4 0.500000 0.500000 0.000000
O O5 0.271142 0.352006 0.490790
O O6 0.878521 0.268605 0.481015
O O7 0.979724 0.550303 0.932892
O O8 0.033850 0.831059 0.403696
O O9 0.501721 0.033291 0.313036
O O10 0.000000 0.000000 0.500000
O O11 0.012155 0.105956 0.912652
O O12 0.000000 0.000000 0.000000
#
# Coordination Sequence:
#
# PCOD9068648 Si02
#       5
#     2   2   2   2   2
#     4  12  27  47  74 113 156 195 254 318 388 448
#     4  11  27  49  83 109 156 200 264 314 382 457
#     4  12  30  51  78 115 163 203 254 322 396 457
#     4  11  27  50  79 116 154 203 263 313 384 464
#     4  12  28  52  78 113 157 206 261 314 390 467
#
# _framework density 25.222259000000001
#
# number of rings (size 3 to 8) (size 9 to 14) (size 15 to 20)
#    0.000    0.400    4.000    1.800   11.200    1.600 
#    0.000    0.000    0.000    0.000    0.000    0.000 
#    0.000    0.000    0.000    0.000    0.000    0.000 
#
# Total GULP energy -56049.250424 kJ/mol
# GULP energy per Si atom -5604.925042 kJ/mol
# Density = 2.516485 g / cm^3
# Si number density = 25.222259 Si / 1000 Ang^3
#
#
#
# Elastic Constant Matrix: (Units=GPa)
#
#
# Indices 1 2 3 4 5 6 
#
# 1 185.0660 44.4221 56.5340 -29.7413 26.0372 10.9914
# 2 44.4221 107.5858 39.4032 -11.6741 2.9820 7.0970
# 3 56.5340 39.4032 116.8580 -20.4318 17.8793 -5.9355
# 4 -29.7413 -11.6741 -20.4318 65.5609 3.8767 8.1597
# 5 26.0372 2.9820 17.8793 3.8767 45.7400 -16.8646
# 6 10.9914 7.0970 -5.9355 8.1597 -16.8646 62.6497
#
#
#
# Elastic Compliance Matrix: (Units=1/GPa)
#
#
# Indices 1 2 3 4 5 6 
#
# 1 0.007879 -0.001809 -0.002014 0.003314 -0.005023 -0.003152
# 2 -0.001809 0.011236 -0.003086 0.000274 0.001118 -0.000983
# 3 -0.002014 -0.003086 0.011462 0.002207 -0.003071 0.000675
# 4 0.003314 0.000274 0.002207 0.018392 -0.005948 -0.004400
# 5 -0.005023 0.001118 -0.003071 -0.005948 0.029765 0.009251
# 6 -0.003152 -0.000983 0.000675 -0.004400 0.009251 0.019753
#
#
# Mechanical properties :
#
#
# Convention : Reuss Voigt Hill
#
# Bulk Modulus (GPa) = 59.67070 76.69204 68.18137
# Shear Modulus (GPa) = 42.41126 52.73348 47.57237
#
# Velocity S-wave (km/s) = 4.10506 4.57743 4.34767
# Velocity P-wave (km/s) = 6.79544 7.64262 7.23145
#
# Compressibility (1/GPa) = 0.01675864
#
# Stress axis : x y z
#
# Youngs Moduli (GPa) = 126.91182 89.00088 87.24146
#
# Poissons Ratio (x) = 0.16100 0.17571
# Poissons Ratio (y) = 0.22958 0.26927
# Poissons Ratio (z) = 0.25561 0.27470
#
# Static dielectric constant tensor:
#      x y z
#    x 2.041080 -0.001970 -0.085750 
#    y -0.001970 2.009260 0.013060 
#    z -0.085750 0.013060 2.014330 
# 
# From -- ./inp_files/209237.got.cif
#   From: 2010.05.17/outbox.cif.g08.bks.cpg/sg2_105_cif.got.tgz:209237.got - 2010.06.03 11:33:40.
