data_PCOD9068843
_publ_section_title
;
Structure prediction by ZEFSAII (Michael W. Deem and Ramdas Pophale) SiO2 
 PCOD9068843
Probable space group: P -1
;
_chemical_formula_sum "Si O2"
_cell_formula_units_Z 12
_cell_length_a 7.482878
_cell_length_b 11.988868
_cell_length_c 6.990685
_cell_angle_alpha 70.879927
_cell_angle_beta 63.213112
_cell_angle_gamma 108.638541
_cell_volume 440.389721
_symmetry_space_group_name_H-M "P -1"
_symmetry_group_IT_number 2
_symmetry_cell_setting 'triclinic'
loop_
_space_group_symop_operation_xyz
x,y,z
-x,-y,-z
loop_
_atom_site_type_symbol
_atom_site_label
_atom_site_fract_x
_atom_site_fract_y
_atom_site_fract_z
Si Si1 0.148998 0.946161 0.353903
Si Si2 0.979157 0.684011 0.830879
Si Si3 0.600624 0.946857 0.201892
Si Si4 0.496231 0.598315 0.107677
Si Si5 0.467898 0.774491 0.705288
Si Si6 0.275582 0.617515 0.538506
O O1 0.010989 0.786394 0.585366
O O2 0.428345 0.006482 0.247187
O O3 0.000000 0.000000 0.500000
O O4 0.182562 0.971152 0.096259
O O5 0.488818 0.274282 0.089210
O O6 0.012843 0.569679 0.768087
O O7 0.745840 0.652667 0.067351
O O8 0.647660 0.914701 0.411571
O O9 0.419741 0.783110 0.307798
O O10 0.789224 0.242395 0.183890
O O11 0.293196 0.535770 0.402104
O O12 0.500000 0.500000 0.000000
O O13 0.422654 0.648765 0.646833
#
# Coordination Sequence:
#
# PCOD9068843 Si02
#       6
#     2   2   2   2   2   2
#     4   9  13  25  57  77  96 140 172 197 260 311
#     4   8  20  37  48  80 111 132 175 217 256 313
#     4   7  15  31  48  73 110 137 154 216 264 290
#     4  12  21  34  59  77  98 145 181 213 265 306
#     4   7  19  39  49  77 113 130 175 216 258 316
#     4   7  18  38  49  74 115 129 166 225 256 301
#
# _framework density 27.248594000000001
#
# number of rings (size 3 to 8) (size 9 to 14) (size 15 to 20)
#    2.000    1.667    0.000    1.000    0.000    2.000 
#    3.000    0.833    0.000   32.000    0.000    0.000 
#    0.000    0.000    0.000    0.000    0.000    0.000 
#
# Total GULP energy -66816.415346 kJ/mol
# GULP energy per Si atom -5568.034612 kJ/mol
# Density = 2.718658 g / cm^3
# Si number density = 27.248594 Si / 1000 Ang^3
#
#
#
# Elastic Constant Matrix: (Units=GPa)
#
#
# Indices 1 2 3 4 5 6 
#
# 1 121.4697 24.4614 84.9796 9.6769 -3.1646 -4.0734
# 2 24.4614 48.4598 32.3325 11.8827 5.1618 -17.2623
# 3 84.9796 32.3325 176.2206 28.9537 10.3099 -31.2437
# 4 9.6769 11.8827 28.9537 48.2747 -10.2475 6.0278
# 5 -3.1646 5.1618 10.3099 -10.2475 35.7036 -0.6572
# 6 -4.0734 -17.2623 -31.2437 6.0278 -0.6572 37.0329
#
#
#
# Elastic Compliance Matrix: (Units=1/GPa)
#
#
# Indices 1 2 3 4 5 6 
#
# 1 0.016165 -0.008403 -0.010113 0.007994 0.007644 -0.011836
# 2 -0.008403 0.033908 0.004467 -0.014191 -0.010627 0.020771
# 3 -0.010113 0.004467 0.014918 -0.011836 -0.008965 0.015323
# 4 0.007994 -0.014191 -0.011836 0.035766 0.016052 -0.021258
# 5 0.007644 -0.010627 -0.008965 0.016052 0.037167 -0.013630
# 6 -0.011836 0.020771 0.015323 -0.021258 -0.013630 0.051529
#
#
# Mechanical properties :
#
#
# Convention : Reuss Voigt Hill
#
# Bulk Modulus (GPa) = 27.10579 69.96635 48.53607
# Shear Modulus (GPa) = 21.75349 37.82735 29.79042
#
# Velocity S-wave (km/s) = 2.82855 3.72994 3.31007
# Velocity P-wave (km/s) = 4.54277 6.65453 5.69735
#
# Compressibility (1/GPa) = 0.03689249
#
# Stress axis : x y z
#
# Youngs Moduli (GPa) = 61.86229 29.49186 67.03423
#
# Poissons Ratio (x) = 0.24783 0.67790
# Poissons Ratio (y) = 0.51984 -0.29944
# Poissons Ratio (z) = 0.62560 -0.13174
#
# Static dielectric constant tensor:
#      x y z
#    x 2.177900 0.068840 -0.069960 
#    y 0.068840 2.458050 0.020690 
#    z -0.069960 0.020690 2.123400 
# 
# From -- ./inp_files/267986.got.cif
#   From: 2010.05.17/outbox.cif.g08.bks.cpg/sg2_134_cif.got.tgz:267986.got - 2010.06.03 11:33:40.
