data_PCOD9068367
_publ_section_title
;
Structure prediction by ZEFSAII (Michael W. Deem and Ramdas Pophale) SiO2 
 PCOD9068367
Probable space group: P -1
;
_chemical_formula_sum "Si O2"
_cell_formula_units_Z 12
_cell_length_a 9.004075
_cell_length_b 15.077837
_cell_length_c 15.753397
_cell_angle_alpha 18.096337
_cell_angle_beta 52.385728
_cell_angle_gamma 49.510019
_cell_volume 505.013714
_symmetry_space_group_name_H-M "P -1"
_symmetry_group_IT_number 2
_symmetry_cell_setting 'triclinic'
loop_
_space_group_symop_operation_xyz
x,y,z
-x,-y,-z
loop_
_atom_site_type_symbol
_atom_site_label
_atom_site_fract_x
_atom_site_fract_y
_atom_site_fract_z
Si Si1 0.920066 0.571673 0.644924
Si Si2 0.755011 0.862460 0.700499
Si Si3 0.498441 0.311308 0.756487
Si Si4 0.517936 0.419954 0.167316
Si Si5 0.879130 0.299788 0.382503
Si Si6 0.926901 0.088614 0.851988
O O1 0.697645 0.579715 0.729971
O O2 0.006340 0.750940 0.521987
O O3 0.950702 0.720117 0.411277
O O4 0.043744 0.226366 0.919628
O O5 0.956221 0.650512 0.784220
O O6 0.659907 0.108696 0.436441
O O7 0.810476 0.035493 0.603451
O O8 0.604964 0.674690 0.943645
O O9 0.500000 0.500000 0.500000
O O10 0.317103 0.446272 0.758314
O O11 0.702915 0.275194 0.763696
O O12 0.500000 0.000000 0.000000
O O13 0.500000 0.500000 0.000000
O O14 0.000000 0.000000 0.000000
#
# Coordination Sequence:
#
# PCOD9068367 Si02
#       6
#     2   2   2   2   2   2
#     4  12  26  48  80 107 153 206 250 319 388 461
#     4  11  28  47  75 114 155 202 257 319 369 468
#     4  12  25  47  76 110 147 201 257 317 387 459
#     4  12  26  48  74 110 154 202 252 308 386 458
#     4  11  26  49  77 111 154 203 262 310 389 452
#     4  12  27  49  75 114 150 198 260 322 389 457
#
# _framework density 23.761731999999999
#
# number of rings (size 3 to 8) (size 9 to 14) (size 15 to 20)
#    0.000    0.333    5.000    2.000    4.667    6.667 
#    3.000    0.000    0.000    0.000    0.000    0.000 
#    0.000    0.000    0.000    0.000    0.000    0.000 
#
# Total GULP energy -67220.630336 kJ/mol
# GULP energy per Si atom -5601.719195 kJ/mol
# Density = 2.370765 g / cm^3
# Si number density = 23.761732 Si / 1000 Ang^3
#
#
#
# Elastic Constant Matrix: (Units=GPa)
#
#
# Indices 1 2 3 4 5 6 
#
# 1 175.9931 83.8908 60.5199 22.5589 -12.8568 -26.8888
# 2 83.8908 163.3464 54.8414 5.9701 -4.3382 -27.5330
# 3 60.5199 54.8414 160.5836 17.6524 -3.3572 -16.4600
# 4 22.5589 5.9701 17.6524 33.8171 -7.5242 -6.3405
# 5 -12.8568 -4.3382 -3.3572 -7.5242 31.8563 -6.8093
# 6 -26.8888 -27.5330 -16.4600 -6.3405 -6.8093 37.3547
#
#
#
# Elastic Compliance Matrix: (Units=1/GPa)
#
#
# Indices 1 2 3 4 5 6 
#
# 1 0.008914 -0.003338 -0.001456 -0.003337 0.002902 0.003277
# 2 -0.003338 0.009035 -0.001654 0.002546 0.001204 0.004180
# 3 -0.001456 -0.001654 0.007691 -0.002767 -0.000538 0.000554
# 4 -0.003337 0.002546 -0.002767 0.035760 0.008407 0.005858
# 5 0.002902 0.001204 -0.000538 0.008407 0.036987 0.010909
# 6 0.003277 0.004180 0.000554 0.005858 0.010909 0.035437
#
#
# Mechanical properties :
#
#
# Convention : Reuss Voigt Hill
#
# Bulk Modulus (GPa) = 78.46915 99.82525 89.14720
# Shear Modulus (GPa) = 33.11961 40.65036 36.88499
#
# Velocity S-wave (km/s) = 3.73744 4.14061 3.94418
# Velocity P-wave (km/s) = 7.19164 8.05988 7.63810
#
# Compressibility (1/GPa) = 0.01274386
#
# Stress axis : x y z
#
# Youngs Moduli (GPa) = 112.17902 110.68262 130.02842
#
# Poissons Ratio (x) = 0.36944 0.18935
# Poissons Ratio (y) = 0.37443 0.21506
# Poissons Ratio (z) = 0.16336 0.18306
#
# Static dielectric constant tensor:
#      x y z
#    x 1.929330 0.028840 0.007950 
#    y 0.028840 1.907600 -0.035550 
#    z 0.007950 -0.035550 1.863570 
# 
# From -- ./inp_files/502449.got.cif
#   From: 2010.05.17/outbox.cif.g08.bks.cpg/sg2_252_cif.got.tgz:502449.got - 2010.06.03 11:33:40.
