data_PCOD9068872
_publ_section_title
;
Structure prediction by ZEFSAII (Michael W. Deem and Ramdas Pophale) SiO2 
 PCOD9068872
Probable space group: P -1
;
_chemical_formula_sum "Si O2"
_cell_formula_units_Z 14
_cell_length_a 13.749227
_cell_length_b 19.560317
_cell_length_c 11.768439
_cell_angle_alpha 41.496033
_cell_angle_beta 21.616667
_cell_angle_gamma 33.615176
_cell_volume 640.546446
_symmetry_space_group_name_H-M "P -1"
_symmetry_group_IT_number 2
_symmetry_cell_setting 'triclinic'
loop_
_space_group_symop_operation_xyz
x,y,z
-x,-y,-z
loop_
_atom_site_type_symbol
_atom_site_label
_atom_site_fract_x
_atom_site_fract_y
_atom_site_fract_z
Si Si1 0.402357 0.244733 0.275942
Si Si2 0.692049 0.956010 0.729151
Si Si3 0.419576 0.821895 0.075566
Si Si4 0.670969 0.802181 0.333747
Si Si5 0.626625 0.587186 0.272059
Si Si6 0.657505 0.418819 0.816543
Si Si7 0.586157 0.336258 0.347998
O O1 0.425410 0.182978 0.448341
O O2 0.033107 0.330996 0.535247
O O3 0.582832 0.155900 0.083869
O O4 0.526829 0.333487 0.045864
O O5 0.059667 0.905438 0.407627
O O6 0.528388 0.070537 0.677166
O O7 0.649176 0.851946 0.851765
O O8 0.500000 0.000000 0.000000
O O9 0.549883 0.678830 0.136609
O O10 0.599988 0.707561 0.469395
O O11 0.045210 0.744221 0.987481
O O12 0.500000 0.500000 0.500000
O O13 0.457030 0.673722 0.459169
O O14 0.000000 0.500000 0.000000
O O15 0.560172 0.519458 0.698642
O O16 0.500000 0.500000 0.000000
#
# Coordination Sequence:
#
# PCOD9068872 Si02
#       7
#     2   2   2   2   2   2   2
#     4  12  24  41  63  99 131 168 211 257 326 384
#     4  12  26  47  69  92 123 170 222 267 317 370
#     4  12  26  45  68  94 133 167 207 270 321 374
#     4  12  24  41  65  94 124 165 220 261 309 377
#     4  12  24  43  65  95 129 165 209 255 319 385
#     4  12  21  39  63  96 135 169 207 252 318 382
#     4  12  23  39  65  94 127 167 211 265 311 372
#
# _framework density 21.856339999999999
#
# number of rings (size 3 to 8) (size 9 to 14) (size 15 to 20)
#    0.000    0.000    2.857    8.571    0.000    1.143 
#    0.000    0.000    0.000    0.000    0.000    0.000 
#    0.000    0.000    0.000    0.000    0.000    0.000 
#
# Total GULP energy -78474.797945 kJ/mol
# GULP energy per Si atom -5605.342710 kJ/mol
# Density = 2.180659 g / cm^3
# Si number density = 21.856340 Si / 1000 Ang^3
#
#
#
# Elastic Constant Matrix: (Units=GPa)
#
#
# Indices 1 2 3 4 5 6 
#
# 1 76.8389 -4.1361 24.4722 -6.3113 23.0900 -2.3851
# 2 -4.1361 68.9984 2.7982 -14.6739 0.9273 -29.9328
# 3 24.4722 2.7982 107.1715 1.5645 2.3195 -5.3833
# 4 -6.3113 -14.6739 1.5645 29.7691 0.9282 -1.7124
# 5 23.0900 0.9273 2.3195 0.9282 57.7109 -0.0545
# 6 -2.3851 -29.9328 -5.3833 -1.7124 -0.0545 51.1758
#
#
#
# Elastic Compliance Matrix: (Units=1/GPa)
#
#
# Indices 1 2 3 4 5 6 
#
# 1 0.017061 0.003766 -0.003794 0.006047 -0.006829 0.002794
# 2 0.003766 0.023987 -0.000908 0.013572 -0.002060 0.014562
# 3 -0.003794 -0.000908 0.010238 -0.001808 0.001151 0.000310
# 4 0.006047 0.013572 -0.001808 0.042303 -0.003236 0.009442
# 5 -0.006829 -0.002060 0.001151 -0.003236 0.020097 -0.001489
# 6 0.002794 0.014562 0.000310 0.009442 -0.001489 0.028535
#
#
# Mechanical properties :
#
#
# Convention : Reuss Voigt Hill
#
# Bulk Modulus (GPa) = 20.23749 33.25305 26.74527
# Shear Modulus (GPa) = 31.14016 43.05612 37.09814
#
# Velocity S-wave (km/s) = 3.77870 4.44324 4.12438
# Velocity P-wave (km/s) = 5.32142 6.44752 5.91135
#
# Compressibility (1/GPa) = 0.04941324
#
# Stress axis : x y z
#
# Youngs Moduli (GPa) = 58.61400 41.68932 97.67530
#
# Poissons Ratio (x) = -0.15702 0.37060
# Poissons Ratio (y) = -0.22076 0.08873
# Poissons Ratio (z) = 0.22240 0.03787
#
# Static dielectric constant tensor:
#      x y z
#    x 1.782510 0.003400 0.040300 
#    y 0.003400 1.774250 -0.011050 
#    z 0.040300 -0.011050 1.780280 
# 
# From -- ./inp_files/457677.got.cif
#   From: 2010.05.17/outbox.cif.g08.bks.cpg/sg2_229_cif.got.tgz:457677.got - 2010.06.03 11:33:40.
