data_PCOD9068589
_publ_section_title
;
Structure prediction by ZEFSAII (Michael W. Deem and Ramdas Pophale) SiO2 
 PCOD9068589
Probable space group: P -1
;
_chemical_formula_sum "Si O2"
_cell_formula_units_Z 10
_cell_length_a 10.128338
_cell_length_b 10.564711
_cell_length_c 11.136916
_cell_angle_alpha 52.319803
_cell_angle_beta 25.451937
_cell_angle_gamma 48.293434
_cell_volume 382.131840
_symmetry_space_group_name_H-M "P -1"
_symmetry_group_IT_number 2
_symmetry_cell_setting 'triclinic'
loop_
_space_group_symop_operation_xyz
x,y,z
-x,-y,-z
loop_
_atom_site_type_symbol
_atom_site_label
_atom_site_fract_x
_atom_site_fract_y
_atom_site_fract_z
Si Si1 0.141351 0.740743 0.965202
Si Si2 0.148754 0.963459 0.155488
Si Si3 0.165147 0.306712 0.518511
Si Si4 0.149750 0.199715 0.218592
Si Si5 0.521849 0.568824 0.309084
O O1 0.447014 0.757689 0.778945
O O2 0.312123 0.581965 0.831007
O O3 0.958709 0.903041 0.942000
O O4 0.901018 0.702404 0.279509
O O5 0.993229 0.820111 0.338388
O O6 0.028368 0.070085 0.315533
O O7 0.533472 0.884088 0.912165
O O8 0.000000 0.500000 0.500000
O O9 0.854073 0.321638 0.466444
O O10 0.272210 0.305550 0.954872
O O11 0.500000 0.500000 0.500000
#
# Coordination Sequence:
#
# PCOD9068589 Si02
#       5
#     2   2   2   2   2
#     4  12  27  48  83 111 152 203 259 315 380 459
#     4  11  27  50  76 117 155 200 260 312 386 448
#     4  12  28  51  78 112 155 203 257 321 382 457
#     4  11  27  47  78 111 160 202 248 316 381 459
#     4  12  25  48  75 114 154 200 254 308 383 457
#
# _framework density 26.168980000000001
#
# number of rings (size 3 to 8) (size 9 to 14) (size 15 to 20)
#    0.000    0.400    2.000    4.800    2.800    9.600 
#    0.000    0.000    0.000    0.000    0.000    0.000 
#    0.000    0.000    0.000    0.000    0.000    0.000 
#
# Total GULP energy -56187.089425 kJ/mol
# GULP energy per Si atom -5618.708943 kJ/mol
# Density = 2.610942 g / cm^3
# Si number density = 26.168980 Si / 1000 Ang^3
#
#
#
# Elastic Constant Matrix: (Units=GPa)
#
#
# Indices 1 2 3 4 5 6 
#
# 1 99.4325 55.2010 -4.3581 -30.8701 -4.7605 -5.7706
# 2 55.2010 167.5431 21.4408 -21.2465 -4.1828 -1.0017
# 3 -4.3581 21.4408 100.7490 -11.7921 6.7843 1.9456
# 4 -30.8701 -21.2465 -11.7921 46.6649 -1.9417 -3.7813
# 5 -4.7605 -4.1828 6.7843 -1.9417 57.0138 -6.1105
# 6 -5.7706 -1.0017 1.9456 -3.7813 -6.1105 58.8964
#
#
#
# Elastic Compliance Matrix: (Units=1/GPa)
#
#
# Indices 1 2 3 4 5 6 
#
# 1 0.015567 -0.004240 0.002533 0.009228 0.001225 0.002089
# 2 -0.004240 0.007634 -0.001807 0.000218 0.000410 -0.000169
# 3 0.002533 -0.001807 0.010911 0.003562 -0.001101 -0.000029
# 4 0.009228 0.000218 0.003562 0.028829 0.001646 0.002812
# 5 0.001225 0.000410 -0.001101 0.001646 0.018089 0.002146
# 6 0.002089 -0.000169 -0.000029 0.002812 0.002146 0.017585
#
#
# Mechanical properties :
#
#
# Convention : Reuss Voigt Hill
#
# Bulk Modulus (GPa) = 36.92199 56.92133 46.92166
# Shear Modulus (GPa) = 43.60342 52.21107 47.90724
#
# Velocity S-wave (km/s) = 4.08637 4.47156 4.28330
# Velocity P-wave (km/s) = 6.03359 6.96121 6.51394
#
# Compressibility (1/GPa) = 0.02708413
#
# Stress axis : x y z
#
# Youngs Moduli (GPa) = 64.24046 131.00130 91.64772
#
# Poissons Ratio (x) = 0.55540 -0.23212
# Poissons Ratio (y) = 0.27236 0.16559
# Poissons Ratio (z) = -0.16271 0.23669
#
# Static dielectric constant tensor:
#      x y z
#    x 2.090190 0.019620 0.004220 
#    y 0.019620 2.047440 -0.023920 
#    z 0.004220 -0.023920 1.986490 
# 
# From -- ./inp_files/347.got.cif
#   From: 2010.05.17/outbox.cif.g08.bks.cpg/sg2_1_cif.got.tgz:347.got - 2010.06.03 11:33:40.
