data_PCOD9068570
_publ_section_title
;
Structure prediction by ZEFSAII (Michael W. Deem and Ramdas Pophale) SiO2 
 PCOD9068570
Probable space group: P -1
;
_chemical_formula_sum "Si O2"
_cell_formula_units_Z 16
_cell_length_a 8.362761
_cell_length_b 20.826569
_cell_length_c 4.803000
_cell_angle_alpha 91.949529
_cell_angle_beta 79.664536
_cell_angle_gamma 51.996718
_cell_volume 637.104135
_symmetry_space_group_name_H-M "P -1"
_symmetry_group_IT_number 2
_symmetry_cell_setting 'triclinic'
loop_
_space_group_symop_operation_xyz
x,y,z
-x,-y,-z
loop_
_atom_site_type_symbol
_atom_site_label
_atom_site_fract_x
_atom_site_fract_y
_atom_site_fract_z
Si Si1 0.370453 0.388801 0.363292
Si Si2 0.252058 0.938686 0.354486
Si Si3 0.955461 0.456917 0.237298
Si Si4 0.105384 0.669462 0.697874
Si Si5 0.304081 0.782522 0.433916
Si Si6 0.650735 0.000318 0.168884
Si Si7 0.601999 0.404834 0.929731
Si Si8 0.975788 0.183016 0.988307
O O1 0.281856 0.474704 0.561436
O O2 0.513437 0.303148 0.479131
O O3 0.428260 0.392203 0.022497
O O4 0.138255 0.414824 0.404921
O O5 0.349056 0.842998 0.328744
O O6 0.382776 0.952692 0.525366
O O7 0.000000 0.000000 0.500000
O O8 0.267085 0.963054 0.046313
O O9 0.968578 0.378266 0.151305
O O10 0.000000 0.500000 0.000000
O O11 0.188489 0.774818 0.211771
O O12 0.317595 0.631990 0.790394
O O13 0.970294 0.763791 0.859216
O O14 0.131500 0.831491 0.737971
O O15 0.822954 0.904752 0.187556
O O16 0.500000 0.000000 0.000000
O O17 0.797835 0.357924 0.647558
O O18 0.500000 0.500000 0.000000
#
# Coordination Sequence:
#
# PCOD9068570 Si02
#       8
#     2   2   2   2   2   2   2   2
#     4  11  27  47  72 106 148 193 252 312 379 442
#     4  12  23  47  80 110 149 206 257 301 381 463
#     4  11  27  49  71 105 156 197 242 317 391 458
#     4  12  27  43  74 106 143 192 247 312 386 433
#     4  12  26  45  76 111 145 193 259 317 359 455
#     4  12  26  48  77 114 157 201 245 315 387 463
#     4  12  24  44  73 103 134 194 255 304 360 456
#     4  12  25  45  72 113 150 184 253 321 371 449
#
# _framework density 25.113634999999999
#
# number of rings (size 3 to 8) (size 9 to 14) (size 15 to 20)
#    0.000    0.250    5.000    3.375    5.250    1.000 
#    2.250    0.000    0.000    0.000    0.000    0.000 
#    0.000    0.000    0.000    0.000    0.000    0.000 
#
# Total GULP energy -89163.367739 kJ/mol
# GULP energy per Si atom -5572.710484 kJ/mol
# Density = 2.505647 g / cm^3
# Si number density = 25.113635 Si / 1000 Ang^3
#
#
#
# Elastic Constant Matrix: (Units=GPa)
#
#
# Indices 1 2 3 4 5 6 
#
# 1 56.7389 51.2064 30.7158 -3.6259 8.7135 10.1796
# 2 51.2064 170.8063 36.3123 -23.8506 -1.6156 34.6023
# 3 30.7158 36.3123 128.7140 -12.4842 -0.8847 9.7208
# 4 -3.6259 -23.8506 -12.4842 32.1799 7.6183 7.2609
# 5 8.7135 -1.6156 -0.8847 7.6183 45.8601 -8.9228
# 6 10.1796 34.6023 9.7208 7.2609 -8.9228 43.5052
#
#
#
# Elastic Compliance Matrix: (Units=1/GPa)
#
#
# Indices 1 2 3 4 5 6 
#
# 1 0.027886 -0.007974 -0.004820 -0.003561 -0.004990 0.000465
# 2 -0.007974 0.011489 0.000354 0.010253 -0.001604 -0.009391
# 3 -0.004820 0.000354 0.009319 0.003715 0.000135 -0.001829
# 4 -0.003561 0.010253 0.003715 0.046132 -0.010039 -0.017910
# 5 -0.004990 -0.001604 0.000135 -0.010039 0.026209 0.009464
# 6 0.000465 -0.009391 -0.001829 -0.017910 0.009464 0.035685
#
#
# Mechanical properties :
#
#
# Convention : Reuss Voigt Hill
#
# Bulk Modulus (GPa) = 41.99163 65.85870 53.92516
# Shear Modulus (GPa) = 26.38031 40.17734 33.27883
#
# Velocity S-wave (km/s) = 3.24456 4.00412 3.64418
# Velocity P-wave (km/s) = 5.54916 6.90351 6.26305
#
# Compressibility (1/GPa) = 0.02381427
#
# Stress axis : x y z
#
# Youngs Moduli (GPa) = 35.86092 87.04187 107.31030
#
# Poissons Ratio (x) = 0.69407 0.51721
# Poissons Ratio (y) = 0.28595 -0.03803
# Poissons Ratio (z) = 0.17284 -0.03084
#
# Static dielectric constant tensor:
#      x y z
#    x 2.408740 -0.042250 0.132450 
#    y -0.042250 2.077230 0.057960 
#    z 0.132450 0.057960 2.058150 
# 
# From -- ./inp_files/51308.got.cif
#   From: 2010.05.17/outbox.cif.g08.bks.cpg/sg2_26_cif.got.tgz:51308.got - 2010.06.03 11:33:40.
