data_PCOD9068483
_publ_section_title
;
Structure prediction by ZEFSAII (Michael W. Deem and Ramdas Pophale) SiO2 
 PCOD9068483
Probable space group: P -1
;
_chemical_formula_sum "Si O2"
_cell_formula_units_Z 14
_cell_length_a 7.746938
_cell_length_b 13.703329
_cell_length_c 9.525816
_cell_angle_alpha 68.237795
_cell_angle_beta 51.632063
_cell_angle_gamma 106.082576
_cell_volume 528.387576
_symmetry_space_group_name_H-M "P -1"
_symmetry_group_IT_number 2
_symmetry_cell_setting 'triclinic'
loop_
_space_group_symop_operation_xyz
x,y,z
-x,-y,-z
loop_
_atom_site_type_symbol
_atom_site_label
_atom_site_fract_x
_atom_site_fract_y
_atom_site_fract_z
Si Si1 0.880116 0.137778 0.839900
Si Si2 0.213727 0.425924 0.789028
Si Si3 0.660114 0.637655 0.945800
Si Si4 0.543880 0.130980 0.345871
Si Si5 0.522817 0.275899 0.545071
Si Si6 0.728482 0.324920 0.732660
Si Si7 0.779516 0.061155 0.623632
O O1 0.855111 0.252504 0.747830
O O2 0.875135 0.072704 0.729826
O O3 0.870695 0.266048 0.035576
O O4 0.181152 0.210558 0.735610
O O5 0.500000 0.500000 0.500000
O O6 0.318256 0.413306 0.890168
O O7 0.212623 0.551372 0.717897
O O8 0.496523 0.694359 0.031590
O O9 0.500000 0.500000 0.000000
O O10 0.985857 0.776848 0.642872
O O11 0.528099 0.197815 0.454809
O O12 0.434318 0.992087 0.853082
O O13 0.500000 0.000000 0.500000
O O14 0.283168 0.049885 0.400317
O O15 0.578154 0.267912 0.684382
O O16 0.000000 0.500000 0.500000
#
# Coordination Sequence:
#
# PCOD9068483 Si02
#       7
#     2   2   2   2   2   2   2
#     4  11  28  53  81 121 174 219 286 352 438 515
#     4  12  25  51  80 125 170 224 285 350 429 518
#     4  12  27  49  84 119 165 223 294 356 428 518
#     4  12  27  49  83 123 172 217 288 356 420 512
#     4  12  28  53  88 124 168 232 285 352 433 514
#     4  12  28  49  82 122 167 221 286 357 425 509
#     4  11  26  51  77 118 168 219 282 357 425 508
#
# _framework density 26.495699999999999
#
# number of rings (size 3 to 8) (size 9 to 14) (size 15 to 20)
#    0.000    0.286    2.857    4.714    4.000    6.857 
#    0.000    6.429    0.000    0.000    0.000    0.000 
#    0.000    0.000    0.000    0.000    0.000    0.000 
#
# Total GULP energy -78504.530608 kJ/mol
# GULP energy per Si atom -5607.466472 kJ/mol
# Density = 2.643539 g / cm^3
# Si number density = 26.495700 Si / 1000 Ang^3
#
#
#
# Elastic Constant Matrix: (Units=GPa)
#
#
# Indices 1 2 3 4 5 6 
#
# 1 133.8741 66.3462 65.9223 5.7551 -2.9488 31.4127
# 2 66.3462 236.4987 100.2460 -0.1104 -10.1257 16.1222
# 3 65.9223 100.2460 230.0061 -11.5019 -1.3824 10.4354
# 4 5.7551 -0.1104 -11.5019 63.0239 3.1700 -1.2178
# 5 -2.9488 -10.1257 -1.3824 3.1700 41.8072 1.8303
# 6 31.4127 16.1222 10.4354 -1.2178 1.8303 60.7532
#
#
#
# Elastic Compliance Matrix: (Units=1/GPa)
#
#
# Indices 1 2 3 4 5 6 
#
# 1 0.010541 -0.001710 -0.002134 -0.001474 0.000575 -0.004677
# 2 -0.001710 0.005605 -0.001944 -0.000256 0.001206 -0.000311
# 3 -0.002134 -0.001944 0.005838 0.001298 -0.000556 0.000659
# 4 -0.001474 -0.000256 0.001298 0.016328 -0.001404 0.000977
# 5 0.000575 0.001206 -0.000556 -0.001404 0.024396 -0.001285
# 6 -0.004677 -0.000311 0.000659 0.000977 -0.001285 0.018906
#
#
# Mechanical properties :
#
#
# Convention : Reuss Voigt Hill
#
# Bulk Modulus (GPa) = 96.07714 118.37864 107.22789
# Shear Modulus (GPa) = 51.72769 57.64114 54.68441
#
# Velocity S-wave (km/s) = 4.42328 4.66928 4.54794
# Velocity P-wave (km/s) = 7.90110 8.59331 8.25446
#
# Compressibility (1/GPa) = 0.01040830
#
# Stress axis : x y z
#
# Youngs Moduli (GPa) = 94.86323 178.41867 171.28065
#
# Poissons Ratio (x) = 0.30507 0.36554
# Poissons Ratio (y) = 0.16220 0.33300
# Poissons Ratio (z) = 0.20245 0.34688
#
# Static dielectric constant tensor:
#      x y z
#    x 2.146590 -0.077650 -0.034050 
#    y -0.077650 2.182040 0.057450 
#    z -0.034050 0.057450 2.064880 
# 
# From -- ./inp_files/192649.got.cif
#   From: 2010.05.17/outbox.cif.g08.bks.cpg/sg2_97_cif.got.tgz:192649.got - 2010.06.03 11:33:40.
