data_PCOD9068675
_publ_section_title
;
Structure prediction by ZEFSAII (Michael W. Deem and Ramdas Pophale) SiO2 
 PCOD9068675
Probable space group: P -1
;
_chemical_formula_sum "Si O2"
_cell_formula_units_Z 10
_cell_length_a 12.595382
_cell_length_b 4.816494
_cell_length_c 6.967415
_cell_angle_alpha 68.950203
_cell_angle_beta 100.186766
_cell_angle_gamma 116.991456
_cell_volume 351.458798
_symmetry_space_group_name_H-M "P -1"
_symmetry_group_IT_number 2
_symmetry_cell_setting 'triclinic'
loop_
_space_group_symop_operation_xyz
x,y,z
-x,-y,-z
loop_
_atom_site_type_symbol
_atom_site_label
_atom_site_fract_x
_atom_site_fract_y
_atom_site_fract_z
Si Si1 0.172853 0.256480 0.963833
Si Si2 0.441774 0.754818 0.917088
Si Si3 0.440169 0.755088 0.416628
Si Si4 0.822798 0.311078 0.622528
Si Si5 0.073811 0.729120 0.740987
O O1 0.299477 0.565738 0.920217
O O2 0.079834 0.414259 0.929334
O O3 0.134817 0.053549 0.804796
O O4 0.184139 0.002206 0.180647
O O5 0.457712 0.845319 0.650411
O O6 0.541700 0.154200 0.850207
O O7 0.500000 0.500000 0.000000
O O8 0.500000 0.500000 0.500000
O O9 0.298218 0.649349 0.398889
O O10 0.848787 0.243392 0.431175
O O11 0.939650 0.623975 0.653439
#
# Coordination Sequence:
#
# PCOD9068675 Si02
#       5
#     2   2   2   2   2
#     4  12  26  50  80 115 161 208 270 331 400 480
#     4  12  25  48  73 108 152 205 257 321 396 466
#     4  12  28  48  77 113 154 208 267 325 403 473
#     4  11  27  51  82 114 166 210 262 340 396 475
#     4  11  28  49  80 122 155 210 273 323 403 483
#
# _framework density 28.452836000000001
#
# number of rings (size 3 to 8) (size 9 to 14) (size 15 to 20)
#    0.000    0.400    2.000    4.800    0.000   11.200 
#    0.000    0.000    0.000    0.000    0.000    0.000 
#    0.000    0.000    0.000    0.000    0.000    0.000 
#
# Total GULP energy -56189.377105 kJ/mol
# GULP energy per Si atom -5618.937711 kJ/mol
# Density = 2.838808 g / cm^3
# Si number density = 28.452836 Si / 1000 Ang^3
#
#
#
# Elastic Constant Matrix: (Units=GPa)
#
#
# Indices 1 2 3 4 5 6 
#
# 1 288.1933 126.5059 85.0944 9.2288 30.4904 15.3440
# 2 126.5059 255.5100 83.4263 49.1418 12.5914 -5.8793
# 3 85.0944 83.4263 229.8519 10.4511 -1.3391 20.1294
# 4 9.2288 49.1418 10.4511 72.0215 -12.0319 -4.2835
# 5 30.4904 12.5914 -1.3391 -12.0319 65.6895 4.4019
# 6 15.3440 -5.8793 20.1294 -4.2835 4.4019 51.4904
#
#
#
# Elastic Compliance Matrix: (Units=1/GPa)
#
#
# Indices 1 2 3 4 5 6 
#
# 1 0.004941 -0.002198 -0.000971 0.000657 -0.001695 -0.001144
# 2 -0.002198 0.006318 -0.001458 -0.003890 -0.001048 0.001712
# 3 -0.000971 -0.001458 0.005407 0.000388 0.001049 -0.002048
# 4 0.000657 -0.003890 0.000388 0.017010 0.003543 0.000321
# 5 -0.001695 -0.001048 0.001049 0.003543 0.016960 -0.001180
# 6 -0.001144 0.001712 -0.002048 0.000321 -0.001180 0.020886
#
#
# Mechanical properties :
#
#
# Convention : Reuss Voigt Hill
#
# Bulk Modulus (GPa) = 134.94048 151.51205 143.22626
# Shear Modulus (GPa) = 60.06274 69.74219 64.90247
#
# Velocity S-wave (km/s) = 4.59950 4.95628 4.78122
# Velocity P-wave (km/s) = 8.70265 9.28002 8.99597
#
# Compressibility (1/GPa) = 0.00741067
#
# Stress axis : x y z
#
# Youngs Moduli (GPa) = 202.40009 158.28769 184.93943
#
# Poissons Ratio (x) = 0.34797 0.17953
# Poissons Ratio (y) = 0.44494 0.26971
# Poissons Ratio (z) = 0.19648 0.23084
#
# Static dielectric constant tensor:
#      x y z
#    x 1.362260 0.028190 -0.317280 
#    y 0.028190 2.146600 0.148120 
#    z -0.317280 0.148120 2.527130 
# 
# From -- ./inp_files/22545.got.cif
#   From: 2010.05.17/outbox.cif.g08.bks.cpg/sg2_12_cif.got.tgz:22545.got - 2010.06.03 11:33:40.
