data_PCOD9068541
_publ_section_title
;
Structure prediction by ZEFSAII (Michael W. Deem and Ramdas Pophale) SiO2 
 PCOD9068541
Probable space group: P -1
;
_chemical_formula_sum "Si O2"
_cell_formula_units_Z 14
_cell_length_a 4.985100
_cell_length_b 15.812791
_cell_length_c 9.981875
_cell_angle_alpha 48.579896
_cell_angle_beta 90.809113
_cell_angle_gamma 89.495425
_cell_volume 589.814104
_symmetry_space_group_name_H-M "P -1"
_symmetry_group_IT_number 2
_symmetry_cell_setting 'triclinic'
loop_
_space_group_symop_operation_xyz
x,y,z
-x,-y,-z
loop_
_atom_site_type_symbol
_atom_site_label
_atom_site_fract_x
_atom_site_fract_y
_atom_site_fract_z
Si Si1 0.789932 0.957938 0.929716
Si Si2 0.760035 0.936247 0.631924
Si Si3 0.338412 0.605343 0.318623
Si Si4 0.442884 0.656290 0.675164
Si Si5 0.496184 0.806320 0.271716
Si Si6 0.925550 0.690639 0.804643
Si Si7 0.818367 0.568965 0.194371
O O1 0.817998 0.936856 0.792723
O O2 0.598113 0.069603 0.812029
O O3 0.696982 0.842329 0.118400
O O4 0.000000 0.000000 0.000000
O O5 0.777477 0.808743 0.712916
O O6 0.500000 0.000000 0.500000
O O7 0.000000 0.000000 0.500000
O O8 0.500000 0.500000 0.500000
O O9 0.303778 0.716754 0.292884
O O10 0.548696 0.634968 0.171389
O O11 0.052987 0.566256 0.307660
O O12 0.565358 0.739281 0.477580
O O13 0.705241 0.618996 0.798466
O O14 0.294094 0.552362 0.716542
O O15 0.203205 0.709022 0.709391
O O16 0.961035 0.625857 0.010777
#
# Coordination Sequence:
#
# PCOD9068541 Si02
#       7
#     2   2   2   2   2   2   2
#     4  11  28  48  78 111 149 198 255 318 375 448
#     4  12  28  50  77 109 151 197 254 310 382 447
#     4  12  26  45  74 109 145 195 245 310 373 452
#     4  12  26  46  75 108 148 200 244 308 373 454
#     4  11  27  45  74 106 153 190 256 303 383 439
#     4  12  26  46  74 107 148 195 252 305 377 447
#     4  12  26  47  73 108 150 193 250 306 377 440
#
# _framework density 23.736291000000001
#
# number of rings (size 3 to 8) (size 9 to 14) (size 15 to 20)
#    0.000    0.286    1.429    6.429   12.000    0.000 
#    0.000    0.000    0.000    0.000    0.000    0.000 
#    0.000    0.000    0.000    0.000    0.000    0.000 
#
# Total GULP energy -78163.779350 kJ/mol
# GULP energy per Si atom -5583.127096 kJ/mol
# Density = 2.368227 g / cm^3
# Si number density = 23.736291 Si / 1000 Ang^3
#
#
#
# Elastic Constant Matrix: (Units=GPa)
#
#
# Indices 1 2 3 4 5 6 
#
# 1 112.7103 15.9143 29.0733 17.0496 0.6634 17.4341
# 2 15.9143 85.6465 21.9025 1.5609 -14.1371 3.9318
# 3 29.0733 21.9025 133.5035 18.3694 -22.2595 6.0888
# 4 17.0496 1.5609 18.3694 49.7082 0.5849 -4.0538
# 5 0.6634 -14.1371 -22.2595 0.5849 26.2919 4.0173
# 6 17.4341 3.9318 6.0888 -4.0538 4.0173 46.9117
#
#
#
# Elastic Compliance Matrix: (Units=1/GPa)
#
#
# Indices 1 2 3 4 5 6 
#
# 1 0.010628 -0.001625 -0.001771 -0.003217 -0.002006 -0.003690
# 2 -0.001625 0.013311 -0.000691 0.000235 0.006758 -0.000980
# 3 -0.001771 -0.000691 0.009905 -0.003257 0.008371 -0.001568
# 4 -0.003217 0.000235 -0.003257 0.022776 -0.003650 0.003879
# 5 -0.002006 0.006758 0.008371 -0.003650 0.049725 -0.005481
# 6 -0.003690 -0.000980 -0.001568 0.003879 -0.005481 0.023778
#
#
# Mechanical properties :
#
#
# Convention : Reuss Voigt Hill
#
# Bulk Modulus (GPa) = 38.95719 51.73783 45.34751
# Shear Modulus (GPa) = 34.04754 42.24704 38.14729
#
# Velocity S-wave (km/s) = 3.79147 4.22340 4.01325
# Velocity P-wave (km/s) = 5.96784 6.75478 6.37347
#
# Compressibility (1/GPa) = 0.02566921
#
# Stress axis : x y z
#
# Youngs Moduli (GPa) = 94.09241 75.12767 100.95927
#
# Poissons Ratio (x) = 0.12208 0.17885
# Poissons Ratio (y) = 0.15289 0.06974
# Poissons Ratio (z) = 0.16668 0.05189
#
# Static dielectric constant tensor:
#      x y z
#    x 1.749260 0.046500 -0.324100 
#    y 0.046500 1.950090 0.186860 
#    z -0.324100 0.186860 1.446140 
# 
# From -- ./inp_files/134762.got.cif
#   From: 2010.05.17/outbox.cif.g08.bks.cpg/sg2_68_cif.got.tgz:134762.got - 2010.06.03 11:33:40.
