data_PCOD9068494
_publ_section_title
;
Structure prediction by ZEFSAII (Michael W. Deem and Ramdas Pophale) SiO2 
 PCOD9068494
Probable space group: P -1
;
_chemical_formula_sum "Si O2"
_cell_formula_units_Z 13
_cell_length_a 9.630084
_cell_length_b 15.487101
_cell_length_c 6.439220
_cell_angle_alpha 81.110008
_cell_angle_beta 102.051027
_cell_angle_gamma 144.221253
_cell_volume 548.921279
_symmetry_space_group_name_H-M "P -1"
_symmetry_group_IT_number 2
_symmetry_cell_setting 'triclinic'
loop_
_space_group_symop_operation_xyz
x,y,z
-x,-y,-z
loop_
_atom_site_type_symbol
_atom_site_label
_atom_site_fract_x
_atom_site_fract_y
_atom_site_fract_z
Si Si1 0.610421 0.838524 0.464456
Si Si2 0.264753 0.417242 0.070564
Si Si3 0.895936 0.196969 0.723598
Si Si4 0.500000 0.000000 0.000000
Si Si5 0.297857 0.776153 0.685018
Si Si6 0.059445 0.168755 0.412940
Si Si7 0.836206 0.460577 0.786256
O O1 0.516548 0.823434 0.665368
O O2 0.766195 0.828127 0.536245
O O3 0.368674 0.702363 0.310082
O O4 0.784612 0.997962 0.356056
O O5 0.156148 0.288540 0.237137
O O6 0.299565 0.521540 0.174866
O O7 0.500000 0.500000 0.000000
O O8 0.085919 0.348817 0.850230
O O9 0.715508 0.074075 0.886852
O O10 0.727666 0.164217 0.523479
O O11 0.040672 0.200153 0.626320
O O12 0.321935 0.838183 0.886703
O O13 0.044660 0.600225 0.651179
O O14 0.000000 0.500000 0.000000
#
# Coordination Sequence:
#
# PCOD9068494 Si02
#       7
#     2   2   2   1   2   2   2
#     4  11  27  48  75 109 155 198 244 314 383 444
#     4  12  28  47  78 110 148 201 253 307 371 464
#     4  12  24  46  78 107 144 197 253 305 371 446
#     4  12  24  44  78 112 142 186 264 302 366 454
#     4  12  26  46  78 107 151 195 247 320 372 447
#     4  11  26  52  75 108 150 207 250 307 381 446
#     4  12  27  47  72 116 151 197 249 313 383 440
#
# _framework density 23.682812999999999
#
# number of rings (size 3 to 8) (size 9 to 14) (size 15 to 20)
#    0.000    0.308    4.615    2.769    6.462    1.231 
#    0.000    2.308    0.000    0.000    0.000    0.000 
#    0.000    0.000    0.000    0.000    0.000    0.000 
#
# Total GULP energy -72496.259369 kJ/mol
# GULP energy per Si atom -5576.635336 kJ/mol
# Density = 2.362891 g / cm^3
# Si number density = 23.682813 Si / 1000 Ang^3
#
#
#
# Elastic Constant Matrix: (Units=GPa)
#
#
# Indices 1 2 3 4 5 6 
#
# 1 131.0744 24.2229 49.7402 -17.1640 -51.6212 7.4686
# 2 24.2229 134.7367 58.9663 19.0431 -14.9392 11.0917
# 3 49.7402 58.9663 102.8779 -0.0661 -29.2989 -4.4758
# 4 -17.1640 19.0431 -0.0661 36.1818 3.6726 -10.4014
# 5 -51.6212 -14.9392 -29.2989 3.6726 49.4862 -3.3004
# 6 7.4686 11.0917 -4.4758 -10.4014 -3.3004 42.0543
#
#
#
# Elastic Compliance Matrix: (Units=1/GPa)
#
#
# Indices 1 2 3 4 5 6 
#
# 1 0.014846 -0.000708 -0.003082 0.006014 0.012983 -0.000272
# 2 -0.000708 0.012322 -0.007311 -0.008470 -0.001124 -0.006085
# 3 -0.003082 -0.007311 0.016996 0.003524 0.004747 0.005529
# 4 0.006014 -0.008470 0.003524 0.037790 0.003744 0.011181
# 5 0.012983 -0.001124 0.004747 0.003744 0.036095 0.002255
# 6 -0.000272 -0.006085 0.005529 0.011181 0.002255 0.028963
#
#
# Mechanical properties :
#
#
# Convention : Reuss Voigt Hill
#
# Bulk Modulus (GPa) = 45.53447 70.50531 58.01989
# Shear Modulus (GPa) = 28.32321 41.26176 34.79249
#
# Velocity S-wave (km/s) = 3.46199 4.17857 3.83705
# Velocity P-wave (km/s) = 5.93709 7.28807 6.64699
#
# Compressibility (1/GPa) = 0.02196138
#
# Stress axis : x y z
#
# Youngs Moduli (GPa) = 67.35779 81.15599 58.83905
#
# Poissons Ratio (x) = 0.05747 0.18137
# Poissons Ratio (y) = 0.04770 0.43015
# Poissons Ratio (z) = 0.20762 0.59330
#
# Static dielectric constant tensor:
#      x y z
#    x 1.923810 -0.035400 0.074090 
#    y -0.035400 1.940610 0.054510 
#    z 0.074090 0.054510 1.904700 
# 
# From -- ./inp_files/38840.got.cif
#   From: 2010.05.17/outbox.cif.g08.bks.cpg/sg2_20_cif.got.tgz:38840.got - 2010.06.03 11:33:40.
