data_PCOD9068985
_publ_section_title
;
Structure prediction by ZEFSAII (Michael W. Deem and Ramdas Pophale) SiO2 
 PCOD9068985
Probable space group: P -1
;
_chemical_formula_sum "Si O2"
_cell_formula_units_Z 14
_cell_length_a 12.438523
_cell_length_b 20.238866
_cell_length_c 12.036028
_cell_angle_alpha 160.241190
_cell_angle_beta 144.417401
_cell_angle_gamma 29.686886
_cell_volume 507.133570
_symmetry_space_group_name_H-M "P -1"
_symmetry_group_IT_number 2
_symmetry_cell_setting 'triclinic'
loop_
_space_group_symop_operation_xyz
x,y,z
-x,-y,-z
loop_
_atom_site_type_symbol
_atom_site_label
_atom_site_fract_x
_atom_site_fract_y
_atom_site_fract_z
Si Si1 0.574136 0.904262 0.288363
Si Si2 0.770693 0.209186 0.175314
Si Si3 0.833420 0.963347 0.114861
Si Si4 0.021782 0.354210 0.072424
Si Si5 0.734234 0.414493 0.251725
Si Si6 0.856896 0.384464 0.744462
Si Si7 0.593206 0.729583 0.437634
O O1 0.500000 0.000000 0.500000
O O2 0.587065 0.084994 0.504812
O O3 0.383866 0.868970 0.027049
O O4 0.773509 0.653470 0.084949
O O5 0.652305 0.333743 0.158252
O O6 0.833937 0.334034 0.515687
O O7 0.000000 0.000000 0.000000
O O8 0.758627 0.227027 0.456424
O O9 0.675241 0.875534 0.805226
O O10 0.893382 0.879481 0.158987
O O11 0.055815 0.801865 0.974223
O O12 0.787476 0.547910 0.232624
O O13 0.172536 0.449055 0.388577
O O14 0.012810 0.325395 0.889142
O O15 0.574415 0.577568 0.278416
#
# Coordination Sequence:
#
# PCOD9068985 Si02
#       7
#     2   2   2   2   2   2   2
#     4  12  25  43  64  91 125 167 209 252 311 376
#     4  12  24  42  64  94 127 161 208 260 312 360
#     4   9  17  34  63  91 121 161 213 250 297 368
#     4   9  18  34  61  96 119 161 212 251 297 367
#     4   9  19  38  63  89 122 162 204 254 304 358
#     4  12  22  35  65  93 129 158 211 256 305 371
#     4   9  17  38  62  83 122 168 206 240 302 375
#
# _framework density 27.60614
#
# number of rings (size 3 to 8) (size 9 to 14) (size 15 to 20)
#    0.000    1.714    4.286    3.429    0.000    0.571 
#    0.000    1.429    0.000    0.000    0.000    0.000 
#    0.000    0.000    0.000    0.000    0.000    0.000 
#
# Total GULP energy -78222.376678 kJ/mol
# GULP energy per Si atom -5587.312620 kJ/mol
# Density = 2.754331 g / cm^3
# Si number density = 27.606140 Si / 1000 Ang^3
#
#
#
# Elastic Constant Matrix: (Units=GPa)
#
#
# Indices 1 2 3 4 5 6 
#
# 1 86.3812 61.0363 23.7735 9.8649 10.2625 58.0888
# 2 61.0363 160.8043 58.5039 3.3107 -12.7144 62.1194
# 3 23.7735 58.5039 71.7613 -10.9929 -10.6218 26.8322
# 4 9.8649 3.3107 -10.9929 74.4836 5.9274 20.0040
# 5 10.2625 -12.7144 -10.6218 5.9274 40.4118 -3.6149
# 6 58.0888 62.1194 26.8322 20.0040 -3.6149 60.3326
#
#
#
# Elastic Compliance Matrix: (Units=1/GPa)
#
#
# Indices 1 2 3 4 5 6 
#
# 1 0.042597 -0.001363 0.002433 0.007916 -0.015727 -0.044258
# 2 -0.001363 0.012588 -0.005912 0.001100 0.001761 -0.009278
# 3 0.002433 -0.005912 0.021799 0.005027 0.001843 -0.007506
# 4 0.007916 0.001100 0.005027 0.018064 -0.004536 -0.017251
# 5 -0.015727 0.001761 0.001843 -0.004536 0.031867 0.015922
# 6 -0.044258 -0.009278 -0.007506 -0.017251 0.015922 0.078753
#
#
# Mechanical properties :
#
#
# Convention : Reuss Voigt Hill
#
# Bulk Modulus (GPa) = 14.85916 67.28600 41.07258
# Shear Modulus (GPa) = 21.02737 46.75447 33.89092
#
# Velocity S-wave (km/s) = 2.76287 4.11983 3.50760
# Velocity P-wave (km/s) = 3.94616 6.85982 5.59595
#
# Compressibility (1/GPa) = 0.06729855
#
# Stress axis : x y z
#
# Youngs Moduli (GPa) = 23.47588 79.44088 45.87442
#
# Poissons Ratio (x) = 0.10826 -0.11160
# Poissons Ratio (y) = 0.03199 0.27123
# Poissons Ratio (z) = -0.05711 0.46969
#
# Static dielectric constant tensor:
#      x y z
#    x 2.271370 -0.132110 0.035830 
#    y -0.132110 2.250470 0.023060 
#    z 0.035830 0.023060 2.044970 
# 
# From -- ./inp_files/234371.got.cif
#   From: 2010.05.17/outbox.cif.g08.bks.cpg/sg2_118_cif.got.tgz:234371.got - 2010.06.03 11:33:40.
