data_PCOD9068144
_publ_section_title
;
Structure prediction by ZEFSAII (Michael W. Deem and Ramdas Pophale) SiO2 
 PCOD9068144
Probable space group: P -1
;
_chemical_formula_sum "Si O2"
_cell_formula_units_Z 11
_cell_length_a 9.382529
_cell_length_b 4.666969
_cell_length_c 9.474303
_cell_angle_alpha 83.420142
_cell_angle_beta 62.108069
_cell_angle_gamma 96.669092
_cell_volume 357.380034
_symmetry_space_group_name_H-M "P -1"
_symmetry_group_IT_number 2
_symmetry_cell_setting 'triclinic'
loop_
_space_group_symop_operation_xyz
x,y,z
-x,-y,-z
loop_
_atom_site_type_symbol
_atom_site_label
_atom_site_fract_x
_atom_site_fract_y
_atom_site_fract_z
Si Si1 0.572679 0.187052 0.307510
Si Si2 0.000000 0.500000 0.500000
Si Si3 0.239483 0.164796 0.594304
Si Si4 0.402973 0.787235 0.178060
Si Si5 0.179757 0.191169 0.232042
Si Si6 0.843370 0.650164 0.068343
O O1 0.418282 0.300787 0.436627
O O2 0.506165 0.895029 0.263523
O O3 0.679789 0.406162 0.137770
O O4 0.697774 0.140664 0.376722
O O5 0.117621 0.291394 0.539457
O O6 0.025873 0.315356 0.352856
O O7 0.178970 0.223383 0.775608
O O8 0.226540 0.891687 0.288115
O O9 0.336201 0.455075 0.178408
O O10 0.500000 0.000000 0.000000
O O11 0.156092 0.142513 0.078643
O O12 0.000000 0.500000 0.000000
#
# Coordination Sequence:
#
# PCOD9068144 Si02
#       6
#     2   1   2   2   2   2
#     4  11  26  47  79 115 151 209 267 329 395 473
#     4  12  26  52  74 116 162 210 268 324 410 476
#     4  11  26  49  76 112 154 209 260 332 392 479
#     4  12  25  47  80 115 158 203 268 328 397 473
#     4  12  28  48  79 118 158 213 261 333 397 479
#     4  12  26  47  77 112 160 204 260 328 401 473
#
# _framework density 30.779558000000002
#
# number of rings (size 3 to 8) (size 9 to 14) (size 15 to 20)
#    0.000    0.364    5.455    2.182    2.545    5.818 
#    0.000    0.000    0.000    0.000    0.000    0.000 
#    0.000    0.000    0.000    0.000    0.000    0.000 
#
# Total GULP energy -61468.235195 kJ/mol
# GULP energy per Si atom -5588.021381 kJ/mol
# Density = 3.070950 g / cm^3
# Si number density = 30.779558 Si / 1000 Ang^3
#
#
#
# Elastic Constant Matrix: (Units=GPa)
#
#
# Indices 1 2 3 4 5 6 
#
# 1 237.2677 50.9706 53.5081 4.8952 -4.4962 -38.4667
# 2 50.9706 138.1755 12.8439 21.2915 -3.7600 -11.9368
# 3 53.5081 12.8439 185.0841 20.6425 5.6512 -17.9287
# 4 4.8952 21.2915 20.6425 46.9146 -27.3634 -3.4892
# 5 -4.4962 -3.7600 5.6512 -27.3634 73.9623 6.0673
# 6 -38.4667 -11.9368 -17.9287 -3.4892 6.0673 70.4737
#
#
#
# Elastic Compliance Matrix: (Units=1/GPa)
#
#
# Indices 1 2 3 4 5 6 
#
# 1 0.005257 -0.001824 -0.001359 0.001440 0.000681 0.002228
# 2 -0.001824 0.008602 0.000564 -0.004824 -0.001542 0.000499
# 3 -0.001359 0.000564 0.006370 -0.004090 -0.002132 0.000956
# 4 0.001440 -0.004824 -0.004090 0.032173 0.012100 -0.000521
# 5 0.000681 -0.001542 -0.002132 0.012100 0.018238 -0.001403
# 6 0.002228 0.000499 0.000956 -0.000521 -0.001403 0.015828
#
#
# Mechanical properties :
#
#
# Convention : Reuss Voigt Hill
#
# Bulk Modulus (GPa) = 66.70303 88.35249 77.52776
# Shear Modulus (GPa) = 51.70421 67.81711 59.76066
#
# Velocity S-wave (km/s) = 4.10301 4.69904 4.41111
# Velocity P-wave (km/s) = 6.64564 7.62945 7.15448
#
# Compressibility (1/GPa) = 0.01499182
#
# Stress axis : x y z
#
# Youngs Moduli (GPa) = 190.21324 116.25139 156.97480
#
# Poissons Ratio (x) = 0.21203 0.21331
# Poissons Ratio (y) = 0.34693 -0.08850
# Poissons Ratio (z) = 0.25848 -0.06554
#
# Static dielectric constant tensor:
#      x y z
#    x 2.387260 0.050630 0.101050 
#    y 0.050630 2.418900 -0.126460 
#    z 0.101050 -0.126460 2.385220 
# 
# From -- ./inp_files/21008.got.cif
#   From: 2010.05.17/outbox.cif.g08.bks.cpg/sg2_11_cif.got.tgz:21008.got - 2010.06.03 11:33:40.
