data_PCOD9068509
_publ_section_title
;
Structure prediction by ZEFSAII (Michael W. Deem and Ramdas Pophale) SiO2 
 PCOD9068509
Probable space group: P -1
;
_chemical_formula_sum "Si O2"
_cell_formula_units_Z 11
_cell_length_a 4.789289
_cell_length_b 16.276958
_cell_length_c 10.440939
_cell_angle_alpha 150.505789
_cell_angle_beta 81.744668
_cell_angle_gamma 89.365164
_cell_volume 380.796058
_symmetry_space_group_name_H-M "P -1"
_symmetry_group_IT_number 2
_symmetry_cell_setting 'triclinic'
loop_
_space_group_symop_operation_xyz
x,y,z
-x,-y,-z
loop_
_atom_site_type_symbol
_atom_site_label
_atom_site_fract_x
_atom_site_fract_y
_atom_site_fract_z
Si Si1 0.000000 0.500000 0.000000
Si Si2 0.745230 0.494146 0.604328
Si Si3 0.420204 0.797356 0.356078
Si Si4 0.666307 0.129352 0.815553
Si Si5 0.275134 0.348011 0.532532
Si Si6 0.936112 0.939502 0.779088
O O1 0.285197 0.362335 0.873592
O O2 0.221467 0.475699 0.829397
O O3 0.510169 0.602439 0.515501
O O4 0.000000 0.500000 0.500000
O O5 0.949609 0.380591 0.544470
O O6 0.585250 0.692569 0.910731
O O7 0.232954 0.839354 0.292641
O O8 0.183561 0.797597 0.484577
O O9 0.533458 0.967067 0.597147
O O10 0.855736 0.093456 0.885987
O O11 0.330355 0.150148 0.306556
O O12 0.000000 0.000000 0.000000
#
# Coordination Sequence:
#
# PCOD9068509 Si02
#       6
#     1   2   2   2   2   2
#     4  12  24  52  88 132 168 224 302 374 440 524
#     4  12  30  54  85 124 178 234 295 365 448 539
#     4  11  26  52  86 125 177 228 303 367 445 536
#     4  11  27  52  84 123 172 237 296 367 446 531
#     4  12  29  53  87 128 172 231 297 366 451 528
#     4  12  30  53  86 129 179 232 296 370 456 534
#
# _framework density 28.886849999999999
#
# number of rings (size 3 to 8) (size 9 to 14) (size 15 to 20)
#    0.000    0.364    3.636    2.182    7.636    5.091 
#    0.000    0.909    0.000    0.000    0.000    0.000 
#    0.000    0.000    0.000    0.000    0.000    0.000 
#
# Total GULP energy -61273.547402 kJ/mol
# GULP energy per Si atom -5570.322491 kJ/mol
# Density = 2.882110 g / cm^3
# Si number density = 28.886850 Si / 1000 Ang^3
#
#
#
# Elastic Constant Matrix: (Units=GPa)
#
#
# Indices 1 2 3 4 5 6 
#
# 1 142.4220 80.0017 43.6653 -1.4915 -21.4389 15.9243
# 2 80.0017 232.6566 82.2904 -26.5146 -9.4187 1.2002
# 3 43.6653 82.2904 131.0381 -21.1779 -38.0617 14.7489
# 4 -1.4915 -26.5146 -21.1779 59.5338 2.3579 -9.5192
# 5 -21.4389 -9.4187 -38.0617 2.3579 48.0941 7.9633
# 6 15.9243 1.2002 14.7489 -9.5192 7.9633 83.8139
#
#
#
# Elastic Compliance Matrix: (Units=1/GPa)
#
#
# Indices 1 2 3 4 5 6 
#
# 1 0.009816 -0.003436 0.000117 -0.001804 0.004289 -0.002449
# 2 -0.003436 0.007075 -0.004360 0.001981 -0.004013 0.001925
# 3 0.000117 -0.004360 0.014203 0.002164 0.010870 -0.003246
# 4 -0.001804 0.001981 0.002164 0.018731 0.000037 0.002058
# 5 0.004289 -0.004013 0.010870 0.000037 0.031455 -0.005655
# 6 -0.002449 0.001925 -0.003246 0.002058 -0.005655 0.013711
#
#
# Mechanical properties :
#
#
# Convention : Reuss Voigt Hill
#
# Bulk Modulus (GPa) = 63.55207 102.00350 82.77778
# Shear Modulus (GPa) = 43.25363 58.29897 50.77630
#
# Velocity S-wave (km/s) = 3.87375 4.49729 4.19712
# Velocity P-wave (km/s) = 6.48507 7.89656 7.22536
#
# Compressibility (1/GPa) = 0.01573513
#
# Stress axis : x y z
#
# Youngs Moduli (GPa) = 101.87144 141.33675 70.40719
#
# Poissons Ratio (x) = 0.48564 -0.00821
# Poissons Ratio (y) = 0.35004 0.30700
# Poissons Ratio (z) = -0.01188 0.61627
#
# Static dielectric constant tensor:
#      x y z
#    x 2.363530 -0.118990 0.180010 
#    y -0.118990 1.151510 1.119970 
#    z 0.180010 1.119970 1.346200 
# 
# From -- ./inp_files/134714.got.cif
#   From: 2010.05.17/outbox.cif.g08.bks.cpg/sg2_68_cif.got.tgz:134714.got - 2010.06.03 11:33:40.
