data_PCOD9068482
_publ_section_title
;
Structure prediction by ZEFSAII (Michael W. Deem and Ramdas Pophale) SiO2 
 PCOD9068482
Probable space group: P -1
;
_chemical_formula_sum "Si O2"
_cell_formula_units_Z 12
_cell_length_a 8.439207
_cell_length_b 15.675792
_cell_length_c 7.441019
_cell_angle_alpha 60.031137
_cell_angle_beta 35.800451
_cell_angle_gamma 57.269285
_cell_volume 480.662783
_symmetry_space_group_name_H-M "P -1"
_symmetry_group_IT_number 2
_symmetry_cell_setting 'triclinic'
loop_
_space_group_symop_operation_xyz
x,y,z
-x,-y,-z
loop_
_atom_site_type_symbol
_atom_site_label
_atom_site_fract_x
_atom_site_fract_y
_atom_site_fract_z
Si Si1 0.168592 0.716770 0.747653
Si Si2 0.398333 0.117460 0.405760
Si Si3 0.799571 0.927406 0.747047
Si Si4 0.167165 0.749333 0.106284
Si Si5 0.298040 0.392504 0.812502
Si Si6 0.949571 0.447637 0.411771
O O1 0.423221 0.695472 0.395499
O O2 0.961950 0.829144 0.810844
O O3 0.286321 0.701313 0.856354
O O4 0.972319 0.644365 0.961151
O O5 0.241930 0.115307 0.364646
O O6 0.155395 0.182880 0.688196
O O7 0.500000 0.000000 0.500000
O O8 0.643524 0.174567 0.096542
O O9 0.000000 0.000000 0.500000
O O10 0.500000 0.000000 0.000000
O O11 0.135660 0.655811 0.355884
O O12 0.719371 0.517823 0.413296
O O13 0.227563 0.419785 0.057107
O O14 0.000000 0.500000 0.500000
#
# Coordination Sequence:
#
# PCOD9068482 Si02
#       6
#     2   2   2   2   2   2
#     4  12  25  49  73 112 152 206 259 319 398 464
#     4  12  26  48  75 115 151 199 260 324 394 468
#     4  12  25  45  74 106 150 199 251 321 391 462
#     4  12  26  46  79 112 154 204 260 323 391 466
#     4  11  27  49  76 111 158 207 261 325 387 470
#     4  11  26  51  77 116 159 212 265 326 392 466
#
# _framework density 24.965527000000002
#
# number of rings (size 3 to 8) (size 9 to 14) (size 15 to 20)
#    0.000    0.333    1.667    6.500    0.000    8.667 
#    0.000    0.000    0.000    0.000    0.000    0.000 
#    0.000    0.000    0.000    0.000    0.000    0.000 
#
# Total GULP energy -67224.726038 kJ/mol
# GULP energy per Si atom -5602.060503 kJ/mol
# Density = 2.490870 g / cm^3
# Si number density = 24.965527 Si / 1000 Ang^3
#
#
#
# Elastic Constant Matrix: (Units=GPa)
#
#
# Indices 1 2 3 4 5 6 
#
# 1 116.8052 46.8712 67.2267 -7.9730 30.2555 4.9787
# 2 46.8712 142.3208 79.2445 -17.0444 12.8378 -6.4255
# 3 67.2267 79.2445 181.6475 -3.0513 -5.2663 6.4603
# 4 -7.9730 -17.0444 -3.0513 66.6337 5.5113 3.1641
# 5 30.2555 12.8378 -5.2663 5.5113 50.6963 5.3208
# 6 4.9787 -6.4255 6.4603 3.1641 5.3208 33.6463
#
#
#
# Elastic Compliance Matrix: (Units=1/GPa)
#
#
# Indices 1 2 3 4 5 6 
#
# 1 0.014383 -0.000759 -0.005223 0.002046 -0.009155 -0.000015
# 2 -0.000759 0.010512 -0.004474 0.002510 -0.003289 0.003263
# 3 -0.005223 -0.004474 0.009623 -0.001674 0.005712 -0.002675
# 4 0.002046 0.002510 -0.001674 0.016147 -0.003741 -0.000429
# 5 -0.009155 -0.003289 0.005712 -0.003741 0.027480 -0.004364
# 6 -0.000015 0.003263 -0.002675 -0.000429 -0.004364 0.031590
#
#
# Mechanical properties :
#
#
# Convention : Reuss Voigt Hill
#
# Bulk Modulus (GPa) = 73.49439 91.93979 82.71709
# Shear Modulus (GPa) = 36.98662 46.69065 41.83863
#
# Velocity S-wave (km/s) = 3.85321 4.32928 4.09816
# Velocity P-wave (km/s) = 7.02129 7.86745 7.45639
#
# Compressibility (1/GPa) = 0.01360648
#
# Stress axis : x y z
#
# Youngs Moduli (GPa) = 69.52481 95.12609 103.92082
#
# Poissons Ratio (x) = 0.07218 0.54275
# Poissons Ratio (y) = 0.05275 0.46499
# Poissons Ratio (z) = 0.36311 0.42564
#
# Static dielectric constant tensor:
#      x y z
#    x 1.987030 -0.041200 0.059710 
#    y -0.041200 2.049200 0.061880 
#    z 0.059710 0.061880 1.997990 
# 
# From -- ./inp_files/200505.got.cif
#   From: 2010.05.17/outbox.cif.g08.bks.cpg/sg2_101_cif.got.tgz:200505.got - 2010.06.03 11:33:40.
