data_PCOD9068459
_publ_section_title
;
Structure prediction by ZEFSAII (Michael W. Deem and Ramdas Pophale) SiO2 
 PCOD9068459
Probable space group: P -1
;
_chemical_formula_sum "Si O2"
_cell_formula_units_Z 14
_cell_length_a 4.927558
_cell_length_b 16.910980
_cell_length_c 11.670413
_cell_angle_alpha 33.466202
_cell_angle_beta 107.799847
_cell_angle_gamma 108.944726
_cell_volume 506.093541
_symmetry_space_group_name_H-M "P -1"
_symmetry_group_IT_number 2
_symmetry_cell_setting 'triclinic'
loop_
_space_group_symop_operation_xyz
x,y,z
-x,-y,-z
loop_
_atom_site_type_symbol
_atom_site_label
_atom_site_fract_x
_atom_site_fract_y
_atom_site_fract_z
Si Si1 0.143908 0.732577 0.424110
Si Si2 0.438475 0.355466 0.906027
Si Si3 0.241489 0.214442 0.281732
Si Si4 0.092846 0.408442 0.224974
Si Si5 0.311167 0.080989 0.792507
Si Si6 0.000000 0.500000 0.500000
Si Si7 0.500000 0.500000 0.500000
Si Si8 0.338856 0.938357 0.725453
O O1 0.468107 0.772602 0.377722
O O2 0.146727 0.661120 0.635223
O O3 0.981110 0.872664 0.251261
O O4 0.938455 0.620641 0.454149
O O5 0.709475 0.475348 0.814747
O O6 0.304487 0.436809 0.682035
O O7 0.331172 0.332828 0.051565
O O8 0.462762 0.188655 0.082226
O O9 0.203933 0.282221 0.318502
O O10 0.937765 0.139386 0.283782
O O11 0.435323 0.085916 0.487285
O O12 0.000000 0.500000 0.000000
O O13 0.262249 0.991229 0.777627
O O14 0.500000 0.000000 0.000000
O O15 0.723422 0.386891 0.666007
#
# Coordination Sequence:
#
# PCOD9068459 Si02
#       8
#     2   2   2   2   2   1   1   2
#     4  12  29  53  80 118 163 212 267 341 402 487
#     4  12  28  47  81 115 157 218 264 347 399 496
#     4  11  26  50  81 109 164 206 282 327 412 476
#     4  12  26  48  75 122 153 211 266 340 408 480
#     4  12  30  51  81 117 164 217 274 332 407 485
#     4  12  28  52  80 108 162 208 260 332 404 482
#     4  12  30  48  80 124 160 202 272 326 414 478
#     4  11  27  49  76 118 153 220 269 336 399 488
#
# _framework density 27.662869000000001
#
# number of rings (size 3 to 8) (size 9 to 14) (size 15 to 20)
#    0.000    0.286    4.286    2.143   12.000    0.000 
#    0.000    0.000    0.000    0.000    0.000    0.000 
#    0.000    0.000    0.000    0.000    0.000    0.000 
#
# Total GULP energy -78074.837528 kJ/mol
# GULP energy per Si atom -5576.774109 kJ/mol
# Density = 2.759991 g / cm^3
# Si number density = 27.662869 Si / 1000 Ang^3
#
#
#
# Elastic Constant Matrix: (Units=GPa)
#
#
# Indices 1 2 3 4 5 6 
#
# 1 98.0629 17.4800 30.3297 11.5890 -9.0189 -14.5279
# 2 17.4800 182.0187 33.9671 10.0338 18.3125 -1.3610
# 3 30.3297 33.9671 168.2328 17.1589 7.5253 11.1593
# 4 11.5890 10.0338 17.1589 49.5133 -4.3418 10.8613
# 5 -9.0189 18.3125 7.5253 -4.3418 58.3602 -1.3943
# 6 -14.5279 -1.3610 11.1593 10.8613 -1.3943 46.1064
#
#
#
# Elastic Compliance Matrix: (Units=1/GPa)
#
#
# Indices 1 2 3 4 5 6 
#
# 1 0.012348 -0.000812 -0.002216 -0.002882 0.002358 0.005153
# 2 -0.000812 0.005991 -0.000899 -0.000950 -0.001953 0.000303
# 3 -0.002216 -0.000899 0.006847 -0.001305 -0.001091 -0.002107
# 4 -0.002882 -0.000950 -0.001305 0.022967 0.001587 -0.005983
# 5 0.002358 -0.001953 -0.001091 0.001587 0.018398 0.001132
# 6 0.005153 0.000303 -0.002107 -0.005983 0.001132 0.025275
#
#
# Mechanical properties :
#
#
# Convention : Reuss Voigt Hill
#
# Bulk Modulus (GPa) = 57.69555 67.98532 62.84043
# Shear Modulus (GPa) = 47.41237 55.23181 51.32209
#
# Velocity S-wave (km/s) = 4.14446 4.47319 4.31196
# Velocity P-wave (km/s) = 6.61846 7.16302 6.89612
#
# Compressibility (1/GPa) = 0.01733236
#
# Stress axis : x y z
#
# Youngs Moduli (GPa) = 80.98212 166.92191 146.05346
#
# Poissons Ratio (x) = 0.13558 0.32360
# Poissons Ratio (y) = 0.06578 0.13130
# Poissons Ratio (z) = 0.17943 0.15006
#
# Static dielectric constant tensor:
#      x y z
#    x 2.126980 -0.276210 0.001590 
#    y -0.276210 2.214590 0.170660 
#    z 0.001590 0.170660 2.332090 
# 
# From -- ./inp_files/369282.got.cif
#   From: 2010.05.17/outbox.cif.g08.bks.cpg/sg2_185_cif.got.tgz:369282.got - 2010.06.03 11:33:40.
