data_PCOD9068212
_publ_section_title
;
Structure prediction by ZEFSAII (Michael W. Deem and Ramdas Pophale) SiO2 
 PCOD9068212
Probable space group: P -1
;
_chemical_formula_sum "Si O2"
_cell_formula_units_Z 11
_cell_length_a 5.093161
_cell_length_b 15.202300
_cell_length_c 8.153660
_cell_angle_alpha 126.269144
_cell_angle_beta 117.240004
_cell_angle_gamma 88.141589
_cell_volume 426.801233
_symmetry_space_group_name_H-M "P -1"
_symmetry_group_IT_number 2
_symmetry_cell_setting 'triclinic'
loop_
_space_group_symop_operation_xyz
x,y,z
-x,-y,-z
loop_
_atom_site_type_symbol
_atom_site_label
_atom_site_fract_x
_atom_site_fract_y
_atom_site_fract_z
Si Si1 0.697004 0.301070 0.016012
Si Si2 0.356765 0.886363 0.444342
Si Si3 0.957198 0.079616 0.275727
Si Si4 0.656643 0.601809 0.526913
Si Si5 0.500000 0.500000 0.000000
Si Si6 0.441628 0.175820 0.107351
O O1 0.442678 0.210571 0.956334
O O2 0.975756 0.364682 0.290436
O O3 0.811562 0.224972 0.835880
O O4 0.577455 0.389969 0.981756
O O5 0.150268 0.906365 0.554059
O O6 0.673962 0.868840 0.582983
O O7 0.500000 0.000000 0.500000
O O8 0.753205 0.140865 0.183320
O O9 0.836739 0.941787 0.058622
O O10 0.500000 0.500000 0.500000
O O11 0.557739 0.712449 0.668478
O O12 0.562272 0.563041 0.272046
#
# Coordination Sequence:
#
# PCOD9068212 Si02
#       6
#     2   2   2   2   1   2
#     4  12  28  47  79 112 158 201 266 329 387 479
#     4  12  25  47  76 117 160 207 261 315 399 475
#     4  11  27  45  79 115 161 213 250 321 400 472
#     4  12  28  52  78 111 155 203 269 334 395 469
#     4  12  28  52  76 108 146 212 258 334 398 460
#     4  11  26  48  74 113 157 201 261 324 387 474
#
# _framework density 25.773119000000001
#
# number of rings (size 3 to 8) (size 9 to 14) (size 15 to 20)
#    0.000    0.364    3.636    3.273    7.636    2.182 
#    0.000    0.000    0.000    0.000    0.000    0.000 
#    0.000    0.000    0.000    0.000    0.000    0.000 
#
# Total GULP energy -61502.188672 kJ/mol
# GULP energy per Si atom -5591.108061 kJ/mol
# Density = 2.571446 g / cm^3
# Si number density = 25.773119 Si / 1000 Ang^3
#
#
#
# Elastic Constant Matrix: (Units=GPa)
#
#
# Indices 1 2 3 4 5 6 
#
# 1 67.3010 52.6289 65.3758 -10.9062 -3.4555 -3.2040
# 2 52.6289 246.2218 72.2347 -1.6573 -17.7970 -5.1792
# 3 65.3758 72.2347 179.6597 -1.5267 -51.4708 -7.0718
# 4 -10.9062 -1.6573 -1.5267 56.3865 -8.9717 -10.8085
# 5 -3.4555 -17.7970 -51.4708 -8.9717 56.6948 -0.5787
# 6 -3.2040 -5.1792 -7.0718 -10.8085 -0.5787 32.5224
#
#
#
# Elastic Compliance Matrix: (Units=1/GPa)
#
#
# Indices 1 2 3 4 5 6 
#
# 1 0.029322 -0.003402 -0.011960 0.003902 -0.009512 0.000874
# 2 -0.003402 0.005007 -0.000531 -0.000346 0.000831 0.000247
# 3 -0.011960 -0.000531 0.013473 0.000221 0.011391 0.001943
# 4 0.003902 -0.000346 0.000221 0.020452 0.003640 0.007239
# 5 -0.009512 0.000831 0.011391 0.003640 0.028271 0.003385
# 6 0.000874 0.000247 0.001943 0.007239 0.003385 0.033762
#
#
# Mechanical properties :
#
#
# Convention : Reuss Voigt Hill
#
# Bulk Modulus (GPa) = 62.42962 97.07349 79.75155
# Shear Modulus (GPa) = 29.86671 49.31694 39.59183
#
# Velocity S-wave (km/s) = 3.40786 4.37911 3.92365
# Velocity P-wave (km/s) = 6.30555 7.95708 7.17897
#
# Compressibility (1/GPa) = 0.01601804
#
# Stress axis : x y z
#
# Youngs Moduli (GPa) = 34.10440 199.71912 74.22165
#
# Poissons Ratio (x) = 0.67938 0.88767
# Poissons Ratio (y) = 0.11601 0.03938
# Poissons Ratio (z) = 0.40788 0.10598
#
# Static dielectric constant tensor:
#      x y z
#    x 2.058930 0.017140 0.055680 
#    y 0.017140 2.011160 -0.035070 
#    z 0.055680 -0.035070 2.059600 
# 
# From -- ./inp_files/133767.got.cif
#   From: 2010.05.17/outbox.cif.g08.bks.cpg/sg2_67_cif.got.tgz:133767.got - 2010.06.03 11:33:40.
