data_PCOD9068986
_publ_section_title
;
Structure prediction by ZEFSAII (Michael W. Deem and Ramdas Pophale) SiO2 
 PCOD9068986
Probable space group: P -1
;
_chemical_formula_sum "Si O2"
_cell_formula_units_Z 15
_cell_length_a 9.064551
_cell_length_b 7.887855
_cell_length_c 12.094904
_cell_angle_alpha 129.179438
_cell_angle_beta 70.209463
_cell_angle_gamma 108.997484
_cell_volume 623.331714
_symmetry_space_group_name_H-M "P -1"
_symmetry_group_IT_number 2
_symmetry_cell_setting 'triclinic'
loop_
_space_group_symop_operation_xyz
x,y,z
-x,-y,-z
loop_
_atom_site_type_symbol
_atom_site_label
_atom_site_fract_x
_atom_site_fract_y
_atom_site_fract_z
Si Si1 0.569033 0.517281 0.750959
Si Si2 0.859434 0.183664 0.800392
Si Si3 0.683416 0.983454 0.976570
Si Si4 0.292535 0.774420 0.697972
Si Si5 0.335360 0.454707 0.954730
Si Si6 0.804434 0.930590 0.307101
Si Si7 0.624215 0.023112 0.605652
Si Si8 0.500000 0.500000 0.500000
O O1 0.685473 0.718355 0.862581
O O2 0.396600 0.543969 0.855560
O O3 0.597916 0.273707 0.684337
O O4 0.567936 0.540995 0.630343
O O5 0.758827 0.049730 0.674489
O O6 0.042174 0.167345 0.736885
O O7 0.799132 0.083962 0.892258
O O8 0.801946 0.422640 0.913782
O O9 0.500000 0.000000 0.000000
O O10 0.721658 0.107066 0.133498
O O11 0.317434 0.523321 0.599791
O O12 0.172147 0.827136 0.655665
O O13 0.474667 0.858743 0.631419
O O14 0.272492 0.205462 0.835738
O O15 0.500000 0.500000 0.000000
O O16 0.684352 0.930764 0.439049
#
# Coordination Sequence:
#
# PCOD9068986 Si02
#       8
#     2   2   2   2   2   2   2   1
#     4  12  22  39  69 100 124 170 240 280 320 385
#     4  12  25  44  67 102 142 180 217 282 346 402
#     4  12  23  41  67  95 132 180 230 274 332 401
#     4  12  23  42  70  97 131 177 234 282 325 402
#     4  12  22  42  71 101 127 175 234 282 323 398
#     4  12  26  41  67 105 143 172 222 282 349 398
#     4  12  23  44  71  99 132 184 231 276 330 409
#     4  12  22  36  62 100 132 162 226 286 328 386
#
# _framework density 24.064230999999999
#
# number of rings (size 3 to 8) (size 9 to 14) (size 15 to 20)
#    0.000    0.000    8.000    2.800    0.000    0.533 
#    0.000    0.667    2.933    0.000    0.000    0.000 
#    0.000    0.000    0.000    0.000    0.000    0.000 
#
# Total GULP energy -83586.943555 kJ/mol
# GULP energy per Si atom -5572.462904 kJ/mol
# Density = 2.400946 g / cm^3
# Si number density = 24.064231 Si / 1000 Ang^3
#
#
#
# Elastic Constant Matrix: (Units=GPa)
#
#
# Indices 1 2 3 4 5 6 
#
# 1 95.7831 -0.5939 41.7768 -3.2840 -14.5141 -19.2747
# 2 -0.5939 51.7786 7.8401 -14.4624 -5.3791 -11.1233
# 3 41.7768 7.8401 142.2580 -8.5743 9.0734 -8.3071
# 4 -3.2840 -14.4624 -8.5743 31.5078 -15.3307 6.4330
# 5 -14.5141 -5.3791 9.0734 -15.3307 34.5988 -2.6503
# 6 -19.2747 -11.1233 -8.3071 6.4330 -2.6503 21.6509
#
#
#
# Elastic Compliance Matrix: (Units=1/GPa)
#
#
# Indices 1 2 3 4 5 6 
#
# 1 0.019856 0.009648 -0.005735 0.009113 0.016887 0.019792
# 2 0.009648 0.032268 -0.003502 0.020850 0.020766 0.020170
# 3 -0.005735 -0.003502 0.008981 -0.002220 -0.006565 -0.003602
# 4 0.009113 0.020850 -0.002220 0.056745 0.033187 0.005175
# 5 0.016887 0.020766 -0.006565 0.033187 0.057199 0.020325
# 6 0.019792 0.020170 -0.003602 0.005175 0.020325 0.073738
#
#
# Mechanical properties :
#
#
# Convention : Reuss Voigt Hill
#
# Bulk Modulus (GPa) = 16.14801 43.09619 29.62210
# Shear Modulus (GPa) = 18.61463 33.60461 26.10962
#
# Velocity S-wave (km/s) = 2.78427 3.74097 3.29750
# Velocity P-wave (km/s) = 4.13052 6.05041 5.18019
#
# Compressibility (1/GPa) = 0.06192715
#
# Stress axis : x y z
#
# Youngs Moduli (GPa) = 50.36378 30.99076 111.34440
#
# Poissons Ratio (x) = -0.29899 0.63853
# Poissons Ratio (y) = -0.48589 0.38987
# Poissons Ratio (z) = 0.28882 0.10851
#
# Static dielectric constant tensor:
#      x y z
#    x 1.739280 0.306020 0.196100 
#    y 0.306020 1.395430 -0.294290 
#    z 0.196100 -0.294290 1.738620 
# 
# From -- ./inp_files/189160.got.cif
#   From: 2010.05.17/outbox.cif.g08.bks.cpg/sg2_95_cif.got.tgz:189160.got - 2010.06.03 11:33:40.
