data_PCOD9068920
_publ_section_title
;
Structure prediction by ZEFSAII (Michael W. Deem and Ramdas Pophale) SiO2 
 PCOD9068920
Probable space group: P -1
;
_chemical_formula_sum "Si O2"
_cell_formula_units_Z 16
_cell_length_a 8.886473
_cell_length_b 17.974252
_cell_length_c 8.484900
_cell_angle_alpha 130.501816
_cell_angle_beta 111.499783
_cell_angle_gamma 49.049921
_cell_volume 774.198169
_symmetry_space_group_name_H-M "P -1"
_symmetry_group_IT_number 2
_symmetry_cell_setting 'triclinic'
loop_
_space_group_symop_operation_xyz
x,y,z
-x,-y,-z
loop_
_atom_site_type_symbol
_atom_site_label
_atom_site_fract_x
_atom_site_fract_y
_atom_site_fract_z
Si Si1 0.527130 0.377765 0.387108
Si Si2 0.107430 0.370662 0.783846
Si Si3 0.787369 0.614446 0.514235
Si Si4 0.513866 0.219221 0.906826
Si Si5 0.546145 0.882482 0.766008
Si Si6 0.336917 0.031359 0.348089
Si Si7 0.220232 0.874578 0.435358
Si Si8 0.902580 0.238068 0.540762
O O1 0.500000 0.500000 0.500000
O O2 0.375372 0.403496 0.505561
O O3 0.749716 0.275048 0.391398
O O4 0.492339 0.322159 0.146257
O O5 0.183796 0.378206 0.651313
O O6 0.297642 0.273550 0.827640
O O7 0.957057 0.332698 0.681747
O O8 0.000000 0.500000 0.000000
O O9 0.695014 0.751800 0.725924
O O10 0.000000 0.500000 0.500000
O O11 0.595450 0.097651 0.869514
O O12 0.662489 0.173443 0.751088
O O13 0.353716 0.892318 0.634450
O O14 0.660294 0.883759 0.659531
O O15 0.500000 0.000000 0.000000
O O16 0.500000 0.000000 0.500000
O O17 0.112520 0.106732 0.426997
O O18 0.197585 0.773872 0.360248
O O19 0.000000 0.000000 0.500000
#
# Coordination Sequence:
#
# PCOD9068920 Si02
#       8
#     2   2   2   2   2   2   2   2
#     4  12  28  46  69 102 143 184 230 296 352 408
#     4  12  25  46  75  99 133 192 241 282 346 427
#     4  12  24  49  69 102 143 184 237 289 345 430
#     4  12  24  46  70 103 140 184 234 284 349 429
#     4  12  25  45  73 102 138 186 238 283 349 429
#     4  12  21  42  72 100 137 181 229 285 343 418
#     4  12  24  45  68 106 144 177 223 296 356 415
#     4  12  23  44  68 101 142 173 227 291 349 406
#
# _framework density 20.666542
#
# number of rings (size 3 to 8) (size 9 to 14) (size 15 to 20)
#    0.000    0.000    7.500    3.000    0.000    2.500 
#    0.000    2.500    0.000    0.000    0.000    0.000 
#    0.000    0.000    0.000    0.000    0.000    0.000 
#
# Total GULP energy -89367.009842 kJ/mol
# GULP energy per Si atom -5585.438115 kJ/mol
# Density = 2.061950 g / cm^3
# Si number density = 20.666542 Si / 1000 Ang^3
#
#
#
# Elastic Constant Matrix: (Units=GPa)
#
#
# Indices 1 2 3 4 5 6 
#
# 1 129.8098 35.0308 37.3937 0.4734 6.3858 13.5187
# 2 35.0308 115.6167 22.7351 15.8804 7.7891 -0.0996
# 3 37.3937 22.7351 106.4715 14.4286 8.6872 4.3471
# 4 0.4734 15.8804 14.4286 35.0828 -2.1208 7.0208
# 5 6.3858 7.7891 8.6872 -2.1208 26.1813 4.3773
# 6 13.5187 -0.0996 4.3471 7.0208 4.3773 52.7369
#
#
#
# Elastic Compliance Matrix: (Units=1/GPa)
#
#
# Indices 1 2 3 4 5 6 
#
# 1 0.009575 -0.002705 -0.003084 0.002895 0.000163 -0.002604
# 2 -0.002705 0.010446 -0.000422 -0.005033 -0.002994 0.001667
# 3 -0.003084 -0.000422 0.011473 -0.004850 -0.003452 0.000776
# 4 0.002895 -0.005033 -0.004850 0.034187 0.006074 -0.005407
# 5 0.000163 -0.002994 -0.003452 0.006074 0.041353 -0.004004
# 6 -0.002604 0.001667 0.000776 -0.005407 -0.004004 0.020621
#
#
# Mechanical properties :
#
#
# Convention : Reuss Voigt Hill
#
# Bulk Modulus (GPa) = 52.43797 60.24636 56.34217
# Shear Modulus (GPa) = 34.14474 39.91610 37.03042
#
# Velocity S-wave (km/s) = 4.06910 4.39958 4.23756
# Velocity P-wave (km/s) = 6.89241 7.41777 7.15991
#
# Compressibility (1/GPa) = 0.01907015
#
# Stress axis : x y z
#
# Youngs Moduli (GPa) = 104.44082 95.72618 87.16337
#
# Poissons Ratio (x) = 0.25898 0.26884
# Poissons Ratio (y) = 0.28256 0.03680
# Poissons Ratio (z) = 0.32213 0.04041
#
# Static dielectric constant tensor:
#      x y z
#    x 1.710570 0.015260 0.015460 
#    y 0.015260 1.747120 0.010840 
#    z 0.015460 0.010840 1.730150 
# 
# From -- ./inp_files/218698.got.cif
#   From: 2010.05.17/outbox.cif.g08.bks.cpg/sg2_110_cif.got.tgz:218698.got - 2010.06.03 11:33:40.
