data_PCOD9068076
_publ_section_title
;
Structure prediction by ZEFSAII (Michael W. Deem and Ramdas Pophale) SiO2 
 PCOD9068076
Probable space group: P -1
;
_chemical_formula_sum "Si O2"
_cell_formula_units_Z 14
_cell_length_a 5.031657
_cell_length_b 18.398618
_cell_length_c 9.064827
_cell_angle_alpha 135.200741
_cell_angle_beta 116.800150
_cell_angle_gamma 76.390705
_cell_volume 522.991834
_symmetry_space_group_name_H-M "P -1"
_symmetry_group_IT_number 2
_symmetry_cell_setting 'triclinic'
loop_
_space_group_symop_operation_xyz
x,y,z
-x,-y,-z
loop_
_atom_site_type_symbol
_atom_site_label
_atom_site_fract_x
_atom_site_fract_y
_atom_site_fract_z
Si Si1 0.646549 0.727395 0.332609
Si Si2 0.142664 0.366542 0.469429
Si Si3 0.236824 0.858979 0.608509
Si Si4 0.789129 0.753713 0.960294
Si Si5 0.835601 0.053682 0.663888
Si Si6 0.633825 0.077039 0.938225
Si Si7 0.565728 0.408415 0.192313
O O1 0.846780 0.663816 0.400582
O O2 0.427406 0.777882 0.461530
O O3 0.882419 0.815221 0.434985
O O4 0.469054 0.651736 0.058681
O O5 0.377782 0.469772 0.649173
O O6 0.829416 0.386673 0.342144
O O7 0.227729 0.273738 0.255278
O O8 0.099452 0.824164 0.177324
O O9 0.249287 0.874364 0.809518
O O10 0.547786 0.833210 0.044440
O O11 0.729192 0.644976 0.872720
O O12 0.586858 0.029778 0.242316
O O13 0.500000 0.000000 0.500000
O O14 0.892130 0.053298 0.854643
O O15 0.000000 0.000000 0.500000
#
# Coordination Sequence:
#
# PCOD9068076 Si02
#       7
#     2   2   2   2   2   2   2
#     4  12  27  52  81 119 159 212 266 339 402 478
#     4  11  26  53  80 114 162 210 271 343 404 482
#     4  11  28  46  79 114 160 213 269 322 405 486
#     4  12  24  47  76 110 161 213 262 330 407 471
#     4  12  27  42  70 109 156 205 257 323 387 471
#     4  11  26  47  74 112 160 218 263 324 399 485
#     4  11  28  48  81 120 155 211 277 335 411 475
#
# _framework density 26.769064
#
# number of rings (size 3 to 8) (size 9 to 14) (size 15 to 20)
#    0.000    0.571    2.857    3.429    8.000    1.143 
#    0.000    1.429    0.000    0.000    0.000    0.000 
#    0.000    0.000    0.000    0.000    0.000    0.000 
#
# Total GULP energy -78374.630586 kJ/mol
# GULP energy per Si atom -5598.187899 kJ/mol
# Density = 2.670814 g / cm^3
# Si number density = 26.769064 Si / 1000 Ang^3
#
#
#
# Elastic Constant Matrix: (Units=GPa)
#
#
# Indices 1 2 3 4 5 6 
#
# 1 163.4325 30.5413 66.3953 20.1601 -5.5960 22.3894
# 2 30.5413 80.4315 46.2726 0.3024 12.8222 20.8088
# 3 66.3953 46.2726 198.2448 13.0554 -0.1156 13.9205
# 4 20.1601 0.3024 13.0554 57.1025 21.6136 5.0620
# 5 -5.5960 12.8222 -0.1156 21.6136 62.8582 11.6738
# 6 22.3894 20.8088 13.9205 5.0620 11.6738 48.3114
#
#
#
# Elastic Compliance Matrix: (Units=1/GPa)
#
#
# Indices 1 2 3 4 5 6 
#
# 1 0.008066 -0.001655 -0.001910 -0.003161 0.002656 -0.002786
# 2 -0.001655 0.016775 -0.003218 0.003076 -0.003712 -0.004956
# 3 -0.001910 -0.003218 0.006488 -0.001134 0.000829 0.000320
# 4 -0.003161 0.003076 -0.001134 0.022087 -0.008546 0.000218
# 5 0.002656 -0.003712 0.000829 -0.008546 0.020576 -0.003947
# 6 -0.002786 -0.004956 0.000320 0.000218 -0.003947 0.024964
#
#
# Mechanical properties :
#
#
# Convention : Reuss Voigt Hill
#
# Bulk Modulus (GPa) = 56.29494 80.94746 68.62120
# Shear Modulus (GPa) = 42.21462 53.58105 47.89783
#
# Velocity S-wave (km/s) = 3.97544 4.47878 4.23460
# Velocity P-wave (km/s) = 6.49213 7.55320 7.04267
#
# Compressibility (1/GPa) = 0.01776359
#
# Stress axis : x y z
#
# Youngs Moduli (GPa) = 123.96990 59.61180 154.13783
#
# Poissons Ratio (x) = 0.09866 0.29440
# Poissons Ratio (y) = 0.20518 0.49600
# Poissons Ratio (z) = 0.23678 0.19182
#
# Static dielectric constant tensor:
#      x y z
#    x 2.177820 -0.075680 0.043950 
#    y -0.075680 2.219680 -0.145930 
#    z 0.043950 -0.145930 2.097880 
# 
# From -- ./inp_files/42334.got.cif
#   From: 2010.05.17/outbox.cif.g08.bks.cpg/sg2_22_cif.got.tgz:42334.got - 2010.06.03 11:33:40.
