data_PCOD9068285
_publ_section_title
;
Structure prediction by ZEFSAII (Michael W. Deem and Ramdas Pophale) SiO2 
 PCOD9068285
Probable space group: P -1
;
_chemical_formula_sum "Si O2"
_cell_formula_units_Z 8
_cell_length_a 7.836160
_cell_length_b 5.458831
_cell_length_c 8.166412
_cell_angle_alpha 95.946791
_cell_angle_beta 122.513810
_cell_angle_gamma 88.160441
_cell_volume 292.874434
_symmetry_space_group_name_H-M "P -1"
_symmetry_group_IT_number 2
_symmetry_cell_setting 'triclinic'
loop_
_space_group_symop_operation_xyz
x,y,z
-x,-y,-z
loop_
_atom_site_type_symbol
_atom_site_label
_atom_site_fract_x
_atom_site_fract_y
_atom_site_fract_z
Si Si1 0.676999 0.595742 0.470514
Si Si2 0.892700 0.755467 0.997609
Si Si3 0.436325 0.928329 0.142006
Si Si4 0.138222 0.562572 0.776342
O O1 0.500000 0.500000 0.500000
O O2 0.583922 0.828225 0.346673
O O3 0.750054 0.425506 0.340851
O O4 0.906433 0.654871 0.660429
O O5 0.669654 0.825592 0.833649
O O6 0.883103 0.721075 0.188732
O O7 0.000000 0.500000 0.000000
O O8 0.000000 0.000000 0.000000
O O9 0.285491 0.699067 0.993627
O O10 0.500000 0.000000 0.000000
#
# Coordination Sequence:
#
# PCOD9068285 Si02
#       4
#     2   2   2   2
#     4  11  26  48  80 121 161 216 276 340 416 494
#     4  12  25  47  83 118 156 216 274 336 413 488
#     4  12  26  49  83 113 161 223 273 333 419 495
#     4  11  26  51  79 117 170 209 274 350 402 492
#
# _framework density 27.315460999999999
#
# number of rings (size 3 to 8) (size 9 to 14) (size 15 to 20)
#    0.000    0.500    5.000    2.250    0.000    1.000 
#    0.000    2.500    0.000    0.000    0.000    0.000 
#    0.000    0.000    0.000    0.000    0.000    0.000 
#
# Total GULP energy -44541.767403 kJ/mol
# GULP energy per Si atom -5567.720925 kJ/mol
# Density = 2.725329 g / cm^3
# Si number density = 27.315461 Si / 1000 Ang^3
#
#
#
# Elastic Constant Matrix: (Units=GPa)
#
#
# Indices 1 2 3 4 5 6 
#
# 1 223.7140 82.4207 44.4443 -50.9818 4.5409 15.2894
# 2 82.4207 131.6259 82.0417 -39.1252 5.0027 -4.3256
# 3 44.4443 82.0417 183.0359 -53.3819 38.0080 0.5964
# 4 -50.9818 -39.1252 -53.3819 75.6090 -9.4112 3.6265
# 5 4.5409 5.0027 38.0080 -9.4112 49.6457 -19.9068
# 6 15.2894 -4.3256 0.5964 3.6265 -19.9068 78.2876
#
#
#
# Elastic Compliance Matrix: (Units=1/GPa)
#
#
# Indices 1 2 3 4 5 6 
#
# 1 0.006615 -0.004128 0.001548 0.003320 -0.001582 -0.002088
# 2 -0.004128 0.014134 -0.006184 0.000644 0.004959 0.002865
# 3 0.001548 -0.006184 0.010947 0.004694 -0.008227 -0.003037
# 4 0.003320 0.000644 0.004694 0.019065 -0.001071 -0.001804
# 5 -0.001582 0.004959 -0.008227 -0.001071 0.029132 0.008103
# 6 -0.002088 0.002865 -0.003037 -0.001804 0.008103 0.015507
#
#
# Mechanical properties :
#
#
# Convention : Reuss Voigt Hill
#
# Bulk Modulus (GPa) = 70.59114 106.24323 88.41718
# Shear Modulus (GPa) = 42.49888 62.67309 52.58598
#
# Velocity S-wave (km/s) = 3.94871 4.79521 4.39240
# Velocity P-wave (km/s) = 6.83292 8.34494 7.62649
#
# Compressibility (1/GPa) = 0.01416608
#
# Stress axis : x y z
#
# Youngs Moduli (GPa) = 151.17443 70.75154 91.35264
#
# Poissons Ratio (x) = 0.29209 -0.14140
# Poissons Ratio (y) = 0.62411 0.56493
# Poissons Ratio (z) = -0.23399 0.43753
#
# Static dielectric constant tensor:
#      x y z
#    x 2.678220 0.106330 -0.086720 
#    y 0.106330 2.316290 0.114040 
#    z -0.086720 0.114040 2.230990 
# 
# From -- ./inp_files/143638.got.cif
#   From: 2010.05.17/outbox.cif.g08.bks.cpg/sg2_72_cif.got.tgz:143638.got - 2010.06.03 11:33:40.
