data_PCOD9068925
_publ_section_title
;
Structure prediction by ZEFSAII (Michael W. Deem and Ramdas Pophale) SiO2 
 PCOD9068925
Probable space group: P -1
;
_chemical_formula_sum "Si O2"
_cell_formula_units_Z 16
_cell_length_a 16.032492
_cell_length_b 10.509138
_cell_length_c 8.512480
_cell_angle_alpha 55.335864
_cell_angle_beta 57.242846
_cell_angle_gamma 35.259653
_cell_volume 672.068828
_symmetry_space_group_name_H-M "P -1"
_symmetry_group_IT_number 2
_symmetry_cell_setting 'triclinic'
loop_
_space_group_symop_operation_xyz
x,y,z
-x,-y,-z
loop_
_atom_site_type_symbol
_atom_site_label
_atom_site_fract_x
_atom_site_fract_y
_atom_site_fract_z
Si Si1 0.853495 0.968796 0.933017
Si Si2 0.413399 0.674555 0.825225
Si Si3 0.904252 0.270836 0.612773
Si Si4 0.400419 0.104615 0.181677
Si Si5 0.130994 0.638582 0.052102
Si Si6 0.395332 0.288762 0.548520
Si Si7 0.677610 0.395950 0.322107
Si Si8 0.788127 0.969483 0.668043
O O1 0.880473 0.111477 0.731173
O O2 0.786713 0.949655 0.870748
O O3 0.746525 0.112728 0.089170
O O4 0.999059 0.720538 0.027139
O O5 0.492455 0.737842 0.646210
O O6 0.420296 0.549457 0.759887
O O7 0.500000 0.500000 0.000000
O O8 0.919582 0.271364 0.784039
O O9 0.759858 0.524959 0.513862
O O10 0.045231 0.185153 0.446555
O O11 0.283628 0.375554 0.103844
O O12 0.512749 0.966148 0.310612
O O13 0.294961 0.074818 0.301872
O O14 0.500000 0.000000 0.000000
O O15 0.174316 0.732842 0.831927
O O16 0.367788 0.411627 0.655812
O O17 0.703081 0.220736 0.528656
#
# Coordination Sequence:
#
# PCOD9068925 Si02
#       8
#     2   2   2   2   2   2   2   2
#     4  12  24  43  75 111 144 184 246 306 358 422
#     4  12  23  38  69 115 142 178 237 304 368 409
#     4  12  24  46  75 110 140 185 246 307 359 424
#     4  12  30  49  71 104 150 197 238 293 365 441
#     4  12  26  46  71 102 157 190 234 300 364 431
#     4  12  25  43  73 106 143 187 242 296 361 426
#     4  12  21  42  75 101 140 187 244 307 352 419
#     4  12  26  45  77 106 140 192 247 296 366 429
#
# _framework density 23.807086999999999
#
# number of rings (size 3 to 8) (size 9 to 14) (size 15 to 20)
#    0.000    0.000    7.500    2.625    1.750    2.500 
#    0.000    0.000    0.000    0.000    0.000    0.000 
#    0.000    0.000    0.000    0.000    0.000    0.000 
#
# Total GULP energy -89500.770746 kJ/mol
# GULP energy per Si atom -5593.798172 kJ/mol
# Density = 2.375290 g / cm^3
# Si number density = 23.807087 Si / 1000 Ang^3
#
#
#
# Elastic Constant Matrix: (Units=GPa)
#
#
# Indices 1 2 3 4 5 6 
#
# 1 72.6981 14.2929 20.5551 7.1367 25.0547 -15.7921
# 2 14.2929 98.9281 31.5266 6.0848 4.0957 -24.5247
# 3 20.5551 31.5266 105.7834 16.2639 18.2317 -14.6049
# 4 7.1367 6.0848 16.2639 42.9204 -10.1257 6.0247
# 5 25.0547 4.0957 18.2317 -10.1257 44.4079 -0.5958
# 6 -15.7921 -24.5247 -14.6049 6.0247 -0.5958 35.0357
#
#
#
# Elastic Compliance Matrix: (Units=1/GPa)
#
#
# Indices 1 2 3 4 5 6 
#
# 1 0.022057 0.000671 0.001270 -0.009520 -0.015033 0.012323
# 2 0.000671 0.013167 -0.002184 -0.002703 -0.001191 0.009054
# 3 0.001270 -0.002184 0.013067 -0.007413 -0.007494 0.005638
# 4 -0.009520 -0.002703 -0.007413 0.033982 0.016213 -0.014841
# 5 -0.015033 -0.001191 -0.007494 0.016213 0.037711 -0.012881
# 6 0.012323 0.009054 0.005638 -0.014841 -0.012881 0.045118
#
#
# Mechanical properties :
#
#
# Convention : Reuss Voigt Hill
#
# Bulk Modulus (GPa) = 20.91765 45.57321 33.24543
# Shear Modulus (GPa) = 27.54476 38.54179 33.04327
#
# Velocity S-wave (km/s) = 3.40516 4.02795 3.72957
# Velocity P-wave (km/s) = 4.92600 6.38880 5.70448
#
# Compressibility (1/GPa) = 0.04780651
#
# Stress axis : x y z
#
# Youngs Moduli (GPa) = 45.33720 75.94547 76.52815
#
# Poissons Ratio (x) = -0.05099 -0.09719
# Poissons Ratio (y) = -0.03044 0.16712
# Poissons Ratio (z) = -0.05758 0.16585
#
# Static dielectric constant tensor:
#      x y z
#    x 1.918940 -0.004650 0.073400 
#    y -0.004650 1.961380 -0.095050 
#    z 0.073400 -0.095050 1.377310 
# 
# From -- ./inp_files/186055.got.cif
#   From: 2010.05.17/outbox.cif.g08.bks.cpg/sg2_94_cif.got.tgz:186055.got - 2010.06.03 11:33:40.
