data_PCOD9068516
_publ_section_title
;
Structure prediction by ZEFSAII (Michael W. Deem and Ramdas Pophale) SiO2 
 PCOD9068516
Probable space group: P -1
;
_chemical_formula_sum "Si O2"
_cell_formula_units_Z 14
_cell_length_a 8.878812
_cell_length_b 14.507969
_cell_length_c 5.489126
_cell_angle_alpha 70.778347
_cell_angle_beta 58.299716
_cell_angle_gamma 89.470670
_cell_volume 556.120590
_symmetry_space_group_name_H-M "P -1"
_symmetry_group_IT_number 2
_symmetry_cell_setting 'triclinic'
loop_
_space_group_symop_operation_xyz
x,y,z
-x,-y,-z
loop_
_atom_site_type_symbol
_atom_site_label
_atom_site_fract_x
_atom_site_fract_y
_atom_site_fract_z
Si Si1 0.917532 0.596750 0.546525
Si Si2 0.773113 0.747943 0.249559
Si Si3 0.396849 0.706212 0.863547
Si Si4 0.202340 0.044364 0.192164
Si Si5 0.677005 0.566725 0.172020
Si Si6 0.777283 0.385925 0.415350
Si Si7 0.439229 0.917105 0.826498
O O1 0.917816 0.687961 0.286810
O O2 0.000000 0.500000 0.500000
O O3 0.039716 0.645265 0.629099
O O4 0.717540 0.558906 0.860171
O O5 0.607189 0.730179 0.594517
O O6 0.700350 0.679432 0.138591
O O7 0.819829 0.863652 0.043727
O O8 0.299394 0.660121 0.737266
O O9 0.353819 0.813076 0.867521
O O10 0.346454 0.644367 0.210430
O O11 0.374802 0.089939 0.182036
O O12 0.000000 0.000000 0.500000
O O13 0.287436 0.956201 0.077678
O O14 0.500000 0.500000 0.500000
O O15 0.811740 0.504636 0.241296
O O16 0.500000 0.000000 0.500000
#
# Coordination Sequence:
#
# PCOD9068516 Si02
#       7
#     2   2   2   2   2   2   2
#     4  12  28  48  74 119 167 214 283 345 406 497
#     4  12  27  48  81 114 166 216 275 340 421 504
#     4  12  27  50  82 119 162 226 273 339 428 509
#     4  11  28  55  86 126 166 218 287 359 433 504
#     4  12  26  46  77 111 163 218 269 334 407 503
#     4  12  27  47  78 118 166 217 276 334 421 489
#     4  11  26  53  86 117 168 215 283 360 425 507
#
# _framework density 25.174396000000002
#
# number of rings (size 3 to 8) (size 9 to 14) (size 15 to 20)
#    0.000    0.286    4.286    3.000    6.000    4.000 
#    0.000    0.000    0.000    0.000    0.000    0.000 
#    0.000    0.000    0.000    0.000    0.000    0.000 
#
# Total GULP energy -78227.035807 kJ/mol
# GULP energy per Si atom -5587.645415 kJ/mol
# Density = 2.511710 g / cm^3
# Si number density = 25.174396 Si / 1000 Ang^3
#
#
#
# Elastic Constant Matrix: (Units=GPa)
#
#
# Indices 1 2 3 4 5 6 
#
# 1 134.5753 49.5765 51.5783 -5.2193 12.6649 -14.9970
# 2 49.5765 161.4606 55.4527 4.2335 8.8804 -7.4301
# 3 51.5783 55.4527 189.4364 -1.6737 -13.5409 -16.1069
# 4 -5.2193 4.2335 -1.6737 48.3418 -14.2023 9.3991
# 5 12.6649 8.8804 -13.5409 -14.2023 53.5247 2.8823
# 6 -14.9970 -7.4301 -16.1069 9.3991 2.8823 32.2651
#
#
#
# Elastic Compliance Matrix: (Units=1/GPa)
#
#
# Indices 1 2 3 4 5 6 
#
# 1 0.009497 -0.001946 -0.001926 -0.000303 -0.002672 0.003331
# 2 -0.001946 0.007556 -0.001769 -0.001532 -0.001677 0.000549
# 3 -0.001926 -0.001769 0.006643 0.000598 0.002501 0.001616
# 4 -0.000303 -0.001532 0.000598 0.024546 0.007421 -0.008009
# 5 -0.002672 -0.001677 0.002501 0.007421 0.022440 -0.004546
# 6 0.003331 0.000549 0.001616 -0.008009 -0.004546 0.036214
#
#
# Mechanical properties :
#
#
# Convention : Reuss Voigt Hill
#
# Bulk Modulus (GPa) = 80.56124 88.74302 84.65213
# Shear Modulus (GPa) = 40.87785 48.75065 44.81425
#
# Velocity S-wave (km/s) = 4.03400 4.40536 4.22376
# Velocity P-wave (km/s) = 7.33268 7.82331 7.58196
#
# Compressibility (1/GPa) = 0.01241292
#
# Stress axis : x y z
#
# Youngs Moduli (GPa) = 105.29632 132.34246 150.54514
#
# Poissons Ratio (x) = 0.25757 0.29002
# Poissons Ratio (y) = 0.20493 0.26627
# Poissons Ratio (z) = 0.20285 0.23408
#
# Static dielectric constant tensor:
#      x y z
#    x 2.210540 -0.011190 -0.036840 
#    y -0.011190 2.014800 0.115330 
#    z -0.036840 0.115330 2.127830 
# 
# From -- ./inp_files/31586.got.cif
#   From: 2010.05.17/outbox.cif.g08.bks.cpg/sg2_16_cif.got.tgz:31586.got - 2010.06.03 11:33:40.
