data_PCOD9068634
_publ_section_title
;
Structure prediction by ZEFSAII (Michael W. Deem and Ramdas Pophale) SiO2 
 PCOD9068634
Probable space group: P -1
;
_chemical_formula_sum "Si O2"
_cell_formula_units_Z 14
_cell_length_a 8.560390
_cell_length_b 5.541675
_cell_length_c 18.256464
_cell_angle_alpha 132.550261
_cell_angle_beta 58.504195
_cell_angle_gamma 119.460158
_cell_volume 530.630042
_symmetry_space_group_name_H-M "P -1"
_symmetry_group_IT_number 2
_symmetry_cell_setting 'triclinic'
loop_
_space_group_symop_operation_xyz
x,y,z
-x,-y,-z
loop_
_atom_site_type_symbol
_atom_site_label
_atom_site_fract_x
_atom_site_fract_y
_atom_site_fract_z
Si Si1 0.559197 0.542622 0.909873
Si Si2 0.802064 0.263336 0.027681
Si Si3 0.854658 0.412219 0.210688
Si Si4 0.979458 0.154765 0.275240
Si Si5 0.504323 0.689286 0.382122
Si Si6 0.711216 0.586138 0.502235
Si Si7 0.688413 0.246493 0.689727
O O1 0.371463 0.570535 0.917815
O O2 0.636822 0.252026 0.789120
O O3 0.500000 0.500000 0.000000
O O4 0.719323 0.888293 0.939712
O O5 0.815066 0.226630 0.104886
O O6 0.000000 0.500000 0.000000
O O7 0.924681 0.194648 0.211511
O O8 0.675663 0.514274 0.312739
O O9 0.969985 0.784398 0.233328
O O10 0.839241 0.346394 0.392691
O O11 0.183146 0.389861 0.279840
O O12 0.320654 0.448470 0.409747
O O13 0.498437 0.778875 0.317599
O O14 0.500000 0.000000 0.500000
O O15 0.500000 0.500000 0.500000
O O16 0.783639 0.986939 0.567505
#
# Coordination Sequence:
#
# PCOD9068634 Si02
#       7
#     2   2   2   2   2   2   2
#     4  11  28  48  75 113 151 199 264 322 392 456
#     4  11  27  49  78 109 151 205 259 324 388 465
#     4  12  26  48  76 107 151 197 253 305 384 456
#     4  12  28  46  74 115 148 199 250 308 381 460
#     4  12  23  43  71 100 146 194 246 299 374 454
#     4  12  24  42  71 103 145 198 248 301 374 456
#     4  12  27  46  70 105 151 197 245 325 374 450
#
# _framework density 26.383731999999998
#
# number of rings (size 3 to 8) (size 9 to 14) (size 15 to 20)
#    0.000    0.286    5.714    1.286    8.000    1.143 
#    0.000    0.000    0.000    0.000    0.000    0.000 
#    0.000    0.000    0.000    0.000    0.000    0.000 
#
# Total GULP energy -78196.795284 kJ/mol
# GULP energy per Si atom -5585.485377 kJ/mol
# Density = 2.632368 g / cm^3
# Si number density = 26.383732 Si / 1000 Ang^3
#
#
#
# Elastic Constant Matrix: (Units=GPa)
#
#
# Indices 1 2 3 4 5 6 
#
# 1 72.1041 25.9024 69.0091 -15.1668 12.8345 4.1104
# 2 25.9024 107.0617 39.7384 0.9976 12.8917 13.4740
# 3 69.0091 39.7384 168.6511 -4.3277 15.8902 12.0212
# 4 -15.1668 0.9976 -4.3277 51.9533 -4.7864 9.9314
# 5 12.8345 12.8917 15.8902 -4.7864 43.6208 -7.2811
# 6 4.1104 13.4740 12.0212 9.9314 -7.2811 37.6728
#
#
#
# Elastic Compliance Matrix: (Units=1/GPa)
#
#
# Indices 1 2 3 4 5 6 
#
# 1 0.025758 -0.002261 -0.009461 0.006758 -0.002945 -0.001334
# 2 -0.002261 0.011153 -0.001173 -0.000514 -0.002893 -0.003792
# 3 -0.009461 -0.001173 0.010245 -0.001681 -0.001049 -0.001577
# 4 0.006758 -0.000514 -0.001681 0.022228 0.000242 -0.005830
# 5 -0.002945 -0.002893 -0.001049 0.000242 0.026171 0.006685
# 6 -0.001334 -0.003792 -0.001577 -0.005830 0.006685 0.031378
#
#
# Mechanical properties :
#
#
# Convention : Reuss Voigt Hill
#
# Bulk Modulus (GPa) = 46.80252 68.56851 57.68552
# Shear Modulus (GPa) = 31.28035 40.86052 36.07043
#
# Velocity S-wave (km/s) = 3.44698 3.93962 3.70151
# Velocity P-wave (km/s) = 5.79827 6.83663 6.33875
#
# Compressibility (1/GPa) = 0.02136637
#
# Stress axis : x y z
#
# Youngs Moduli (GPa) = 38.82349 89.66055 97.60646
#
# Poissons Ratio (x) = 0.20269 0.92345
# Poissons Ratio (y) = 0.08776 0.11452
# Poissons Ratio (z) = 0.36731 0.10520
#
# Static dielectric constant tensor:
#      x y z
#    x 2.335060 -0.474640 -0.098640 
#    y -0.474640 3.083210 0.180410 
#    z -0.098640 0.180410 2.087710 
# 
# From -- ./inp_files/89704.got.cif
#   From: 2010.05.17/outbox.cif.g08.bks.cpg/sg2_45_cif.got.tgz:89704.got - 2010.06.03 11:33:40.
