data_PCOD9068688
_publ_section_title
;
Structure prediction by ZEFSAII (Michael W. Deem and Ramdas Pophale) SiO2 
 PCOD9068688
Probable space group: P -1
;
_chemical_formula_sum "Si O2"
_cell_formula_units_Z 8
_cell_length_a 10.090159
_cell_length_b 7.725480
_cell_length_c 8.489011
_cell_angle_alpha 120.884009
_cell_angle_beta 64.037450
_cell_angle_gamma 151.682408
_cell_volume 269.227606
_symmetry_space_group_name_H-M "P -1"
_symmetry_group_IT_number 2
_symmetry_cell_setting 'triclinic'
loop_
_space_group_symop_operation_xyz
x,y,z
-x,-y,-z
loop_
_atom_site_type_symbol
_atom_site_label
_atom_site_fract_x
_atom_site_fract_y
_atom_site_fract_z
Si Si1 0.041697 0.817818 0.011264
Si Si2 0.674712 0.594869 0.594203
Si Si3 0.301393 0.676988 0.776932
Si Si4 0.208060 0.599801 0.339390
O O1 0.746022 0.472574 0.097683
O O2 0.233201 0.145190 0.196332
O O3 0.165210 0.736503 0.887286
O O4 0.973722 0.776951 0.843640
O O5 0.500000 0.500000 0.500000
O O6 0.861590 0.661709 0.417364
O O7 0.583427 0.300893 0.621542
O O8 0.607164 0.060833 0.723859
O O9 0.000000 0.500000 0.500000
#
# Coordination Sequence:
#
# PCOD9068688 Si02
#       4
#     2   2   2   2
#     4  11  27  52  87 112 161 214 266 326 399 471
#     4  12  29  50  81 123 163 205 267 333 396 473
#     4  11  27  53  80 118 162 207 268 328 400 466
#     4  12  27  55  84 116 161 213 267 327 396 477
#
# _framework density 29.714635999999999
#
# number of rings (size 3 to 8) (size 9 to 14) (size 15 to 20)
#    0.000    0.500    2.500    3.000   10.500    3.000 
#    0.000    0.000    0.000    0.000    0.000    0.000 
#    0.000    0.000    0.000    0.000    0.000    0.000 
#
# Total GULP energy -44605.911165 kJ/mol
# GULP energy per Si atom -5575.738896 kJ/mol
# Density = 2.964700 g / cm^3
# Si number density = 29.714636 Si / 1000 Ang^3
#
#
#
# Elastic Constant Matrix: (Units=GPa)
#
#
# Indices 1 2 3 4 5 6 
#
# 1 204.5407 60.2853 62.2998 6.5453 22.0992 6.0631
# 2 60.2853 116.2686 102.5317 -6.8742 -17.4059 19.7820
# 3 62.2998 102.5317 299.8347 34.1167 4.5425 10.4245
# 4 6.5453 -6.8742 34.1167 67.6261 7.8183 -4.5914
# 5 22.0992 -17.4059 4.5425 7.8183 54.7572 0.1584
# 6 6.0631 19.7820 10.4245 -4.5914 0.1584 38.4424
#
#
#
# Elastic Compliance Matrix: (Units=1/GPa)
#
#
# Indices 1 2 3 4 5 6 
#
# 1 0.006539 -0.004448 0.000261 -0.000680 -0.003981 0.001122
# 2 -0.004448 0.018466 -0.005706 0.003843 0.007609 -0.006826
# 3 0.000261 -0.005706 0.005582 -0.003128 -0.001938 0.001016
# 4 -0.000680 0.003843 -0.003128 0.016968 -0.000670 0.001007
# 5 -0.003981 0.007609 -0.001938 -0.000670 0.022553 -0.002935
# 6 0.001122 -0.006826 0.001016 0.001007 -0.002935 0.029206
#
#
# Mechanical properties :
#
#
# Convention : Reuss Voigt Hill
#
# Bulk Modulus (GPa) = 92.57123 118.98642 105.77883
# Shear Modulus (GPa) = 40.75001 58.53361 49.64181
#
# Velocity S-wave (km/s) = 3.70723 4.44312 4.09175
# Velocity P-wave (km/s) = 7.03888 8.15179 7.61569
#
# Compressibility (1/GPa) = 0.01080249
#
# Stress axis : x y z
#
# Youngs Moduli (GPa) = 152.92962 54.15261 179.14220
#
# Poissons Ratio (x) = 0.24084 -0.04674
# Poissons Ratio (y) = 0.68016 1.02216
# Poissons Ratio (z) = -0.03990 0.30899
#
# Static dielectric constant tensor:
#      x y z
#    x 2.458780 -0.151650 0.094910 
#    y -0.151650 2.627500 0.173950 
#    z 0.094910 0.173950 2.381970 
# 
# From -- ./inp_files/143525.got.cif
#   From: 2010.05.17/outbox.cif.g08.bks.cpg/sg2_72_cif.got.tgz:143525.got - 2010.06.03 11:33:40.
