data_PCOD9068398
_publ_section_title
;
Structure prediction by ZEFSAII (Michael W. Deem and Ramdas Pophale) SiO2 
 PCOD9068398
Probable space group: P -1
;
_chemical_formula_sum "Si O2"
_cell_formula_units_Z 12
_cell_length_a 7.036681
_cell_length_b 5.061730
_cell_length_c 17.972000
_cell_angle_alpha 79.229642
_cell_angle_beta 135.801609
_cell_angle_gamma 111.452864
_cell_volume 412.532070
_symmetry_space_group_name_H-M "P -1"
_symmetry_group_IT_number 2
_symmetry_cell_setting 'triclinic'
loop_
_space_group_symop_operation_xyz
x,y,z
-x,-y,-z
loop_
_atom_site_type_symbol
_atom_site_label
_atom_site_fract_x
_atom_site_fract_y
_atom_site_fract_z
Si Si1 0.587302 0.277964 0.088586
Si Si2 0.349179 0.178149 0.400563
Si Si3 0.353200 0.501787 0.744545
Si Si4 0.791600 0.241526 0.904620
Si Si5 0.904545 0.704175 0.534353
Si Si6 0.068745 0.021453 0.178977
O O1 0.294355 0.035375 0.051028
O O2 0.794661 0.123627 0.115991
O O3 0.717358 0.443209 0.192930
O O4 0.500000 0.500000 0.000000
O O5 0.588644 0.485991 0.435504
O O6 0.204210 0.001957 0.298005
O O7 0.120609 0.216889 0.391393
O O8 0.500000 0.000000 0.500000
O O9 0.126765 0.528760 0.617708
O O10 0.665682 0.729194 0.797860
O O11 0.464133 0.234615 0.794461
O O12 0.928196 0.231176 0.862566
O O13 0.000000 0.500000 0.000000
O O14 0.000000 0.000000 0.500000
#
# Coordination Sequence:
#
# PCOD9068398 Si02
#       6
#     2   2   2   2   2   2
#     4  11  28  56  88 126 175 228 300 374 446 533
#     4  11  26  49  89 128 173 232 295 364 452 533
#     4  11  27  52  84 122 178 229 286 368 448 524
#     4  11  30  57  85 126 180 235 298 371 450 526
#     4  11  26  52  86 129 178 231 295 368 447 536
#     4  11  27  53  88 128 179 230 298 369 445 533
#
# _framework density 29.088646000000001
#
# number of rings (size 3 to 8) (size 9 to 14) (size 15 to 20)
#    0.000    1.000    1.667    1.000    4.667   15.333 
#    3.000    0.833    0.000    0.000    0.000    0.000 
#    0.000    0.000    0.000    0.000    0.000    0.000 
#
# Total GULP energy -67269.700224 kJ/mol
# GULP energy per Si atom -5605.808352 kJ/mol
# Density = 2.902244 g / cm^3
# Si number density = 29.088646 Si / 1000 Ang^3
#
#
#
# Elastic Constant Matrix: (Units=GPa)
#
#
# Indices 1 2 3 4 5 6 
#
# 1 234.3885 79.4930 77.9305 15.1950 -31.6615 -28.6748
# 2 79.4930 187.8721 67.6195 15.1026 -10.8408 17.3047
# 3 77.9305 67.6195 212.7236 -9.6149 -5.2651 -7.9459
# 4 15.1950 15.1026 -9.6149 51.3738 -0.6386 -1.4237
# 5 -31.6615 -10.8408 -5.2651 -0.6386 55.6462 4.3658
# 6 -28.6748 17.3047 -7.9459 -1.4237 4.3658 70.2539
#
#
#
# Elastic Compliance Matrix: (Units=1/GPa)
#
#
# Indices 1 2 3 4 5 6 
#
# 1 0.006282 -0.002078 -0.001535 -0.001425 0.002796 0.002700
# 2 -0.002078 0.007263 -0.001735 -0.001922 0.000273 -0.002890
# 3 -0.001535 -0.001735 0.005913 0.002078 -0.000672 0.000554
# 4 -0.001425 -0.001922 0.002078 0.020847 -0.000796 0.000599
# 5 0.002796 0.000273 -0.000672 -0.000796 0.019560 -0.000234
# 6 0.002700 -0.002890 0.000554 0.000599 -0.000234 0.016137
#
#
# Mechanical properties :
#
#
# Convention : Reuss Voigt Hill
#
# Bulk Modulus (GPa) = 114.15020 120.56336 117.35678
# Shear Modulus (GPa) = 55.79073 62.78419 59.28746
#
# Velocity S-wave (km/s) = 4.38420 4.65087 4.51950
# Velocity P-wave (km/s) = 8.05951 8.38914 8.22597
#
# Compressibility (1/GPa) = 0.00876039
#
# Stress axis : x y z
#
# Youngs Moduli (GPa) = 159.18418 137.68046 169.12081
#
# Poissons Ratio (x) = 0.28615 0.25962
# Poissons Ratio (y) = 0.33084 0.29350
# Poissons Ratio (z) = 0.24436 0.23894
#
# Static dielectric constant tensor:
#      x y z
#    x 2.430260 -0.098270 0.125660 
#    y -0.098270 2.615220 -0.148920 
#    z 0.125660 -0.148920 2.376280 
# 
# From -- ./inp_files/580602.got.cif
#   From: 2010.05.17/outbox.cif.g08.bks.cpg/sg2_291_cif.got.tgz:580602.got - 2010.06.03 11:33:40.
