data_PCOD9068577
_publ_section_title
;
Structure prediction by ZEFSAII (Michael W. Deem and Ramdas Pophale) SiO2 
 PCOD9068577
Probable space group: P -1
;
_chemical_formula_sum "Si O2"
_cell_formula_units_Z 14
_cell_length_a 10.011637
_cell_length_b 15.478253
_cell_length_c 9.706910
_cell_angle_alpha 130.428121
_cell_angle_beta 151.918531
_cell_angle_gamma 57.293619
_cell_volume 536.868617
_symmetry_space_group_name_H-M "P -1"
_symmetry_group_IT_number 2
_symmetry_cell_setting 'triclinic'
loop_
_space_group_symop_operation_xyz
x,y,z
-x,-y,-z
loop_
_atom_site_type_symbol
_atom_site_label
_atom_site_fract_x
_atom_site_fract_y
_atom_site_fract_z
Si Si1 0.346383 0.317428 0.972237
Si Si2 0.054242 0.916854 0.337363
Si Si3 0.554778 0.567700 0.364726
Si Si4 0.230428 0.697057 0.425856
Si Si5 0.639190 0.959512 0.777745
Si Si6 0.934251 0.824918 0.677712
Si Si7 0.889451 0.383191 0.200745
O O1 0.231282 0.232493 0.661309
O O2 0.062723 0.354675 0.826581
O O3 0.516664 0.431224 0.186807
O O4 0.550611 0.263976 0.212201
O O5 0.146578 0.802069 0.368114
O O6 0.000000 0.000000 0.500000
O O7 0.773635 0.902788 0.974892
O O8 0.308493 0.963350 0.513766
O O9 0.390922 0.611308 0.390855
O O10 0.880679 0.616393 0.713256
O O11 0.412831 0.611252 0.140838
O O12 0.816466 0.080851 0.043702
O O13 0.283574 0.115412 0.359775
O O14 0.074836 0.725575 0.786161
O O15 0.000000 0.500000 0.500000
#
# Coordination Sequence:
#
# PCOD9068577 Si02
#       7
#     2   2   2   2   2   2   2
#     4  12  26  44  73 108 147 193 238 297 358 436
#     4  12  26  50  75 107 142 189 250 297 365 426
#     4  12  25  47  72 106 148 190 242 296 359 427
#     4  12  26  46  74 106 145 192 242 299 357 426
#     4  11  27  49  75 108 145 194 240 306 355 434
#     4  11  27  47  75 108 150 190 245 294 370 428
#     4  12  25  45  72 108 143 188 239 295 359 433
#
# _framework density 26.077145999999999
#
# number of rings (size 3 to 8) (size 9 to 14) (size 15 to 20)
#    0.000    0.286    1.429    6.857    0.000    8.000 
#    0.000    0.000    0.000    0.000    0.000    0.000 
#    0.000    0.000    0.000    0.000    0.000    0.000 
#
# Total GULP energy -78751.190343 kJ/mol
# GULP energy per Si atom -5625.085025 kJ/mol
# Density = 2.601779 g / cm^3
# Si number density = 26.077146 Si / 1000 Ang^3
#
#
#
# Elastic Constant Matrix: (Units=GPa)
#
#
# Indices 1 2 3 4 5 6 
#
# 1 94.9064 34.0465 16.2997 -5.7597 -6.2149 -12.3912
# 2 34.0465 139.7203 20.7402 15.3078 -12.1486 2.0424
# 3 16.2997 20.7402 93.1012 -12.9001 -1.3782 4.8227
# 4 -5.7597 15.3078 -12.9001 28.8155 -4.2081 -1.6047
# 5 -6.2149 -12.1486 -1.3782 -4.2081 51.8015 -2.7161
# 6 -12.3912 2.0424 4.8227 -1.6047 -2.7161 42.7936
#
#
#
# Elastic Compliance Matrix: (Units=1/GPa)
#
#
# Indices 1 2 3 4 5 6 
#
# 1 0.012840 -0.003387 -0.001099 0.004298 0.001289 0.004246
# 2 -0.003387 0.009138 -0.002252 -0.006456 0.001082 -0.001336
# 3 -0.001099 -0.002252 0.012404 0.006472 0.000125 -0.001358
# 4 0.004298 -0.006456 0.006472 0.042437 0.002757 0.002590
# 5 0.001289 0.001082 0.000125 0.002757 0.020028 0.001682
# 6 0.004246 -0.001336 -0.001358 0.002590 0.001682 0.025018
#
#
# Mechanical properties :
#
#
# Convention : Reuss Voigt Hill
#
# Bulk Modulus (GPa) = 47.83122 52.21121 50.02121
# Shear Modulus (GPa) = 35.13494 41.79154 38.46324
#
# Velocity S-wave (km/s) = 3.67460 4.00761 3.84471
# Velocity P-wave (km/s) = 6.03205 6.44048 6.23961
#
# Compressibility (1/GPa) = 0.02090685
#
# Stress axis : x y z
#
# Youngs Moduli (GPa) = 77.88163 109.43806 80.61902
#
# Poissons Ratio (x) = 0.37063 0.08859
# Poissons Ratio (y) = 0.26376 0.18155
# Poissons Ratio (z) = 0.08558 0.24645
#
# Static dielectric constant tensor:
#      x y z
#    x 2.082620 -0.003890 0.030140 
#    y -0.003890 2.000050 -0.010850 
#    z 0.030140 -0.010850 1.946740 
# 
# From -- ./inp_files/433872.got.cif
#   From: 2010.05.17/outbox.cif.g08.bks.cpg/sg2_217_cif.got.tgz:433872.got - 2010.06.03 11:33:40.
