data_PCOD9068492
_publ_section_title
;
Structure prediction by ZEFSAII (Michael W. Deem and Ramdas Pophale) SiO2 
 PCOD9068492
Probable space group: P -1
;
_chemical_formula_sum "Si O2"
_cell_formula_units_Z 16
_cell_length_a 11.305027
_cell_length_b 18.007108
_cell_length_c 8.233501
_cell_angle_alpha 52.521404
_cell_angle_beta 78.595504
_cell_angle_gamma 38.215223
_cell_volume 675.489219
_symmetry_space_group_name_H-M "P -1"
_symmetry_group_IT_number 2
_symmetry_cell_setting 'triclinic'
loop_
_space_group_symop_operation_xyz
x,y,z
-x,-y,-z
loop_
_atom_site_type_symbol
_atom_site_label
_atom_site_fract_x
_atom_site_fract_y
_atom_site_fract_z
Si Si1 0.034111 0.510422 0.659907
Si Si2 0.446512 0.289924 0.038492
Si Si3 0.454565 0.465696 0.216773
Si Si4 0.514743 0.899128 0.248462
Si Si5 0.722444 0.131444 0.743698
Si Si6 0.261781 0.749659 0.096765
Si Si7 0.316202 0.041986 0.462807
Si Si8 0.908855 0.418349 0.994780
O O1 0.779555 0.722376 0.481138
O O2 0.068144 0.391757 0.908596
O O3 0.000000 0.500000 0.500000
O O4 0.258791 0.421018 0.768445
O O5 0.620030 0.260378 0.051970
O O6 0.280152 0.400636 0.091990
O O7 0.608428 0.092467 0.264958
O O8 0.653712 0.255803 0.465356
O O9 0.224065 0.556660 0.130708
O O10 0.500000 0.500000 0.000000
O O11 0.401328 0.562493 0.263888
O O12 0.448679 0.845182 0.247501
O O13 0.343498 0.008658 0.305371
O O14 0.500000 0.000000 0.000000
O O15 0.708749 0.203498 0.814972
O O16 0.985335 0.920269 0.930729
O O17 0.500000 0.000000 0.500000
O O18 0.058530 0.249912 0.288399
#
# Coordination Sequence:
#
# PCOD9068492 Si02
#       8
#     2   2   2   2   2   2   2   2
#     4  12  24  44  71 103 145 185 234 298 361 422
#     4  12  25  46  70 106 145 188 237 297 362 435
#     4  12  25  46  74 106 139 189 245 294 363 426
#     4  12  26  48  73 108 144 189 242 298 367 428
#     4  11  26  52  72 103 149 187 245 305 353 435
#     4  11  27  47  74 103 145 197 240 296 362 426
#     4  12  25  42  70 105 143 183 239 294 362 433
#     4  12  24  46  70 103 142 185 237 306 358 426
#
# _framework density 23.686537000000001
#
# number of rings (size 3 to 8) (size 9 to 14) (size 15 to 20)
#    0.000    0.250    5.000    3.750    3.500    0.500 
#    4.500    0.000    0.000    0.000    0.000    0.000 
#    0.000    0.000    0.000    0.000    0.000    0.000 
#
# Total GULP energy -89353.874658 kJ/mol
# GULP energy per Si atom -5584.617166 kJ/mol
# Density = 2.363263 g / cm^3
# Si number density = 23.686537 Si / 1000 Ang^3
#
#
#
# Elastic Constant Matrix: (Units=GPa)
#
#
# Indices 1 2 3 4 5 6 
#
# 1 99.2438 4.8392 16.7308 0.4847 -0.7250 14.6832
# 2 4.8392 66.3667 5.4408 4.6800 4.1092 12.3187
# 3 16.7308 5.4408 110.5411 -13.0867 -12.9438 1.1936
# 4 0.4847 4.6800 -13.0867 29.9867 6.5456 7.3070
# 5 -0.7250 4.1092 -12.9438 6.5456 25.6611 -2.2849
# 6 14.6832 12.3187 1.1936 7.3070 -2.2849 38.1471
#
#
#
# Elastic Compliance Matrix: (Units=1/GPa)
#
#
# Indices 1 2 3 4 5 6 
#
# 1 0.010992 0.000191 -0.001709 0.000342 -0.001058 -0.004368
# 2 0.000191 0.016447 -0.001318 -0.001080 -0.003493 -0.005346
# 3 -0.001709 -0.001318 0.010325 0.003688 0.004459 0.000321
# 4 0.000342 -0.001080 0.003688 0.038911 -0.008583 -0.007866
# 5 -0.001058 -0.003493 0.004459 -0.008583 0.044445 0.005702
# 6 -0.004368 -0.005346 0.000321 -0.007866 0.005702 0.031460
#
#
# Mechanical properties :
#
#
# Convention : Reuss Voigt Hill
#
# Bulk Modulus (GPa) = 31.16089 36.68593 33.92341
# Shear Modulus (GPa) = 29.59479 35.36838 32.48159
#
# Velocity S-wave (km/s) = 3.53857 3.86837 3.70714
# Velocity P-wave (km/s) = 5.46620 5.95601 5.71636
#
# Compressibility (1/GPa) = 0.03209151
#
# Stress axis : x y z
#
# Youngs Moduli (GPa) = 90.97617 60.80297 96.85047
#
# Poissons Ratio (x) = -0.01160 0.16555
# Poissons Ratio (y) = -0.01736 0.12760
# Poissons Ratio (z) = 0.15551 0.08011
#
# Static dielectric constant tensor:
#      x y z
#    x 1.965450 0.074260 -0.004900 
#    y 0.074260 2.126050 0.036610 
#    z -0.004900 0.036610 1.929820 
# 
# From -- ./inp_files/279015.got.cif
#   From: 2010.05.17/outbox.cif.g08.bks.cpg/sg2_140_cif.got.tgz:279015.got - 2010.06.03 11:33:40.
