data_PCOD9068768
_publ_section_title
;
Structure prediction by ZEFSAII (Michael W. Deem and Ramdas Pophale) SiO2 
 PCOD9068768
Probable space group: P -1
;
_chemical_formula_sum "Si O2"
_cell_formula_units_Z 16
_cell_length_a 13.418287
_cell_length_b 10.751308
_cell_length_c 16.180056
_cell_angle_alpha 146.729133
_cell_angle_beta 35.899386
_cell_angle_gamma 146.645527
_cell_volume 654.026043
_symmetry_space_group_name_H-M "P -1"
_symmetry_group_IT_number 2
_symmetry_cell_setting 'triclinic'
loop_
_space_group_symop_operation_xyz
x,y,z
-x,-y,-z
loop_
_atom_site_type_symbol
_atom_site_label
_atom_site_fract_x
_atom_site_fract_y
_atom_site_fract_z
Si Si1 0.477274 0.729122 0.778106
Si Si2 0.940017 0.319672 0.227899
Si Si3 0.716287 0.224022 0.667583
Si Si4 0.823829 0.709627 0.445272
Si Si5 0.329758 0.019537 0.909961
Si Si6 0.289602 0.744147 0.499992
Si Si7 0.272945 0.211207 0.208844
Si Si8 0.159116 0.198404 0.689668
O O1 0.620798 0.688966 0.596356
O O2 0.384615 0.865630 0.858522
O O3 0.619410 0.871266 0.839662
O O4 0.320021 0.450157 0.768436
O O5 0.847186 0.499192 0.364123
O O6 0.871728 0.123083 0.086885
O O7 0.842426 0.203567 0.317620
O O8 0.160960 0.536526 0.219861
O O9 0.776792 0.307620 0.579120
O O10 0.493579 0.109699 0.779539
O O11 0.762551 0.984850 0.504741
O O12 0.858577 0.659198 0.300265
O O13 0.000000 0.000000 0.500000
O O14 0.344094 0.244384 0.085075
O O15 0.292919 0.482014 0.375425
O O16 0.500000 0.000000 0.500000
O O17 0.046962 0.986313 0.234270
#
# Coordination Sequence:
#
# PCOD9068768 Si02
#       8
#     2   2   2   2   2   2   2   2
#     4  12  22  40  69  99 136 182 220 263 340 405
#     4  12  23  43  68 102 131 172 230 275 329 396
#     4  12  24  42  73  97 130 180 228 279 323 389
#     4  12  18  38  69 101 133 172 224 283 320 389
#     4  12  27  43  67 101 142 175 215 273 347 398
#     4  12  24  47  75  97 127 177 235 280 323 391
#     4  12  28  46  63 103 142 172 219 283 335 394
#     4  12  23  39  71 101 133 173 229 274 325 398
#
# _framework density 24.463857999999998
#
# number of rings (size 3 to 8) (size 9 to 14) (size 15 to 20)
#    0.000    0.000    8.750    2.625    0.000    2.000 
#    0.000    0.625    0.000    0.000    0.000    0.000 
#    0.000    0.000    0.000    0.000    0.000    0.000 
#
# Total GULP energy -89307.442121 kJ/mol
# GULP energy per Si atom -5581.715133 kJ/mol
# Density = 2.440818 g / cm^3
# Si number density = 24.463858 Si / 1000 Ang^3
#
#
#
# Elastic Constant Matrix: (Units=GPa)
#
#
# Indices 1 2 3 4 5 6 
#
# 1 68.2191 -3.0040 11.0395 -2.4369 27.5472 0.6690
# 2 -3.0040 80.9841 4.5593 -8.0271 -5.9113 11.4353
# 3 11.0395 4.5593 55.0949 -6.2901 25.8232 2.2077
# 4 -2.4369 -8.0271 -6.2901 21.0096 1.9645 10.0939
# 5 27.5472 -5.9113 25.8232 1.9645 35.0487 -1.9571
# 6 0.6690 11.4353 2.2077 10.0939 -1.9571 38.1068
#
#
#
# Elastic Compliance Matrix: (Units=1/GPa)
#
#
# Indices 1 2 3 4 5 6 
#
# 1 0.024410 0.000238 0.009009 0.010613 -0.026668 -0.005203
# 2 0.000238 0.014242 -0.001141 0.007886 0.002268 -0.006184
# 3 0.009009 -0.001141 0.035143 0.018468 -0.034677 -0.008525
# 4 0.010613 0.007886 0.018468 0.071244 -0.025942 -0.023826
# 5 -0.026668 0.002268 -0.034677 -0.025942 0.077585 0.012653
# 6 -0.005203 -0.006184 -0.008525 -0.023826 0.012653 0.035644
#
#
# Mechanical properties :
#
#
# Convention : Reuss Voigt Hill
#
# Bulk Modulus (GPa) = 11.11031 25.49864 18.30447
# Shear Modulus (GPa) = 18.37844 31.61324 24.99584
#
# Velocity S-wave (km/s) = 2.74387 3.59868 3.19994
# Velocity P-wave (km/s) = 3.81966 5.26431 4.59906
#
# Compressibility (1/GPa) = 0.09000652
#
# Stress axis : x y z
#
# Youngs Moduli (GPa) = 40.96656 70.21638 28.45502
#
# Poissons Ratio (x) = -0.01673 -0.25634
# Poissons Ratio (y) = -0.00976 0.03247
# Poissons Ratio (z) = -0.36906 0.08013
#
# Static dielectric constant tensor:
#      x y z
#    x 2.153710 0.057510 0.078310 
#    y 0.057510 2.002350 0.127920 
#    z 0.078310 0.127920 2.018180 
# 
# From -- ./inp_files/532026.got.cif
#   From: 2010.05.17/outbox.cif.g08.bks.cpg/sg2_267_cif.got.tgz:532026.got - 2010.06.03 11:33:40.
