data_PCOD9068470
_publ_section_title
;
Structure prediction by ZEFSAII (Michael W. Deem and Ramdas Pophale) SiO2 
 PCOD9068470
Probable space group: P -1
;
_chemical_formula_sum "Si O2"
_cell_formula_units_Z 16
_cell_length_a 19.442744
_cell_length_b 8.737762
_cell_length_c 6.710295
_cell_angle_alpha 123.949616
_cell_angle_beta 101.638639
_cell_angle_gamma 48.903145
_cell_volume 687.258488
_symmetry_space_group_name_H-M "P -1"
_symmetry_group_IT_number 2
_symmetry_cell_setting 'triclinic'
loop_
_space_group_symop_operation_xyz
x,y,z
-x,-y,-z
loop_
_atom_site_type_symbol
_atom_site_label
_atom_site_fract_x
_atom_site_fract_y
_atom_site_fract_z
Si Si1 0.854523 0.960378 0.595060
Si Si2 0.236279 0.131066 0.186392
Si Si3 0.729064 0.244957 0.351980
Si Si4 0.251713 0.437444 0.658802
Si Si5 0.081138 0.782587 0.033547
Si Si6 0.443157 0.141260 0.772305
Si Si7 0.473747 0.340594 0.289011
Si Si8 0.960006 0.404886 0.777377
O O1 0.801387 0.047177 0.417203
O O2 0.806192 0.916367 0.694803
O O3 0.850621 0.173841 0.827537
O O4 0.966641 0.735913 0.463326
O O5 0.289652 0.210539 0.369016
O O6 0.146195 0.371473 0.190686
O O7 0.291731 0.892170 0.903476
O O8 0.772488 0.337866 0.319865
O O9 0.634338 0.488047 0.573710
O O10 0.155723 0.527754 0.769144
O O11 0.333905 0.341047 0.790404
O O12 0.038699 0.767785 0.195358
O O13 0.000000 0.000000 0.000000
O O14 0.500000 0.000000 0.500000
O O15 0.462084 0.927813 0.763624
O O16 0.471480 0.276876 0.010038
O O17 0.500000 0.500000 0.500000
O O18 0.000000 0.500000 0.000000
#
# Coordination Sequence:
#
# PCOD9068470 Si02
#       8
#     2   2   2   2   2   2   2   2
#     4  12  24  45  69  99 146 185 244 297 358 429
#     4  12  27  44  72 106 141 194 239 296 361 429
#     4  12  26  47  69 108 141 186 240 298 357 432
#     4  12  26  47  73 102 148 190 240 295 366 431
#     4  12  24  43  72 104 140 193 240 296 362 423
#     4  11  26  51  73 110 147 189 236 301 365 434
#     4  11  28  46  79 108 145 188 240 297 366 441
#     4  12  23  43  66 101 146 187 243 300 353 428
#
# _framework density 23.280902000000001
#
# number of rings (size 3 to 8) (size 9 to 14) (size 15 to 20)
#    0.000    0.250    3.750    5.250    3.500    0.500 
#    0.000    0.000    0.000    0.000    0.000    0.000 
#    0.000    0.000    0.000    0.000    0.000    0.000 
#
# Total GULP energy -89532.000276 kJ/mol
# GULP energy per Si atom -5595.750017 kJ/mol
# Density = 2.322791 g / cm^3
# Si number density = 23.280902 Si / 1000 Ang^3
#
#
#
# Elastic Constant Matrix: (Units=GPa)
#
#
# Indices 1 2 3 4 5 6 
#
# 1 55.9915 18.6048 28.7908 -10.9254 15.5109 -1.5737
# 2 18.6048 95.6333 22.3715 -16.5965 -0.1827 -2.3858
# 3 28.7908 22.3715 149.3907 2.9775 20.0977 0.4760
# 4 -10.9254 -16.5965 2.9775 38.7994 -4.9398 -3.1715
# 5 15.5109 -0.1827 20.0977 -4.9398 55.3396 12.7453
# 6 -1.5737 -2.3858 0.4760 -3.1715 12.7453 36.6853
#
#
#
# Elastic Compliance Matrix: (Units=1/GPa)
#
#
# Indices 1 2 3 4 5 6 
#
# 1 0.023165 -0.002738 -0.003422 0.005173 -0.005542 0.003233
# 2 -0.002738 0.012228 -0.001632 0.004846 0.001713 0.000523
# 3 -0.003422 -0.001632 0.007944 -0.002536 -0.002201 0.000189
# 4 0.005173 0.004846 -0.002536 0.029909 0.001555 0.002616
# 5 -0.005542 0.001713 -0.002201 0.001555 0.022347 -0.007727
# 6 0.003233 0.000523 0.000189 0.002616 -0.007727 0.030340
#
#
# Mechanical properties :
#
#
# Convention : Reuss Voigt Hill
#
# Bulk Modulus (GPa) = 36.03353 48.94997 42.49175
# Shear Modulus (GPa) = 33.16332 41.58142 37.37237
#
# Velocity S-wave (km/s) = 3.77833 4.23078 4.01094
# Velocity P-wave (km/s) = 5.87756 6.70354 6.30409
#
# Compressibility (1/GPa) = 0.02775193
#
# Stress axis : x y z
#
# Youngs Moduli (GPa) = 43.16893 81.77705 125.88316
#
# Poissons Ratio (x) = 0.22392 0.43079
# Poissons Ratio (y) = 0.11821 0.20546
# Poissons Ratio (z) = 0.14773 0.13347
#
# Static dielectric constant tensor:
#      x y z
#    x 1.777810 0.019420 0.057150 
#    y 0.019420 1.852430 0.029040 
#    z 0.057150 0.029040 1.944790 
# 
# From -- ./inp_files/46977.got.cif
#   From: 2010.05.17/outbox.cif.g08.bks.cpg/sg2_24_cif.got.tgz:46977.got - 2010.06.03 11:33:40.
