data_PCOD9068120
_publ_section_title
;
Structure prediction by ZEFSAII (Michael W. Deem and Ramdas Pophale) SiO2 
 PCOD9068120
Probable space group: P -1
;
_chemical_formula_sum "Si O2"
_cell_formula_units_Z 13
_cell_length_a 9.969206
_cell_length_b 9.299186
_cell_length_c 8.934157
_cell_angle_alpha 68.881147
_cell_angle_beta 88.517473
_cell_angle_gamma 45.891250
_cell_volume 522.544112
_symmetry_space_group_name_H-M "P -1"
_symmetry_group_IT_number 2
_symmetry_cell_setting 'triclinic'
loop_
_space_group_symop_operation_xyz
x,y,z
-x,-y,-z
loop_
_atom_site_type_symbol
_atom_site_label
_atom_site_fract_x
_atom_site_fract_y
_atom_site_fract_z
Si Si1 0.601151 0.345170 0.704459
Si Si2 0.217724 0.534666 0.969179
Si Si3 0.526293 0.058623 0.822397
Si Si4 0.114738 0.350688 0.214814
Si Si5 0.173318 0.225855 0.579770
Si Si6 0.500000 0.500000 0.000000
Si Si7 0.032961 0.997898 0.681583
O O1 0.500000 0.500000 0.500000
O O2 0.507546 0.255934 0.750790
O O3 0.832218 0.139978 0.726590
O O4 0.568162 0.449519 0.828849
O O5 0.099951 0.545864 0.837509
O O6 0.128574 0.522490 0.121410
O O7 0.451372 0.353044 0.043459
O O8 0.190491 0.743078 0.850391
O O9 0.363048 0.124337 0.696465
O O10 0.748566 0.832156 0.850283
O O11 0.500000 0.000000 0.000000
O O12 0.215340 0.200374 0.413329
O O13 0.000000 0.500000 0.500000
O O14 0.102312 0.113830 0.659454
O O15 0.000000 0.000000 0.500000
#
# Coordination Sequence:
#
# PCOD9068120 Si02
#       7
#     2   2   2   2   2   1   2
#     4  12  28  51  78 114 159 208 268 332 400 480
#     4  11  26  47  77 109 154 202 265 324 400 472
#     4  12  28  50  77 114 157 209 265 325 403 484
#     4  11  26  51  75 109 158 207 253 333 393 484
#     4  12  29  47  79 115 157 211 265 321 403 475
#     4  12  30  46  80 116 158 204 266 336 400 470
#     4  12  25  50  79 116 156 207 264 333 399 477
#
# _framework density 24.878285000000002
#
# number of rings (size 3 to 8) (size 9 to 14) (size 15 to 20)
#    0.000    0.308    3.077    3.231   15.077    0.615 
#    0.000    0.000    0.000    0.000    0.000    0.000 
#    0.000    0.000    0.000    0.000    0.000    0.000 
#
# Total GULP energy -72479.384280 kJ/mol
# GULP energy per Si atom -5575.337252 kJ/mol
# Density = 2.482166 g / cm^3
# Si number density = 24.878285 Si / 1000 Ang^3
#
#
#
# Elastic Constant Matrix: (Units=GPa)
#
#
# Indices 1 2 3 4 5 6 
#
# 1 224.7593 19.8381 63.5541 2.5670 -26.2351 32.5743
# 2 19.8381 87.7612 26.3273 6.9878 -17.7337 8.8850
# 3 63.5541 26.3273 165.6289 9.6134 -20.9923 20.8942
# 4 2.5670 6.9878 9.6134 51.1165 6.4872 -15.6858
# 5 -26.2351 -17.7337 -20.9923 6.4872 47.9733 -4.3571
# 6 32.5743 8.8850 20.8942 -15.6858 -4.3571 43.0619
#
#
#
# Elastic Compliance Matrix: (Units=1/GPa)
#
#
# Indices 1 2 3 4 5 6 
#
# 1 0.005693 0.000133 -0.001291 -0.001614 0.002449 -0.004048
# 2 0.000133 0.013155 -0.000992 -0.003131 0.004652 -0.003004
# 3 -0.001291 -0.000992 0.007516 -0.002462 0.002264 -0.003133
# 4 -0.001614 -0.003131 -0.002462 0.024762 -0.005418 0.011533
# 5 0.002449 0.004652 0.002264 -0.005418 0.025326 -0.003322
# 6 -0.004048 -0.003004 -0.003133 0.011533 -0.003322 0.032290
#
#
# Mechanical properties :
#
#
# Convention : Reuss Voigt Hill
#
# Bulk Modulus (GPa) = 45.31996 77.50982 61.41489
# Shear Modulus (GPa) = 41.52950 52.99233 47.26092
#
# Velocity S-wave (km/s) = 4.09015 4.62027 4.36327
# Velocity P-wave (km/s) = 6.36883 7.72566 7.07982
#
# Compressibility (1/GPa) = 0.02206533
#
# Stress axis : x y z
#
# Youngs Moduli (GPa) = 175.63995 76.01407 133.05250
#
# Poissons Ratio (x) = -0.01015 0.17179
# Poissons Ratio (y) = -0.02345 0.13199
# Poissons Ratio (z) = 0.22678 0.07541
#
# Static dielectric constant tensor:
#      x y z
#    x 1.804480 0.251970 0.072080 
#    y 0.251970 1.891540 -0.095450 
#    z 0.072080 -0.095450 1.824670 
# 
# From -- ./inp_files/157309.got.cif
#   From: 2010.05.17/outbox.cif.g08.bks.cpg/sg2_79_cif.got.tgz:157309.got - 2010.06.03 11:33:40.
