data_PCOD9068360
_publ_section_title
;
Structure prediction by ZEFSAII (Michael W. Deem and Ramdas Pophale) SiO2 
 PCOD9068360
Probable space group: P -1
;
_chemical_formula_sum "Si O2"
_cell_formula_units_Z 16
_cell_length_a 13.218705
_cell_length_b 6.418802
_cell_length_c 11.722909
_cell_angle_alpha 99.556063
_cell_angle_beta 124.473948
_cell_angle_gamma 110.560828
_cell_volume 676.595278
_symmetry_space_group_name_H-M "P -1"
_symmetry_group_IT_number 2
_symmetry_cell_setting 'triclinic'
loop_
_space_group_symop_operation_xyz
x,y,z
-x,-y,-z
loop_
_atom_site_type_symbol
_atom_site_label
_atom_site_fract_x
_atom_site_fract_y
_atom_site_fract_z
Si Si1 0.341891 0.522930 0.162010
Si Si2 0.773889 0.836669 0.739479
Si Si3 0.877804 0.325690 0.999064
Si Si4 0.518492 0.338728 0.137273
Si Si5 0.716112 0.889990 0.204229
Si Si6 0.400264 0.046858 0.520241
Si Si7 0.998150 0.180382 0.269523
Si Si8 0.245935 0.684483 0.571908
O O1 0.281015 0.404193 0.237514
O O2 0.226967 0.573533 0.039131
O O3 0.391363 0.358328 0.116973
O O4 0.495563 0.787097 0.295938
O O5 0.656802 0.803268 0.569013
O O6 0.917750 0.906308 0.766736
O O7 0.797300 0.055683 0.859095
O O8 0.000000 0.500000 0.000000
O O9 0.940366 0.302828 0.155758
O O10 0.638929 0.611976 0.184710
O O11 0.609303 0.290842 0.282211
O O12 0.418982 0.137440 0.957816
O O13 0.775027 0.124986 0.349285
O O14 0.857792 0.961372 0.226643
O O15 0.500000 0.000000 0.500000
O O16 0.272036 0.788521 0.468830
O O17 0.113837 0.393830 0.450478
#
# Coordination Sequence:
#
# PCOD9068360 Si02
#       8
#     2   2   2   2   2   2   2   2
#     4  12  24  44  74 106 143 187 236 300 359 427
#     4  12  25  46  69 108 147 186 241 293 359 432
#     4  12  26  46  69 109 149 187 240 289 365 430
#     4  11  26  49  77 108 137 189 248 297 360 425
#     4  11  27  49  73 106 141 192 244 299 357 424
#     4  12  23  43  73 106 144 188 231 298 363 422
#     4  12  27  46  75 106 147 197 234 299 357 431
#     4  12  26  51  70 107 148 187 246 295 365 424
#
# _framework density 23.647815999999999
#
# number of rings (size 3 to 8) (size 9 to 14) (size 15 to 20)
#    0.000    0.250    3.750    5.250    3.500    2.500 
#    2.250    0.000    0.000    0.000    0.000    0.000 
#    0.000    0.000    0.000    0.000    0.000    0.000 
#
# Total GULP energy -89559.635424 kJ/mol
# GULP energy per Si atom -5597.477214 kJ/mol
# Density = 2.359399 g / cm^3
# Si number density = 23.647816 Si / 1000 Ang^3
#
#
#
# Elastic Constant Matrix: (Units=GPa)
#
#
# Indices 1 2 3 4 5 6 
#
# 1 139.2250 43.3169 18.4374 -13.0377 7.9998 9.2398
# 2 43.3169 61.4573 12.7489 -2.1184 2.6338 7.7394
# 3 18.4374 12.7489 84.3238 -7.0614 6.7714 -4.2205
# 4 -13.0377 -2.1184 -7.0614 49.1701 -9.7331 15.1538
# 5 7.9998 2.6338 6.7714 -9.7331 30.2987 -6.5791
# 6 9.2398 7.7394 -4.2205 15.1538 -6.5791 30.7532
#
#
#
# Elastic Compliance Matrix: (Units=1/GPa)
#
#
# Indices 1 2 3 4 5 6 
#
# 1 0.009803 -0.006112 -0.001013 0.002892 -0.001622 -0.003318
# 2 -0.006112 0.021553 -0.002063 0.000142 -0.000639 -0.004077
# 3 -0.001013 -0.002063 0.012677 0.000513 -0.001804 0.001925
# 4 0.002892 0.000142 0.000513 0.026015 0.004721 -0.012643
# 5 -0.001622 -0.000639 -0.001804 0.004721 0.036695 0.005924
# 6 -0.003318 -0.004077 0.001925 -0.012643 0.005924 0.042302
#
#
# Mechanical properties :
#
#
# Convention : Reuss Voigt Hill
#
# Bulk Modulus (GPa) = 38.97703 48.22362 43.60033
# Shear Modulus (GPa) = 28.41367 36.07794 32.24580
#
# Velocity S-wave (km/s) = 3.47008 3.91018 3.69668
# Velocity P-wave (km/s) = 5.70730 6.38926 6.05789
#
# Compressibility (1/GPa) = 0.02565614
#
# Stress axis : x y z
#
# Youngs Moduli (GPa) = 102.01384 46.39712 78.88574
#
# Poissons Ratio (x) = 0.28358 0.07990
# Poissons Ratio (y) = 0.62351 0.16275
# Poissons Ratio (z) = 0.10333 0.09572
#
# Static dielectric constant tensor:
#      x y z
#    x 1.940680 -0.005910 -0.082610 
#    y -0.005910 1.900350 0.041670 
#    z -0.082610 0.041670 1.943210 
# 
# From -- ./inp_files/442015.got.cif
#   From: 2010.05.17/outbox.cif.g08.bks.cpg/sg2_222_cif.got.tgz:442015.got - 2010.06.03 11:33:40.
