data_PCOD9068294
_publ_section_title
;
Structure prediction by ZEFSAII (Michael W. Deem and Ramdas Pophale) SiO2 
 PCOD9068294
Probable space group: P -1
;
_chemical_formula_sum "Si O2"
_cell_formula_units_Z 11
_cell_length_a 9.436094
_cell_length_b 9.147196
_cell_length_c 15.108101
_cell_angle_alpha 40.527849
_cell_angle_beta 33.473280
_cell_angle_gamma 34.335771
_cell_volume 394.882628
_symmetry_space_group_name_H-M "P -1"
_symmetry_group_IT_number 2
_symmetry_cell_setting 'triclinic'
loop_
_space_group_symop_operation_xyz
x,y,z
-x,-y,-z
loop_
_atom_site_type_symbol
_atom_site_label
_atom_site_fract_x
_atom_site_fract_y
_atom_site_fract_z
Si Si1 0.800889 0.819860 0.739746
Si Si2 0.266429 0.299577 0.518644
Si Si3 0.169715 0.941586 0.843783
Si Si4 0.358413 0.652282 0.415276
Si Si5 0.500000 0.500000 0.000000
Si Si6 0.867875 0.805352 0.905910
O O1 0.668414 0.634893 0.895717
O O2 0.969793 0.795571 0.755237
O O3 0.998225 0.784278 0.566190
O O4 0.547013 0.133075 0.733887
O O5 0.417232 0.465666 0.388415
O O6 0.000000 0.500000 0.500000
O O7 0.500000 0.000000 0.500000
O O8 0.170221 0.206999 0.699832
O O9 0.468778 0.666769 0.843495
O O10 0.994686 0.914386 0.864699
O O11 0.000000 0.000000 0.000000
O O12 0.500000 0.500000 0.500000
O O13 0.000000 0.500000 0.000000
O O14 0.500000 0.000000 0.000000
#
# Coordination Sequence:
#
# PCOD9068294 Si02
#       6
#     2   2   2   2   1   2
#     4  11  26  48  82 121 164 220 281 352 424 513
#     4  12  31  53  83 121 168 223 281 351 426 512
#     4  12  28  48  83 119 168 217 283 351 423 510
#     4  11  27  49  82 114 166 221 279 341 426 513
#     4  12  24  48  80 122 166 214 284 348 434 492
#     4  12  28  49  77 117 162 211 270 339 418 493
#
# _framework density 27.856379
#
# number of rings (size 3 to 8) (size 9 to 14) (size 15 to 20)
#    0.000    0.364    1.818    4.364   15.273    0.000 
#    0.000    0.000    0.000    0.000    0.000    0.000 
#    0.000    0.000    0.000    0.000    0.000    0.000 
#
# Total GULP energy -61324.827055 kJ/mol
# GULP energy per Si atom -5574.984278 kJ/mol
# Density = 2.779298 g / cm^3
# Si number density = 27.856379 Si / 1000 Ang^3
#
#
#
# Elastic Constant Matrix: (Units=GPa)
#
#
# Indices 1 2 3 4 5 6 
#
# 1 188.7711 36.6684 8.2028 6.0877 -0.6729 -6.8221
# 2 36.6684 143.6648 41.1309 -15.0596 -5.9086 3.5884
# 3 8.2028 41.1309 120.5611 -20.6755 14.0999 -0.3606
# 4 6.0877 -15.0596 -20.6755 53.6737 4.1741 13.5780
# 5 -0.6729 -5.9086 14.0999 4.1741 60.1950 -16.8288
# 6 -6.8221 3.5884 -0.3606 13.5780 -16.8288 57.4532
#
#
#
# Elastic Compliance Matrix: (Units=1/GPa)
#
#
# Indices 1 2 3 4 5 6 
#
# 1 0.005706 -0.001586 -0.000146 -0.001494 0.000394 0.001244
# 2 -0.001586 0.008341 -0.002583 0.001645 0.001068 -0.000802
# 3 -0.000146 -0.002583 0.010256 0.003944 -0.003413 -0.001723
# 4 -0.001494 0.001645 0.003944 0.022866 -0.004299 -0.006918
# 5 0.000394 0.001068 -0.003413 -0.004299 0.019706 0.006747
# 6 0.001244 -0.000802 -0.001723 -0.006918 0.006747 0.021204
#
#
# Mechanical properties :
#
#
# Convention : Reuss Voigt Hill
#
# Bulk Modulus (GPa) = 63.79938 69.44458 66.62198
# Shear Modulus (GPa) = 49.05178 58.73071 53.89124
#
# Velocity S-wave (km/s) = 4.20084 4.59665 4.40319
# Velocity P-wave (km/s) = 6.81778 7.29081 7.05825
#
# Compressibility (1/GPa) = 0.01567413
#
# Stress axis : x y z
#
# Youngs Moduli (GPa) = 175.24159 119.88363 97.50393
#
# Poissons Ratio (x) = 0.19017 0.01419
# Poissons Ratio (y) = 0.27798 0.25186
# Poissons Ratio (z) = 0.02550 0.30966
#
# Static dielectric constant tensor:
#      x y z
#    x 2.297290 -0.644780 0.032260 
#    y -0.644780 3.972650 0.324400 
#    z 0.032260 0.324400 2.473050 
# 
# From -- ./inp_files/377795.got.cif
#   From: 2010.05.17/outbox.cif.g08.bks.cpg/sg2_189_cif.got.tgz:377795.got - 2010.06.03 11:33:40.
