data_PCOD9068802
_publ_section_title
;
Structure prediction by ZEFSAII (Michael W. Deem and Ramdas Pophale) SiO2 
 PCOD9068802
Probable space group: P -1
;
_chemical_formula_sum "Si O2"
_cell_formula_units_Z 14
_cell_length_a 19.065383
_cell_length_b 10.062911
_cell_length_c 13.073193
_cell_angle_alpha 34.757592
_cell_angle_beta 153.161542
_cell_angle_gamma 134.301865
_cell_volume 639.695496
_symmetry_space_group_name_H-M "P -1"
_symmetry_group_IT_number 2
_symmetry_cell_setting 'triclinic'
loop_
_space_group_symop_operation_xyz
x,y,z
-x,-y,-z
loop_
_atom_site_type_symbol
_atom_site_label
_atom_site_fract_x
_atom_site_fract_y
_atom_site_fract_z
Si Si1 0.745587 0.540752 0.907635
Si Si2 0.692576 0.672670 0.265602
Si Si3 0.158615 0.883883 0.837573
Si Si4 0.824283 0.975929 0.650372
Si Si5 0.065834 0.551781 0.440213
Si Si6 0.906417 0.339500 0.907599
Si Si7 0.582949 0.196885 0.045158
O O1 0.709377 0.815594 0.658776
O O2 0.619875 0.415166 0.886095
O O3 0.780941 0.375867 0.959433
O O4 0.911809 0.519711 0.195366
O O5 0.782996 0.596008 0.325748
O O6 0.777843 0.505681 0.571069
O O7 0.510729 0.692507 0.045951
O O8 0.723014 0.939738 0.150030
O O9 0.144735 0.854446 0.959306
O O10 0.000000 0.000000 0.500000
O O11 0.880803 0.190100 0.648847
O O12 0.976760 0.798107 0.933370
O O13 0.745308 0.067778 0.383157
O O14 0.000000 0.500000 0.500000
O O15 0.000000 0.500000 0.000000
O O16 0.500000 0.000000 0.000000
#
# Coordination Sequence:
#
# PCOD9068802 Si02
#       7
#     2   2   2   2   2   2   2
#     4  12  24  43  71 104 135 181 234 284 344 412
#     4  12  26  43  67 106 138 178 235 287 344 411
#     4  12  20  38  68 103 135 170 234 291 339 395
#     4  12  25  44  71  99 143 182 231 285 344 409
#     4  12  24  47  76  99 136 189 240 283 336 417
#     4  12  21  38  70 102 131 175 235 293 338 397
#     4  12  27  45  70 102 147 181 222 290 360 409
#
# _framework density 21.885413
#
# number of rings (size 3 to 8) (size 9 to 14) (size 15 to 20)
#    0.000    0.000    8.571    3.000    0.000    2.286 
#    0.000    0.714    0.000    0.000    0.000    0.000 
#    0.000    0.000    0.000    0.000    0.000    0.000 
#
# Total GULP energy -78137.667257 kJ/mol
# GULP energy per Si atom -5581.261947 kJ/mol
# Density = 2.183560 g / cm^3
# Si number density = 21.885413 Si / 1000 Ang^3
#
#
#
# Elastic Constant Matrix: (Units=GPa)
#
#
# Indices 1 2 3 4 5 6 
#
# 1 146.3987 32.3322 7.6256 -12.9844 -9.9675 16.7776
# 2 32.3322 128.6987 5.3668 -21.6299 6.0958 13.6514
# 3 7.6256 5.3668 38.2909 -11.3668 -11.2178 5.9160
# 4 -12.9844 -21.6299 -11.3668 25.5909 3.8772 -8.4469
# 5 -9.9675 6.0958 -11.2178 3.8772 29.9177 -16.6561
# 6 16.7776 13.6514 5.9160 -8.4469 -16.6561 40.3957
#
#
#
# Elastic Compliance Matrix: (Units=1/GPa)
#
#
# Indices 1 2 3 4 5 6 
#
# 1 0.007626 -0.001533 -0.000021 0.001787 0.001750 -0.001551
# 2 -0.001533 0.010017 0.000043 0.007392 -0.005408 -0.003439
# 3 -0.000021 0.000043 0.033445 0.014039 0.012473 0.003175
# 4 0.001787 0.007392 0.014039 0.054464 0.000892 0.006460
# 5 0.001750 -0.005408 0.012473 0.000892 0.051101 0.020531
# 6 -0.001551 -0.003439 0.003175 0.006460 0.020531 0.035913
#
#
# Mechanical properties :
#
#
# Convention : Reuss Voigt Hill
#
# Bulk Modulus (GPa) = 20.80521 44.89307 32.84914
# Shear Modulus (GPa) = 23.62842 37.05177 30.34009
#
# Velocity S-wave (km/s) = 3.28936 4.11906 3.72737
# Velocity P-wave (km/s) = 4.89424 6.57111 5.79366
#
# Compressibility (1/GPa) = 0.04806488
#
# Stress axis : x y z
#
# Youngs Moduli (GPa) = 131.13581 99.83396 29.89963
#
# Poissons Ratio (x) = 0.15304 0.00063
# Poissons Ratio (y) = 0.20102 -0.00127
# Poissons Ratio (z) = 0.00275 -0.00425
#
# Static dielectric constant tensor:
#      x y z
#    x 1.900660 0.001370 -0.014150 
#    y 0.001370 1.806330 -0.012380 
#    z -0.014150 -0.012380 1.781990 
# 
# From -- ./inp_files/255871.got.cif
#   From: 2010.05.17/outbox.cif.g08.bks.cpg/sg2_128_cif.got.tgz:255871.got - 2010.06.03 11:33:40.
