data_PCOD9068193
_publ_section_title
;
Structure prediction by ZEFSAII (Michael W. Deem and Ramdas Pophale) SiO2 
 PCOD9068193
Probable space group: P -1
;
_chemical_formula_sum "Si O2"
_cell_formula_units_Z 14
_cell_length_a 15.004323
_cell_length_b 8.450082
_cell_length_c 5.618938
_cell_angle_alpha 78.531557
_cell_angle_beta 60.918545
_cell_angle_gamma 48.098565
_cell_volume 454.650177
_symmetry_space_group_name_H-M "P -1"
_symmetry_group_IT_number 2
_symmetry_cell_setting 'triclinic'
loop_
_space_group_symop_operation_xyz
x,y,z
-x,-y,-z
loop_
_atom_site_type_symbol
_atom_site_label
_atom_site_fract_x
_atom_site_fract_y
_atom_site_fract_z
Si Si1 0.775297 0.968137 0.840155
Si Si2 0.603884 0.968376 0.677546
Si Si3 0.275297 0.468138 0.340158
Si Si4 0.103884 0.468376 0.177546
Si Si5 0.893402 0.198055 0.145486
Si Si6 0.500000 0.500000 0.000000
Si Si7 0.000000 0.000000 0.500000
Si Si8 0.393402 0.698056 0.645484
O O1 0.654772 0.209210 0.027158
O O2 0.716925 0.947572 0.687248
O O3 0.830323 0.754925 0.973947
O O4 0.902301 0.943669 0.632796
O O5 0.669677 0.745075 0.526052
O O6 0.564063 0.156197 0.501250
O O7 0.500000 0.000000 0.000000
O O8 0.216925 0.447571 0.187249
O O9 0.154771 0.709212 0.527157
O O10 0.402300 0.443671 0.132799
O O11 0.000000 0.500000 0.500000
O O12 0.064065 0.656196 0.001248
O O13 0.750000 0.250000 0.250002
O O14 0.026684 0.954654 0.169421
O O15 0.526683 0.454654 0.669423
#
# Coordination Sequence:
#
# PCOD9068193 Si02
#       8
#     2   2   2   2   2   1   1   2
#     4  11  26  48  73 108 148 191 245 300 364 437
#     4  11  26  49  75 107 147 193 245 302 366 434
#     4  11  26  48  73 108 148 191 245 300 364 437
#     4  11  26  49  75 107 147 193 245 302 366 434
#     4  12  26  46  74 109 149 192 241 302 367 435
#     4  12  28  46  72 110 148 192 244 298 364 434
#     4  12  28  46  72 110 148 192 244 298 364 434
#     4  12  26  46  74 109 149 192 241 302 367 435
#
# _framework density 30.792905000000001
#
# number of rings (size 3 to 8) (size 9 to 14) (size 15 to 20)
#    0.000    0.571    0.000    6.857    0.000   13.714 
#    0.000    0.000    0.000    0.000    0.000    0.000 
#    0.000    0.000    0.000    0.000    0.000    0.000 
#
# Total GULP energy -78292.222728 kJ/mol
# GULP energy per Si atom -5592.301623 kJ/mol
# Density = 3.072282 g / cm^3
# Si number density = 30.792905 Si / 1000 Ang^3
#
#
#
# Elastic Constant Matrix: (Units=GPa)
#
#
# Indices 1 2 3 4 5 6 
#
# 1 312.2064 50.4520 120.9168 -13.4027 -28.3523 24.2564
# 2 50.4520 302.6237 110.0221 -6.6639 -38.7837 42.1637
# 3 120.9168 110.0221 271.3297 -24.9979 -37.1309 1.3408
# 4 -13.4027 -6.6639 -24.9979 97.7871 -2.9266 -10.3595
# 5 -28.3523 -38.7837 -37.1309 -2.9266 95.0373 -2.0607
# 6 24.2564 42.1637 1.3408 -10.3595 -2.0607 53.2450
#
#
#
# Elastic Compliance Matrix: (Units=1/GPa)
#
#
# Indices 1 2 3 4 5 6 
#
# 1 0.004088 0.000372 -0.001892 -0.000104 0.000583 -0.002107
# 2 0.000372 0.004602 -0.001901 -0.000491 0.001148 -0.003817
# 3 -0.001892 -0.001901 0.005534 0.001320 0.000917 0.002521
# 4 -0.000104 -0.000491 0.001320 0.010804 0.000672 0.002531
# 5 0.000583 0.001148 0.000917 0.000672 0.011530 -0.000621
# 6 -0.002107 -0.003817 0.002521 0.002531 -0.000621 0.023169
#
#
# Mechanical properties :
#
#
# Convention : Reuss Voigt Hill
#
# Bulk Modulus (GPa) = 135.45921 160.99350 148.22636
# Shear Modulus (GPa) = 72.43250 89.53181 80.98216
#
# Velocity S-wave (km/s) = 4.85526 5.39802 5.13382
# Velocity P-wave (km/s) = 8.69007 9.55236 9.13140
#
# Compressibility (1/GPa) = 0.00738230
#
# Stress axis : x y z
#
# Youngs Moduli (GPa) = 244.62707 217.31131 180.68862
#
# Poissons Ratio (x) = -0.08094 0.34188
# Poissons Ratio (y) = -0.09111 0.34352
# Poissons Ratio (z) = 0.46285 0.41315
#
# Static dielectric constant tensor:
#      x y z
#    x -3.224040 6.863860 -2.343000 
#    y 6.863860 -6.720450 3.375460 
#    z -2.343000 3.375460 1.281350 
# 
# From -- ./inp_files/90268.got.cif
#   From: 2010.05.17/outbox.cif.g08.bks.cpg/sg2_46_cif.got.tgz:90268.got - 2010.06.03 11:33:40.
