data_PCOD9068907
_publ_section_title
;
Structure prediction by ZEFSAII (Michael W. Deem and Ramdas Pophale) SiO2 
 PCOD9068907
Probable space group: P -1
;
_chemical_formula_sum "Si O2"
_cell_formula_units_Z 14
_cell_length_a 12.321093
_cell_length_b 9.945485
_cell_length_c 11.542820
_cell_angle_alpha 64.476076
_cell_angle_beta 60.159512
_cell_angle_gamma 23.783003
_cell_volume 493.572246
_symmetry_space_group_name_H-M "P -1"
_symmetry_group_IT_number 2
_symmetry_cell_setting 'triclinic'
loop_
_space_group_symop_operation_xyz
x,y,z
-x,-y,-z
loop_
_atom_site_type_symbol
_atom_site_label
_atom_site_fract_x
_atom_site_fract_y
_atom_site_fract_z
Si Si1 0.718833 0.372729 0.055766
Si Si2 0.502524 0.344589 0.531634
Si Si3 0.919148 0.416910 0.524952
Si Si4 0.702898 0.323392 0.668668
Si Si5 0.883451 0.358845 0.198313
Si Si6 0.486059 0.189685 0.180421
Si Si7 0.936022 0.575142 0.794107
O O1 0.537730 0.448501 0.197873
O O2 0.797102 0.413169 0.095155
O O3 0.548444 0.625458 0.947424
O O4 0.000000 0.000000 0.000000
O O5 0.598828 0.369654 0.578944
O O6 0.281745 0.537046 0.459909
O O7 0.390358 0.346755 0.684892
O O8 0.799952 0.985701 0.451853
O O9 0.698777 0.609727 0.679002
O O10 0.967673 0.422669 0.362526
O O11 0.000000 0.500000 0.500000
O O12 0.960312 0.954898 0.714243
O O13 0.075497 0.296586 0.139916
O O14 0.342603 0.216246 0.166521
O O15 0.805987 0.812534 0.178527
#
# Coordination Sequence:
#
# PCOD9068907 Si02
#       7
#     2   2   2   2   2   2   2
#     4  12  30  52  79 113 157 205 261 326 399 470
#     4  12  21  41  71 123 153 186 254 328 403 442
#     4  12  26  47  82 116 157 198 264 333 392 459
#     4  12  24  43  82 114 149 195 264 328 397 445
#     4  12  26  46  79 116 156 203 260 329 388 470
#     4  12  31  53  77 115 163 214 264 312 392 481
#     4  12  29  51  80 115 158 215 263 320 389 466
#
# _framework density 28.364642
#
# number of rings (size 3 to 8) (size 9 to 14) (size 15 to 20)
#    0.000    0.000    4.286    4.714    8.000    2.286 
#    0.000    0.000    0.000    0.000    0.000    0.000 
#    0.000    0.000    0.000    0.000    0.000    0.000 
#
# Total GULP energy -78332.032372 kJ/mol
# GULP energy per Si atom -5595.145169 kJ/mol
# Density = 2.830008 g / cm^3
# Si number density = 28.364642 Si / 1000 Ang^3
#
#
#
# Elastic Constant Matrix: (Units=GPa)
#
#
# Indices 1 2 3 4 5 6 
#
# 1 107.9039 -8.9623 25.0000 20.2290 14.1160 0.6861
# 2 -8.9623 158.8491 42.4737 -17.2987 -8.3608 2.9667
# 3 25.0000 42.4737 184.7671 -15.7746 -12.3186 7.8781
# 4 20.2290 -17.2987 -15.7746 58.6658 -2.7504 4.7922
# 5 14.1160 -8.3608 -12.3186 -2.7504 63.6524 -0.4712
# 6 0.6861 2.9667 7.8781 4.7922 -0.4712 40.4296
#
#
#
# Elastic Compliance Matrix: (Units=1/GPa)
#
#
# Indices 1 2 3 4 5 6 
#
# 1 0.011053 0.000567 -0.002234 -0.004442 -0.002996 0.000698
# 2 0.000567 0.006925 -0.001486 0.001506 0.000559 -0.000400
# 3 -0.002234 -0.001486 0.006414 0.002244 0.001629 -0.001350
# 4 -0.004442 0.001506 0.002244 0.019970 0.002459 -0.002811
# 5 -0.002996 0.000559 0.001629 0.002459 0.016867 -0.000402
# 6 0.000698 -0.000400 -0.001350 -0.002811 -0.000402 0.025343
#
#
# Mechanical properties :
#
#
# Convention : Reuss Voigt Hill
#
# Bulk Modulus (GPa) = 55.29630 63.17145 59.23388
# Shear Modulus (GPa) = 50.55255 58.75014 54.65134
#
# Velocity S-wave (km/s) = 4.22624 4.55603 4.39423
# Velocity P-wave (km/s) = 6.58421 7.07079 6.83184
#
# Compressibility (1/GPa) = 0.01808439
#
# Stress axis : x y z
#
# Youngs Moduli (GPa) = 90.47669 144.39583 155.91432
#
# Poissons Ratio (x) = -0.08181 0.34839
# Poissons Ratio (y) = -0.05126 0.23165
# Poissons Ratio (z) = 0.20217 0.21454
#
# Static dielectric constant tensor:
#      x y z
#    x 2.676840 0.024460 0.028190 
#    y 0.024460 2.029000 -0.059850 
#    z 0.028190 -0.059850 2.069220 
# 
# From -- ./inp_files/97528.got.cif
#   From: 2010.05.17/outbox.cif.g08.bks.cpg/sg2_49_cif.got.tgz:97528.got - 2010.06.03 11:33:40.
