data_PCOD9068260
_publ_section_title
;
Structure prediction by ZEFSAII (Michael W. Deem and Ramdas Pophale) SiO2 
 PCOD9068260
Probable space group: P -1
;
_chemical_formula_sum "Si O2"
_cell_formula_units_Z 12
_cell_length_a 5.244496
_cell_length_b 10.249919
_cell_length_c 14.858306
_cell_angle_alpha 45.064194
_cell_angle_beta 86.196257
_cell_angle_gamma 109.569562
_cell_volume 474.641658
_symmetry_space_group_name_H-M "P -1"
_symmetry_group_IT_number 2
_symmetry_cell_setting 'triclinic'
loop_
_space_group_symop_operation_xyz
x,y,z
-x,-y,-z
loop_
_atom_site_type_symbol
_atom_site_label
_atom_site_fract_x
_atom_site_fract_y
_atom_site_fract_z
Si Si1 0.292980 0.274332 0.668676
Si Si2 0.221629 0.391643 0.806988
Si Si3 0.056894 0.317976 0.325943
Si Si4 0.883220 0.996414 0.648832
Si Si5 0.358388 0.648306 0.931601
Si Si6 0.356981 0.947689 0.930498
O O1 0.500000 0.500000 0.500000
O O2 0.579823 0.513553 0.755441
O O3 0.161617 0.320616 0.738306
O O4 0.057532 0.104328 0.684459
O O5 0.111286 0.556440 0.745207
O O6 0.456032 0.159583 0.764714
O O7 0.006452 0.185832 0.976331
O O8 0.004852 0.146107 0.333514
O O9 0.939741 0.181853 0.487475
O O10 0.533909 0.828059 0.762914
O O11 0.500000 0.500000 0.000000
O O12 0.417456 0.786167 0.953191
O O13 0.000000 0.500000 0.000000
O O14 0.500000 0.000000 0.000000
#
# Coordination Sequence:
#
# PCOD9068260 Si02
#       6
#     2   2   2   2   2   2
#     4  12  27  50  81 117 165 213 273 328 401 478
#     4  12  26  51  79 115 160 207 271 320 413 469
#     4  11  27  48  81 114 158 209 261 336 400 482
#     4  11  26  48  77 116 158 207 270 328 404 469
#     4  12  27  49  81 118 159 206 271 330 405 477
#     4  12  28  50  81 118 164 214 267 334 406 482
#
# _framework density 25.282229999999998
#
# number of rings (size 3 to 8) (size 9 to 14) (size 15 to 20)
#    0.000    0.333    1.667    5.500    2.333    8.667 
#    0.000    0.000    0.000    0.000    0.000    0.000 
#    0.000    0.000    0.000    0.000    0.000    0.000 
#
# Total GULP energy -67393.240301 kJ/mol
# GULP energy per Si atom -5616.103358 kJ/mol
# Density = 2.522469 g / cm^3
# Si number density = 25.282230 Si / 1000 Ang^3
#
#
#
# Elastic Constant Matrix: (Units=GPa)
#
#
# Indices 1 2 3 4 5 6 
#
# 1 149.8435 61.4671 72.5098 -17.9292 -0.1896 2.9050
# 2 61.4671 200.7933 37.2862 8.8821 15.5104 -2.3289
# 3 72.5098 37.2862 180.2596 3.4326 8.7507 1.9880
# 4 -17.9292 8.8821 3.4326 38.7249 -2.2046 -2.0324
# 5 -0.1896 15.5104 8.7507 -2.2046 36.8570 -3.8152
# 6 2.9050 -2.3289 1.9880 -2.0324 -3.8152 41.1030
#
#
#
# Elastic Compliance Matrix: (Units=1/GPa)
#
#
# Indices 1 2 3 4 5 6 
#
# 1 0.010467 -0.002956 -0.003835 0.005999 0.002548 -0.000189
# 2 -0.002956 0.006218 0.000094 -0.002956 -0.002816 0.000149
# 3 -0.003835 0.000094 0.007219 -0.002569 -0.001967 -0.000382
# 4 0.005999 -0.002956 -0.002569 0.029794 0.003807 0.001359
# 5 0.002548 -0.002816 -0.001967 0.003807 0.029300 0.002663
# 6 -0.000189 0.000149 -0.000382 0.001359 0.002663 0.024684
#
#
# Mechanical properties :
#
#
# Convention : Reuss Voigt Hill
#
# Bulk Modulus (GPa) = 95.14376 97.04696 96.09536
# Shear Modulus (GPa) = 40.13545 47.31254 43.72399
#
# Velocity S-wave (km/s) = 3.98866 4.33063 4.16316
# Velocity P-wave (km/s) = 7.67639 7.96710 7.82309
#
# Compressibility (1/GPa) = 0.01051041
#
# Stress axis : x y z
#
# Youngs Moduli (GPa) = 95.54239 160.83177 138.52187
#
# Poissons Ratio (x) = 0.47547 0.53116
# Poissons Ratio (y) = 0.28246 -0.01308
# Poissons Ratio (z) = 0.36636 -0.01518
#
# Static dielectric constant tensor:
#      x y z
#    x 1.975210 0.002770 -0.008220 
#    y 0.002770 2.040600 -0.026020 
#    z -0.008220 -0.026020 1.987550 
# 
# From -- ./inp_files/478869.got.cif
#   From: 2010.05.17/outbox.cif.g08.bks.cpg/sg2_240_cif.got.tgz:478869.got - 2010.06.03 11:33:40.
