data_PCOD9068498
_publ_section_title
;
Structure prediction by ZEFSAII (Michael W. Deem and Ramdas Pophale) SiO2 
 PCOD9068498
Probable space group: P -1
;
_chemical_formula_sum "Si O2"
_cell_formula_units_Z 13
_cell_length_a 19.674534
_cell_length_b 16.484747
_cell_length_c 10.493184
_cell_angle_alpha 33.558239
_cell_angle_beta 33.253656
_cell_angle_gamma 15.921491
_cell_volume 502.218881
_symmetry_space_group_name_H-M "P -1"
_symmetry_group_IT_number 2
_symmetry_cell_setting 'triclinic'
loop_
_space_group_symop_operation_xyz
x,y,z
-x,-y,-z
loop_
_atom_site_type_symbol
_atom_site_label
_atom_site_fract_x
_atom_site_fract_y
_atom_site_fract_z
Si Si1 0.427202 0.672842 0.009061
Si Si2 0.311614 0.300464 0.784938
Si Si3 0.102734 0.860804 0.661327
Si Si4 0.194573 0.490202 0.435116
Si Si5 0.000000 0.500000 0.500000
Si Si6 0.277399 0.862991 0.600959
Si Si7 0.694767 0.650295 0.999982
O O1 0.580583 0.432541 0.194097
O O2 0.500000 0.500000 0.000000
O O3 0.530798 0.726222 0.745587
O O4 0.132687 0.967104 0.117175
O O5 0.187160 0.458915 0.636745
O O6 0.531174 0.199911 0.589705
O O7 0.440653 0.007906 0.952618
O O8 0.161423 0.467532 0.935100
O O9 0.181460 0.924408 0.529830
O O10 0.313703 0.516183 0.776508
O O11 0.000000 0.000000 0.500000
O O12 0.124317 0.436904 0.519043
O O13 0.973338 0.842454 0.307940
O O14 0.813284 0.589251 0.765221
#
# Coordination Sequence:
#
# PCOD9068498 Si02
#       7
#     2   2   2   2   1   2   2
#     4  12  25  43  80 108 147 204 248 307 380 442
#     4  11  26  52  78 107 154 206 247 305 396 449
#     4  12  28  50  75 116 152 194 255 313 372 451
#     4  12  26  48  77 114 151 200 256 314 378 452
#     4  12  28  48  74 114 152 190 254 322 366 442
#     4  12  23  48  78 109 152 198 251 307 377 455
#     4  11  27  51  74 114 152 199 251 314 371 454
#
# _framework density 25.885128000000002
#
# number of rings (size 3 to 8) (size 9 to 14) (size 15 to 20)
#    0.000    0.308    4.615    3.231    4.308    4.923 
#    8.308    0.000    0.000    0.000    0.000    0.000 
#    0.000    0.000    0.000    0.000    0.000    0.000 
#
# Total GULP energy -72585.022095 kJ/mol
# GULP energy per Si atom -5583.463238 kJ/mol
# Density = 2.582621 g / cm^3
# Si number density = 25.885128 Si / 1000 Ang^3
#
#
#
# Elastic Constant Matrix: (Units=GPa)
#
#
# Indices 1 2 3 4 5 6 
#
# 1 195.1196 19.2325 32.6312 -1.7422 16.6520 0.5184
# 2 19.2325 72.4116 14.4273 7.0428 -2.8307 18.4675
# 3 32.6312 14.4273 79.8599 1.3624 23.6314 10.0569
# 4 -1.7422 7.0428 1.3624 46.6478 1.5965 -5.4603
# 5 16.6520 -2.8307 23.6314 1.5965 53.5038 1.6933
# 6 0.5184 18.4675 10.0569 -5.4603 1.6933 27.3519
#
#
#
# Elastic Compliance Matrix: (Units=1/GPa)
#
#
# Indices 1 2 3 4 5 6 
#
# 1 0.005724 -0.001771 -0.001965 0.000815 -0.001096 0.002041
# 2 -0.001771 0.018440 -0.001758 -0.004397 0.002840 -0.012824
# 3 -0.001965 -0.001758 0.016115 -0.000575 -0.006442 -0.004417
# 4 0.000815 -0.004397 -0.000575 0.023107 -0.001170 0.007850
# 5 -0.001096 0.002840 -0.006442 -0.001170 0.022098 -0.001130
# 6 0.002041 -0.012824 -0.004417 0.007850 -0.001130 0.048441
#
#
# Mechanical properties :
#
#
# Convention : Reuss Voigt Hill
#
# Bulk Modulus (GPa) = 34.14231 53.33035 43.73633
# Shear Modulus (GPa) = 32.32539 44.24069 38.28304
#
# Velocity S-wave (km/s) = 3.53767 4.13863 3.84990
# Velocity P-wave (km/s) = 5.46858 6.59432 6.05766
#
# Compressibility (1/GPa) = 0.02928917
#
# Stress axis : x y z
#
# Youngs Moduli (GPa) = 174.71216 54.23022 62.05449
#
# Poissons Ratio (x) = 0.09605 0.12196
# Poissons Ratio (y) = 0.30944 0.10910
# Poissons Ratio (z) = 0.34337 0.09535
#
# Static dielectric constant tensor:
#      x y z
#    x 2.006440 -0.052780 0.063540 
#    y -0.052780 2.058620 -0.051040 
#    z 0.063540 -0.051040 2.082270 
# 
# From -- ./inp_files/335604.got.cif
#   From: 2010.05.17/outbox.cif.g08.bks.cpg/sg2_168_cif.got.tgz:335604.got - 2010.06.03 11:33:40.
