data_PCOD9068092
_publ_section_title
;
Structure prediction by ZEFSAII (Michael W. Deem and Ramdas Pophale) SiO2 
 PCOD9068092
Probable space group: P -1
;
_chemical_formula_sum "Si O2"
_cell_formula_units_Z 7
_cell_length_a 9.443717
_cell_length_b 5.249746
_cell_length_c 5.914807
_cell_angle_alpha 96.507805
_cell_angle_beta 104.252199
_cell_angle_gamma 71.643910
_cell_volume 269.547699
_symmetry_space_group_name_H-M "P -1"
_symmetry_group_IT_number 2
_symmetry_cell_setting 'triclinic'
loop_
_space_group_symop_operation_xyz
x,y,z
-x,-y,-z
loop_
_atom_site_type_symbol
_atom_site_label
_atom_site_fract_x
_atom_site_fract_y
_atom_site_fract_z
Si Si1 0.089834 0.301472 0.207453
Si Si2 0.500000 0.500000 0.000000
Si Si3 0.365766 0.875945 0.374281
Si Si4 0.806816 0.331147 0.348601
O O1 0.148735 0.473811 0.434281
O O2 0.962206 0.187082 0.262295
O O3 0.241746 0.068855 0.176216
O O4 0.000000 0.500000 0.000000
O O5 0.438555 0.602587 0.242094
O O6 0.675028 0.491319 0.143302
O O7 0.271488 0.853948 0.558199
O O8 0.500000 0.000000 0.500000
#
# Coordination Sequence:
#
# PCOD9068092 Si02
#       4
#     2   1   2   2
#     4  11  26  50  78 111 153 202 252 314 381 449
#     4  12  26  46  80 112 150 198 256 306 380 446
#     4  12  27  49  78 113 155 199 251 316 377 451
#     4  11  26  47  75 114 153 195 259 307 380 455
#
# _framework density 25.969428000000001
#
# number of rings (size 3 to 8) (size 9 to 14) (size 15 to 20)
#    0.000    0.571    2.857    3.429    4.000   10.286 
#    0.000    0.000    0.000    0.000    0.000    0.000 
#    0.000    0.000    0.000    0.000    0.000    0.000 
#
# Total GULP energy -38993.776220 kJ/mol
# GULP energy per Si atom -5570.539460 kJ/mol
# Density = 2.591032 g / cm^3
# Si number density = 25.969428 Si / 1000 Ang^3
#
#
#
# Elastic Constant Matrix: (Units=GPa)
#
#
# Indices 1 2 3 4 5 6 
#
# 1 222.3029 37.3607 62.1882 -20.0882 18.7531 12.6634
# 2 37.3607 36.8723 17.7736 -15.7169 -2.8060 7.4959
# 3 62.1882 17.7736 146.0120 8.5318 31.4722 21.0197
# 4 -20.0882 -15.7169 8.5318 26.5256 5.8686 3.5728
# 5 18.7531 -2.8060 31.4722 5.8686 69.2846 -3.6301
# 6 12.6634 7.4959 21.0197 3.5728 -3.6301 53.2664
#
#
#
# Elastic Compliance Matrix: (Units=1/GPa)
#
#
# Indices 1 2 3 4 5 6 
#
# 1 0.006135 -0.003811 -0.002024 0.003364 -0.001203 -0.000431
# 2 -0.003811 0.045944 -0.005396 0.026109 0.002871 -0.004986
# 3 -0.002024 -0.005396 0.009925 -0.006763 -0.003736 -0.002477
# 4 0.003364 0.026109 -0.006763 0.059154 -0.002102 -0.005916
# 5 -0.001203 0.002871 -0.003736 -0.002102 0.016889 0.002648
# 6 -0.000431 -0.004986 -0.002477 -0.005916 0.002648 0.021132
#
#
# Mechanical properties :
#
#
# Convention : Reuss Voigt Hill
#
# Bulk Modulus (GPa) = 25.29004 71.09246 48.19125
# Shear Modulus (GPa) = 25.66446 49.00628 37.33537
#
# Velocity S-wave (km/s) = 3.14707 4.34876 3.79577
# Velocity P-wave (km/s) = 4.79217 7.25607 6.14880
#
# Compressibility (1/GPa) = 0.03954125
#
# Stress axis : x y z
#
# Youngs Moduli (GPa) = 162.99709 21.76561 100.75798
#
# Poissons Ratio (x) = 0.08294 0.20397
# Poissons Ratio (y) = 0.62114 0.54371
# Poissons Ratio (z) = 0.32996 0.11745
#
# Static dielectric constant tensor:
#      x y z
#    x 2.007270 -0.086760 -0.057460 
#    y -0.086760 2.283670 0.004700 
#    z -0.057460 0.004700 2.072780 
# 
# From -- ./inp_files/15075.got.cif
#   From: 2010.05.17/outbox.cif.g08.bks.cpg/sg2_8_cif.got.tgz:15075.got - 2010.06.03 11:33:40.
