data_PCOD9068936
_publ_section_title
;
Structure prediction by ZEFSAII (Michael W. Deem and Ramdas Pophale) SiO2 
 PCOD9068936
Probable space group: P -1
;
_chemical_formula_sum "Si O2"
_cell_formula_units_Z 14
_cell_length_a 19.918299
_cell_length_b 14.267836
_cell_length_c 11.431558
_cell_angle_alpha 150.339619
_cell_angle_beta 31.428986
_cell_angle_gamma 158.719534
_cell_volume 566.051659
_symmetry_space_group_name_H-M "P -1"
_symmetry_group_IT_number 2
_symmetry_cell_setting 'triclinic'
loop_
_space_group_symop_operation_xyz
x,y,z
-x,-y,-z
loop_
_atom_site_type_symbol
_atom_site_label
_atom_site_fract_x
_atom_site_fract_y
_atom_site_fract_z
Si Si1 0.144836 0.769920 0.659615
Si Si2 0.880290 0.716839 0.629966
Si Si3 0.987095 0.788847 0.149686
Si Si4 0.421501 0.753339 0.763620
Si Si5 0.393712 0.669915 0.194512
Si Si6 0.229301 0.772604 0.859321
Si Si7 0.749667 0.836847 0.271699
O O1 0.305698 0.785065 0.454719
O O2 0.000000 0.500000 0.500000
O O3 0.218072 0.023455 0.748426
O O4 0.040858 0.735075 0.891595
O O5 0.678904 0.506486 0.769569
O O6 0.880143 0.507211 0.352685
O O7 0.910147 0.900304 0.683023
O O8 0.054795 0.936477 0.699396
O O9 0.760929 0.550696 0.240440
O O10 0.072463 0.763548 0.104124
O O11 0.344815 0.789591 0.805822
O O12 0.583967 0.778355 0.516835
O O13 0.500000 0.000000 0.000000
O O14 0.614107 0.940309 0.136670
O O15 0.309766 0.443389 0.971578
#
# Coordination Sequence:
#
# PCOD9068936 Si02
#       7
#     2   2   2   2   2   2   2
#     4  12  21  43  77 110 150 195 246 311 366 431
#     4  12  26  46  78 117 150 194 248 311 379 436
#     4  12  28  47  76 108 159 198 244 309 375 445
#     4  12  29  53  77 109 149 203 254 307 375 447
#     4  12  25  44  79 117 148 192 251 309 370 440
#     4  12  28  49  76 109 154 199 245 312 378 443
#     4  12  26  48  79 113 150 197 257 303 365 449
#
# _framework density 24.732723
#
# number of rings (size 3 to 8) (size 9 to 14) (size 15 to 20)
#    0.000    0.000    5.714    3.857    4.000    1.714 
#    2.571    0.000    0.000    0.000    0.000    0.000 
#    0.000    0.000    0.000    0.000    0.000    0.000 
#
# Total GULP energy -78452.401325 kJ/mol
# GULP energy per Si atom -5603.742952 kJ/mol
# Density = 2.467643 g / cm^3
# Si number density = 24.732723 Si / 1000 Ang^3
#
#
#
# Elastic Constant Matrix: (Units=GPa)
#
#
# Indices 1 2 3 4 5 6 
#
# 1 57.3973 15.0321 34.4032 11.8927 -4.7202 0.2557
# 2 15.0321 136.1126 53.4082 5.5974 7.4507 -10.0632
# 3 34.4032 53.4082 124.0026 2.9931 -2.2778 -8.1242
# 4 11.8927 5.5974 2.9931 59.9928 -4.8574 -2.0845
# 5 -4.7202 7.4507 -2.2778 -4.8574 30.6061 2.8900
# 6 0.2557 -10.0632 -8.1242 -2.0845 2.8900 31.3826
#
#
#
# Elastic Compliance Matrix: (Units=1/GPa)
#
#
# Indices 1 2 3 4 5 6 
#
# 1 0.022154 -0.000222 -0.006060 -0.003938 0.002614 -0.002323
# 2 -0.000222 0.009214 -0.003798 -0.000784 -0.002891 0.002187
# 3 -0.006060 -0.003798 0.011488 0.001114 0.000852 0.001801
# 4 -0.003938 -0.000784 0.001114 0.017695 0.002378 0.001025
# 5 0.002614 -0.002891 0.000852 0.002378 0.034575 -0.003754
# 6 -0.002323 0.002187 0.001801 0.001025 -0.003754 0.033465
#
#
# Mechanical properties :
#
#
# Convention : Reuss Voigt Hill
#
# Bulk Modulus (GPa) = 44.05884 58.13326 51.09605
# Shear Modulus (GPa) = 31.98655 38.70757 35.34706
#
# Velocity S-wave (km/s) = 3.60013 3.96034 3.78453
# Velocity P-wave (km/s) = 5.92739 6.66844 6.30880
#
# Compressibility (1/GPa) = 0.02269692
#
# Stress axis : x y z
#
# Youngs Moduli (GPa) = 45.13863 108.53404 87.04678
#
# Poissons Ratio (x) = 0.02406 0.52750
# Poissons Ratio (y) = 0.01001 0.33058
# Poissons Ratio (z) = 0.27354 0.41218
#
# Static dielectric constant tensor:
#      x y z
#    x 2.036840 -0.029680 0.002430 
#    y -0.029680 1.918540 -0.024750 
#    z 0.002430 -0.024750 1.940790 
# 
# From -- ./inp_files/274150.got.cif
#   From: 2010.05.17/outbox.cif.g08.bks.cpg/sg2_138_cif.got.tgz:274150.got - 2010.06.03 11:33:40.
