data_PCOD9068290
_publ_section_title
;
Structure prediction by ZEFSAII (Michael W. Deem and Ramdas Pophale) SiO2 
 PCOD9068290
Probable space group: P -1
;
_chemical_formula_sum "Si O2"
_cell_formula_units_Z 15
_cell_length_a 11.574647
_cell_length_b 11.549410
_cell_length_c 6.369647
_cell_angle_alpha 60.765041
_cell_angle_beta 131.492060
_cell_angle_gamma 122.200815
_cell_volume 527.258832
_symmetry_space_group_name_H-M "P -1"
_symmetry_group_IT_number 2
_symmetry_cell_setting 'triclinic'
loop_
_space_group_symop_operation_xyz
x,y,z
-x,-y,-z
loop_
_atom_site_type_symbol
_atom_site_label
_atom_site_fract_x
_atom_site_fract_y
_atom_site_fract_z
Si Si1 0.146512 0.687711 0.840860
Si Si2 0.627960 0.680744 0.397089
Si Si3 0.386081 0.892195 0.644655
Si Si4 0.413775 0.794199 0.350765
Si Si5 0.825515 0.586468 0.054471
Si Si6 0.500000 0.500000 0.000000
Si Si7 0.051054 0.903365 0.040597
Si Si8 0.067666 0.117525 0.594112
O O1 0.302516 0.802015 0.819405
O O2 0.003358 0.751999 0.594333
O O3 0.229268 0.702076 0.156716
O O4 0.114052 0.545051 0.804426
O O5 0.528848 0.728523 0.418553
O O6 0.730119 0.599828 0.714740
O O7 0.746209 0.822184 0.309970
O O8 0.530876 0.582255 0.187176
O O9 0.439603 0.792587 0.634692
O O10 0.238266 0.929909 0.316707
O O11 0.521338 0.036101 0.745262
O O12 0.700279 0.566151 0.115555
O O13 0.966843 0.734634 0.091587
O O14 0.949517 0.921179 0.129491
O O15 0.027492 0.934442 0.719037
#
# Coordination Sequence:
#
# PCOD9068290 Si02
#       8
#     2   2   2   2   2   1   2   2
#     4  12  27  50  77 122 164 211 275 338 411 484
#     4  12  27  52  82 116 164 217 275 334 411 493
#     4  11  26  48  81 119 163 213 273 342 408 486
#     4  11  26  50  80 115 167 214 273 338 408 486
#     4  12  29  51  81 118 169 215 272 342 412 492
#     4  12  28  52  78 116 160 224 270 328 416 492
#     4  12  24  52  81 117 158 215 281 333 405 497
#     4  12  25  51  85 116 157 216 274 337 409 488
#
# _framework density 28.449027000000001
#
# number of rings (size 3 to 8) (size 9 to 14) (size 15 to 20)
#    0.000    0.267    4.000    4.000    1.867    3.200 
#    0.000    0.000    0.000    0.000    0.000    0.000 
#    0.000    0.000    0.000    0.000    0.000    0.000 
#
# Total GULP energy -83804.219151 kJ/mol
# GULP energy per Si atom -5586.947943 kJ/mol
# Density = 2.838428 g / cm^3
# Si number density = 28.449027 Si / 1000 Ang^3
#
#
#
# Elastic Constant Matrix: (Units=GPa)
#
#
# Indices 1 2 3 4 5 6 
#
# 1 139.9008 68.6545 2.9056 12.6118 -17.3382 -20.0776
# 2 68.6545 194.5287 50.9432 22.8167 9.0136 -14.6338
# 3 2.9056 50.9432 92.8620 13.6923 0.1457 -26.7102
# 4 12.6118 22.8167 13.6923 59.3303 -5.5590 -5.2695
# 5 -17.3382 9.0136 0.1457 -5.5590 42.2159 3.7293
# 6 -20.0776 -14.6338 -26.7102 -5.2695 3.7293 62.1965
#
#
#
# Elastic Compliance Matrix: (Units=1/GPa)
#
#
# Indices 1 2 3 4 5 6 
#
# 1 0.010349 -0.004381 0.003095 -0.000484 0.004819 0.003309
# 2 -0.004381 0.008109 -0.004452 -0.001617 -0.003610 -0.001339
# 3 0.003095 -0.004452 0.015164 -0.001762 0.001387 0.006231
# 4 -0.000484 -0.001617 -0.001762 0.018233 0.002545 0.000099
# 5 0.004819 -0.003610 0.001387 0.002545 0.026776 -0.000088
# 6 0.003309 -0.001339 0.006231 0.000099 -0.000088 0.019521
#
#
# Mechanical properties :
#
#
# Convention : Reuss Voigt Hill
#
# Bulk Modulus (GPa) = 45.15403 74.69977 59.92690
# Shear Modulus (GPa) = 42.73121 53.06775 47.89948
#
# Velocity S-wave (km/s) = 3.87980 4.32367 4.10774
# Velocity P-wave (km/s) = 5.99807 7.15821 6.60366
#
# Compressibility (1/GPa) = 0.02214642
#
# Stress axis : x y z
#
# Youngs Moduli (GPa) = 96.62619 123.32225 65.94416
#
# Poissons Ratio (x) = 0.54022 -0.20410
# Poissons Ratio (y) = 0.42328 0.29361
# Poissons Ratio (z) = -0.29906 0.54908
#
# Static dielectric constant tensor:
#      x y z
#    x 2.198810 0.019280 -0.048320 
#    y 0.019280 2.344300 -0.047220 
#    z -0.048320 -0.047220 2.373050 
# 
# From -- ./inp_files/66618.got.cif
#   From: 2010.05.17/outbox.cif.g08.bks.cpg/sg2_34_cif.got.tgz:66618.got - 2010.06.03 11:33:40.
