data_PCOD9068564
_publ_section_title
;
Structure prediction by ZEFSAII (Michael W. Deem and Ramdas Pophale) SiO2 
 PCOD9068564
Probable space group: P -1
;
_chemical_formula_sum "Si O2"
_cell_formula_units_Z 12
_cell_length_a 9.138136
_cell_length_b 14.101228
_cell_length_c 12.010593
_cell_angle_alpha 159.944633
_cell_angle_beta 71.796324
_cell_angle_gamma 108.919838
_cell_volume 501.920382
_symmetry_space_group_name_H-M "P -1"
_symmetry_group_IT_number 2
_symmetry_cell_setting 'triclinic'
loop_
_space_group_symop_operation_xyz
x,y,z
-x,-y,-z
loop_
_atom_site_type_symbol
_atom_site_label
_atom_site_fract_x
_atom_site_fract_y
_atom_site_fract_z
Si Si1 0.592408 0.740734 0.409119
Si Si2 0.947688 0.700747 0.638091
Si Si3 0.597400 0.732761 0.663939
Si Si4 0.365473 0.777235 0.331813
Si Si5 0.021416 0.758038 0.445068
Si Si6 0.883673 0.152390 0.775245
O O1 0.600966 0.681585 0.472963
O O2 0.418181 0.759656 0.428839
O O3 0.707555 0.017338 0.659953
O O4 0.636039 0.501449 0.049133
O O5 0.770106 0.714003 0.652552
O O6 0.000000 0.500000 0.500000
O O7 0.041209 0.666572 0.465109
O O8 0.000000 0.000000 0.000000
O O9 0.500000 0.500000 0.500000
O O10 0.500000 0.000000 0.000000
O O11 0.188944 0.836618 0.439760
O O12 0.500000 0.000000 0.500000
O O13 0.930039 0.028968 0.748506
O O14 0.923638 0.480712 0.113904
O O15 0.000000 0.000000 0.500000
#
# Coordination Sequence:
#
# PCOD9068564 Si02
#       6
#     2   2   2   2   2   2
#     4  11  27  48  73 110 156 196 260 315 388 467
#     4  12  28  51  78 113 154 204 264 320 384 457
#     4  12  30  51  79 114 154 211 261 320 387 460
#     4  11  27  46  76 114 152 203 245 323 394 462
#     4  12  27  46  76 109 149 197 255 315 386 454
#     4  12  24  45  75 109 144 194 247 309 385 462
#
# _framework density 23.908173999999999
#
# number of rings (size 3 to 8) (size 9 to 14) (size 15 to 20)
#    0.000    0.333    3.333    3.500   14.000    0.000 
#    0.000    0.000    0.000    0.000    0.000    0.000 
#    0.000    0.000    0.000    0.000    0.000    0.000 
#
# Total GULP energy -67030.587042 kJ/mol
# GULP energy per Si atom -5585.882253 kJ/mol
# Density = 2.385376 g / cm^3
# Si number density = 23.908174 Si / 1000 Ang^3
#
#
#
# Elastic Constant Matrix: (Units=GPa)
#
#
# Indices 1 2 3 4 5 6 
#
# 1 224.8888 75.2945 46.9088 4.6347 18.1286 -13.0883
# 2 75.2945 161.8721 43.1358 9.5434 18.7344 -14.1810
# 3 46.9088 43.1358 93.3100 21.9703 17.7244 -2.0898
# 4 4.6347 9.5434 21.9703 48.7504 -5.8654 4.2772
# 5 18.1286 18.7344 17.7244 -5.8654 42.5265 2.4284
# 6 -13.0883 -14.1810 -2.0898 4.2772 2.4284 56.4214
#
#
#
# Elastic Compliance Matrix: (Units=1/GPa)
#
#
# Indices 1 2 3 4 5 6 
#
# 1 0.005590 -0.001991 -0.001874 0.000557 -0.000688 0.000714
# 2 -0.001991 0.008099 -0.002123 -0.000830 -0.002043 0.001646
# 3 -0.001874 -0.002123 0.015389 -0.007058 -0.005675 0.000381
# 4 0.000557 -0.000830 -0.007058 0.024821 0.006636 -0.002508
# 5 -0.000688 -0.002043 -0.005675 0.006636 0.028137 -0.002597
# 6 0.000714 0.001646 0.000381 -0.002508 -0.002597 0.018619
#
#
# Mechanical properties :
#
#
# Convention : Reuss Voigt Hill
#
# Bulk Modulus (GPa) = 58.47506 90.08325 74.27915
# Shear Modulus (GPa) = 42.25408 50.52177 46.38793
#
# Velocity S-wave (km/s) = 4.20855 4.60190 4.40961
# Velocity P-wave (km/s) = 6.93737 8.12387 7.55395
#
# Compressibility (1/GPa) = 0.01710131
#
# Stress axis : x y z
#
# Youngs Moduli (GPa) = 178.89646 123.46912 64.98283
#
# Poissons Ratio (x) = 0.24587 0.12178
# Poissons Ratio (y) = 0.35624 0.13795
# Poissons Ratio (z) = 0.33526 0.26210
#
# Static dielectric constant tensor:
#      x y z
#    x 1.942750 -0.056640 0.022550 
#    y -0.056640 2.002000 -0.043130 
#    z 0.022550 -0.043130 1.865450 
# 
# From -- ./inp_files/26570.got.cif
#   From: 2010.05.17/outbox.cif.g08.bks.cpg/sg2_14_cif.got.tgz:26570.got - 2010.06.03 11:33:40.
