data_PCOD9068495
_publ_section_title
;
Structure prediction by ZEFSAII (Michael W. Deem and Ramdas Pophale) SiO2 
 PCOD9068495
Probable space group: P -1
;
_chemical_formula_sum "Si O2"
_cell_formula_units_Z 14
_cell_length_a 11.296262
_cell_length_b 5.588784
_cell_length_c 10.383926
_cell_angle_alpha 103.737206
_cell_angle_beta 57.808228
_cell_angle_gamma 90.705235
_cell_volume 533.686806
_symmetry_space_group_name_H-M "P -1"
_symmetry_group_IT_number 2
_symmetry_cell_setting 'triclinic'
loop_
_space_group_symop_operation_xyz
x,y,z
-x,-y,-z
loop_
_atom_site_type_symbol
_atom_site_label
_atom_site_fract_x
_atom_site_fract_y
_atom_site_fract_z
Si Si1 0.870381 0.732388 0.952665
Si Si2 0.147809 0.088953 0.455274
Si Si3 0.742055 0.345837 0.855065
Si Si4 0.654624 0.573830 0.682635
Si Si5 0.583686 0.066881 0.086644
Si Si6 0.874383 0.978931 0.237710
Si Si7 0.581602 0.239206 0.471266
O O1 0.875825 0.470100 0.842690
O O2 0.888796 0.752261 0.098297
O O3 0.986119 0.887468 0.843334
O O4 0.708749 0.862886 0.036402
O O5 0.190826 0.357292 0.429837
O O6 0.157368 0.077213 0.603205
O O7 0.232695 0.906440 0.275241
O O8 0.000000 0.000000 0.500000
O O9 0.653910 0.526422 0.828153
O O10 0.662649 0.294303 0.023701
O O11 0.541576 0.807268 0.733327
O O12 0.621888 0.328841 0.601225
O O13 0.500000 0.000000 0.000000
O O14 0.731555 0.161191 0.303028
O O15 0.500000 0.500000 0.500000
O O16 0.500000 0.000000 0.500000
#
# Coordination Sequence:
#
# PCOD9068495 Si02
#       7
#     2   2   2   2   2   2   2
#     4  11  27  49  73 110 151 209 256 330 401 475
#     4  12  26  47  77 113 157 207 265 330 403 483
#     4  12  24  44  75 109 145 199 261 323 395 467
#     4  12  26  45  74 110 152 204 263 328 397 471
#     4  12  24  45  72 109 153 196 261 321 392 480
#     4  11  26  52  75 109 161 200 270 324 403 487
#     4  12  28  50  79 114 160 212 267 333 407 479
#
# _framework density 26.232613000000001
#
# number of rings (size 3 to 8) (size 9 to 14) (size 15 to 20)
#    0.000    0.286    4.286    3.857    4.000    1.143 
#    5.143    2.143    0.000    0.000    0.000    0.000 
#    0.000    0.000    0.000    0.000    0.000    0.000 
#
# Total GULP energy -78247.811542 kJ/mol
# GULP energy per Si atom -5589.129396 kJ/mol
# Density = 2.617291 g / cm^3
# Si number density = 26.232613 Si / 1000 Ang^3
#
#
#
# Elastic Constant Matrix: (Units=GPa)
#
#
# Indices 1 2 3 4 5 6 
#
# 1 102.1006 53.1994 29.5009 9.8433 12.8268 33.8362
# 2 53.1994 122.4515 24.6207 7.5936 15.4117 40.6442
# 3 29.5009 24.6207 89.4460 15.1027 18.2575 14.4512
# 4 9.8433 7.5936 15.1027 36.6200 2.5441 8.3783
# 5 12.8268 15.4117 18.2575 2.5441 63.9995 8.2770
# 6 33.8362 40.6442 14.4512 8.3783 8.2770 54.5839
#
#
#
# Elastic Compliance Matrix: (Units=1/GPa)
#
#
# Indices 1 2 3 4 5 6 
#
# 1 0.014438 -0.003931 -0.002616 -0.000777 -0.000506 -0.005135
# 2 -0.003931 0.012282 -0.000900 0.000414 -0.001106 -0.006366
# 3 -0.002616 -0.000900 0.013686 -0.004505 -0.002959 -0.000191
# 4 -0.000777 0.000414 -0.004505 0.030010 0.000579 -0.003328
# 5 -0.000506 -0.001106 -0.002959 0.000579 0.016909 -0.000732
# 6 -0.005135 -0.006366 -0.000191 -0.003328 -0.000732 0.026916
#
#
# Mechanical properties :
#
#
# Convention : Reuss Voigt Hill
#
# Bulk Modulus (GPa) = 39.19526 58.73780 48.96653
# Shear Modulus (GPa) = 36.32709 44.81918 40.57314
#
# Velocity S-wave (km/s) = 3.72534 4.13792 3.93704
# Velocity P-wave (km/s) = 5.78602 6.72827 6.27486
#
# Compressibility (1/GPa) = 0.02551329
#
# Stress axis : x y z
#
# Youngs Moduli (GPa) = 69.26020 81.42207 73.06664
#
# Poissons Ratio (x) = 0.32003 0.19114
# Poissons Ratio (y) = 0.27223 0.06575
# Poissons Ratio (z) = 0.18119 0.07327
#
# Static dielectric constant tensor:
#      x y z
#    x 2.093110 -0.153210 0.018370 
#    y -0.153210 1.819610 0.206260 
#    z 0.018370 0.206260 2.021640 
# 
# From -- ./inp_files/70010.got.cif
#   From: 2010.05.17/outbox.cif.g08.bks.cpg/sg2_36_cif.got.tgz:70010.got - 2010.06.03 11:33:40.
