data_PCOD9068253
_publ_section_title
;
Structure prediction by ZEFSAII (Michael W. Deem and Ramdas Pophale) SiO2 
 PCOD9068253
Probable space group: P -1
;
_chemical_formula_sum "Si O2"
_cell_formula_units_Z 16
_cell_length_a 5.279769
_cell_length_b 11.381996
_cell_length_c 10.076369
_cell_angle_alpha 88.903374
_cell_angle_beta 103.279661
_cell_angle_gamma 106.168436
_cell_volume 565.379550
_symmetry_space_group_name_H-M "P -1"
_symmetry_group_IT_number 2
_symmetry_cell_setting 'triclinic'
loop_
_space_group_symop_operation_xyz
x,y,z
-x,-y,-z
loop_
_atom_site_type_symbol
_atom_site_label
_atom_site_fract_x
_atom_site_fract_y
_atom_site_fract_z
Si Si1 0.436280 0.028212 0.618934
Si Si2 0.881297 0.945510 0.717804
Si Si3 0.631216 0.486195 0.835586
Si Si4 0.727139 0.959421 0.949187
Si Si5 0.052132 0.366809 0.500709
Si Si6 0.525391 0.678803 0.643741
Si Si7 0.187564 0.719918 0.270326
Si Si8 0.776244 0.700279 0.016156
O O1 0.558116 0.175292 0.650868
O O2 0.680197 0.981278 0.561977
O O3 0.152873 0.983899 0.662464
O O4 0.625808 0.983433 0.773053
O O5 0.763056 0.797961 0.708687
O O6 0.025881 0.984385 0.894898
O O7 0.461940 0.565991 0.740273
O O8 0.755635 0.407588 0.753673
O O9 0.448519 0.389709 0.916316
O O10 0.845973 0.601320 0.927857
O O11 0.659656 0.810656 0.959650
O O12 0.500000 0.000000 0.000000
O O13 0.758170 0.289513 0.408352
O O14 0.042023 0.306453 0.644359
O O15 0.000000 0.500000 0.500000
O O16 0.324692 0.367147 0.459395
O O17 0.053604 0.761331 0.125475
#
# Coordination Sequence:
#
# PCOD9068253 Si02
#       8
#     2   2   2   2   2   2   2   2
#     4  12  28  50  77 116 155 202 261 324 399 470
#     4  12  26  50  76 107 150 202 257 325 389 462
#     4  11  26  48  77 112 157 208 262 322 400 467
#     4  12  28  49  77 111 149 204 265 322 389 462
#     4  12  26  45  76 114 155 197 259 316 395 471
#     4  12  25  50  76 112 152 203 261 325 390 474
#     4  12  27  46  80 111 161 206 258 328 397 478
#     4  11  27  51  74 115 157 208 263 327 392 474
#
# _framework density 28.299575999999998
#
# number of rings (size 3 to 8) (size 9 to 14) (size 15 to 20)
#    0.000    0.250    2.500    5.625    8.750    0.000 
#    0.000    0.000    0.000    0.000    0.000    0.000 
#    0.000    0.000    0.000    0.000    0.000    0.000 
#
# Total GULP energy -89489.484309 kJ/mol
# GULP energy per Si atom -5593.092769 kJ/mol
# Density = 2.823516 g / cm^3
# Si number density = 28.299576 Si / 1000 Ang^3
#
#
#
# Elastic Constant Matrix: (Units=GPa)
#
#
# Indices 1 2 3 4 5 6 
#
# 1 214.9339 68.6957 101.7760 3.4668 -2.4313 7.0770
# 2 68.6957 205.8200 67.5670 9.3615 -21.7952 -1.9880
# 3 101.7760 67.5670 197.4321 6.1604 -16.4673 -0.1257
# 4 3.4668 9.3615 6.1604 56.2480 -1.7209 6.3519
# 5 -2.4313 -21.7952 -16.4673 -1.7209 71.6865 -1.6401
# 6 7.0770 -1.9880 -0.1257 6.3519 -1.6401 52.2073
#
#
#
# Elastic Compliance Matrix: (Units=1/GPa)
#
#
# Indices 1 2 3 4 5 6 
#
# 1 0.006503 -0.001303 -0.002987 0.000229 -0.000879 -0.000994
# 2 -0.001303 0.005881 -0.001194 -0.000784 0.001463 0.000539
# 3 -0.002987 -0.001194 0.007125 -0.000414 0.001173 0.000464
# 4 0.000229 -0.000784 -0.000414 0.018199 0.000059 -0.002274
# 5 -0.000879 0.001463 0.001173 0.000059 0.014650 0.000631
# 6 -0.000994 0.000539 0.000464 -0.002274 0.000631 0.019607
#
#
# Mechanical properties :
#
#
# Convention : Reuss Voigt Hill
#
# Bulk Modulus (GPa) = 117.09826 121.58482 119.34154
# Shear Modulus (GPa) = 58.28858 61.37152 59.83005
#
# Velocity S-wave (km/s) = 4.54331 4.66192 4.60300
# Velocity P-wave (km/s) = 8.30603 8.48732 8.39717
#
# Compressibility (1/GPa) = 0.00853984
#
# Stress axis : x y z
#
# Youngs Moduli (GPa) = 153.78395 170.03036 140.35517
#
# Poissons Ratio (x) = 0.22151 0.41929
# Poissons Ratio (y) = 0.20034 0.16763
# Poissons Ratio (z) = 0.45940 0.20308
#
# Static dielectric constant tensor:
#      x y z
#    x 2.080400 0.006260 0.163490 
#    y 0.006260 2.098320 0.044120 
#    z 0.163490 0.044120 2.799480 
# 
# From -- ./inp_files/364626.got.cif
#   From: 2010.05.17/outbox.cif.g08.bks.cpg/sg2_183_cif.got.tgz:364626.got - 2010.06.03 11:33:40.
