data_PCOD9068942
_publ_section_title
;
Structure prediction by ZEFSAII (Michael W. Deem and Ramdas Pophale) SiO2 
 PCOD9068942
Probable space group: P -1
;
_chemical_formula_sum "Si O2"
_cell_formula_units_Z 14
_cell_length_a 14.638604
_cell_length_b 8.653800
_cell_length_c 10.780756
_cell_angle_alpha 48.148921
_cell_angle_beta 60.917336
_cell_angle_gamma 96.771561
_cell_volume 652.402403
_symmetry_space_group_name_H-M "P -1"
_symmetry_group_IT_number 2
_symmetry_cell_setting 'triclinic'
loop_
_space_group_symop_operation_xyz
x,y,z
-x,-y,-z
loop_
_atom_site_type_symbol
_atom_site_label
_atom_site_fract_x
_atom_site_fract_y
_atom_site_fract_z
Si Si1 0.299072 0.727659 0.419791
Si Si2 0.578871 0.887420 0.485259
Si Si3 0.602768 0.666074 0.958724
Si Si4 0.157056 0.612951 0.834408
Si Si5 0.157460 0.616267 0.322324
Si Si6 0.852619 0.683013 0.756411
Si Si7 0.429671 0.186885 0.747273
O O1 0.205247 0.582582 0.686175
O O2 0.440768 0.778018 0.304844
O O3 0.204957 0.565273 0.445564
O O4 0.354732 0.039342 0.212251
O O5 0.616789 0.954299 0.281920
O O6 0.500000 0.000000 0.500000
O O7 0.717033 0.056741 0.390333
O O8 0.477870 0.555065 0.755912
O O9 0.736130 0.703788 0.821106
O O10 0.500000 0.500000 0.000000
O O11 0.164315 0.467653 0.023999
O O12 0.000000 0.500000 0.000000
O O13 0.155983 0.465593 0.283425
O O14 0.000000 0.500000 0.500000
O O15 0.281947 0.958571 0.040537
O O16 0.000000 0.000000 0.500000
O O17 0.500000 0.500000 0.500000
#
# Coordination Sequence:
#
# PCOD9068942 Si02
#       7
#     2   2   2   2   2   2   2
#     4  12  26  47  72 106 142 187 238 296 358 432
#     4  12  21  44  73 100 139 186 239 294 345 421
#     4  12  22  40  73 107 136 183 241 293 348 424
#     4  12  24  45  71 103 143 182 239 289 349 421
#     4  12  26  47  70 106 151 187 236 301 360 429
#     4  12  26  46  72 105 143 189 236 292 363 425
#     4  12  26  48  73 101 145 191 237 296 361 430
#
# _framework density 21.459150000000001
#
# number of rings (size 3 to 8) (size 9 to 14) (size 15 to 20)
#    0.000    0.000    5.714    4.714    0.000    2.286 
#    0.000    1.429    0.000    0.000    0.000    0.000 
#    0.000    0.000    0.000    0.000    0.000    0.000 
#
# Total GULP energy -78264.852153 kJ/mol
# GULP energy per Si atom -5590.346582 kJ/mol
# Density = 2.141031 g / cm^3
# Si number density = 21.459150 Si / 1000 Ang^3
#
#
#
# Elastic Constant Matrix: (Units=GPa)
#
#
# Indices 1 2 3 4 5 6 
#
# 1 177.2803 58.4275 77.3273 1.7702 -23.6825 -1.4928
# 2 58.4275 96.3441 60.6325 -2.1661 9.4005 19.5064
# 3 77.3273 60.6325 156.6887 5.8962 -19.0395 -2.6144
# 4 1.7702 -2.1661 5.8962 32.8046 2.3213 7.7514
# 5 -23.6825 9.4005 -19.0395 2.3213 51.8362 2.2722
# 6 -1.4928 19.5064 -2.6144 7.7514 2.2722 51.2036
#
#
#
# Elastic Compliance Matrix: (Units=1/GPa)
#
#
# Indices 1 2 3 4 5 6 
#
# 1 0.008635 -0.005000 -0.001736 -0.001270 0.004180 0.002075
# 2 -0.005000 0.020384 -0.006785 0.005485 -0.008337 -0.008718
# 3 -0.001736 -0.006785 0.010573 -0.003362 0.004323 0.003391
# 4 -0.001270 0.005485 -0.003362 0.033501 -0.003995 -0.007192
# 5 0.004180 -0.008337 0.004323 -0.003995 0.024346 0.003043
# 6 0.002075 -0.008718 0.003391 -0.007192 0.003043 0.024038
#
#
# Mechanical properties :
#
#
# Convention : Reuss Voigt Hill
#
# Bulk Modulus (GPa) = 79.69091 91.45419 85.57255
# Shear Modulus (GPa) = 32.74364 42.76393 37.75379
#
# Velocity S-wave (km/s) = 3.91046 4.46893 4.19899
# Velocity P-wave (km/s) = 7.58984 8.32699 7.96695
#
# Compressibility (1/GPa) = 0.01254848
#
# Stress axis : x y z
#
# Youngs Moduli (GPa) = 115.81391 49.05887 94.58437
#
# Poissons Ratio (x) = 0.24531 0.16419
# Poissons Ratio (y) = 0.57912 0.64174
# Poissons Ratio (z) = 0.20104 0.33286
#
# Static dielectric constant tensor:
#      x y z
#    x 1.824640 0.098290 -0.089130 
#    y 0.098290 1.847610 -0.116620 
#    z -0.089130 -0.116620 1.926360 
# 
# From -- ./inp_files/184178.got.cif
#   From: 2010.05.17/outbox.cif.g08.bks.cpg/sg2_93_cif.got.tgz:184178.got - 2010.06.03 11:33:40.
