data_PCOD9068423
_publ_section_title
;
Structure prediction by ZEFSAII (Michael W. Deem and Ramdas Pophale) SiO2 
 PCOD9068423
Probable space group: P -1
;
_chemical_formula_sum "Si O2"
_cell_formula_units_Z 16
_cell_length_a 9.059887
_cell_length_b 12.386500
_cell_length_c 18.527710
_cell_angle_alpha 35.876891
_cell_angle_beta 49.975329
_cell_angle_gamma 74.901331
_cell_volume 759.614258
_symmetry_space_group_name_H-M "P -1"
_symmetry_group_IT_number 2
_symmetry_cell_setting 'triclinic'
loop_
_space_group_symop_operation_xyz
x,y,z
-x,-y,-z
loop_
_atom_site_type_symbol
_atom_site_label
_atom_site_fract_x
_atom_site_fract_y
_atom_site_fract_z
Si Si1 0.493470 0.278185 0.176496
Si Si2 0.272285 0.139896 0.814771
Si Si3 0.681184 0.175382 0.461969
Si Si4 0.013790 0.911963 0.328810
Si Si5 0.465064 0.836819 0.937610
Si Si6 0.882007 0.675319 0.653401
Si Si7 0.394295 0.365522 0.496564
Si Si8 0.010094 0.325643 0.140354
O O1 0.484736 0.217821 0.128508
O O2 0.267326 0.266839 0.281122
O O3 0.495779 0.091005 0.323060
O O4 0.732080 0.522106 0.985281
O O5 0.308602 0.230566 0.672382
O O6 0.441261 0.367747 0.684544
O O7 0.356456 0.977142 0.884479
O O8 0.000000 0.000000 0.000000
O O9 0.552120 0.297301 0.444932
O O10 0.809564 0.226350 0.317930
O O11 0.884480 0.262381 0.411917
O O12 0.943779 0.810760 0.486431
O O13 0.834426 0.721135 0.432768
O O14 0.989642 0.119783 0.218233
O O15 0.288700 0.016310 0.177042
O O16 0.282192 0.593355 0.162623
O O17 0.000000 0.500000 0.000000
#
# Coordination Sequence:
#
# PCOD9068423 Si02
#       8
#     2   2   2   2   2   2   2   2
#     4  12  22  40  65 102 140 184 226 262 330 410
#     4  11  26  50  76  98 126 176 236 289 350 406
#     4  12  23  42  70  97 143 186 224 276 332 404
#     4  12  26  44  67 103 144 176 223 281 337 407
#     4  12  24  43  71 101 135 183 232 279 333 406
#     4  12  23  39  68 103 139 183 223 268 333 410
#     4  11  27  47  71 100 134 176 230 287 347 402
#     4  12  27  39  65 105 149 187 225 271 336 406
#
# _framework density 21.063323
#
# number of rings (size 3 to 8) (size 9 to 14) (size 15 to 20)
#    0.000    0.250    6.250    3.000    1.750    3.500 
#    0.000    1.250    0.000    0.000    0.000    0.000 
#    0.000    0.000    0.000    0.000    0.000    0.000 
#
# Total GULP energy -89633.250868 kJ/mol
# GULP energy per Si atom -5602.078179 kJ/mol
# Density = 2.101538 g / cm^3
# Si number density = 21.063323 Si / 1000 Ang^3
#
#
#
# Elastic Constant Matrix: (Units=GPa)
#
#
# Indices 1 2 3 4 5 6 
#
# 1 95.4893 26.8045 22.7536 -14.5725 -8.6876 -8.3676
# 2 26.8045 55.7314 30.5205 -17.8107 -15.5566 -12.9616
# 3 22.7536 30.5205 106.3042 -18.8450 -2.6384 -9.1229
# 4 -14.5725 -17.8107 -18.8450 26.3702 -1.7112 -1.0313
# 5 -8.6876 -15.5566 -2.6384 -1.7112 48.3977 -9.2496
# 6 -8.3676 -12.9616 -9.1229 -1.0313 -9.2496 29.2131
#
#
#
# Elastic Compliance Matrix: (Units=1/GPa)
#
#
# Indices 1 2 3 4 5 6 
#
# 1 0.012625 -0.002938 -0.000725 0.004717 0.002001 0.002886
# 2 -0.002938 0.038571 -0.004080 0.023406 0.016498 0.021048
# 3 -0.000725 -0.004080 0.011828 0.005348 -0.000268 0.001780
# 4 0.004717 0.023406 0.005348 0.061906 0.014721 0.020253
# 5 0.002001 0.016498 -0.000268 0.014721 0.030253 0.017908
# 6 0.002886 0.021048 0.001780 0.020253 0.017908 0.051338
#
#
# Mechanical properties :
#
#
# Convention : Reuss Voigt Hill
#
# Bulk Modulus (GPa) = 21.03600 46.40913 33.72256
# Shear Modulus (GPa) = 21.02151 32.62596 26.82373
#
# Velocity S-wave (km/s) = 3.16256 3.93994 3.57246
# Velocity P-wave (km/s) = 4.83161 6.54052 5.74991
#
# Compressibility (1/GPa) = 0.04753755
#
# Stress axis : x y z
#
# Youngs Moduli (GPa) = 79.21057 25.92622 84.54641
#
# Poissons Ratio (x) = 0.07616 0.06132
# Poissons Ratio (y) = 0.23268 0.34496
# Poissons Ratio (z) = 0.05745 0.10578
#
# Static dielectric constant tensor:
#      x y z
#    x 1.757580 0.012360 -0.008610 
#    y 0.012360 1.731160 -0.017200 
#    z -0.008610 -0.017200 1.752230 
# 
# From -- ./inp_files/406731.got.cif
#   From: 2010.05.17/outbox.cif.g08.bks.cpg/sg2_204_cif.got.tgz:406731.got - 2010.06.03 11:33:40.
