data_PCOD9068713
_publ_section_title
;
Structure prediction by ZEFSAII (Michael W. Deem and Ramdas Pophale) SiO2 
 PCOD9068713
Probable space group: P -1
;
_chemical_formula_sum "Si O2"
_cell_formula_units_Z 12
_cell_length_a 4.872843
_cell_length_b 11.320413
_cell_length_c 10.066035
_cell_angle_alpha 54.068658
_cell_angle_beta 104.007688
_cell_angle_gamma 102.429009
_cell_volume 434.345388
_symmetry_space_group_name_H-M "P -1"
_symmetry_group_IT_number 2
_symmetry_cell_setting 'triclinic'
loop_
_space_group_symop_operation_xyz
x,y,z
-x,-y,-z
loop_
_atom_site_type_symbol
_atom_site_label
_atom_site_fract_x
_atom_site_fract_y
_atom_site_fract_z
Si Si1 0.608129 0.076930 0.665215
Si Si2 0.500000 0.500000 0.500000
Si Si3 0.134013 0.576927 0.165216
Si Si4 0.678748 0.339751 0.153339
Si Si5 0.500000 0.000000 0.000000
Si Si6 0.185655 0.160246 0.346656
Si Si7 0.923690 0.749999 0.249999
O O1 0.339403 0.128903 0.522636
O O2 0.804799 0.220881 0.641126
O O3 0.547303 0.988574 0.851255
O O4 0.774036 0.976723 0.652880
O O5 0.292519 0.488569 0.351259
O O6 0.726225 0.612457 0.368525
O O7 0.855565 0.476720 0.152878
O O8 0.057202 0.720877 0.141126
O O9 0.312141 0.628902 0.022642
O O10 0.373894 0.295543 0.209405
O O11 0.868941 0.204454 0.290590
O O12 0.254757 0.112459 0.868528
#
# Coordination Sequence:
#
# PCOD9068713 Si02
#       7
#     2   1   2   2   1   2   2
#     4  11  28  48  77 118 164 215 282 342 421 498
#     4  12  28  48  84 114 166 212 276 342 428 488
#     4  11  28  48  77 118 164 215 282 342 421 498
#     4  11  28  50  81 114 166 222 281 338 419 501
#     4  12  28  48  84 114 166 212 276 342 428 488
#     4  11  28  50  81 114 166 222 281 338 419 501
#     4  12  28  50  78 124 160 218 270 358 414 506
#
# _framework density 27.627787000000001
#
# number of rings (size 3 to 8) (size 9 to 14) (size 15 to 20)
#    0.000    0.667    0.000    4.000   18.667    2.667 
#    0.000    0.000    0.000    0.000    0.000    0.000 
#    0.000    0.000    0.000    0.000    0.000    0.000 
#
# Total GULP energy -67040.888685 kJ/mol
# GULP energy per Si atom -5586.740724 kJ/mol
# Density = 2.756490 g / cm^3
# Si number density = 27.627787 Si / 1000 Ang^3
#
#
#
# Elastic Constant Matrix: (Units=GPa)
#
#
# Indices 1 2 3 4 5 6 
#
# 1 99.2749 34.2661 45.5264 2.8577 2.3498 -1.8875
# 2 34.2661 81.3098 21.6418 19.5174 -3.5764 2.1297
# 3 45.5264 21.6418 202.5017 21.6247 0.9023 2.5033
# 4 2.8577 19.5174 21.6247 40.3662 0.2800 -2.0338
# 5 2.3498 -3.5764 0.9023 0.2800 27.8112 -26.4578
# 6 -1.8875 2.1297 2.5033 -2.0338 -26.4578 42.4733
#
#
#
# Elastic Compliance Matrix: (Units=1/GPa)
#
#
# Indices 1 2 3 4 5 6 
#
# 1 0.013241 -0.005728 -0.002713 0.003306 -0.001632 0.000177
# 2 -0.005728 0.016625 0.000324 -0.007805 0.003145 0.000478
# 3 -0.002713 0.000324 0.005875 -0.003174 -0.001207 -0.001387
# 4 0.003306 -0.007805 -0.003174 0.030157 0.001424 0.003057
# 5 -0.001632 0.003145 -0.001207 0.001424 0.089442 0.055625
# 6 0.000177 0.000478 -0.001387 0.003057 0.055625 0.058406
#
#
# Mechanical properties :
#
#
# Convention : Reuss Voigt Hill
#
# Bulk Modulus (GPa) = 51.25831 65.10610 58.18221
# Shear Modulus (GPa) = 21.14330 40.90693 31.02512
#
# Velocity S-wave (km/s) = 2.76939 3.85209 3.35471
# Velocity P-wave (km/s) = 5.36838 6.58797 6.00920
#
# Compressibility (1/GPa) = 0.01950903
#
# Stress axis : x y z
#
# Youngs Moduli (GPa) = 75.52335 60.14893 170.21797
#
# Poissons Ratio (x) = 0.34453 0.46173
# Poissons Ratio (y) = 0.43260 -0.05523
# Poissons Ratio (z) = 0.20486 -0.01952
#
# Static dielectric constant tensor:
#      x y z
#    x 2.269850 0.011860 -0.012340 
#    y 0.011860 2.052150 0.098080 
#    z -0.012340 0.098080 1.852460 
# 
# From -- ./inp_files/107373.got.cif
#   From: 2010.05.17/outbox.cif.g08.bks.cpg/sg2_54_cif.got.tgz:107373.got - 2010.06.03 11:33:40.
