data_PCOD9068939
_publ_section_title
;
Structure prediction by ZEFSAII (Michael W. Deem and Ramdas Pophale) SiO2 
 PCOD9068939
Probable space group: P -1
;
_chemical_formula_sum "Si O2"
_cell_formula_units_Z 16
_cell_length_a 8.636904
_cell_length_b 11.630064
_cell_length_c 14.951807
_cell_angle_alpha 30.782441
_cell_angle_beta 82.584451
_cell_angle_gamma 71.997399
_cell_volume 701.683931
_symmetry_space_group_name_H-M "P -1"
_symmetry_group_IT_number 2
_symmetry_cell_setting 'triclinic'
loop_
_space_group_symop_operation_xyz
x,y,z
-x,-y,-z
loop_
_atom_site_type_symbol
_atom_site_label
_atom_site_fract_x
_atom_site_fract_y
_atom_site_fract_z
Si Si1 0.369935 0.457399 0.870765
Si Si2 0.693209 0.925239 0.768457
Si Si3 0.548235 0.133605 0.325524
Si Si4 0.203564 0.649341 0.472118
Si Si5 0.889131 0.694120 0.585084
Si Si6 0.866111 0.234270 0.798379
Si Si7 0.986767 0.771699 0.708675
Si Si8 0.515429 0.731709 0.200756
O O1 0.472159 0.594706 0.824382
O O2 0.405145 0.454176 0.765115
O O3 0.180183 0.607042 0.818785
O O4 0.371912 0.191610 0.067481
O O5 0.569749 0.893343 0.724697
O O6 0.876093 0.815878 0.776596
O O7 0.694860 0.178636 0.631219
O O8 0.500000 0.000000 0.500000
O O9 0.741372 0.959040 0.403634
O O10 0.099827 0.727978 0.334170
O O11 0.352353 0.381512 0.652057
O O12 0.063477 0.680875 0.537254
O O13 0.851447 0.476743 0.689424
O O14 0.910359 0.652988 0.717470
O O15 0.678053 0.239460 0.799690
O O16 0.000000 0.000000 0.000000
O O17 0.000000 0.000000 0.500000
O O18 0.500000 0.000000 0.000000
#
# Coordination Sequence:
#
# PCOD9068939 Si02
#       8
#     2   2   2   2   2   2   2   2
#     4  12  25  43  67 104 144 180 236 296 355 429
#     4  12  25  41  71 107 142 183 232 291 362 432
#     4  12  23  43  68 102 142 185 231 290 358 426
#     4  12  25  49  75 101 139 191 242 294 364 432
#     4  12  24  43  73 100 137 184 237 289 352 426
#     4  12  29  48  71 106 141 186 242 303 360 424
#     4  12  21  44  70 100 137 185 232 280 358 428
#     4  12  26  48  75 101 139 192 245 296 357 431
#
# _framework density 22.802288000000001
#
# number of rings (size 3 to 8) (size 9 to 14) (size 15 to 20)
#    0.000    0.000    5.000    5.250    1.750    2.000 
#    0.000    0.000    0.000    0.000    0.000    0.000 
#    0.000    0.000    0.000    0.000    0.000    0.000 
#
# Total GULP energy -89287.941999 kJ/mol
# GULP energy per Si atom -5580.496375 kJ/mol
# Density = 2.275039 g / cm^3
# Si number density = 22.802288 Si / 1000 Ang^3
#
#
#
# Elastic Constant Matrix: (Units=GPa)
#
#
# Indices 1 2 3 4 5 6 
#
# 1 83.8004 8.4519 7.6733 -7.8409 0.7729 -9.9730
# 2 8.4519 86.9155 17.7534 1.8920 0.9778 1.7203
# 3 7.6733 17.7534 79.5615 -4.0863 -9.1791 1.8337
# 4 -7.8409 1.8920 -4.0863 37.3069 10.2112 -8.7179
# 5 0.7729 0.9778 -9.1791 10.2112 40.7884 -10.5010
# 6 -9.9730 1.7203 1.8337 -8.7179 -10.5010 45.7165
#
#
#
# Elastic Compliance Matrix: (Units=1/GPa)
#
#
# Indices 1 2 3 4 5 6 
#
# 1 0.012895 -0.001209 -0.000918 0.003602 -0.000427 0.003484
# 2 -0.001209 0.012241 -0.002751 -0.001183 -0.000860 -0.001037
# 3 -0.000918 -0.002751 0.013651 0.000652 0.003038 0.000178
# 4 0.003602 -0.001183 0.000652 0.030613 -0.006214 0.005214
# 5 -0.000427 -0.000860 0.003038 -0.006214 0.028094 0.005086
# 6 0.003484 -0.001037 0.000178 0.005214 0.005086 0.024828
#
#
# Mechanical properties :
#
#
# Convention : Reuss Voigt Hill
#
# Bulk Modulus (GPa) = 34.44683 35.33716 34.89199
# Shear Modulus (GPa) = 35.27207 39.18896 37.23051
#
# Velocity S-wave (km/s) = 3.93729 4.15015 4.04512
# Velocity P-wave (km/s) = 5.98408 6.20450 6.09528
#
# Compressibility (1/GPa) = 0.02903025
#
# Stress axis : x y z
#
# Youngs Moduli (GPa) = 77.55104 81.69362 73.25368
#
# Poissons Ratio (x) = 0.09876 0.06728
# Poissons Ratio (y) = 0.09375 0.20152
# Poissons Ratio (z) = 0.07122 0.22474
#
# Static dielectric constant tensor:
#      x y z
#    x 1.885940 0.037820 -0.015360 
#    y 0.037820 1.852710 -0.229310 
#    z -0.015360 -0.229310 1.851480 
# 
# From -- ./inp_files/399946.got.cif
#   From: 2010.05.17/outbox.cif.g08.bks.cpg/sg2_200_cif.got.tgz:399946.got - 2010.06.03 11:33:40.
