data_PCOD9068352
_publ_section_title
;
Structure prediction by ZEFSAII (Michael W. Deem and Ramdas Pophale) SiO2 
 PCOD9068352
Probable space group: P -1
;
_chemical_formula_sum "Si O2"
_cell_formula_units_Z 9
_cell_length_a 12.115278
_cell_length_b 6.376410
_cell_length_c 8.771296
_cell_angle_alpha 70.971192
_cell_angle_beta 143.881147
_cell_angle_gamma 93.309168
_cell_volume 350.938872
_symmetry_space_group_name_H-M "P -1"
_symmetry_group_IT_number 2
_symmetry_cell_setting 'triclinic'
loop_
_space_group_symop_operation_xyz
x,y,z
-x,-y,-z
loop_
_atom_site_type_symbol
_atom_site_label
_atom_site_fract_x
_atom_site_fract_y
_atom_site_fract_z
Si Si1 0.800836 0.192717 0.065466
Si Si2 0.365886 0.513718 0.603553
Si Si3 0.719054 0.001080 0.702190
Si Si4 0.877952 0.700283 0.438200
Si Si5 0.000000 0.500000 0.000000
O O1 0.978736 0.299919 0.254893
O O2 0.828351 0.963513 0.256226
O O3 0.596648 0.398446 0.840571
O O4 0.787840 0.092328 0.910778
O O5 0.309714 0.793558 0.505159
O O6 0.310515 0.366829 0.710353
O O7 0.227390 0.481578 0.321261
O O8 0.500000 0.000000 0.500000
O O9 0.887514 0.754021 0.906275
O O10 0.000000 0.500000 0.500000
#
# Coordination Sequence:
#
# PCOD9068352 Si02
#       5
#     2   2   2   2   1
#     4  11  26  49  76 111 156 201 249 315 380 447
#     4  12  26  46  78 111 150 202 254 308 383 449
#     4  12  27  49  77 113 156 196 253 314 379 452
#     4  11  27  49  75 110 155 199 258 311 373 454
#     4  12  26  46  78 110 152 200 248 310 384 444
#
# _framework density 25.645489999999999
#
# number of rings (size 3 to 8) (size 9 to 14) (size 15 to 20)
#    0.000    0.444    2.222    4.667    6.222    4.444 
#    0.000    0.000    0.000    0.000    0.000    0.000 
#    0.000    0.000    0.000    0.000    0.000    0.000 
#
# Total GULP energy -50295.029821 kJ/mol
# GULP energy per Si atom -5588.336647 kJ/mol
# Density = 2.558712 g / cm^3
# Si number density = 25.645490 Si / 1000 Ang^3
#
#
#
# Elastic Constant Matrix: (Units=GPa)
#
#
# Indices 1 2 3 4 5 6 
#
# 1 114.6259 61.6553 27.8227 -7.2511 36.7441 23.3502
# 2 61.6553 132.2449 37.5792 -26.4326 5.6707 7.6412
# 3 27.8227 37.5792 78.7559 -17.1054 21.1876 7.3068
# 4 -7.2511 -26.4326 -17.1054 57.7188 -0.6146 -1.0838
# 5 36.7441 5.6707 21.1876 -0.6146 41.9714 -3.3003
# 6 23.3502 7.6412 7.3068 -1.0838 -3.3003 68.4372
#
#
#
# Elastic Compliance Matrix: (Units=1/GPa)
#
#
# Indices 1 2 3 4 5 6 
#
# 1 0.020377 -0.009284 0.002585 -0.001255 -0.018467 -0.007102
# 2 -0.009284 0.013519 -0.005082 0.003667 0.009132 0.002699
# 3 0.002585 -0.005082 0.018078 0.003188 -0.010870 -0.002719
# 4 -0.001255 0.003667 0.003188 0.019783 -0.000720 -0.000043
# 5 -0.018467 0.009132 -0.010870 -0.000720 0.044911 0.008596
# 6 -0.007102 0.002699 -0.002719 -0.000043 0.008596 0.017438
#
#
# Mechanical properties :
#
#
# Convention : Reuss Voigt Hill
#
# Bulk Modulus (GPa) = 35.19384 64.41566 49.80475
# Shear Modulus (GPa) = 29.91526 46.86345 38.38935
#
# Velocity S-wave (km/s) = 3.41910 4.27940 3.87321
# Velocity P-wave (km/s) = 5.41664 7.04201 6.28211
#
# Compressibility (1/GPa) = 0.02841406
#
# Stress axis : x y z
#
# Youngs Moduli (GPa) = 49.07492 73.96774 55.31580
#
# Poissons Ratio (x) = 0.68668 -0.14301
# Poissons Ratio (y) = 0.45559 0.28112
# Poissons Ratio (z) = -0.12688 0.37591
#
# Static dielectric constant tensor:
#      x y z
#    x 1.948480 -0.034270 0.027080 
#    y -0.034270 1.893560 0.076090 
#    z 0.027080 0.076090 1.908940 
# 
# From -- ./inp_files/228571.got.cif
#   From: 2010.05.17/outbox.cif.g08.bks.cpg/sg2_115_cif.got.tgz:228571.got - 2010.06.03 11:33:40.
