data_PCOD9068276
_publ_section_title
;
Structure prediction by ZEFSAII (Michael W. Deem and Ramdas Pophale) SiO2 
 PCOD9068276
Probable space group: P -1
;
_chemical_formula_sum "Si O2"
_cell_formula_units_Z 10
_cell_length_a 5.106631
_cell_length_b 11.769762
_cell_length_c 8.482077
_cell_angle_alpha 81.326092
_cell_angle_beta 51.101659
_cell_angle_gamma 80.235579
_cell_volume 390.360882
_symmetry_space_group_name_H-M "P -1"
_symmetry_group_IT_number 2
_symmetry_cell_setting 'triclinic'
loop_
_space_group_symop_operation_xyz
x,y,z
-x,-y,-z
loop_
_atom_site_type_symbol
_atom_site_label
_atom_site_fract_x
_atom_site_fract_y
_atom_site_fract_z
Si Si1 0.924716 0.383848 0.179247
Si Si2 0.723904 0.471747 0.738056
Si Si3 0.108105 0.171956 0.317792
Si Si4 0.157413 0.753057 0.059560
Si Si5 0.116047 0.049600 0.666148
O O1 0.620015 0.476146 0.226500
O O2 0.195122 0.450991 0.156347
O O3 0.846152 0.280916 0.347815
O O4 0.021319 0.311017 0.000127
O O5 0.779161 0.340243 0.803777
O O6 0.000000 0.500000 0.500000
O O7 0.024181 0.126222 0.530125
O O8 0.482531 0.213223 0.151038
O O9 0.085895 0.063183 0.233656
O O10 0.949268 0.867934 0.177958
O O11 0.500000 0.000000 0.500000
#
# Coordination Sequence:
#
# PCOD9068276 Si02
#       5
#     2   2   2   2   2
#     4  12  26  50  77 117 157 202 256 319 389 467
#     4  12  28  49  80 118 159 205 257 317 392 471
#     4  11  26  48  79 109 162 197 269 315 393 454
#     4  12  27  47  80 114 159 207 256 326 386 460
#     4  11  27  51  77 115 153 209 265 323 387 461
#
# _framework density 25.617324
#
# number of rings (size 3 to 8) (size 9 to 14) (size 15 to 20)
#    0.000    0.400    2.000    4.800    5.600    6.400 
#    0.000    0.000    0.000    0.000    0.000    0.000 
#    0.000    0.000    0.000    0.000    0.000    0.000 
#
# Total GULP energy -56062.738749 kJ/mol
# GULP energy per Si atom -5606.273875 kJ/mol
# Density = 2.555902 g / cm^3
# Si number density = 25.617324 Si / 1000 Ang^3
#
#
#
# Elastic Constant Matrix: (Units=GPa)
#
#
# Indices 1 2 3 4 5 6 
#
# 1 150.3594 59.8961 19.7171 -1.7347 -1.0301 15.5400
# 2 59.8961 150.9908 18.6209 -13.9665 -0.8886 23.6063
# 3 19.7171 18.6209 45.4591 -15.2598 -5.1367 12.6835
# 4 -1.7347 -13.9665 -15.2598 65.0625 -5.5327 13.3084
# 5 -1.0301 -0.8886 -5.1367 -5.5327 26.4261 -12.8285
# 6 15.5400 23.6063 12.6835 13.3084 -12.8285 47.8544
#
#
#
# Elastic Compliance Matrix: (Units=1/GPa)
#
#
# Indices 1 2 3 4 5 6 
#
# 1 0.008204 -0.002962 -0.002652 -0.001016 -0.000705 -0.000407
# 2 -0.002962 0.008745 -0.000438 0.002452 -0.001489 -0.004317
# 3 -0.002652 -0.000438 0.028807 0.008519 0.003370 -0.008023
# 4 -0.001016 0.002452 0.008519 0.019686 0.001885 -0.008107
# 5 -0.000705 -0.001489 0.003370 0.001885 0.044367 0.011440
# 6 -0.000407 -0.004317 -0.008023 -0.008107 0.011440 0.030606
#
#
# Mechanical properties :
#
#
# Convention : Reuss Voigt Hill
#
# Bulk Modulus (GPa) = 29.71699 60.36418 45.04059
# Shear Modulus (GPa) = 30.53701 44.44030 37.48865
#
# Velocity S-wave (km/s) = 3.45635 4.16958 3.82960
# Velocity P-wave (km/s) = 5.24919 6.84072 6.09711
#
# Compressibility (1/GPa) = 0.03365078
#
# Stress axis : x y z
#
# Youngs Moduli (GPa) = 121.89373 114.35358 34.71394
#
# Poissons Ratio (x) = 0.33870 0.09207
# Poissons Ratio (y) = 0.36103 0.01521
# Poissons Ratio (z) = 0.32331 0.05011
#
# Static dielectric constant tensor:
#      x y z
#    x 2.062350 0.001100 -0.022440 
#    y 0.001100 1.986930 -0.011250 
#    z -0.022440 -0.011250 2.111580 
# 
# From -- ./inp_files/130527.got.cif
#   From: 2010.05.17/outbox.cif.g08.bks.cpg/sg2_66_cif.got.tgz:130527.got - 2010.06.03 11:33:40.
