data_PCOD9068286
_publ_section_title
;
Structure prediction by ZEFSAII (Michael W. Deem and Ramdas Pophale) SiO2 
 PCOD9068286
Probable space group: P -1
;
_chemical_formula_sum "Si O2"
_cell_formula_units_Z 8
_cell_length_a 12.156843
_cell_length_b 11.880383
_cell_length_c 5.075650
_cell_angle_alpha 49.979504
_cell_angle_beta 62.549718
_cell_angle_gamma 32.128709
_cell_volume 292.203646
_symmetry_space_group_name_H-M "P -1"
_symmetry_group_IT_number 2
_symmetry_cell_setting 'triclinic'
loop_
_space_group_symop_operation_xyz
x,y,z
-x,-y,-z
loop_
_atom_site_type_symbol
_atom_site_label
_atom_site_fract_x
_atom_site_fract_y
_atom_site_fract_z
Si Si1 0.170218 0.912045 0.246672
Si Si2 0.378552 0.453856 0.432411
Si Si3 0.572483 0.020739 0.635873
Si Si4 0.997918 0.369779 0.482466
O O1 0.243021 0.731290 0.203521
O O2 0.396099 0.734508 0.396899
O O3 0.000000 0.000000 0.500000
O O4 0.070617 0.157780 0.887717
O O5 0.210996 0.489165 0.647456
O O6 0.463395 0.287036 0.330396
O O7 0.823307 0.786142 0.700334
O O8 0.500000 0.000000 0.500000
O O9 0.500000 0.000000 0.000000
O O10 0.000000 0.500000 0.500000
#
# Coordination Sequence:
#
# PCOD9068286 Si02
#       4
#     2   2   2   2
#     4  11  27  49  79 121 161 220 277 340 418 505
#     4  11  26  48  81 110 169 212 278 335 421 487
#     4  12  27  49  78 122 164 216 277 343 419 496
#     4  12  27  48  80 121 164 215 275 344 418 497
#
# _framework density 27.378166
#
# number of rings (size 3 to 8) (size 9 to 14) (size 15 to 20)
#    0.000    0.500    2.500    3.750    3.500    7.000 
#    0.000    0.000    0.000    0.000    0.000    0.000 
#    0.000    0.000    0.000    0.000    0.000    0.000 
#
# Total GULP energy -44757.803227 kJ/mol
# GULP energy per Si atom -5594.725403 kJ/mol
# Density = 2.731585 g / cm^3
# Si number density = 27.378166 Si / 1000 Ang^3
#
#
#
# Elastic Constant Matrix: (Units=GPa)
#
#
# Indices 1 2 3 4 5 6 
#
# 1 214.5143 93.9946 49.5161 -5.3439 -20.0455 11.1070
# 2 93.9946 218.4977 69.1964 -7.2756 -30.7024 -5.5924
# 3 49.5161 69.1964 139.0295 7.6119 -31.1953 8.8342
# 4 -5.3439 -7.2756 7.6119 66.1468 6.4933 -26.5089
# 5 -20.0455 -30.7024 -31.1953 6.4933 48.2890 -6.5054
# 6 11.1070 -5.5924 8.8342 -26.5089 -6.5054 102.7335
#
#
#
# Elastic Compliance Matrix: (Units=1/GPa)
#
#
# Indices 1 2 3 4 5 6 
#
# 1 0.005909 -0.002228 -0.000870 0.000033 0.000382 -0.000653
# 2 -0.002228 0.006554 -0.002190 0.001086 0.001841 0.001183
# 3 -0.000870 -0.002190 0.009873 -0.002394 0.004786 -0.001189
# 4 0.000033 0.001086 -0.002394 0.017632 -0.002587 0.004647
# 5 0.000382 0.001841 0.004786 -0.002587 0.025558 0.000598
# 6 -0.000653 0.001183 -0.001189 0.004647 0.000598 0.011208
#
#
# Mechanical properties :
#
#
# Convention : Reuss Voigt Hill
#
# Bulk Modulus (GPa) = 85.04076 110.82840 97.93458
# Shear Modulus (GPa) = 54.80592 67.38948 61.09770
#
# Velocity S-wave (km/s) = 4.47901 4.96666 4.72913
# Velocity P-wave (km/s) = 7.60774 8.57081 8.10360
#
# Compressibility (1/GPa) = 0.01175907
#
# Stress axis : x y z
#
# Youngs Moduli (GPa) = 169.22456 152.57924 101.28492
#
# Poissons Ratio (x) = 0.34002 0.08814
# Poissons Ratio (y) = 0.37711 0.22181
# Poissons Ratio (z) = 0.14727 0.33414
#
# Static dielectric constant tensor:
#      x y z
#    x 2.127000 -0.022610 0.007410 
#    y -0.022610 2.269330 -0.066320 
#    z 0.007410 -0.066320 2.228340 
# 
# From -- ./inp_files/2057.got.cif
#   From: 2010.05.17/outbox.cif.g08.bks.cpg/sg2_2_cif.got.tgz:2057.got - 2010.06.03 11:33:40.
