data_PCOD9068885
_publ_section_title
;
Structure prediction by ZEFSAII (Michael W. Deem and Ramdas Pophale) SiO2 
 PCOD9068885
Probable space group: P -1
;
_chemical_formula_sum "Si O2"
_cell_formula_units_Z 15
_cell_length_a 9.900381
_cell_length_b 9.916922
_cell_length_c 12.424147
_cell_angle_alpha 41.213791
_cell_angle_beta 60.423411
_cell_angle_gamma 80.516882
_cell_volume 651.990199
_symmetry_space_group_name_H-M "P -1"
_symmetry_group_IT_number 2
_symmetry_cell_setting 'triclinic'
loop_
_space_group_symop_operation_xyz
x,y,z
-x,-y,-z
loop_
_atom_site_type_symbol
_atom_site_label
_atom_site_fract_x
_atom_site_fract_y
_atom_site_fract_z
Si Si1 0.127375 0.739363 0.839143
Si Si2 0.089136 0.634952 0.490421
Si Si3 0.502629 0.515483 0.821606
Si Si4 0.636463 0.567471 0.497869
Si Si5 0.191693 0.038598 0.923562
Si Si6 0.184584 0.134746 0.105873
Si Si7 0.218799 0.609276 0.113439
Si Si8 0.500000 0.000000 0.500000
O O1 0.004335 0.874981 0.806667
O O2 0.297192 0.864378 0.633794
O O3 0.187679 0.695034 0.959335
O O4 0.000000 0.500000 0.000000
O O5 0.222656 0.526939 0.533187
O O6 0.000000 0.500000 0.500000
O O7 0.945136 0.586178 0.665110
O O8 0.178654 0.893439 0.283167
O O9 0.578507 0.502202 0.680555
O O10 0.620425 0.453127 0.896478
O O11 0.512138 0.764019 0.675172
O O12 0.316728 0.331686 0.002346
O O13 0.500000 0.500000 0.500000
O O14 0.710709 0.829995 0.297022
O O15 0.234754 0.171110 0.938329
O O16 0.229868 0.819120 0.056205
O O17 0.000000 0.000000 0.000000
#
# Coordination Sequence:
#
# PCOD9068885 Si02
#       8
#     2   2   2   2   2   2   2   1
#     4  12  27  54  78 105 139 197 254 310 363 435
#     4  12  23  42  68 109 152 191 231 292 372 447
#     4  12  27  47  69 109 146 191 249 310 356 437
#     4  12  24  39  66 105 144 186 233 288 365 437
#     4  12  21  39  72 106 143 191 232 288 370 444
#     4  12  24  46  72 104 153 190 240 302 370 443
#     4  12  26  45  77 107 147 187 241 305 371 435
#     4  12  28  52  82  96 144 198 258 308 366 414
#
# _framework density 23.006481000000001
#
# number of rings (size 3 to 8) (size 9 to 14) (size 15 to 20)
#    0.000    0.000    8.000    1.600    1.867    1.600 
#    2.400    1.333    0.000    0.000    0.000    0.000 
#    0.000    0.000    0.000    0.000    0.000    0.000 
#
# Total GULP energy -83640.892174 kJ/mol
# GULP energy per Si atom -5576.059478 kJ/mol
# Density = 2.295412 g / cm^3
# Si number density = 23.006481 Si / 1000 Ang^3
#
#
#
# Elastic Constant Matrix: (Units=GPa)
#
#
# Indices 1 2 3 4 5 6 
#
# 1 174.4604 28.8770 51.4278 -25.3593 1.3278 -17.9208
# 2 28.8770 30.1272 13.7915 -22.4026 -0.6460 -9.1529
# 3 51.4278 13.7915 132.8001 -36.4484 -13.5429 -5.7274
# 4 -25.3593 -22.4026 -36.4484 43.6429 -7.5712 0.3259
# 5 1.3278 -0.6460 -13.5429 -7.5712 45.8732 -6.5871
# 6 -17.9208 -9.1529 -5.7274 0.3259 -6.5871 36.0282
#
#
#
# Elastic Compliance Matrix: (Units=1/GPa)
#
#
# Indices 1 2 3 4 5 6 
#
# 1 0.007583 -0.006774 -0.002718 -0.001554 -0.001170 0.001419
# 2 -0.006774 0.074647 0.009355 0.044500 0.014119 0.019261
# 3 -0.002718 0.009355 0.012602 0.014929 0.006994 0.004172
# 4 -0.001554 0.044500 0.014929 0.060196 0.017242 0.015513
# 5 -0.001170 0.014119 0.006994 0.017242 0.028253 0.009126
# 6 0.001419 0.019261 0.004172 0.015513 0.009126 0.035546
#
#
# Mechanical properties :
#
#
# Convention : Reuss Voigt Hill
#
# Bulk Modulus (GPa) = 10.57545 58.39783 34.48664
# Shear Modulus (GPa) = 19.95046 41.32827 30.63937
#
# Velocity S-wave (km/s) = 2.94796 4.24296 3.65330
# Velocity P-wave (km/s) = 4.02418 7.03150 5.72870
#
# Compressibility (1/GPa) = 0.09455863
#
# Stress axis : x y z
#
# Youngs Moduli (GPa) = 131.87174 13.39631 79.35425
#
# Poissons Ratio (x) = 0.09075 0.21567
# Poissons Ratio (y) = 0.89330 -0.74236
# Poissons Ratio (z) = 0.35841 -0.12532
#
# Static dielectric constant tensor:
#      x y z
#    x 1.820730 0.007960 -0.049860 
#    y 0.007960 1.953480 0.000660 
#    z -0.049860 0.000660 1.879860 
# 
# From -- ./inp_files/499661.got.cif
#   From: 2010.05.17/outbox.cif.g08.bks.cpg/sg2_250_cif.got.tgz:499661.got - 2010.06.03 11:33:40.
