data_PCOD9068439
_publ_section_title
;
Structure prediction by ZEFSAII (Michael W. Deem and Ramdas Pophale) SiO2 
 PCOD9068439
Probable space group: P -1
;
_chemical_formula_sum "Si O2"
_cell_formula_units_Z 12
_cell_length_a 17.033026
_cell_length_b 5.177378
_cell_length_c 9.219770
_cell_angle_alpha 112.910503
_cell_angle_beta 47.140397
_cell_angle_gamma 118.537253
_cell_volume 520.961671
_symmetry_space_group_name_H-M "P -1"
_symmetry_group_IT_number 2
_symmetry_cell_setting 'triclinic'
loop_
_space_group_symop_operation_xyz
x,y,z
-x,-y,-z
loop_
_atom_site_type_symbol
_atom_site_label
_atom_site_fract_x
_atom_site_fract_y
_atom_site_fract_z
Si Si1 0.596023 0.795150 0.502289
Si Si2 0.249417 0.134960 0.946718
Si Si3 0.000804 0.178895 0.890215
Si Si4 0.577117 0.287944 0.831911
Si Si5 0.234007 0.227401 0.458287
Si Si6 0.708521 0.188164 0.902809
O O1 0.500000 0.500000 0.500000
O O2 0.674845 0.737566 0.519108
O O3 0.547003 0.040198 0.688430
O O4 0.682757 0.922218 0.290094
O O5 0.259248 0.478611 0.011481
O O6 0.302831 0.024834 0.993143
O O7 0.116466 0.969286 0.076447
O O8 0.000000 0.500000 0.000000
O O9 0.114914 0.219665 0.668135
O O10 0.000000 0.000000 0.000000
O O11 0.700395 0.507431 0.673011
O O12 0.602807 0.159618 0.924869
O O13 0.500000 0.500000 0.000000
O O14 0.213245 0.922829 0.329448
#
# Coordination Sequence:
#
# PCOD9068439 Si02
#       6
#     2   2   2   2   2   2
#     4  11  28  46  80 114 152 202 264 316 381 457
#     4  12  26  50  78 117 153 196 261 319 379 456
#     4  12  26  48  80 113 153 196 252 320 384 451
#     4  11  27  53  77 108 161 209 254 315 388 458
#     4  11  26  50  78 112 154 205 253 311 390 458
#     4  11  27  49  77 112 159 196 255 315 388 452
#
# _framework density 23.034324999999999
#
# number of rings (size 3 to 8) (size 9 to 14) (size 15 to 20)
#    0.000    0.667    3.333    2.000    9.333    3.333 
#    0.000    3.333    0.000    0.000    0.000    0.000 
#    0.000    0.000    0.000    0.000    0.000    0.000 
#
# Total GULP energy -67158.175834 kJ/mol
# GULP energy per Si atom -5596.514653 kJ/mol
# Density = 2.298190 g / cm^3
# Si number density = 23.034325 Si / 1000 Ang^3
#
#
#
# Elastic Constant Matrix: (Units=GPa)
#
#
# Indices 1 2 3 4 5 6 
#
# 1 94.9509 21.0390 48.4284 -9.3990 1.3630 -11.5520
# 2 21.0390 105.1935 59.1872 22.9669 -3.5769 -1.4472
# 3 48.4284 59.1872 196.0404 15.2943 -20.3670 0.4054
# 4 -9.3990 22.9669 15.2943 50.0501 4.1088 -2.0193
# 5 1.3630 -3.5769 -20.3670 4.1088 46.1887 -8.8967
# 6 -11.5520 -1.4472 0.4054 -2.0193 -8.8967 51.8344
#
#
#
# Elastic Compliance Matrix: (Units=1/GPa)
#
#
# Indices 1 2 3 4 5 6 
#
# 1 0.013480 -0.001867 -0.003332 0.004675 -0.001881 0.002837
# 2 -0.001867 0.012694 -0.002939 -0.005300 0.000172 -0.000216
# 3 -0.003332 -0.002939 0.007279 -0.001777 0.003160 -0.000409
# 4 0.004675 -0.005300 -0.001777 0.024151 -0.003231 0.001294
# 5 -0.001881 0.000172 0.003160 -0.003231 0.024088 0.003569
# 6 0.002837 -0.000216 -0.000409 0.001294 0.003569 0.020585
#
#
# Mechanical properties :
#
#
# Convention : Reuss Voigt Hill
#
# Bulk Modulus (GPa) = 58.22138 72.61047 65.41592
# Shear Modulus (GPa) = 40.23223 47.44997 43.84110
#
# Velocity S-wave (km/s) = 4.18379 4.54361 4.36741
# Velocity P-wave (km/s) = 6.97636 7.68876 7.34121
#
# Compressibility (1/GPa) = 0.01717582
#
# Stress axis : x y z
#
# Youngs Moduli (GPa) = 74.18354 78.78038 137.37236
#
# Poissons Ratio (x) = 0.14706 0.45779
# Poissons Ratio (y) = 0.13848 0.40380
# Poissons Ratio (z) = 0.24722 0.23157
#
# Static dielectric constant tensor:
#      x y z
#    x 1.830670 0.001840 0.040970 
#    y 0.001840 1.896120 -0.012580 
#    z 0.040970 -0.012580 1.817320 
# 
# From -- ./inp_files/324042.got.cif
#   From: 2010.05.17/outbox.cif.g08.bks.cpg/sg2_163_cif.got.tgz:324042.got - 2010.06.03 11:33:40.
