data_PCOD9068142
_publ_section_title
;
Structure prediction by ZEFSAII (Michael W. Deem and Ramdas Pophale) SiO2 
 PCOD9068142
Probable space group: P -1
;
_chemical_formula_sum "Si O2"
_cell_formula_units_Z 11
_cell_length_a 9.015531
_cell_length_b 9.797174
_cell_length_c 5.368895
_cell_angle_alpha 94.095458
_cell_angle_beta 87.751640
_cell_angle_gamma 70.771083
_cell_volume 445.624601
_symmetry_space_group_name_H-M "P -1"
_symmetry_group_IT_number 2
_symmetry_cell_setting 'triclinic'
loop_
_space_group_symop_operation_xyz
x,y,z
-x,-y,-z
loop_
_atom_site_type_symbol
_atom_site_label
_atom_site_fract_x
_atom_site_fract_y
_atom_site_fract_z
Si Si1 0.993133 0.092629 0.759917
Si Si2 0.642238 0.211503 0.831534
Si Si3 0.611043 0.351054 0.363118
Si Si4 0.500000 0.000000 0.000000
Si Si5 0.085992 0.567989 0.704704
Si Si6 0.196894 0.264670 0.917840
O O1 0.820941 0.210976 0.806776
O O2 0.127735 0.166088 0.734608
O O3 0.000000 0.000000 0.500000
O O4 0.000000 0.000000 0.000000
O O5 0.586979 0.236825 0.550932
O O6 0.572967 0.321074 0.079686
O O7 0.640729 0.055640 0.898922
O O8 0.500000 0.500000 0.500000
O O9 0.786164 0.358675 0.364719
O O10 0.628840 0.836514 0.036381
O O11 0.184511 0.423207 0.835562
O O12 0.000000 0.500000 0.500000
O O13 0.939521 0.687649 0.859694
#
# Coordination Sequence:
#
# PCOD9068142 Si02
#       6
#     2   2   2   1   2   2
#     4  12  25  48  76 107 149 200 252 311 383 457
#     4  12  27  48  73 109 149 198 252 314 380 455
#     4  12  27  49  76 107 151 200 253 311 383 453
#     4  12  28  48  74 112 156 200 250 320 386 450
#     4  11  26  47  79 110 149 202 258 319 378 458
#     4  11  26  49  74 115 153 199 260 316 386 460
#
# _framework density 24.684453000000001
#
# number of rings (size 3 to 8) (size 9 to 14) (size 15 to 20)
#    0.000    0.364    3.636    3.818    7.636    0.727 
#    0.000    0.000    0.000    0.000    0.000    0.000 
#    0.000    0.000    0.000    0.000    0.000    0.000 
#
# Total GULP energy -61244.116422 kJ/mol
# GULP energy per Si atom -5567.646947 kJ/mol
# Density = 2.462827 g / cm^3
# Si number density = 24.684453 Si / 1000 Ang^3
#
#
#
# Elastic Constant Matrix: (Units=GPa)
#
#
# Indices 1 2 3 4 5 6 
#
# 1 101.4248 21.4610 31.2179 4.2372 3.8634 4.3023
# 2 21.4610 92.9206 38.3962 -8.5630 -5.0242 -7.9140
# 3 31.2179 38.3962 130.9714 16.0401 -13.8765 -2.4812
# 4 4.2372 -8.5630 16.0401 43.8125 8.9933 -5.2888
# 5 3.8634 -5.0242 -13.8765 8.9933 21.8444 0.6969
# 6 4.3023 -7.9140 -2.4812 -5.2888 0.6969 64.8857
#
#
#
# Elastic Compliance Matrix: (Units=1/GPa)
#
#
# Indices 1 2 3 4 5 6 
#
# 1 0.011242 -0.001788 -0.002648 0.000266 -0.004159 -0.000998
# 2 -0.001788 0.013467 -0.004221 0.004867 -0.001336 0.002011
# 3 -0.002648 -0.004221 0.011321 -0.006726 0.009476 -0.000556
# 4 0.000266 0.004867 -0.006726 0.029754 -0.015543 0.002911
# 5 -0.004159 -0.001336 0.009476 -0.015543 0.058670 -0.001422
# 6 -0.000998 0.002011 -0.000556 0.002911 -0.001422 0.015954
#
#
# Mechanical properties :
#
#
# Convention : Reuss Voigt Hill
#
# Bulk Modulus (GPa) = 53.42948 56.38523 54.90736
# Shear Modulus (GPa) = 30.49486 41.72463 36.10974
#
# Velocity S-wave (km/s) = 3.51862 4.11581 3.82888
# Velocity P-wave (km/s) = 6.18058 6.74378 6.46831
#
# Compressibility (1/GPa) = 0.01871626
#
# Stress axis : x y z
#
# Youngs Moduli (GPa) = 88.94865 74.25719 88.33098
#
# Poissons Ratio (x) = 0.13277 0.23387
# Poissons Ratio (y) = 0.15903 0.37288
# Poissons Ratio (z) = 0.23551 0.31347
#
# Static dielectric constant tensor:
#      x y z
#    x 2.371840 0.296520 -0.058990 
#    y 0.296520 2.239050 -0.108990 
#    z -0.058990 -0.108990 2.059470 
# 
# From -- ./inp_files/17699.got.cif
#   From: 2010.05.17/outbox.cif.g08.bks.cpg/sg2_9_cif.got.tgz:17699.got - 2010.06.03 11:33:40.
