data_PCOD9068406
_publ_section_title
;
Structure prediction by ZEFSAII (Michael W. Deem and Ramdas Pophale) SiO2 
 PCOD9068406
Probable space group: P -1
;
_chemical_formula_sum "Si O2"
_cell_formula_units_Z 14
_cell_length_a 8.464783
_cell_length_b 13.261409
_cell_length_c 8.776891
_cell_angle_alpha 65.772354
_cell_angle_beta 47.873833
_cell_angle_gamma 58.542258
_cell_volume 620.492038
_symmetry_space_group_name_H-M "P -1"
_symmetry_group_IT_number 2
_symmetry_cell_setting 'triclinic'
loop_
_space_group_symop_operation_xyz
x,y,z
-x,-y,-z
loop_
_atom_site_type_symbol
_atom_site_label
_atom_site_fract_x
_atom_site_fract_y
_atom_site_fract_z
Si Si1 0.302587 0.241283 0.673240
Si Si2 0.784829 0.521069 0.230912
Si Si3 0.379337 0.255368 0.270733
Si Si4 0.083546 0.870581 0.951843
Si Si5 0.897623 0.296915 0.511917
Si Si6 0.191697 0.887411 0.523134
Si Si7 0.510729 0.423311 0.890392
O O1 0.279034 0.348815 0.735924
O O2 0.324308 0.293420 0.459194
O O3 0.541748 0.128702 0.614652
O O4 0.089783 0.196715 0.852496
O O5 0.854223 0.418634 0.374856
O O6 0.596964 0.511519 0.237390
O O7 0.000000 0.500000 0.000000
O O8 0.649109 0.182902 0.140458
O O9 0.362701 0.348065 0.090281
O O10 0.166019 0.215422 0.401349
O O11 0.093877 0.874226 0.759737
O O12 0.000000 0.000000 0.000000
O O13 0.786069 0.221916 0.533125
O O14 0.765303 0.338603 0.730497
O O15 0.000000 0.000000 0.500000
O O16 0.500000 0.500000 0.000000
#
# Coordination Sequence:
#
# PCOD9068406 Si02
#       7
#     2   2   2   2   2   2   2
#     4  11  26  50  74 105 151 192 243 303 373 441
#     4  12  25  45  72 107 151 194 237 300 373 436
#     4  11  27  44  71 105 145 189 246 294 371 423
#     4  11  28  48  75 103 144 194 249 307 362 433
#     4  12  26  47  74 107 155 192 243 303 367 440
#     4  11  28  47  76 108 143 194 249 305 366 430
#     4  12  27  43  74 107 149 194 246 295 367 442
#
# _framework density 22.562740000000002
#
# number of rings (size 3 to 8) (size 9 to 14) (size 15 to 20)
#    0.000    0.571    2.857    3.000   14.000    2.857 
#    0.000    0.000    0.000    0.000    0.000    0.000 
#    0.000    0.000    0.000    0.000    0.000    0.000 
#
# Total GULP energy -78121.488150 kJ/mol
# GULP energy per Si atom -5580.106296 kJ/mol
# Density = 2.251139 g / cm^3
# Si number density = 22.562740 Si / 1000 Ang^3
#
#
#
# Elastic Constant Matrix: (Units=GPa)
#
#
# Indices 1 2 3 4 5 6 
#
# 1 126.0839 41.9838 56.9829 10.6311 -14.8221 -19.6011
# 2 41.9838 99.7941 54.1616 19.3938 -1.1046 3.7165
# 3 56.9829 54.1616 147.2122 25.8136 -10.5111 -13.2601
# 4 10.6311 19.3938 25.8136 27.7158 -4.5012 2.8266
# 5 -14.8221 -1.1046 -10.5111 -4.5012 45.3569 5.0827
# 6 -19.6011 3.7165 -13.2601 2.8266 5.0827 39.9170
#
#
#
# Elastic Compliance Matrix: (Units=1/GPa)
#
#
# Indices 1 2 3 4 5 6 
#
# 1 0.011251 -0.003611 -0.002510 0.000484 0.002532 0.004671
# 2 -0.003611 0.014611 -0.003466 -0.005523 -0.001764 -0.003669
# 3 -0.002510 -0.003466 0.010506 -0.006613 0.000540 0.002980
# 4 0.000484 -0.005523 -0.006613 0.047065 0.003751 -0.005255
# 5 0.002532 -0.001764 0.000540 0.003751 0.023517 -0.001673
# 6 0.004671 -0.003669 0.002980 -0.005255 -0.001673 0.029262
#
#
# Mechanical properties :
#
#
# Convention : Reuss Voigt Hill
#
# Bulk Modulus (GPa) = 58.15665 75.48297 66.81981
# Shear Modulus (GPa) = 31.03336 37.26206 34.14771
#
# Velocity S-wave (km/s) = 3.71270 4.06826 3.89454
# Velocity P-wave (km/s) = 6.64908 7.45620 7.06418
#
# Compressibility (1/GPa) = 0.01719494
#
# Stress axis : x y z
#
# Youngs Moduli (GPa) = 88.88215 68.43955 95.18190
#
# Poissons Ratio (x) = 0.24714 0.23888
# Poissons Ratio (y) = 0.32096 0.32990
# Poissons Ratio (z) = 0.22307 0.23721
#
# Static dielectric constant tensor:
#      x y z
#    x 1.917780 -0.147450 -0.048490 
#    y -0.147450 1.694440 -0.005790 
#    z -0.048490 -0.005790 1.810970 
# 
# From -- ./inp_files/184617.got.cif
#   From: 2010.05.17/outbox.cif.g08.bks.cpg/sg2_93_cif.got.tgz:184617.got - 2010.06.03 11:33:40.
