data_PCOD9068100
_publ_section_title
;
Structure prediction by ZEFSAII (Michael W. Deem and Ramdas Pophale) SiO2 
 PCOD9068100
Probable space group: P -1
;
_chemical_formula_sum "Si O2"
_cell_formula_units_Z 13
_cell_length_a 9.471086
_cell_length_b 8.802143
_cell_length_c 8.870025
_cell_angle_alpha 57.191754
_cell_angle_beta 75.715421
_cell_angle_gamma 77.968857
_cell_volume 599.747814
_symmetry_space_group_name_H-M "P -1"
_symmetry_group_IT_number 2
_symmetry_cell_setting 'triclinic'
loop_
_space_group_symop_operation_xyz
x,y,z
-x,-y,-z
loop_
_atom_site_type_symbol
_atom_site_label
_atom_site_fract_x
_atom_site_fract_y
_atom_site_fract_z
Si Si1 0.439970 0.318537 0.671038
Si Si2 0.092050 0.175505 0.394786
Si Si3 0.000000 0.500000 0.000000
Si Si4 0.460329 0.662986 0.037594
Si Si5 0.145854 0.756884 0.022375
Si Si6 0.573836 0.978315 0.655365
Si Si7 0.867768 0.814382 0.275662
O O1 0.500000 0.500000 0.500000
O O2 0.441208 0.333351 0.842778
O O3 0.280666 0.273689 0.680313
O O4 0.553412 0.160604 0.659308
O O5 0.260061 0.102704 0.358170
O O6 0.085728 0.233941 0.540329
O O7 0.000000 0.000000 0.500000
O O8 0.046609 0.338751 0.204262
O O9 0.871891 0.377113 0.039197
O O10 0.289493 0.681959 0.116262
O O11 0.500000 0.500000 0.000000
O O12 0.484037 0.840182 0.842801
O O13 0.996689 0.751742 0.159090
O O14 0.154762 0.965664 0.856242
O O15 0.500000 0.000000 0.500000
#
# Coordination Sequence:
#
# PCOD9068100 Si02
#       7
#     2   2   1   2   2   2   2
#     4  12  28  47  74 114 153 205 257 319 397 467
#     4  12  27  49  78 112 156 206 254 326 386 468
#     4  12  28  46  78 114 148 206 264 306 396 462
#     4  12  27  47  73 108 151 201 259 318 384 463
#     4  11  26  47  76 109 150 199 256 320 381 470
#     4  12  25  49  77 108 156 200 256 321 395 459
#     4  11  26  50  74 109 155 198 253 322 394 455
#
# _framework density 21.675777
#
# number of rings (size 3 to 8) (size 9 to 14) (size 15 to 20)
#    0.000    0.308    4.615    2.308    8.615    1.846 
#    0.000    0.000    0.000    0.000    0.000    0.000 
#    0.000    0.000    0.000    0.000    0.000    0.000 
#
# Total GULP energy -72482.442416 kJ/mol
# GULP energy per Si atom -5575.572494 kJ/mol
# Density = 2.162644 g / cm^3
# Si number density = 21.675777 Si / 1000 Ang^3
#
#
#
# Elastic Constant Matrix: (Units=GPa)
#
#
# Indices 1 2 3 4 5 6 
#
# 1 127.0193 7.1669 51.4897 -3.5426 7.9239 18.9575
# 2 7.1669 70.4378 35.6273 -22.9719 18.2044 16.0207
# 3 51.4897 35.6273 134.6331 -11.5971 24.4925 5.3097
# 4 -3.5426 -22.9719 -11.5971 38.1315 7.8116 -0.9422
# 5 7.9239 18.2044 24.4925 7.8116 43.6799 7.8702
# 6 18.9575 16.0207 5.3097 -0.9422 7.8702 43.3188
#
#
#
# Elastic Compliance Matrix: (Units=1/GPa)
#
#
# Indices 1 2 3 4 5 6 
#
# 1 0.010239 0.002537 -0.004351 0.000987 0.000232 -0.004906
# 2 0.002537 0.025969 -0.004201 0.016549 -0.010456 -0.007940
# 3 -0.004351 -0.004201 0.011010 0.001389 -0.004411 0.002940
# 4 0.000987 0.016549 0.001389 0.039567 -0.014344 -0.003256
# 5 0.000232 -0.010456 -0.004411 -0.014344 0.032596 -0.001928
# 6 -0.004906 -0.007940 0.002940 -0.003256 -0.001928 0.028087
#
#
# Mechanical properties :
#
#
# Convention : Reuss Voigt Hill
#
# Bulk Modulus (GPa) = 28.42002 57.85088 43.13545
# Shear Modulus (GPa) = 29.20101 40.87980 35.04040
#
# Velocity S-wave (km/s) = 3.67437 4.34748 4.02502
# Velocity P-wave (km/s) = 5.58043 7.20749 6.44551
#
# Compressibility (1/GPa) = 0.03518646
#
# Stress axis : x y z
#
# Youngs Moduli (GPa) = 97.66923 38.50725 90.83035
#
# Poissons Ratio (x) = -0.09768 0.39518
# Poissons Ratio (y) = -0.24776 0.38162
# Poissons Ratio (z) = 0.42493 0.16178
#
# Static dielectric constant tensor:
#      x y z
#    x 1.780030 -0.009140 -0.018400 
#    y -0.009140 1.796760 0.021740 
#    z -0.018400 0.021740 1.759520 
# 
# From -- ./inp_files/154398.got.cif
#   From: 2010.05.17/outbox.cif.g08.bks.cpg/sg2_78_cif.got.tgz:154398.got - 2010.06.03 11:33:40.
