data_PCOD9068966
_publ_section_title
;
Structure prediction by ZEFSAII (Michael W. Deem and Ramdas Pophale) SiO2 
 PCOD9068966
Probable space group: P -1
;
_chemical_formula_sum "Si O2"
_cell_formula_units_Z 16
_cell_length_a 11.560438
_cell_length_b 18.065860
_cell_length_c 9.698110
_cell_angle_alpha 51.780733
_cell_angle_beta 59.483912
_cell_angle_gamma 28.423249
_cell_volume 753.842731
_symmetry_space_group_name_H-M "P -1"
_symmetry_group_IT_number 2
_symmetry_cell_setting 'triclinic'
loop_
_space_group_symop_operation_xyz
x,y,z
-x,-y,-z
loop_
_atom_site_type_symbol
_atom_site_label
_atom_site_fract_x
_atom_site_fract_y
_atom_site_fract_z
Si Si1 0.969942 0.938657 0.293933
Si Si2 0.104626 0.126096 0.852617
Si Si3 0.421275 0.497168 0.190580
Si Si4 0.692521 0.824515 0.499807
Si Si5 0.715271 0.391909 0.382546
Si Si6 0.627023 0.149904 0.783181
Si Si7 0.555031 0.214893 0.429722
Si Si8 0.118675 0.499650 0.815766
O O1 0.043383 0.796496 0.483157
O O2 0.217193 0.854136 0.244280
O O3 0.866246 0.972206 0.168691
O O4 0.778682 0.102644 0.319081
O O5 0.205425 0.164159 0.688766
O O6 0.817974 0.309283 0.835310
O O7 0.240482 0.016442 0.035611
O O8 0.632937 0.386539 0.302276
O O9 0.383429 0.407389 0.304755
O O10 0.500000 0.500000 0.000000
O O11 0.567303 0.807950 0.525528
O O12 0.908609 0.657630 0.656928
O O13 0.500000 0.000000 0.500000
O O14 0.500000 0.500000 0.500000
O O15 0.766076 0.470937 0.228828
O O16 0.637927 0.150470 0.611112
O O17 0.346181 0.319091 0.806471
O O18 0.000000 0.500000 0.000000
#
# Coordination Sequence:
#
# PCOD9068966 Si02
#       8
#     2   2   2   2   2   2   2   2
#     4  12  23  45  78 102 142 190 243 296 353 427
#     4  12  25  46  73 102 145 192 234 291 356 438
#     4  12  27  44  69 110 145 182 237 301 362 412
#     4  12  25  50  72 101 144 193 240 286 364 440
#     4  12  21  46  74 102 143 189 241 297 353 422
#     4  12  26  44  72 111 141 183 246 299 361 415
#     4  12  27  46  74 105 145 186 236 306 359 423
#     4  12  26  44  75 107 146 193 244 292 352 439
#
# _framework density 21.224588000000001
#
# number of rings (size 3 to 8) (size 9 to 14) (size 15 to 20)
#    0.000    0.000    6.250    3.000    3.500    2.500 
#    0.000    0.000    0.000    0.000    0.000    0.000 
#    0.000    0.000    0.000    0.000    0.000    0.000 
#
# Total GULP energy -89538.426920 kJ/mol
# GULP energy per Si atom -5596.151682 kJ/mol
# Density = 2.117628 g / cm^3
# Si number density = 21.224588 Si / 1000 Ang^3
#
#
#
# Elastic Constant Matrix: (Units=GPa)
#
#
# Indices 1 2 3 4 5 6 
#
# 1 110.4821 10.0512 44.2593 4.9763 -12.3149 2.8884
# 2 10.0512 73.4435 29.6005 3.1189 8.2063 -3.7494
# 3 44.2593 29.6005 143.0725 0.2436 -7.7431 3.4897
# 4 4.9763 3.1189 0.2436 36.8778 -5.4155 -0.6644
# 5 -12.3149 8.2063 -7.7431 -5.4155 35.9310 2.9539
# 6 2.8884 -3.7494 3.4897 -0.6644 2.9539 30.4211
#
#
#
# Elastic Compliance Matrix: (Units=1/GPa)
#
#
# Indices 1 2 3 4 5 6 
#
# 1 0.010725 -0.000626 -0.002991 -0.000935 0.003122 -0.001076
# 2 -0.000626 0.015886 -0.003436 -0.001935 -0.005111 0.002866
# 3 -0.002991 -0.003436 0.008758 0.000890 0.001889 -0.001308
# 4 -0.000935 -0.001935 0.000890 0.028067 0.004550 -0.000081
# 5 0.003122 -0.005111 0.001889 0.004550 0.031498 -0.004102
# 6 -0.001076 0.002866 -0.001308 -0.000081 -0.004102 0.033874
#
#
# Mechanical properties :
#
#
# Convention : Reuss Voigt Hill
#
# Bulk Modulus (GPa) = 47.03266 54.97999 51.00633
# Shear Modulus (GPa) = 33.33258 36.85177 35.09218
#
# Velocity S-wave (km/s) = 3.96722 4.17139 4.07058
# Velocity P-wave (km/s) = 6.57211 7.01147 6.79535
#
# Compressibility (1/GPa) = 0.02126182
#
# Stress axis : x y z
#
# Youngs Moduli (GPa) = 93.24213 62.94838 114.17647
#
# Poissons Ratio (x) = 0.03941 0.34155
# Poissons Ratio (y) = 0.05838 0.39233
# Poissons Ratio (z) = 0.27892 0.21630
#
# Static dielectric constant tensor:
#      x y z
#    x 1.771030 -0.005350 -0.001630 
#    y -0.005350 1.881380 -0.028900 
#    z -0.001630 -0.028900 1.774650 
# 
# From -- ./inp_files/262507.got.cif
#   From: 2010.05.17/outbox.cif.g08.bks.cpg/sg2_132_cif.got.tgz:262507.got - 2010.06.03 11:33:40.
