data_PCOD9068563
_publ_section_title
;
Structure prediction by ZEFSAII (Michael W. Deem and Ramdas Pophale) SiO2 
 PCOD9068563
Probable space group: P -1
;
_chemical_formula_sum "Si O2"
_cell_formula_units_Z 15
_cell_length_a 9.123419
_cell_length_b 20.915910
_cell_length_c 8.986969
_cell_angle_alpha 44.714123
_cell_angle_beta 123.296609
_cell_angle_gamma 149.332740
_cell_volume 606.080980
_symmetry_space_group_name_H-M "P -1"
_symmetry_group_IT_number 2
_symmetry_cell_setting 'triclinic'
loop_
_space_group_symop_operation_xyz
x,y,z
-x,-y,-z
loop_
_atom_site_type_symbol
_atom_site_label
_atom_site_fract_x
_atom_site_fract_y
_atom_site_fract_z
Si Si1 0.001386 0.211183 0.948094
Si Si2 0.764319 0.544433 0.534352
Si Si3 0.243097 0.038535 0.997341
Si Si4 0.244868 0.758400 0.699808
Si Si5 0.660629 0.076125 0.286055
Si Si6 0.448597 0.583309 0.890893
Si Si7 0.000000 0.500000 0.000000
Si Si8 0.648969 0.351190 0.567241
O O1 0.304120 0.307354 0.028804
O O2 0.793348 0.132736 0.104185
O O3 0.038945 0.320896 0.698826
O O4 0.895728 0.094194 0.966254
O O5 0.500000 0.500000 0.500000
O O6 0.610801 0.397900 0.612600
O O7 0.976036 0.608924 0.685768
O O8 0.481003 0.190861 0.780512
O O9 0.412837 0.051285 0.195513
O O10 0.000000 0.000000 0.000000
O O11 0.134357 0.794512 0.686035
O O12 0.311477 0.684281 0.908901
O O13 0.502103 0.915351 0.494434
O O14 0.158413 0.501339 0.944742
O O15 0.482690 0.658950 0.637749
O O16 0.500000 0.500000 0.000000
O O17 0.000000 0.500000 0.500000
#
# Coordination Sequence:
#
# PCOD9068563 Si02
#       8
#     2   2   2   2   2   2   1   2
#     4  12  26  49  81 107 151 208 263 320 402 484
#     4  12  25  46  76 108 149 200 257 319 396 474
#     4  12  29  48  77 115 154 207 269 336 404 482
#     4  11  27  46  76 111 150 204 256 322 400 471
#     4  11  27  49  77 106 159 205 257 330 404 475
#     4  12  28  51  81 122 159 212 267 335 410 480
#     4  12  28  46  80 114 160 202 272 324 396 480
#     4  12  29  49  78 115 161 203 269 340 400 480
#
# _framework density 24.749167
#
# number of rings (size 3 to 8) (size 9 to 14) (size 15 to 20)
#    0.000    0.267    2.667    4.400   11.200    1.600 
#    0.000    0.000    0.000    0.000    0.000    0.000 
#    0.000    0.000    0.000    0.000    0.000    0.000 
#
# Total GULP energy -83699.356757 kJ/mol
# GULP energy per Si atom -5579.957117 kJ/mol
# Density = 2.469284 g / cm^3
# Si number density = 24.749167 Si / 1000 Ang^3
#
#
#
# Elastic Constant Matrix: (Units=GPa)
#
#
# Indices 1 2 3 4 5 6 
#
# 1 116.4758 -10.7248 12.8539 -13.1124 -3.1008 14.3880
# 2 -10.7248 35.1533 7.7922 -8.5023 15.1405 -10.3563
# 3 12.8539 7.7922 144.9335 -19.7471 -5.5368 -11.2973
# 4 -13.1124 -8.5023 -19.7471 55.3594 -12.6423 8.5221
# 5 -3.1008 15.1405 -5.5368 -12.6423 39.6752 -6.1568
# 6 14.3880 -10.3563 -11.2973 8.5221 -6.1568 44.6550
#
#
#
# Elastic Compliance Matrix: (Units=1/GPa)
#
#
# Indices 1 2 3 4 5 6 
#
# 1 0.009676 0.002923 -0.000871 0.002914 -0.000052 -0.003224
# 2 0.002923 0.037315 -0.002100 0.001954 -0.012901 0.005029
# 3 -0.000871 -0.002100 0.007685 0.002622 0.002895 0.001637
# 4 0.002914 0.001954 0.002622 0.021921 0.006347 -0.003131
# 5 -0.000052 -0.012901 0.002895 0.006347 0.032714 0.001056
# 6 -0.003224 0.005029 0.001637 -0.003131 0.001056 0.025756
#
#
# Mechanical properties :
#
#
# Convention : Reuss Voigt Hill
#
# Bulk Modulus (GPa) = 18.32227 35.15611 26.73919
# Shear Modulus (GPa) = 32.60359 47.04734 39.82546
#
# Velocity S-wave (km/s) = 3.63348 4.36474 4.01579
# Velocity P-wave (km/s) = 5.00222 6.29580 5.68591
#
# Compressibility (1/GPa) = 0.05457838
#
# Stress axis : x y z
#
# Youngs Moduli (GPa) = 103.35246 26.79894 130.11842
#
# Poissons Ratio (x) = -0.07833 0.11340
# Poissons Ratio (y) = -0.30208 0.27326
# Poissons Ratio (z) = 0.09007 0.05628
#
# Static dielectric constant tensor:
#      x y z
#    x 1.858940 0.046250 -0.236740 
#    y 0.046250 2.218370 0.297250 
#    z -0.236740 0.297250 1.886320 
# 
# From -- ./inp_files/223281.got.cif
#   From: 2010.05.17/outbox.cif.g08.bks.cpg/sg2_112_cif.got.tgz:223281.got - 2010.06.03 11:33:40.
