data_PCOD9068723
_publ_section_title
;
Structure prediction by ZEFSAII (Michael W. Deem and Ramdas Pophale) SiO2 
 PCOD9068723
Probable space group: P -1
;
_chemical_formula_sum "Si O2"
_cell_formula_units_Z 12
_cell_length_a 11.462304
_cell_length_b 8.783218
_cell_length_c 9.416446
_cell_angle_alpha 149.836681
_cell_angle_beta 79.451726
_cell_angle_gamma 93.875204
_cell_volume 460.332912
_symmetry_space_group_name_H-M "P -1"
_symmetry_group_IT_number 2
_symmetry_cell_setting 'triclinic'
loop_
_space_group_symop_operation_xyz
x,y,z
-x,-y,-z
loop_
_atom_site_type_symbol
_atom_site_label
_atom_site_fract_x
_atom_site_fract_y
_atom_site_fract_z
Si Si1 0.920606 0.150323 0.855381
Si Si2 0.305233 0.384432 0.203675
Si Si3 0.111051 0.487034 0.570564
Si Si4 0.584981 0.154095 0.701978
Si Si5 0.188657 0.260855 0.824260
Si Si6 0.466632 0.776959 0.623543
O O1 0.060816 0.151453 0.788129
O O2 0.888037 0.815325 0.576405
O O3 0.902331 0.233320 0.092176
O O4 0.839433 0.422602 0.004068
O O5 0.218715 0.478108 0.430508
O O6 0.398377 0.620526 0.387206
O O7 0.241947 0.351431 0.037853
O O8 0.373566 0.039948 0.933671
O O9 0.000000 0.500000 0.500000
O O10 0.500000 0.000000 0.500000
O O11 0.718732 0.005070 0.492765
O O12 0.569207 0.965681 0.700598
O O13 0.500000 0.500000 0.000000
O O14 0.500000 0.500000 0.500000
#
# Coordination Sequence:
#
# PCOD9068723 Si02
#       6
#     2   2   2   2   2   2
#     4  11  28  50  77 117 158 210 256 329 379 479
#     4  12  27  48  80 111 157 206 256 327 391 471
#     4  12  26  47  77 115 156 201 262 312 398 459
#     4  12  28  49  80 114 152 208 265 323 396 470
#     4  11  28  51  82 112 162 203 271 313 402 461
#     4  12  29  51  76 115 154 204 264 326 398 467
#
# _framework density 26.068090999999999
#
# number of rings (size 3 to 8) (size 9 to 14) (size 15 to 20)
#    0.000    0.333    3.333    3.000    7.000    6.667 
#    0.000    0.000    0.000    0.000    0.000    0.000 
#    0.000    0.000    0.000    0.000    0.000    0.000 
#
# Total GULP energy -67149.312047 kJ/mol
# GULP energy per Si atom -5595.776004 kJ/mol
# Density = 2.600876 g / cm^3
# Si number density = 26.068091 Si / 1000 Ang^3
#
#
#
# Elastic Constant Matrix: (Units=GPa)
#
#
# Indices 1 2 3 4 5 6 
#
# 1 93.7709 54.9253 68.9968 2.8038 -24.9813 2.9741
# 2 54.9253 152.0027 49.5420 21.2724 -27.9335 -1.2444
# 3 68.9968 49.5420 171.4114 12.4587 -19.8375 18.7644
# 4 2.8038 21.2724 12.4587 59.1984 9.4655 -2.6543
# 5 -24.9813 -27.9335 -19.8375 9.4655 55.8554 -2.8101
# 6 2.9741 -1.2444 18.7644 -2.6543 -2.8101 45.0562
#
#
#
# Elastic Compliance Matrix: (Units=1/GPa)
#
#
# Indices 1 2 3 4 5 6 
#
# 1 0.018517 -0.004178 -0.006059 0.001345 0.003889 0.001507
# 2 -0.004178 0.009345 -0.000460 -0.003555 0.003280 0.000721
# 3 -0.006059 -0.000460 0.008937 -0.001636 0.000340 -0.003410
# 4 0.001345 -0.003555 -0.001636 0.019303 -0.004962 0.001322
# 5 0.003889 0.003280 0.000340 -0.004962 0.022284 0.000790
# 6 0.001507 0.000721 -0.003410 0.001322 0.000790 0.023662
#
#
# Mechanical properties :
#
#
# Convention : Reuss Voigt Hill
#
# Bulk Modulus (GPa) = 64.91013 84.90145 74.90579
# Shear Modulus (GPa) = 38.88697 48.27008 43.57853
#
# Velocity S-wave (km/s) = 3.86650 4.30780 4.09310
# Velocity P-wave (km/s) = 6.69981 7.57513 7.15088
#
# Compressibility (1/GPa) = 0.01540592
#
# Stress axis : x y z
#
# Youngs Moduli (GPa) = 54.00315 107.01337 111.89093
#
# Poissons Ratio (x) = 0.44707 0.67794
# Poissons Ratio (y) = 0.22561 0.05148
# Poissons Ratio (z) = 0.32720 0.04923
#
# Static dielectric constant tensor:
#      x y z
#    x 2.108430 0.061380 -0.012930 
#    y 0.061380 2.453840 -0.058440 
#    z -0.012930 -0.058440 1.932220 
# 
# From -- ./inp_files/241742.got.cif
#   From: 2010.05.17/outbox.cif.g08.bks.cpg/sg2_121_cif.got.tgz:241742.got - 2010.06.03 11:33:40.
