data_PCOD9068861
_publ_section_title
;
Structure prediction by ZEFSAII (Michael W. Deem and Ramdas Pophale) SiO2 
 PCOD9068861
Probable space group: P -1
;
_chemical_formula_sum "Si O2"
_cell_formula_units_Z 12
_cell_length_a 8.672462
_cell_length_b 5.004557
_cell_length_c 18.931948
_cell_angle_alpha 46.662130
_cell_angle_beta 134.630793
_cell_angle_gamma 125.626982
_cell_volume 417.227996
_symmetry_space_group_name_H-M "P -1"
_symmetry_group_IT_number 2
_symmetry_cell_setting 'triclinic'
loop_
_space_group_symop_operation_xyz
x,y,z
-x,-y,-z
loop_
_atom_site_type_symbol
_atom_site_label
_atom_site_fract_x
_atom_site_fract_y
_atom_site_fract_z
Si Si1 0.733915 0.943270 0.228286
Si Si2 0.380498 0.697652 0.594203
Si Si3 0.039043 0.938334 0.211586
Si Si4 0.825139 0.669613 0.540302
Si Si5 0.618875 0.049858 0.789307
Si Si6 0.667237 0.899981 0.980509
O O1 0.763398 0.567961 0.344873
O O2 0.937725 0.121278 0.213247
O O3 0.626603 0.128579 0.226867
O O4 0.521950 0.846352 0.124167
O O5 0.263945 0.633494 0.492962
O O6 0.585872 0.480781 0.692039
O O7 0.370133 0.114153 0.538232
O O8 0.077388 0.541608 0.326850
O O9 0.267941 0.086252 0.217275
O O10 0.853124 0.933273 0.092486
O O11 0.000000 0.000000 0.500000
O O12 0.758452 0.991078 0.914276
O O13 0.500000 0.500000 0.000000
#
# Coordination Sequence:
#
# PCOD9068861 Si02
#       6
#     2   2   2   2   2   2
#     4   8  21  39  64  86 134 163 222 271 337 383
#     4   9  23  44  60 100 135 180 216 284 330 389
#     4  12  21  37  70  93 124 185 217 274 342 398
#     4  12  23  38  72  95 141 174 232 268 336 413
#     4   8  22  42  63  93 133 165 231 276 330 407
#     4   9  21  39  63  90 132 171 220 283 337 394
#
# _framework density 28.761255999999999
#
# number of rings (size 3 to 8) (size 9 to 14) (size 15 to 20)
#    2.000    0.000    1.667    1.500    4.667    1.333 
#    0.000    2.500    0.000    0.000    0.000    0.000 
#    0.000    0.000    0.000    0.000    0.000    0.000 
#
# Total GULP energy -66977.698815 kJ/mol
# GULP energy per Si atom -5581.474901 kJ/mol
# Density = 2.869579 g / cm^3
# Si number density = 28.761256 Si / 1000 Ang^3
#
#
#
# Elastic Constant Matrix: (Units=GPa)
#
#
# Indices 1 2 3 4 5 6 
#
# 1 268.1187 50.3258 47.1613 1.5802 2.7190 -13.4113
# 2 50.3258 89.6506 38.1962 3.3692 6.9647 -22.1112
# 3 47.1613 38.1962 176.4008 25.3384 -12.5273 1.8734
# 4 1.5802 3.3692 25.3384 35.4917 1.7002 -1.5356
# 5 2.7190 6.9647 -12.5273 1.7002 43.1908 3.3989
# 6 -13.4113 -22.1112 1.8734 -1.5356 3.3989 38.9381
#
#
#
# Elastic Compliance Matrix: (Units=1/GPa)
#
#
# Indices 1 2 3 4 5 6 
#
# 1 0.004260 -0.001925 -0.000835 0.000621 -0.000261 0.000462
# 2 -0.001925 0.016368 -0.003696 0.001781 -0.004389 0.009263
# 3 -0.000835 -0.003696 0.007748 -0.005447 0.003367 -0.003268
# 4 0.000621 0.001781 -0.005447 0.032163 -0.003413 0.003054
# 5 -0.000261 -0.004389 0.003367 -0.003413 0.025389 -0.005095
# 6 0.000462 0.009263 -0.003268 0.003054 -0.005095 0.031823
#
#
# Mechanical properties :
#
#
# Convention : Reuss Voigt Hill
#
# Bulk Modulus (GPa) = 64.65768 89.50409 77.08088
# Shear Modulus (GPa) = 36.81410 50.08990 43.45200
#
# Velocity S-wave (km/s) = 3.58158 4.17775 3.89110
# Velocity P-wave (km/s) = 6.29549 7.37961 6.85900
#
# Compressibility (1/GPa) = 0.01546607
#
# Stress axis : x y z
#
# Youngs Moduli (GPa) = 234.74716 61.09446 129.05771
#
# Poissons Ratio (x) = 0.11760 0.10774
# Poissons Ratio (y) = 0.45187 0.47693
# Poissons Ratio (z) = 0.19596 0.22577
#
# Static dielectric constant tensor:
#      x y z
#    x 2.240760 0.020960 0.058500 
#    y 0.020960 2.178580 -0.018530 
#    z 0.058500 -0.018530 2.299170 
# 
# From -- ./inp_files/584782.got.cif
#   From: 2010.05.17/outbox.cif.g08.bks.cpg/sg2_293_cif.got.tgz:584782.got - 2010.06.03 11:33:40.
