data_PCOD9068784
_publ_section_title
;
Structure prediction by ZEFSAII (Michael W. Deem and Ramdas Pophale) SiO2 
 PCOD9068784
Probable space group: P -1
;
_chemical_formula_sum "Si O2"
_cell_formula_units_Z 16
_cell_length_a 10.737466
_cell_length_b 10.398443
_cell_length_c 13.575547
_cell_angle_alpha 76.465024
_cell_angle_beta 56.405153
_cell_angle_gamma 123.694233
_cell_volume 656.560537
_symmetry_space_group_name_H-M "P -1"
_symmetry_group_IT_number 2
_symmetry_cell_setting 'triclinic'
loop_
_space_group_symop_operation_xyz
x,y,z
-x,-y,-z
loop_
_atom_site_type_symbol
_atom_site_label
_atom_site_fract_x
_atom_site_fract_y
_atom_site_fract_z
Si Si1 0.946528 0.611041 0.859611
Si Si2 0.804345 0.233092 0.778622
Si Si3 0.385787 0.267304 0.080714
Si Si4 0.302349 0.031775 0.462143
Si Si5 0.741383 0.414104 0.340981
Si Si6 0.385082 0.998640 0.739146
Si Si7 0.010703 0.176563 0.555174
Si Si8 0.421051 0.688750 0.217649
O O1 0.068619 0.557241 0.797170
O O2 0.100719 0.814021 0.671303
O O3 0.064179 0.749267 0.887704
O O4 0.618408 0.366677 0.028146
O O5 0.839012 0.169580 0.680343
O O6 0.829346 0.405612 0.702493
O O7 0.026773 0.339942 0.739645
O O8 0.500000 0.000000 0.000000
O O9 0.076104 0.007072 0.302099
O O10 0.500000 0.500000 0.000000
O O11 0.410074 0.233435 0.965129
O O12 0.523035 0.292023 0.374505
O O13 0.481956 0.046614 0.330453
O O14 0.114846 0.949170 0.473331
O O15 0.547994 0.207230 0.548579
O O16 0.433800 0.106804 0.802571
O O17 0.306171 0.469412 0.358202
#
# Coordination Sequence:
#
# PCOD9068784 Si02
#       8
#     2   2   2   2   2   2   2   2
#     4   9  17  37  56  83 122 155 191 236 285 348
#     4  12  20  33  57  94 133 153 181 236 304 364
#     4  12  27  44  59  81 114 160 215 255 281 332
#     4   9  17  31  58  90 122 153 180 227 302 364
#     4   9  16  30  54  91 126 151 181 225 295 375
#     4   9  17  30  61  90 120 155 177 229 305 366
#     4  12  22  37  62  90 120 155 192 241 302 356
#     4  12  21  38  61  89 123 153 194 242 298 357
#
# _framework density 24.369422
#
# number of rings (size 3 to 8) (size 9 to 14) (size 15 to 20)
#    0.000    1.500    6.250    2.625    0.000    0.500 
#    2.250    2.500    0.000    0.750    0.000    0.000 
#    0.000    0.000    0.000    0.000    0.000    0.000 
#
# Total GULP energy -89353.040862 kJ/mol
# GULP energy per Si atom -5584.565054 kJ/mol
# Density = 2.431396 g / cm^3
# Si number density = 24.369422 Si / 1000 Ang^3
#
#
#
# Elastic Constant Matrix: (Units=GPa)
#
#
# Indices 1 2 3 4 5 6 
#
# 1 29.4251 40.7596 9.9021 2.5033 5.8021 -1.1560
# 2 40.7596 164.3777 52.0581 19.3994 8.7726 31.8007
# 3 9.9021 52.0581 83.9007 -0.4165 9.2967 -4.9220
# 4 2.5033 19.3994 -0.4165 38.5992 -1.7332 1.5641
# 5 5.8021 8.7726 9.2967 -1.7332 25.4175 -6.8609
# 6 -1.1560 31.8007 -4.9220 1.5641 -6.8609 41.7076
#
#
#
# Elastic Compliance Matrix: (Units=1/GPa)
#
#
# Indices 1 2 3 4 5 6 
#
# 1 0.063394 -0.022449 0.008045 0.006306 -0.004132 0.018907
# 2 -0.022449 0.018996 -0.009830 -0.007657 -0.002796 -0.016439
# 3 0.008045 -0.009830 0.017878 0.004136 -0.002187 0.009313
# 4 0.006306 -0.007657 0.004136 0.029298 0.003293 0.005944
# 5 -0.004132 -0.002796 -0.002187 0.003293 0.044702 0.008989
# 6 0.018907 -0.016439 0.009313 0.005944 0.008989 0.039390
#
#
# Mechanical properties :
#
#
# Convention : Reuss Voigt Hill
#
# Bulk Modulus (GPa) = 19.30441 53.68256 36.49348
# Shear Modulus (GPa) = 17.89600 32.81044 25.35322
#
# Velocity S-wave (km/s) = 2.71285 3.67328 3.22898
# Velocity P-wave (km/s) = 4.21326 6.32986 5.37674
#
# Compressibility (1/GPa) = 0.05180164
#
# Stress axis : x y z
#
# Youngs Moduli (GPa) = 15.77429 52.64185 55.93574
#
# Poissons Ratio (x) = 1.18175 -0.45002
# Poissons Ratio (y) = 0.35411 0.54984
# Poissons Ratio (z) = -0.12691 0.51746
#
# Static dielectric constant tensor:
#      x y z
#    x 2.032150 0.003060 0.049290 
#    y 0.003060 1.980400 -0.057960 
#    z 0.049290 -0.057960 1.955430 
# 
# From -- ./inp_files/311078.got.cif
#   From: 2010.05.17/outbox.cif.g08.bks.cpg/sg2_156_cif.got.tgz:311078.got - 2010.06.03 11:33:40.
