data_PCOD9068867
_publ_section_title
;
Structure prediction by ZEFSAII (Michael W. Deem and Ramdas Pophale) SiO2 
 PCOD9068867
Probable space group: P -1
;
_chemical_formula_sum "Si O2"
_cell_formula_units_Z 14
_cell_length_a 8.389674
_cell_length_b 10.998051
_cell_length_c 12.445388
_cell_angle_alpha 125.298941
_cell_angle_beta 47.023196
_cell_angle_gamma 135.523948
_cell_volume 579.186521
_symmetry_space_group_name_H-M "P -1"
_symmetry_group_IT_number 2
_symmetry_cell_setting 'triclinic'
loop_
_space_group_symop_operation_xyz
x,y,z
-x,-y,-z
loop_
_atom_site_type_symbol
_atom_site_label
_atom_site_fract_x
_atom_site_fract_y
_atom_site_fract_z
Si Si1 0.557749 0.648756 0.375610
Si Si2 0.164244 0.077111 0.807116
Si Si3 0.714968 0.883466 0.620244
Si Si4 0.914733 0.493139 0.158183
Si Si5 0.349044 0.918849 0.917657
Si Si6 0.216164 0.277923 0.273467
Si Si7 0.528006 0.340966 0.947610
O O1 0.698289 0.795776 0.293375
O O2 0.543591 0.737900 0.535491
O O3 0.294226 0.475557 0.366630
O O4 0.742680 0.576832 0.283269
O O5 0.353013 0.173243 0.868248
O O6 0.061564 0.873731 0.723319
O O7 0.903796 0.072036 0.954839
O O8 0.584406 0.994156 0.763583
O O9 0.750055 0.804849 0.675316
O O10 0.000000 0.000000 0.500000
O O11 0.175099 0.594970 0.158383
O O12 0.765343 0.288206 0.149398
O O13 0.000000 0.500000 0.000000
O O14 0.500000 0.000000 0.000000
O O15 0.420823 0.305410 0.100755
O O16 0.500000 0.500000 0.000000
#
# Coordination Sequence:
#
# PCOD9068867 Si02
#       7
#     2   2   2   2   2   2   2
#     4  12  23  43  69 102 140 172 233 281 344 407
#     4  12  24  43  71 103 138 176 229 286 343 409
#     4  12  25  40  67 105 139 182 223 284 343 401
#     4  12  21  39  68 102 129 176 225 285 337 393
#     4  12  21  38  67 100 132 171 229 282 331 397
#     4  12  23  41  68  97 136 182 224 273 345 393
#     4  12  23  42  69 103 138 177 227 288 343 402
#
# _framework density 24.171832999999999
#
# number of rings (size 3 to 8) (size 9 to 14) (size 15 to 20)
#    0.000    0.000   10.000    0.857    0.000    0.000 
#    0.000    0.000    3.143    4.286    0.000    0.000 
#    0.000    0.000    0.000    0.000    0.000    0.000 
#
# Total GULP energy -78377.158165 kJ/mol
# GULP energy per Si atom -5598.368440 kJ/mol
# Density = 2.411682 g / cm^3
# Si number density = 24.171833 Si / 1000 Ang^3
#
#
#
# Elastic Constant Matrix: (Units=GPa)
#
#
# Indices 1 2 3 4 5 6 
#
# 1 86.3036 46.3773 38.7668 2.0970 9.7713 28.7570
# 2 46.3773 177.2679 44.4670 4.5041 16.4388 33.3470
# 3 38.7668 44.4670 132.5461 8.6687 25.7281 4.2505
# 4 2.0970 4.5041 8.6687 47.0554 2.7716 20.7674
# 5 9.7713 16.4388 25.7281 2.7716 31.8817 2.7556
# 6 28.7570 33.3470 4.2505 20.7674 2.7556 57.5760
#
#
#
# Elastic Compliance Matrix: (Units=1/GPa)
#
#
# Indices 1 2 3 4 5 6 
#
# 1 0.017424 -0.001881 -0.004366 0.004094 -0.000448 -0.008747
# 2 -0.001881 0.007324 -0.001538 0.001356 -0.001767 -0.003594
# 3 -0.004366 -0.001538 0.010679 -0.002837 -0.006553 0.003620
# 4 0.004094 0.001356 -0.002837 0.026943 -0.000944 -0.012294
# 5 -0.000448 -0.001767 -0.006553 -0.000944 0.037761 0.000264
# 6 -0.008747 -0.003594 0.003620 -0.012294 0.000264 0.027973
#
#
# Mechanical properties :
#
#
# Convention : Reuss Voigt Hill
#
# Bulk Modulus (GPa) = 50.35429 72.81554 61.58492
# Shear Modulus (GPa) = 33.26830 45.06970 39.16900
#
# Velocity S-wave (km/s) = 3.71391 4.32273 4.02984
# Velocity P-wave (km/s) = 6.26641 7.42322 6.86921
#
# Compressibility (1/GPa) = 0.01985928
#
# Stress axis : x y z
#
# Youngs Moduli (GPa) = 57.39125 136.53064 93.64408
#
# Poissons Ratio (x) = 0.25676 0.40882
# Poissons Ratio (y) = 0.10793 0.14400
# Poissons Ratio (z) = 0.25055 0.20995
#
# Static dielectric constant tensor:
#      x y z
#    x 1.954740 -0.000880 0.009540 
#    y -0.000880 2.049420 -0.062760 
#    z 0.009540 -0.062760 1.935000 
# 
# From -- ./inp_files/392815.got.cif
#   From: 2010.05.17/outbox.cif.g08.bks.cpg/sg2_197_cif.got.tgz:392815.got - 2010.06.03 11:33:40.
