data_PCOD9068849
_publ_section_title
;
Structure prediction by ZEFSAII (Michael W. Deem and Ramdas Pophale) SiO2 
 PCOD9068849
Probable space group: P -1
;
_chemical_formula_sum "Si O2"
_cell_formula_units_Z 12
_cell_length_a 8.578639
_cell_length_b 4.966151
_cell_length_c 10.806780
_cell_angle_alpha 83.720704
_cell_angle_beta 101.984996
_cell_angle_gamma 84.697094
_cell_volume 444.512190
_symmetry_space_group_name_H-M "P -1"
_symmetry_group_IT_number 2
_symmetry_cell_setting 'triclinic'
loop_
_space_group_symop_operation_xyz
x,y,z
-x,-y,-z
loop_
_atom_site_type_symbol
_atom_site_label
_atom_site_fract_x
_atom_site_fract_y
_atom_site_fract_z
Si Si1 0.202656 0.220772 0.015775
Si Si2 0.805032 0.221889 0.148658
Si Si3 0.781062 0.559696 0.745281
Si Si4 0.903945 0.282315 0.430753
Si Si5 0.490351 0.080488 0.229220
Si Si6 0.299971 0.887585 0.404176
O O1 0.248430 0.489721 0.940793
O O2 0.123822 0.017728 0.921757
O O3 0.122256 0.357219 0.122666
O O4 0.357296 0.027691 0.106201
O O5 0.895156 0.306698 0.281812
O O6 0.658138 0.083856 0.193734
O O7 0.595751 0.617474 0.761872
O O8 0.769522 0.796438 0.628612
O O9 0.806270 0.270321 0.701316
O O10 0.000000 0.500000 0.500000
O O11 0.727894 0.260728 0.465121
O O12 0.000000 0.000000 0.500000
O O13 0.468337 0.901020 0.358508
#
# Coordination Sequence:
#
# PCOD9068849 Si02
#       6
#     2   2   2   2   2   2
#     4   9  20  33  59  96 128 143 180 233 309 370
#     4  12  21  36  61  91 122 156 190 237 293 351
#     4   8  18  33  61  88 124 149 171 233 303 356
#     4  12  27  45  61  79 114 165 211 247 273 328
#     4   8  21  32  65  93 124 146 176 241 311 356
#     4   9  19  39  59  84 115 156 194 237 293 346
#
# _framework density 26.995882000000002
#
# number of rings (size 3 to 8) (size 9 to 14) (size 15 to 20)
#    2.000    0.000    0.000    5.000    2.333    0.667 
#    0.000    0.833    0.000   46.000    0.000    0.000 
#    0.000    0.000    0.000    0.000    0.000    0.000 
#
# Total GULP energy -66915.827891 kJ/mol
# GULP energy per Si atom -5576.318991 kJ/mol
# Density = 2.693444 g / cm^3
# Si number density = 26.995882 Si / 1000 Ang^3
#
#
#
# Elastic Constant Matrix: (Units=GPa)
#
#
# Indices 1 2 3 4 5 6 
#
# 1 75.1519 10.2719 38.5786 -6.4123 -22.1825 19.3281
# 2 10.2719 146.0672 49.0252 18.7199 -14.6573 15.3785
# 3 38.5786 49.0252 173.6547 -1.6246 -29.2576 13.8137
# 4 -6.4123 18.7199 -1.6246 54.7992 12.2584 -5.5408
# 5 -22.1825 -14.6573 -29.2576 12.2584 46.7173 -8.3834
# 6 19.3281 15.3785 13.8137 -5.5408 -8.3834 31.1313
#
#
#
# Elastic Compliance Matrix: (Units=1/GPa)
#
#
# Indices 1 2 3 4 5 6 
#
# 1 0.018721 0.001301 -0.002758 -0.000648 0.006029 -0.009533
# 2 0.001301 0.008593 -0.002032 -0.003778 0.002277 -0.004210
# 3 -0.002758 -0.002032 0.007388 0.000001 0.002710 0.000168
# 4 -0.000648 -0.003778 0.000001 0.021314 -0.006302 0.004365
# 5 0.006029 0.002277 0.002710 -0.006302 0.028416 0.000460
# 6 -0.009533 -0.004210 0.000168 0.004365 0.000460 0.040947
#
#
# Mechanical properties :
#
#
# Convention : Reuss Voigt Hill
#
# Bulk Modulus (GPa) = 36.07009 65.62504 50.84757
# Shear Modulus (GPa) = 35.31144 46.32942 40.82043
#
# Velocity S-wave (km/s) = 3.62059 4.14716 3.89279
# Velocity P-wave (km/s) = 5.55595 6.87706 6.25150
#
# Compressibility (1/GPa) = 0.02772380
#
# Stress axis : x y z
#
# Youngs Moduli (GPa) = 53.41705 116.37978 135.35380
#
# Poissons Ratio (x) = -0.15141 0.37332
# Poissons Ratio (y) = -0.06950 0.27499
# Poissons Ratio (z) = 0.14733 0.23644
#
# Static dielectric constant tensor:
#      x y z
#    x 2.273320 0.062340 -0.046390 
#    y 0.062340 1.980680 0.035970 
#    z -0.046390 0.035970 2.194840 
# 
# From -- ./inp_files/127220.got.cif
#   From: 2010.05.17/outbox.cif.g08.bks.cpg/sg2_64_cif.got.tgz:127220.got - 2010.06.03 11:33:40.
