data_PCOD9068107
_publ_section_title
;
Structure prediction by ZEFSAII (Michael W. Deem and Ramdas Pophale) SiO2 
 PCOD9068107
Probable space group: P -1
;
_chemical_formula_sum "Si O2"
_cell_formula_units_Z 14
_cell_length_a 8.933870
_cell_length_b 11.342404
_cell_length_c 6.727702
_cell_angle_alpha 72.654400
_cell_angle_beta 91.522323
_cell_angle_gamma 125.732233
_cell_volume 518.565280
_symmetry_space_group_name_H-M "P -1"
_symmetry_group_IT_number 2
_symmetry_cell_setting 'triclinic'
loop_
_space_group_symop_operation_xyz
x,y,z
-x,-y,-z
loop_
_atom_site_type_symbol
_atom_site_label
_atom_site_fract_x
_atom_site_fract_y
_atom_site_fract_z
Si Si1 0.542588 0.384352 0.980754
Si Si2 0.137473 0.147945 0.067634
Si Si3 0.676047 0.141012 0.815819
Si Si4 0.263684 0.645628 0.639432
Si Si5 0.081987 0.737575 0.865241
Si Si6 0.717143 0.567494 0.522861
Si Si7 0.085609 0.909366 0.438131
O O1 0.696012 0.481969 0.770069
O O2 0.348096 0.242476 0.950438
O O3 0.500000 0.500000 0.000000
O O4 0.595805 0.323634 0.195466
O O5 0.086933 0.265941 0.043666
O O6 0.118610 0.069797 0.318192
O O7 0.124515 0.249210 0.533936
O O8 0.000000 0.000000 0.000000
O O9 0.647707 0.226540 0.596548
O O10 0.786981 0.088797 0.731666
O O11 0.804496 0.251179 0.946314
O O12 0.500000 0.000000 0.000000
O O13 0.098658 0.636960 0.752839
O O14 0.209602 0.492408 0.606763
O O15 0.165479 0.891479 0.654499
O O16 0.500000 0.500000 0.500000
#
# Coordination Sequence:
#
# PCOD9068107 Si02
#       7
#     2   2   2   2   2   2   2
#     4  12  27  51  84 120 159 215 274 331 407 487
#     4  12  26  49  83 115 162 210 269 341 401 476
#     4  11  27  48  76 114 164 209 265 336 405 478
#     4  11  28  49  81 115 160 214 271 327 408 479
#     4  11  26  47  76 116 159 205 267 330 410 468
#     4  12  26  49  83 115 163 209 269 332 405 483
#     4  11  27  48  78 121 156 211 275 329 408 480
#
# _framework density 26.997565000000002
#
# number of rings (size 3 to 8) (size 9 to 14) (size 15 to 20)
#    0.000    0.571    2.857    3.000    6.000    5.714 
#    0.000    9.286    0.000    0.000    0.000    0.000 
#    0.000    0.000    0.000    0.000    0.000    0.000 
#
# Total GULP energy -78372.757226 kJ/mol
# GULP energy per Si atom -5598.054088 kJ/mol
# Density = 2.693612 g / cm^3
# Si number density = 26.997565 Si / 1000 Ang^3
#
#
#
# Elastic Constant Matrix: (Units=GPa)
#
#
# Indices 1 2 3 4 5 6 
#
# 1 156.7864 70.5050 77.9142 -15.5540 -12.3007 13.4256
# 2 70.5050 151.9411 49.2613 4.0737 4.4626 -14.0353
# 3 77.9142 49.2613 208.8915 -26.2638 -7.2824 -4.5753
# 4 -15.5540 4.0737 -26.2638 59.6187 -0.5881 -4.1288
# 5 -12.3007 4.4626 -7.2824 -0.5881 41.7901 -9.1488
# 6 13.4256 -14.0353 -4.5753 -4.1288 -9.1488 39.3773
#
#
#
# Elastic Compliance Matrix: (Units=1/GPa)
#
#
# Indices 1 2 3 4 5 6 
#
# 1 0.010488 -0.004550 -0.002679 0.001550 0.002062 -0.004867
# 2 -0.004550 0.009416 -0.000719 -0.001867 -0.001563 0.004265
# 3 -0.002679 -0.000719 0.006309 0.002263 0.000817 0.001817
# 4 0.001550 -0.001867 0.002263 0.018413 0.001610 0.001374
# 5 0.002062 -0.001563 0.000817 0.001610 0.025971 0.005038
# 6 -0.004867 0.004265 0.001817 0.001374 0.005038 0.030100
#
#
# Mechanical properties :
#
#
# Convention : Reuss Voigt Hill
#
# Bulk Modulus (GPa) = 96.92887 101.44221 99.18554
# Shear Modulus (GPa) = 41.65581 49.48646 45.57114
#
# Velocity S-wave (km/s) = 3.93230 4.28600 4.11295
# Velocity P-wave (km/s) = 7.52317 7.88347 7.70543
#
# Compressibility (1/GPa) = 0.01031684
#
# Stress axis : x y z
#
# Youngs Moduli (GPa) = 95.35111 106.20378 158.50991
#
# Poissons Ratio (x) = 0.48321 0.42458
# Poissons Ratio (y) = 0.43383 0.11401
# Poissons Ratio (z) = 0.25541 0.07639
#
# Static dielectric constant tensor:
#      x y z
#    x 2.184210 -0.045400 0.022640 
#    y -0.045400 2.147160 0.023870 
#    z 0.022640 0.023870 2.182990 
# 
# From -- ./inp_files/73988.got.cif
#   From: 2010.05.17/outbox.cif.g08.bks.cpg/sg2_37_cif.got.tgz:73988.got - 2010.06.03 11:33:40.
