data_PCOD9068363
_publ_section_title
;
Structure prediction by ZEFSAII (Michael W. Deem and Ramdas Pophale) SiO2 
 PCOD9068363
Probable space group: P -1
;
_chemical_formula_sum "Si O2"
_cell_formula_units_Z 12
_cell_length_a 13.329921
_cell_length_b 11.743999
_cell_length_c 8.192298
_cell_angle_alpha 126.907770
_cell_angle_beta 60.233405
_cell_angle_gamma 151.296377
_cell_volume 490.980842
_symmetry_space_group_name_H-M "P -1"
_symmetry_group_IT_number 2
_symmetry_cell_setting 'triclinic'
loop_
_space_group_symop_operation_xyz
x,y,z
-x,-y,-z
loop_
_atom_site_type_symbol
_atom_site_label
_atom_site_fract_x
_atom_site_fract_y
_atom_site_fract_z
Si Si1 0.076555 0.827451 0.931470
Si Si2 0.026147 0.381634 0.650037
Si Si3 0.594858 0.728313 0.218411
Si Si4 0.731205 0.177565 0.950443
Si Si5 0.054514 0.019075 0.654825
Si Si6 0.303661 0.689529 0.403326
O O1 0.017002 0.924514 0.126248
O O2 0.205733 0.877629 0.013136
O O3 0.295604 0.230655 0.679246
O O4 0.226918 0.010121 0.811361
O O5 0.148058 0.584100 0.580427
O O6 0.791235 0.180860 0.724399
O O7 0.047253 0.240223 0.465952
O O8 0.139440 0.547818 0.866883
O O9 0.419269 0.662993 0.336674
O O10 0.500000 0.500000 0.000000
O O11 0.858658 0.524339 0.794441
O O12 0.500000 0.000000 0.000000
O O13 0.000000 0.000000 0.500000
O O14 0.500000 0.000000 0.500000
#
# Coordination Sequence:
#
# PCOD9068363 Si02
#       6
#     2   2   2   2   2   2
#     4  12  26  51  78 114 160 202 272 337 386 482
#     4  11  26  49  77 108 162 202 261 330 390 474
#     4  12  26  47  80 115 158 207 266 326 400 479
#     4  11  28  49  77 113 159 209 260 328 407 478
#     4  12  25  49  78 113 159 209 254 333 403 467
#     4  12  28  48  82 116 153 212 271 325 402 467
#
# _framework density 24.440873
#
# number of rings (size 3 to 8) (size 9 to 14) (size 15 to 20)
#    0.000    0.333    5.000    2.500    4.667    6.667 
#    0.000    3.333    0.000    0.000    0.000    0.000 
#    0.000    0.000    0.000    0.000    0.000    0.000 
#
# Total GULP energy -67064.802940 kJ/mol
# GULP energy per Si atom -5588.733578 kJ/mol
# Density = 2.438524 g / cm^3
# Si number density = 24.440873 Si / 1000 Ang^3
#
#
#
# Elastic Constant Matrix: (Units=GPa)
#
#
# Indices 1 2 3 4 5 6 
#
# 1 203.0592 54.3767 63.2917 -9.6517 -14.3051 15.4123
# 2 54.3767 137.7600 62.3378 -0.2040 -2.8972 7.9831
# 3 63.2917 62.3378 158.1482 -1.9779 -26.3984 10.6296
# 4 -9.6517 -0.2040 -1.9779 56.9286 1.3694 -1.0239
# 5 -14.3051 -2.8972 -26.3984 1.3694 52.9807 -2.4238
# 6 15.4123 7.9831 10.6296 -1.0239 -2.4238 29.6319
#
#
#
# Elastic Compliance Matrix: (Units=1/GPa)
#
#
# Indices 1 2 3 4 5 6 
#
# 1 0.006076 -0.001558 -0.001555 0.000917 0.000661 -0.002097
# 2 -0.001558 0.009368 -0.003290 -0.000319 -0.001570 -0.000673
# 3 -0.001555 -0.003290 0.008959 -0.000078 0.003811 -0.001210
# 4 0.000917 -0.000319 -0.000078 0.017728 -0.000256 0.000229
# 5 0.000661 -0.001570 0.003811 -0.000256 0.020892 0.000412
# 6 -0.002097 -0.000673 -0.001210 0.000229 0.000412 0.035495
#
#
# Mechanical properties :
#
#
# Convention : Reuss Voigt Hill
#
# Bulk Modulus (GPa) = 86.22754 95.44220 90.83487
# Shear Modulus (GPa) = 43.40724 49.17233 46.28979
#
# Velocity S-wave (km/s) = 4.21885 4.49028 4.35667
# Velocity P-wave (km/s) = 7.68688 8.12517 7.90907
#
# Compressibility (1/GPa) = 0.01159722
#
# Stress axis : x y z
#
# Youngs Moduli (GPa) = 164.58841 106.74368 111.62358
#
# Poissons Ratio (x) = 0.16630 0.17354
# Poissons Ratio (y) = 0.25642 0.36725
# Poissons Ratio (z) = 0.25589 0.35120
#
# Static dielectric constant tensor:
#      x y z
#    x 2.088940 -0.025020 -0.030210 
#    y -0.025020 2.122350 0.010540 
#    z -0.030210 0.010540 1.978050 
# 
# From -- ./inp_files/245396.got.cif
#   From: 2010.05.17/outbox.cif.g08.bks.cpg/sg2_123_cif.got.tgz:245396.got - 2010.06.03 11:33:40.
