data_PCOD9068500
_publ_section_title
;
Structure prediction by ZEFSAII (Michael W. Deem and Ramdas Pophale) SiO2 
 PCOD9068500
Probable space group: P -1
;
_chemical_formula_sum "Si O2"
_cell_formula_units_Z 13
_cell_length_a 13.867907
_cell_length_b 6.972912
_cell_length_c 11.217509
_cell_angle_alpha 51.177268
_cell_angle_beta 33.336203
_cell_angle_gamma 54.346239
_cell_volume 459.976518
_symmetry_space_group_name_H-M "P -1"
_symmetry_group_IT_number 2
_symmetry_cell_setting 'triclinic'
loop_
_space_group_symop_operation_xyz
x,y,z
-x,-y,-z
loop_
_atom_site_type_symbol
_atom_site_label
_atom_site_fract_x
_atom_site_fract_y
_atom_site_fract_z
Si Si1 0.313460 0.949290 0.762381
Si Si2 0.432303 0.327998 0.233289
Si Si3 0.781502 0.285534 0.529000
Si Si4 0.706321 0.436250 0.276888
Si Si5 0.154393 0.140008 0.190349
Si Si6 0.000000 0.000000 0.000000
Si Si7 0.052449 0.229355 0.605468
O O1 0.385985 0.839465 0.853081
O O2 0.240011 0.787416 0.790863
O O3 0.500000 0.000000 0.500000
O O4 0.151568 0.163302 0.843447
O O5 0.361704 0.500987 0.350345
O O6 0.268109 0.198847 0.407031
O O7 0.500000 0.500000 0.000000
O O8 0.779923 0.324310 0.371527
O O9 0.980885 0.311974 0.353165
O O10 0.747427 0.029777 0.737540
O O11 0.500000 0.500000 0.500000
O O12 0.749627 0.678364 0.063869
O O13 0.048534 0.952650 0.298910
O O14 0.014604 0.829407 0.172442
O O15 0.000000 0.500000 0.500000
#
# Coordination Sequence:
#
# PCOD9068500 Si02
#       7
#     2   2   2   2   2   1   2
#     4  12  28  51  79 118 158 210 274 334 408 479
#     4  12  27  50  78 117 167 211 273 341 402 484
#     4  11  26  52  78 112 163 209 270 335 403 481
#     4  12  28  51  79 116 165 206 270 341 404 483
#     4  11  28  48  82 118 155 220 274 322 416 482
#     4  12  28  46  86 110 160 210 268 334 408 466
#     4  12  26  48  80 117 163 209 272 330 398 485
#
# _framework density 28.262308999999998
#
# number of rings (size 3 to 8) (size 9 to 14) (size 15 to 20)
#    0.000    0.308    4.615    2.308    6.462    3.077 
#    0.000    0.000    0.000    0.000    0.000    0.000 
#    0.000    0.000    0.000    0.000    0.000    0.000 
#
# Total GULP energy -72488.976083 kJ/mol
# GULP energy per Si atom -5576.075083 kJ/mol
# Density = 2.819798 g / cm^3
# Si number density = 28.262309 Si / 1000 Ang^3
#
#
#
# Elastic Constant Matrix: (Units=GPa)
#
#
# Indices 1 2 3 4 5 6 
#
# 1 202.0972 58.6495 84.4103 -22.8922 29.6544 -23.0717
# 2 58.6495 117.1593 38.1996 -29.8836 9.5081 -8.3714
# 3 84.4103 38.1996 218.6977 -33.7043 42.2192 -7.4414
# 4 -22.8922 -29.8836 -33.7043 66.8649 -18.2941 0.6633
# 5 29.6544 9.5081 42.2192 -18.2941 55.7696 8.9659
# 6 -23.0717 -8.3714 -7.4414 0.6633 8.9659 71.0393
#
#
#
# Elastic Compliance Matrix: (Units=1/GPa)
#
#
# Indices 1 2 3 4 5 6 
#
# 1 0.007010 -0.002685 -0.001760 -0.000362 -0.002390 0.002081
# 2 -0.002685 0.010992 -0.000486 0.004084 0.001233 0.000179
# 3 -0.001760 -0.000486 0.006201 0.001403 -0.003283 0.000422
# 4 -0.000362 0.004084 0.001403 0.018620 0.004580 -0.000241
# 5 -0.002390 0.001233 -0.003283 0.004580 0.023623 -0.003999
# 6 0.002081 0.000179 0.000422 -0.000241 -0.003999 0.015325
#
#
# Mechanical properties :
#
#
# Convention : Reuss Voigt Hill
#
# Bulk Modulus (GPa) = 69.72966 100.05255 84.89110
# Shear Modulus (GPa) = 51.86009 62.51440 57.18725
#
# Velocity S-wave (km/s) = 4.28829 4.70822 4.50315
# Velocity P-wave (km/s) = 7.01748 8.06441 7.55909
#
# Compressibility (1/GPa) = 0.01434110
#
# Stress axis : x y z
#
# Youngs Moduli (GPa) = 142.65952 90.97235 161.25767
#
# Poissons Ratio (x) = 0.24424 0.28383
# Poissons Ratio (y) = 0.38301 0.07841
# Poissons Ratio (z) = 0.25109 0.04423
#
# Static dielectric constant tensor:
#      x y z
#    x 2.190540 0.277420 0.014550 
#    y 0.277420 1.911220 -0.319490 
#    z 0.014550 -0.319490 2.265220 
# 
# From -- ./inp_files/446568.got.cif
#   From: 2010.05.17/outbox.cif.g08.bks.cpg/sg2_224_cif.got.tgz:446568.got - 2010.06.03 11:33:40.
