data_PCOD9068473
_publ_section_title
;
Structure prediction by ZEFSAII (Michael W. Deem and Ramdas Pophale) SiO2 
 PCOD9068473
Probable space group: P -1
;
_chemical_formula_sum "Si O2"
_cell_formula_units_Z 12
_cell_length_a 15.941926
_cell_length_b 15.617723
_cell_length_c 7.060742
_cell_angle_alpha 45.194812
_cell_angle_beta 51.379016
_cell_angle_gamma 26.901029
_cell_volume 564.284644
_symmetry_space_group_name_H-M "P -1"
_symmetry_group_IT_number 2
_symmetry_cell_setting 'triclinic'
loop_
_space_group_symop_operation_xyz
x,y,z
-x,-y,-z
loop_
_atom_site_type_symbol
_atom_site_label
_atom_site_fract_x
_atom_site_fract_y
_atom_site_fract_z
Si Si1 0.129339 0.487447 0.417750
Si Si2 0.206230 0.279243 0.991600
Si Si3 0.267460 0.961956 0.233816
Si Si4 0.425713 0.175943 0.197744
Si Si5 0.303900 0.744327 0.856451
Si Si6 0.950789 0.899766 0.028104
O O1 0.268755 0.389374 0.204827
O O2 0.000000 0.500000 0.500000
O O3 0.002300 0.715529 0.298926
O O4 0.242778 0.329596 0.679396
O O5 0.341483 0.189833 0.109293
O O6 0.207753 0.139252 0.146735
O O7 0.000000 0.500000 0.000000
O O8 0.330128 0.811443 0.539523
O O9 0.422986 0.868029 0.016683
O O10 0.111056 0.048816 0.183640
O O11 0.500000 0.000000 0.500000
O O12 0.214163 0.896661 0.925812
O O13 0.500000 0.500000 0.000000
O O14 0.138632 0.803252 0.943561
#
# Coordination Sequence:
#
# PCOD9068473 Si02
#       6
#     2   2   2   2   2   2
#     4  12  23  45  73 109 148 187 232 302 369 439
#     4  12  24  41  70 104 147 191 233 286 376 434
#     4  12  26  45  73 105 147 189 244 298 361 438
#     4  12  26  41  68 111 150 190 234 294 366 441
#     4  11  29  51  76 102 142 196 253 306 348 422
#     4  11  26  51  76 104 147 189 247 299 365 430
#
# _framework density 21.265861000000001
#
# number of rings (size 3 to 8) (size 9 to 14) (size 15 to 20)
#    0.000    0.333    5.000    2.000    7.000    0.667 
#    3.000    0.000    0.000    0.000    0.000    0.000 
#    0.000    0.000    0.000    0.000    0.000    0.000 
#
# Total GULP energy -67169.069302 kJ/mol
# GULP energy per Si atom -5597.422442 kJ/mol
# Density = 2.121746 g / cm^3
# Si number density = 21.265861 Si / 1000 Ang^3
#
#
#
# Elastic Constant Matrix: (Units=GPa)
#
#
# Indices 1 2 3 4 5 6 
#
# 1 128.9916 60.2028 53.6982 -13.1582 17.5620 11.5073
# 2 60.2028 155.9651 58.0316 -8.2556 -5.4894 5.3412
# 3 53.6982 58.0316 156.9226 -22.1152 12.4665 6.6810
# 4 -13.1582 -8.2556 -22.1152 41.3370 -4.8355 -5.3670
# 5 17.5620 -5.4894 12.4665 -4.8355 45.5437 -1.6973
# 6 11.5073 5.3412 6.6810 -5.3670 -1.6973 31.8274
#
#
#
# Elastic Compliance Matrix: (Units=1/GPa)
#
#
# Indices 1 2 3 4 5 6 
#
# 1 0.011170 -0.003602 -0.001891 0.000925 -0.004241 -0.003107
# 2 -0.003602 0.008735 -0.002290 -0.000211 0.003063 0.000445
# 3 -0.001891 -0.002290 0.008456 0.003256 -0.001525 -0.000240
# 4 0.000925 -0.000211 0.003256 0.026858 0.001714 0.003638
# 5 -0.004241 0.003063 -0.001525 0.001714 0.024671 0.002944
# 6 -0.003107 0.000445 -0.000240 0.003638 0.002944 0.033289
#
#
# Mechanical properties :
#
#
# Convention : Reuss Voigt Hill
#
# Bulk Modulus (GPa) = 78.14453 87.30495 82.72474
# Shear Modulus (GPa) = 37.59119 41.73807 39.66463
#
# Velocity S-wave (km/s) = 4.20894 4.43502 4.32346
# Velocity P-wave (km/s) = 7.77473 8.20786 7.99423
#
# Compressibility (1/GPa) = 0.01279680
#
# Stress axis : x y z
#
# Youngs Moduli (GPa) = 89.52906 114.47573 118.25224
#
# Poissons Ratio (x) = 0.41234 0.22356
# Poissons Ratio (y) = 0.32248 0.27079
# Poissons Ratio (z) = 0.16926 0.26214
#
# Static dielectric constant tensor:
#      x y z
#    x 1.777590 -0.009320 0.012410 
#    y -0.009320 1.807920 0.034820 
#    z 0.012410 0.034820 1.794670 
# 
# From -- ./inp_files/97477.got.cif
#   From: 2010.05.17/outbox.cif.g08.bks.cpg/sg2_49_cif.got.tgz:97477.got - 2010.06.03 11:33:40.
