data_PCOD9068218
_publ_section_title
;
Structure prediction by ZEFSAII (Michael W. Deem and Ramdas Pophale) SiO2 
 PCOD9068218
Probable space group: P -1
;
_chemical_formula_sum "Si O2"
_cell_formula_units_Z 14
_cell_length_a 4.987027
_cell_length_b 16.809129
_cell_length_c 8.130960
_cell_angle_alpha 75.245798
_cell_angle_beta 117.419486
_cell_angle_gamma 120.049676
_cell_volume 523.449186
_symmetry_space_group_name_H-M "P -1"
_symmetry_group_IT_number 2
_symmetry_cell_setting 'triclinic'
loop_
_space_group_symop_operation_xyz
x,y,z
-x,-y,-z
loop_
_atom_site_type_symbol
_atom_site_label
_atom_site_fract_x
_atom_site_fract_y
_atom_site_fract_z
Si Si1 0.742778 0.873952 0.848660
Si Si2 0.160007 0.127942 0.501765
Si Si3 0.265345 0.935310 0.256747
Si Si4 0.769946 0.335230 0.191313
Si Si5 0.444856 0.570602 0.666637
Si Si6 0.193475 0.365935 0.832095
Si Si7 0.523279 0.681822 0.345385
O O1 0.900292 0.885327 0.703696
O O2 0.416183 0.775161 0.808400
O O3 0.657828 0.959208 0.807413
O O4 0.996537 0.880482 0.065094
O O5 0.418770 0.086831 0.646010
O O6 0.335237 0.236419 0.528834
O O7 0.879318 0.088718 0.585699
O O8 0.762742 0.377790 0.344804
O O9 0.151684 0.378482 0.213578
O O10 0.510914 0.367421 0.016204
O O11 0.300956 0.469461 0.750906
O O12 0.424076 0.585535 0.458785
O O13 0.186712 0.304148 0.707319
O O14 0.820961 0.324122 0.824910
#
# Coordination Sequence:
#
# PCOD9068218 Si02
#       7
#     2   2   2   2   2   2   2
#     4  11  26  48  75 106 150 185 246 298 364 429
#     4  12  25  47  73 107 149 187 243 294 368 424
#     4  11  28  47  74 110 141 195 238 299 362 442
#     4  12  25  43  70 101 139 183 234 292 359 423
#     4  12  25  44  68 102 138 184 233 288 358 426
#     4  12  25  45  69 100 140 184 234 295 349 428
#     4  12  24  43  69 100 139 183 236 287 354 424
#
# _framework density 26.74567
#
# number of rings (size 3 to 8) (size 9 to 14) (size 15 to 20)
#    0.000    0.286    1.429    7.714    2.000    5.714 
#    0.000    0.000    0.000    0.000    0.000    0.000 
#    0.000    0.000    0.000    0.000    0.000    0.000 
#
# Total GULP energy -78514.691418 kJ/mol
# GULP energy per Si atom -5608.192244 kJ/mol
# Density = 2.668480 g / cm^3
# Si number density = 26.745670 Si / 1000 Ang^3
#
#
#
# Elastic Constant Matrix: (Units=GPa)
#
#
# Indices 1 2 3 4 5 6 
#
# 1 142.6759 36.7051 25.0373 18.5555 20.6610 -7.0021
# 2 36.7051 160.3807 8.1431 -3.5632 0.1833 -0.3973
# 3 25.0373 8.1431 122.4548 6.2136 18.7639 -8.5665
# 4 18.5555 -3.5632 6.2136 39.8201 -6.0405 -2.2357
# 5 20.6610 0.1833 18.7639 -6.0405 35.3468 9.2903
# 6 -7.0021 -0.3973 -8.5665 -2.2357 9.2903 26.9339
#
#
#
# Elastic Compliance Matrix: (Units=1/GPa)
#
#
# Indices 1 2 3 4 5 6 
#
# 1 0.009720 -0.002329 -0.000006 -0.005666 -0.007880 0.004738
# 2 -0.002329 0.006835 -0.000525 0.002055 0.002296 -0.001293
# 3 -0.000006 -0.000525 0.009759 -0.002326 -0.006966 0.005304
# 4 -0.005666 0.002055 -0.002326 0.029704 0.010488 -0.003335
# 5 -0.007880 0.002296 -0.006966 0.010488 0.043172 -0.018251
# 6 0.004738 -0.001293 0.005304 -0.003335 -0.018251 0.046046
#
#
# Mechanical properties :
#
#
# Convention : Reuss Voigt Hill
#
# Bulk Modulus (GPa) = 48.55960 62.80916 55.68438
# Shear Modulus (GPa) = 31.68170 44.12856 37.90513
#
# Velocity S-wave (km/s) = 3.44547 4.06634 3.76871
# Velocity P-wave (km/s) = 5.83299 6.75142 6.30894
#
# Compressibility (1/GPa) = 0.02059325
#
# Stress axis : x y z
#
# Youngs Moduli (GPa) = 102.88413 146.31196 102.47090
#
# Poissons Ratio (x) = 0.34080 0.00062
# Poissons Ratio (y) = 0.23965 0.05377
# Poissons Ratio (z) = 0.00062 0.07677
#
# Static dielectric constant tensor:
#      x y z
#    x 2.046760 0.009580 -0.060610 
#    y 0.009580 2.070330 0.036690 
#    z -0.060610 0.036690 2.233480 
# 
# From -- ./inp_files/138991.got.cif
#   From: 2010.05.17/outbox.cif.g08.bks.cpg/sg2_70_cif.got.tgz:138991.got - 2010.06.03 11:33:40.
