data_PCOD9068576
_publ_section_title
;
Structure prediction by ZEFSAII (Michael W. Deem and Ramdas Pophale) SiO2 
 PCOD9068576
Probable space group: P -1
;
_chemical_formula_sum "Si O2"
_cell_formula_units_Z 16
_cell_length_a 9.525284
_cell_length_b 9.492200
_cell_length_c 15.599571
_cell_angle_alpha 36.358430
_cell_angle_beta 117.914317
_cell_angle_gamma 104.178601
_cell_volume 715.008684
_symmetry_space_group_name_H-M "P -1"
_symmetry_group_IT_number 2
_symmetry_cell_setting 'triclinic'
loop_
_space_group_symop_operation_xyz
x,y,z
-x,-y,-z
loop_
_atom_site_type_symbol
_atom_site_label
_atom_site_fract_x
_atom_site_fract_y
_atom_site_fract_z
Si Si1 0.836237 0.002734 0.899363
Si Si2 0.929444 0.414010 0.629160
Si Si3 0.504874 0.949402 0.126967
Si Si4 0.761389 0.501310 0.369335
Si Si5 0.435515 0.820893 0.633168
Si Si6 0.043226 0.516017 0.904180
Si Si7 0.374860 0.601609 0.989791
Si Si8 0.867308 0.835995 0.542128
O O1 0.822678 0.248616 0.722104
O O2 0.671944 0.021705 0.896323
O O3 0.880121 0.758235 0.974520
O O4 0.000000 0.000000 0.000000
O O5 0.894033 0.368748 0.541501
O O6 0.882686 0.671665 0.541264
O O7 0.129430 0.350184 0.726415
O O8 0.621683 0.678100 0.299188
O O9 0.500000 0.000000 0.000000
O O10 0.588656 0.149817 0.090517
O O11 0.680367 0.327383 0.375647
O O12 0.580515 0.612110 0.820139
O O13 0.500000 0.000000 0.500000
O O14 0.315104 0.991574 0.583268
O O15 0.910654 0.658107 0.726600
O O16 0.191130 0.647216 0.882702
O O17 0.000000 0.500000 0.000000
O O18 0.500000 0.500000 0.000000
O O19 0.000000 0.000000 0.500000
#
# Coordination Sequence:
#
# PCOD9068576 Si02
#       8
#     2   2   2   2   2   2   2   2
#     4  12  27  47  74 105 145 189 249 302 358 437
#     4  11  27  47  75 105 146 189 244 301 366 436
#     4  12  27  46  76 103 145 193 244 300 367 431
#     4  11  27  48  73 107 144 194 239 299 371 436
#     4  12  28  47  72 104 150 187 241 298 363 434
#     4  12  29  46  75 110 145 192 246 300 363 431
#     4  12  27  48  73 106 147 193 243 300 359 432
#     4  12  26  47  74 103 144 195 240 294 363 435
#
# _framework density 22.37735
#
# number of rings (size 3 to 8) (size 9 to 14) (size 15 to 20)
#    0.000    0.250    5.000    2.250   12.250    0.500 
#    0.000    0.000    0.000    0.000    0.000    0.000 
#    0.000    0.000    0.000    0.000    0.000    0.000 
#
# Total GULP energy -89416.566137 kJ/mol
# GULP energy per Si atom -5588.535384 kJ/mol
# Density = 2.232642 g / cm^3
# Si number density = 22.377350 Si / 1000 Ang^3
#
#
#
# Elastic Constant Matrix: (Units=GPa)
#
#
# Indices 1 2 3 4 5 6 
#
# 1 112.4625 33.8332 5.8506 -14.1451 -1.6523 -7.1097
# 2 33.8332 133.6935 4.7933 -11.7667 1.9693 -3.2210
# 3 5.8506 4.7933 47.9432 -5.0985 -6.9641 4.9027
# 4 -14.1451 -11.7667 -5.0985 35.6682 -1.1501 3.8164
# 5 -1.6523 1.9693 -6.9641 -1.1501 37.9188 -3.2019
# 6 -7.1097 -3.2210 4.9027 3.8164 -3.2019 42.5403
#
#
#
# Elastic Compliance Matrix: (Units=1/GPa)
#
#
# Indices 1 2 3 4 5 6 
#
# 1 0.010079 -0.002234 -0.000734 0.003028 0.000628 0.001376
# 2 -0.002234 0.008225 -0.000456 0.001733 -0.000547 0.000105
# 3 -0.000734 -0.000456 0.022175 0.003144 0.003932 -0.002699
# 4 0.003028 0.001733 0.003144 0.030555 0.001346 -0.002365
# 5 0.000628 -0.000547 0.003932 0.001346 0.027321 0.001546
# 6 0.001376 0.000105 -0.002699 -0.002365 0.001546 0.024385
#
#
# Mechanical properties :
#
#
# Convention : Reuss Voigt Hill
#
# Bulk Modulus (GPa) = 29.73407 42.56149 36.14778
# Shear Modulus (GPa) = 35.51226 39.86694 37.68960
#
# Velocity S-wave (km/s) = 3.98801 4.22545 4.10844
# Velocity P-wave (km/s) = 5.87554 6.54730 6.22049
#
# Compressibility (1/GPa) = 0.03363146
#
# Stress axis : x y z
#
# Youngs Moduli (GPa) = 99.21432 121.58633 45.09674
#
# Poissons Ratio (x) = 0.27162 0.03310
# Poissons Ratio (y) = 0.22164 0.02054
# Poissons Ratio (z) = 0.07282 0.05539
#
# Static dielectric constant tensor:
#      x y z
#    x 2.060500 -0.033800 -0.005880 
#    y -0.033800 1.761470 -0.024430 
#    z -0.005880 -0.024430 1.765130 
# 
# From -- ./inp_files/226126.got.cif
#   From: 2010.05.17/outbox.cif.g08.bks.cpg/sg2_114_cif.got.tgz:226126.got - 2010.06.03 11:33:40.
