data_PCOD9068987
_publ_section_title
;
Structure prediction by ZEFSAII (Michael W. Deem and Ramdas Pophale) SiO2 
 PCOD9068987
Probable space group: P -1
;
_chemical_formula_sum "Si O2"
_cell_formula_units_Z 16
_cell_length_a 17.005069
_cell_length_b 8.647864
_cell_length_c 8.008286
_cell_angle_alpha 85.042630
_cell_angle_beta 132.169135
_cell_angle_gamma 122.460645
_cell_volume 662.085756
_symmetry_space_group_name_H-M "P -1"
_symmetry_group_IT_number 2
_symmetry_cell_setting 'triclinic'
loop_
_space_group_symop_operation_xyz
x,y,z
-x,-y,-z
loop_
_atom_site_type_symbol
_atom_site_label
_atom_site_fract_x
_atom_site_fract_y
_atom_site_fract_z
Si Si1 0.326677 0.747428 0.546078
Si Si2 0.009075 0.301264 0.703783
Si Si3 0.874392 0.326907 0.970440
Si Si4 0.689235 0.957772 0.301214
Si Si5 0.614657 0.080199 0.853298
Si Si6 0.054015 0.219733 0.104945
Si Si7 0.119275 0.232094 0.580625
Si Si8 0.602708 0.385844 0.012354
O O1 0.353816 0.662941 0.749509
O O2 0.324933 0.919858 0.595419
O O3 0.461336 0.871739 0.607158
O O4 0.181191 0.601863 0.255717
O O5 0.019849 0.486920 0.770128
O O6 0.070655 0.338619 0.604901
O O7 0.853729 0.080911 0.511803
O O8 0.105607 0.309844 0.979823
O O9 0.932278 0.228808 0.975268
O O10 0.736151 0.162309 0.890747
O O11 0.560384 0.722459 0.187070
O O12 0.651632 0.010062 0.072667
O O13 0.614647 0.260406 0.900276
O O14 0.120128 0.254118 0.380379
O O15 0.000000 0.000000 0.000000
O O16 0.280607 0.368772 0.858055
O O17 0.000000 0.000000 0.500000
#
# Coordination Sequence:
#
# PCOD9068987 Si02
#       8
#     2   2   2   2   2   2   2   2
#     4   9  18  34  59  96 139 164 202 271 336 383
#     4  12  24  42  68 102 131 167 227 273 326 389
#     4  12  22  36  66 102 132 166 220 280 323 380
#     4   9  19  36  59  92 135 167 206 267 327 394
#     4   9  18  33  59  99 133 164 208 267 331 390
#     4  12  27  44  62  94 137 176 215 269 334 389
#     4  12  25  44  69  90 128 179 219 272 328 387
#     4   9  19  39  62  92 133 168 211 265 333 390
#
# _framework density 24.166053000000002
#
# number of rings (size 3 to 8) (size 9 to 14) (size 15 to 20)
#    0.000    1.500    3.750    3.750    3.500    1.000 
#    0.000    0.625    0.000    0.750    0.000    0.000 
#    0.000    0.000    0.000    0.000    0.000    0.000 
#
# Total GULP energy -89109.534080 kJ/mol
# GULP energy per Si atom -5569.345880 kJ/mol
# Density = 2.411105 g / cm^3
# Si number density = 24.166053 Si / 1000 Ang^3
#
#
#
# Elastic Constant Matrix: (Units=GPa)
#
#
# Indices 1 2 3 4 5 6 
#
# 1 118.6719 7.0023 30.8424 17.9079 1.3854 21.5583
# 2 7.0023 38.4396 26.0938 9.1481 4.6191 14.2213
# 3 30.8424 26.0938 110.0182 28.6269 -0.1808 -1.5249
# 4 17.9079 9.1481 28.6269 34.6388 13.6107 9.0576
# 5 1.3854 4.6191 -0.1808 13.6107 38.7008 6.9483
# 6 21.5583 14.2213 -1.5249 9.0576 6.9483 27.9569
#
#
#
# Elastic Compliance Matrix: (Units=1/GPa)
#
#
# Indices 1 2 3 4 5 6 
#
# 1 0.011563 0.005332 -0.004325 -0.001318 0.001514 -0.011814
# 2 0.005332 0.043779 -0.013631 0.005216 -0.002241 -0.028258
# 3 -0.004325 -0.013631 0.017394 -0.014021 0.004150 0.014729
# 4 -0.001318 0.005216 -0.014021 0.049674 -0.015481 -0.014648
# 5 0.001514 -0.002241 0.004150 -0.015481 0.032008 -0.002741
# 6 -0.011814 -0.028258 0.014729 -0.014648 -0.002741 0.065484
#
#
# Mechanical properties :
#
#
# Convention : Reuss Voigt Hill
#
# Bulk Modulus (GPa) = 21.05742 43.88964 32.47353
# Shear Modulus (GPa) = 19.15860 33.80539 26.48200
#
# Velocity S-wave (km/s) = 2.81871 3.74422 3.31393
# Velocity P-wave (km/s) = 4.39614 6.07399 5.30186
#
# Compressibility (1/GPa) = 0.04748921
#
# Stress axis : x y z
#
# Youngs Moduli (GPa) = 86.48032 22.84217 57.49112
#
# Poissons Ratio (x) = -0.12179 0.24862
# Poissons Ratio (y) = -0.46109 0.78364
# Poissons Ratio (z) = 0.37399 0.31135
#
# Static dielectric constant tensor:
#      x y z
#    x 1.931620 0.020070 0.009970 
#    y 0.020070 2.054310 0.057710 
#    z 0.009970 0.057710 2.036920 
# 
# From -- ./inp_files/329075.got.cif
#   From: 2010.05.17/outbox.cif.g08.bks.cpg/sg2_165_cif.got.tgz:329075.got - 2010.06.03 11:33:40.
