data_PCOD9068394
_publ_section_title
;
Structure prediction by ZEFSAII (Michael W. Deem and Ramdas Pophale) SiO2 
 PCOD9068394
Probable space group: P -1
;
_chemical_formula_sum "Si O2"
_cell_formula_units_Z 16
_cell_length_a 9.359011
_cell_length_b 5.102957
_cell_length_c 17.238827
_cell_angle_alpha 103.176151
_cell_angle_beta 56.475190
_cell_angle_gamma 80.791071
_cell_volume 625.440105
_symmetry_space_group_name_H-M "P -1"
_symmetry_group_IT_number 2
_symmetry_cell_setting 'triclinic'
loop_
_space_group_symop_operation_xyz
x,y,z
-x,-y,-z
loop_
_atom_site_type_symbol
_atom_site_label
_atom_site_fract_x
_atom_site_fract_y
_atom_site_fract_z
Si Si1 0.865807 0.326517 0.401704
Si Si2 0.114590 0.206958 0.489682
Si Si3 0.283021 0.462594 0.113672
Si Si4 0.376636 0.649095 0.370921
Si Si5 0.781178 0.476154 0.182243
Si Si6 0.263077 0.223616 0.263886
Si Si7 0.938287 0.973944 0.206644
Si Si8 0.402540 0.339722 0.909396
O O1 0.284248 0.655496 0.484520
O O2 0.084935 0.151563 0.339289
O O3 0.863542 0.656454 0.424512
O O4 0.837350 0.184317 0.321790
O O5 0.000000 0.500000 0.500000
O O6 0.313855 0.989539 0.392243
O O7 0.000000 0.000000 0.500000
O O8 0.209957 0.339967 0.200333
O O9 0.474477 0.475027 0.088432
O O10 0.313197 0.289451 0.012750
O O11 0.144557 0.778811 0.155032
O O12 0.591666 0.516727 0.286770
O O13 0.297073 0.473851 0.321804
O O14 0.921117 0.175356 0.150881
O O15 0.735124 0.503048 0.106540
O O16 0.845980 0.738013 0.202123
O O17 0.450178 0.954868 0.185989
#
# Coordination Sequence:
#
# PCOD9068394 Si02
#       8
#     2   2   2   2   2   2   2   2
#     4  12  27  45  76 112 162 210 265 319 389 463
#     4  12  25  40  68 114 153 194 260 325 391 445
#     4  11  26  49  84 119 154 199 270 340 408 469
#     4  12  28  45  75 114 159 215 262 326 387 473
#     4  12  30  53  77 113 169 216 268 317 405 477
#     4  12  23  47  81 123 159 197 265 342 404 467
#     4  12  30  53  75 117 165 222 260 326 395 486
#     4  11  26  50  84 119 152 203 266 345 402 478
#
# _framework density 25.581983999999999
#
# number of rings (size 3 to 8) (size 9 to 14) (size 15 to 20)
#    0.000    0.250    5.000    2.250   10.500    2.000 
#    0.000    0.000    0.000    0.000    0.000    0.000 
#    0.000    0.000    0.000    0.000    0.000    0.000 
#
# Total GULP energy -89473.739486 kJ/mol
# GULP energy per Si atom -5592.108718 kJ/mol
# Density = 2.552376 g / cm^3
# Si number density = 25.581984 Si / 1000 Ang^3
#
#
#
# Elastic Constant Matrix: (Units=GPa)
#
#
# Indices 1 2 3 4 5 6 
#
# 1 105.3026 48.2028 18.9450 -9.6292 24.5935 4.2053
# 2 48.2028 140.7606 43.7195 -1.9795 21.1436 -6.2160
# 3 18.9450 43.7195 140.0084 -13.0954 25.3117 -0.0178
# 4 -9.6292 -1.9795 -13.0954 40.1442 1.6203 4.4549
# 5 24.5935 21.1436 25.3117 1.6203 34.1048 -1.8518
# 6 4.2053 -6.2160 -0.0178 4.4549 -1.8518 46.5256
#
#
#
# Elastic Compliance Matrix: (Units=1/GPa)
#
#
# Indices 1 2 3 4 5 6 
#
# 1 0.013490 -0.003771 0.001306 0.004100 -0.008687 -0.002461
# 2 -0.003771 0.009351 -0.002317 -0.001336 -0.001204 0.001669
# 3 0.001306 -0.002317 0.009212 0.003583 -0.006568 -0.001029
# 4 0.004100 -0.001336 0.003583 0.027632 -0.006287 -0.003444
# 5 -0.008687 -0.001204 -0.006568 -0.006287 0.041663 0.002882
# 6 -0.002461 0.001669 -0.001029 -0.003444 0.002882 0.022383
#
#
# Mechanical properties :
#
#
# Convention : Reuss Voigt Hill
#
# Bulk Modulus (GPa) = 44.46710 67.53403 56.00057
# Shear Modulus (GPa) = 35.51366 42.50187 39.00777
#
# Velocity S-wave (km/s) = 3.72994 4.08045 3.90912
# Velocity P-wave (km/s) = 5.99749 6.97542 6.50486
#
# Compressibility (1/GPa) = 0.02248853
#
# Stress axis : x y z
#
# Youngs Moduli (GPa) = 74.12948 106.93931 108.55880
#
# Poissons Ratio (x) = 0.40330 -0.14177
# Poissons Ratio (y) = 0.27956 0.25150
# Poissons Ratio (z) = -0.09681 0.24775
#
# Static dielectric constant tensor:
#      x y z
#    x 2.105160 -0.041750 0.041800 
#    y -0.041750 2.156460 -0.107990 
#    z 0.041800 -0.107990 2.156070 
# 
# From -- ./inp_files/585414.got.cif
#   From: 2010.05.17/outbox.cif.g08.bks.cpg/sg2_293_cif.got.tgz:585414.got - 2010.06.03 11:33:40.
