data_PCOD9068762
_publ_section_title
;
Structure prediction by ZEFSAII (Michael W. Deem and Ramdas Pophale) SiO2 
 PCOD9068762
Probable space group: P -1
;
_chemical_formula_sum "Si O2"
_cell_formula_units_Z 8
_cell_length_a 5.602964
_cell_length_b 11.228768
_cell_length_c 4.755977
_cell_angle_alpha 91.809118
_cell_angle_beta 82.731465
_cell_angle_gamma 104.447830
_cell_volume 287.428148
_symmetry_space_group_name_H-M "P -1"
_symmetry_group_IT_number 2
_symmetry_cell_setting 'triclinic'
loop_
_space_group_symop_operation_xyz
x,y,z
-x,-y,-z
loop_
_atom_site_type_symbol
_atom_site_label
_atom_site_fract_x
_atom_site_fract_y
_atom_site_fract_z
Si Si1 0.607765 0.715547 0.999996
Si Si2 0.969947 0.114901 0.702823
Si Si3 0.355031 0.885097 0.702808
Si Si4 0.737135 0.500004 0.668141
O O1 0.526581 0.802918 0.791854
O O2 0.761443 0.622318 0.856595
O O3 0.776311 0.802921 0.208147
O O4 0.360871 0.622303 0.143386
O O5 0.842903 0.185803 0.500018
O O6 0.210259 0.920538 0.999990
O O7 0.000000 0.000000 0.500000
O O8 0.500000 0.000000 0.500000
O O9 0.500000 0.500000 0.500000
O O10 0.000000 0.500000 0.500000
#
# Coordination Sequence:
#
# PCOD9068762 Si02
#       4
#     2   2   2   2
#     4  11  32  56  92 130 190 245 312 400 470 569
#     4  12  32  55  88 135 191 249 312 381 481 575
#     4  12  32  55  88 135 191 249 312 381 481 575
#     4  11  30  59  93 136 181 249 328 391 480 554
#
# _framework density 27.833044000000001
#
# number of rings (size 3 to 8) (size 9 to 14) (size 15 to 20)
#    0.000    0.500    0.000    1.500   24.500    2.000 
#    9.000    3.750    0.000    0.000    0.000    0.000 
#    0.000    0.000    0.000    0.000    0.000    0.000 
#
# Total GULP energy -44966.505499 kJ/mol
# GULP energy per Si atom -5620.813187 kJ/mol
# Density = 2.776969 g / cm^3
# Si number density = 27.833044 Si / 1000 Ang^3
#
#
#
# Elastic Constant Matrix: (Units=GPa)
#
#
# Indices 1 2 3 4 5 6 
#
# 1 216.4056 106.0524 121.7779 -1.5578 -2.0220 -1.2772
# 2 106.0524 230.9650 129.1318 2.7789 -15.2259 0.6574
# 3 121.7779 129.1318 254.9598 0.7041 -15.9892 0.8501
# 4 -1.5578 2.7789 0.7041 60.0031 -1.2316 -24.3768
# 5 -2.0220 -15.2259 -15.9892 -1.2316 102.5069 -0.3589
# 6 -1.2772 0.6574 0.8501 -24.3768 -0.3589 39.4114
#
#
#
# Elastic Compliance Matrix: (Units=1/GPa)
#
#
# Indices 1 2 3 4 5 6 
#
# 1 0.006876 -0.001873 -0.002371 0.000541 -0.000504 0.000635
# 2 -0.001873 0.006574 -0.002397 -0.000480 0.000558 -0.000411
# 3 -0.002371 -0.002397 0.006306 -0.000108 0.000579 -0.000234
# 4 0.000541 -0.000480 -0.000108 0.022332 0.000239 0.013843
# 5 -0.000504 0.000558 0.000579 0.000239 0.009922 0.000200
# 6 0.000635 -0.000411 -0.000234 0.013843 0.000200 0.033970
#
#
# Mechanical properties :
#
#
# Convention : Reuss Voigt Hill
#
# Bulk Modulus (GPa) = 154.47065 157.36161 155.91613
# Shear Modulus (GPa) = 49.30024 63.40883 56.35454
#
# Velocity S-wave (km/s) = 4.21323 4.77821 4.50459
# Velocity P-wave (km/s) = 8.90437 9.33285 9.12113
#
# Compressibility (1/GPa) = 0.00647372
#
# Stress axis : x y z
#
# Youngs Moduli (GPa) = 145.43443 152.12005 158.58316
#
# Poissons Ratio (x) = 0.28498 0.37593
# Poissons Ratio (y) = 0.27245 0.38012
# Poissons Ratio (z) = 0.34476 0.36463
#
# Static dielectric constant tensor:
#      x y z
#    x 2.420920 -0.013670 -0.140930 
#    y -0.013670 2.132400 0.008550 
#    z -0.140930 0.008550 2.308260 
# 
# From -- ./inp_files/1617.got.cif
#   From: 2010.05.17/outbox.cif.g08.bks.cpg/sg2_1_cif.got.tgz:1617.got - 2010.06.03 11:33:40.
