data_PCOD9068859
_publ_section_title
;
Structure prediction by ZEFSAII (Michael W. Deem and Ramdas Pophale) SiO2 
 PCOD9068859
Probable space group: P -1
;
_chemical_formula_sum "Si O2"
_cell_formula_units_Z 16
_cell_length_a 9.200675
_cell_length_b 15.513097
_cell_length_c 20.454414
_cell_angle_alpha 39.820205
_cell_angle_beta 151.674053
_cell_angle_gamma 143.787805
_cell_volume 800.771205
_symmetry_space_group_name_H-M "P -1"
_symmetry_group_IT_number 2
_symmetry_cell_setting 'triclinic'
loop_
_space_group_symop_operation_xyz
x,y,z
-x,-y,-z
loop_
_atom_site_type_symbol
_atom_site_label
_atom_site_fract_x
_atom_site_fract_y
_atom_site_fract_z
Si Si1 0.323174 0.102358 0.394644
Si Si2 0.511269 0.161220 0.185198
Si Si3 0.974579 0.103468 0.486383
Si Si4 0.944335 0.829550 0.188726
Si Si5 0.401420 0.925394 0.875660
Si Si6 0.983423 0.348288 0.552486
Si Si7 0.023968 0.744680 0.123078
Si Si8 0.525683 0.629500 0.386265
O O1 0.619766 0.266507 0.420097
O O2 0.959529 0.087443 0.233385
O O3 0.500000 0.000000 0.500000
O O4 0.240262 0.031203 0.473808
O O5 0.802486 0.202538 0.329621
O O6 0.640810 0.141152 0.176182
O O7 0.236647 0.997493 0.196016
O O8 0.316905 0.264194 0.039855
O O9 0.283269 0.217286 0.585292
O O10 0.000000 0.000000 0.500000
O O11 0.989455 0.750836 0.317864
O O12 0.972180 0.750764 0.177602
O O13 0.587982 0.843888 0.038223
O O14 0.683843 0.095321 0.879067
O O15 0.000000 0.500000 0.500000
O O16 0.264392 0.366913 0.597850
O O17 0.160290 0.624337 0.229345
O O18 0.500000 0.500000 0.500000
#
# Coordination Sequence:
#
# PCOD9068859 Si02
#       8
#     2   2   2   2   2   2   2   2
#     4  12  22  39  60  91 125 154 204 255 290 351
#     4   9  17  31  61  92 117 153 200 246 294 352
#     4  12  21  37  66  92 119 159 206 246 295 350
#     4   9  18  35  60  88 119 159 196 245 301 352
#     4   9  17  33  60  90 121 153 200 246 293 353
#     4  12  26  41  60  89 125 163 198 245 309 358
#     4   9  17  36  58  88 121 155 198 246 295 353
#     4  12  26  42  60  90 124 158 202 251 300 363
#
# _framework density 19.980737999999999
#
# number of rings (size 3 to 8) (size 9 to 14) (size 15 to 20)
#    0.000    1.500    5.000    3.000    1.750    0.000 
#    2.250    3.125    0.000    0.000    0.000    0.000 
#    0.000    0.000    0.000    0.000    0.000    0.000 
#
# Total GULP energy -89129.962214 kJ/mol
# GULP energy per Si atom -5570.622638 kJ/mol
# Density = 1.993526 g / cm^3
# Si number density = 19.980738 Si / 1000 Ang^3
#
#
#
# Elastic Constant Matrix: (Units=GPa)
#
#
# Indices 1 2 3 4 5 6 
#
# 1 91.7021 19.3269 27.7039 -13.7788 15.4848 4.6158
# 2 19.3269 41.6344 13.9820 -8.7203 13.1379 -8.9769
# 3 27.7039 13.9820 142.0706 -5.1594 17.5140 4.8016
# 4 -13.7788 -8.7203 -5.1594 26.9675 2.6149 -2.4026
# 5 15.4848 13.1379 17.5140 2.6149 39.5437 -5.4354
# 6 4.6158 -8.9769 4.8016 -2.4026 -5.4354 19.4024
#
#
#
# Elastic Compliance Matrix: (Units=1/GPa)
#
#
# Indices 1 2 3 4 5 6 
#
# 1 0.014197 -0.004873 -0.001339 0.005333 -0.004511 -0.005904
# 2 -0.004873 0.035149 -0.001794 0.010771 -0.007331 0.017146
# 3 -0.001339 -0.001794 0.007948 0.000244 -0.002863 -0.003250
# 4 0.005333 0.010771 0.000244 0.044715 -0.007768 0.007015
# 5 -0.004511 -0.007331 -0.002863 -0.007768 0.032157 0.006437
# 6 -0.005904 0.017146 -0.003250 0.007015 0.006437 0.064353
#
#
# Mechanical properties :
#
#
# Convention : Reuss Voigt Hill
#
# Bulk Modulus (GPa) = 24.22346 44.15919 34.19133
# Shear Modulus (GPa) = 21.90185 31.47567 26.68876
#
# Velocity S-wave (km/s) = 3.31440 3.97331 3.65872
# Velocity P-wave (km/s) = 5.17656 6.57255 5.91588
#
# Compressibility (1/GPa) = 0.04128229
#
# Stress axis : x y z
#
# Youngs Moduli (GPa) = 70.43838 28.45030 125.81647
#
# Poissons Ratio (x) = 0.13863 0.16853
# Poissons Ratio (y) = 0.34323 0.22567
# Poissons Ratio (z) = 0.09435 0.05103
#
# Static dielectric constant tensor:
#      x y z
#    x 1.652790 0.010430 0.022690 
#    y 0.010430 1.664360 0.029800 
#    z 0.022690 0.029800 1.768390 
# 
# From -- ./inp_files/590471.got.cif
#   From: 2010.05.17/outbox.cif.g08.bks.cpg/sg2_296_cif.got.tgz:590471.got - 2010.06.03 11:33:40.
