data_PCOD9068851
_publ_section_title
;
Structure prediction by ZEFSAII (Michael W. Deem and Ramdas Pophale) SiO2 
 PCOD9068851
Probable space group: P -1
;
_chemical_formula_sum "Si O2"
_cell_formula_units_Z 14
_cell_length_a 10.563358
_cell_length_b 8.359271
_cell_length_c 10.006944
_cell_angle_alpha 85.374433
_cell_angle_beta 139.077617
_cell_angle_gamma 89.588638
_cell_volume 573.778091
_symmetry_space_group_name_H-M "P -1"
_symmetry_group_IT_number 2
_symmetry_cell_setting 'triclinic'
loop_
_space_group_symop_operation_xyz
x,y,z
-x,-y,-z
loop_
_atom_site_type_symbol
_atom_site_label
_atom_site_fract_x
_atom_site_fract_y
_atom_site_fract_z
Si Si1 0.632826 0.334199 0.136004
Si Si2 0.215486 0.794295 0.992793
Si Si3 0.642708 0.798764 0.408243
Si Si4 0.876048 0.468702 0.532829
Si Si5 0.583886 0.906870 0.897130
Si Si6 0.387409 0.292211 0.331772
Si Si7 0.814494 0.366824 0.765157
O O1 0.731132 0.351918 0.356386
O O2 0.483721 0.196860 0.027394
O O3 0.500000 0.500000 0.000000
O O4 0.790826 0.297347 0.146633
O O5 0.433934 0.734522 0.220427
O O6 0.104109 0.751515 0.041274
O O7 0.760782 0.019338 0.036876
O O8 0.784049 0.648564 0.484413
O O9 0.668136 0.823204 0.584160
O O10 0.609274 0.970795 0.299788
O O11 0.944239 0.391105 0.735068
O O12 0.000000 0.500000 0.500000
O O13 0.628363 0.788339 0.817017
O O14 0.611514 0.320307 0.541468
O O15 0.251771 0.459706 0.231410
#
# Coordination Sequence:
#
# PCOD9068851 Si02
#       7
#     2   2   2   2   2   2   2
#     4  12  20  34  54  81 108 141 174 224 271 310
#     4   9  19  30  52  82 109 126 174 226 271 305
#     4   8  18  31  49  82 109 128 178 219 264 311
#     4  11  22  37  55  76 109 150 183 210 255 321
#     4  10  18  28  52  84 112 132 166 227 282 305
#     4   9  14  26  51  78 105 132 168 225 264 304
#     4   9  17  32  50  78 106 138 180 217 258 316
#
# _framework density 24.399678000000002
#
# number of rings (size 3 to 8) (size 9 to 14) (size 15 to 20)
#    0.857    1.429    2.857    2.571    0.000    0.000 
#    0.000    1.429    0.000    0.000    0.000    6.000 
#    0.000    0.000    0.000    0.000    0.000    0.000 
#
# Total GULP energy -78023.835448 kJ/mol
# GULP energy per Si atom -5573.131103 kJ/mol
# Density = 2.434414 g / cm^3
# Si number density = 24.399678 Si / 1000 Ang^3
#
#
#
# Elastic Constant Matrix: (Units=GPa)
#
#
# Indices 1 2 3 4 5 6 
#
# 1 75.4899 28.9866 41.2125 10.3156 -38.0748 7.9818
# 2 28.9866 93.5321 30.1973 -2.1140 -18.0830 14.8971
# 3 41.2125 30.1973 86.3975 11.5327 -31.1553 0.7970
# 4 10.3156 -2.1140 11.5327 33.6776 -0.3459 -22.8594
# 5 -38.0748 -18.0830 -31.1553 -0.3459 49.0701 1.1093
# 6 7.9818 14.8971 0.7970 -22.8594 1.1093 28.4819
#
#
#
# Elastic Compliance Matrix: (Units=1/GPa)
#
#
# Indices 1 2 3 4 5 6 
#
# 1 0.041907 0.000886 -0.002060 -0.045790 0.032346 -0.050160
# 2 0.000886 0.014228 -0.002491 -0.008287 0.004617 -0.014451
# 3 -0.002060 -0.002491 0.018281 -0.010995 0.009190 -0.007814
# 4 -0.045790 -0.008287 -0.010995 0.130907 -0.047453 0.124387
# 5 0.032346 0.004617 0.009190 -0.047453 0.053852 -0.051920
# 6 -0.050160 -0.014451 -0.007814 0.124387 -0.051920 0.158799
#
#
# Mechanical properties :
#
#
# Convention : Reuss Voigt Hill
#
# Bulk Modulus (GPa) = 14.90657 50.69027 32.79842
# Shear Modulus (GPa) = 11.16900 32.58078 21.87489
#
# Velocity S-wave (km/s) = 2.14184 3.65813 2.99745
# Velocity P-wave (km/s) = 3.49846 6.21793 5.04489
#
# Compressibility (1/GPa) = 0.06708452
#
# Stress axis : x y z
#
# Youngs Moduli (GPa) = 23.86264 70.28240 54.70031
#
# Poissons Ratio (x) = -0.06224 0.11271
# Poissons Ratio (y) = -0.02113 0.13626
# Poissons Ratio (z) = 0.04917 0.17508
#
# Static dielectric constant tensor:
#      x y z
#    x 2.173530 0.125340 -0.004480 
#    y 0.125340 1.951570 0.016960 
#    z -0.004480 0.016960 1.954320 
# 
# From -- ./inp_files/238685.got.cif
#   From: 2010.05.17/outbox.cif.g08.bks.cpg/sg2_120_cif.got.tgz:238685.got - 2010.06.03 11:33:40.
