data_PCOD9068283
_publ_section_title
;
Structure prediction by ZEFSAII (Michael W. Deem and Ramdas Pophale) SiO2 
 PCOD9068283
Probable space group: P -1
;
_chemical_formula_sum "Si O2"
_cell_formula_units_Z 14
_cell_length_a 13.354402
_cell_length_b 12.274953
_cell_length_c 5.096933
_cell_angle_alpha 78.401594
_cell_angle_beta 84.572496
_cell_angle_gamma 43.355321
_cell_volume 560.228215
_symmetry_space_group_name_H-M "P -1"
_symmetry_group_IT_number 2
_symmetry_cell_setting 'triclinic'
loop_
_space_group_symop_operation_xyz
x,y,z
-x,-y,-z
loop_
_atom_site_type_symbol
_atom_site_label
_atom_site_fract_x
_atom_site_fract_y
_atom_site_fract_z
Si Si1 0.728483 0.095417 0.428931
Si Si2 0.859515 0.425256 0.129935
Si Si3 0.055786 0.259781 0.674851
Si Si4 0.675263 0.370318 0.023799
Si Si5 0.108753 0.907052 0.260023
Si Si6 0.453410 0.940778 0.344841
Si Si7 0.741310 0.750096 0.072403
O O1 0.716792 0.225068 0.241454
O O2 0.786542 0.072913 0.717735
O O3 0.579258 0.147141 0.459022
O O4 0.000000 0.000000 0.500000
O O5 0.935715 0.369131 0.422765
O O6 0.731677 0.436762 0.121875
O O7 0.817192 0.586146 0.992037
O O8 0.978381 0.295519 0.949606
O O9 0.158471 0.076348 0.654989
O O10 0.158220 0.283814 0.701436
O O11 0.500000 0.500000 0.000000
O O12 0.770081 0.282865 0.770151
O O13 0.000000 0.000000 0.000000
O O14 0.587950 0.822715 0.173147
O O15 0.500000 0.000000 0.500000
O O16 0.308365 0.104604 0.158824
#
# Coordination Sequence:
#
# PCOD9068283 Si02
#       7
#     2   2   2   2   2   2   2
#     4  12  28  49  84 113 163 205 280 321 409 483
#     4  12  30  49  81 115 166 204 266 330 411 475
#     4  12  27  49  82 118 152 216 261 338 397 484
#     4  12  32  52  80 124 168 219 269 339 413 488
#     4  12  26  51  83 116 159 214 268 331 395 487
#     4  11  26  48  80 112 153 214 266 335 402 481
#     4  11  27  49  77 117 158 204 272 334 408 474
#
# _framework density 24.989818
#
# number of rings (size 3 to 8) (size 9 to 14) (size 15 to 20)
#    0.000    0.286    2.857    3.429   12.000    0.571 
#    0.000    0.000    0.000    0.000    0.000    0.000 
#    0.000    0.000    0.000    0.000    0.000    0.000 
#
# Total GULP energy -78338.932325 kJ/mol
# GULP energy per Si atom -5595.638023 kJ/mol
# Density = 2.493294 g / cm^3
# Si number density = 24.989818 Si / 1000 Ang^3
#
#
#
# Elastic Constant Matrix: (Units=GPa)
#
#
# Indices 1 2 3 4 5 6 
#
# 1 169.3908 50.5832 40.3821 -8.8269 26.6412 11.6082
# 2 50.5832 106.4399 14.1927 4.6348 22.4753 -0.8645
# 3 40.3821 14.1927 93.8125 13.1562 21.8294 -6.3454
# 4 -8.8269 4.6348 13.1562 27.8728 9.0469 6.7998
# 5 26.6412 22.4753 21.8294 9.0469 41.5685 1.2564
# 6 11.6082 -0.8645 -6.3454 6.7998 1.2564 48.2909
#
#
#
# Elastic Compliance Matrix: (Units=1/GPa)
#
#
# Indices 1 2 3 4 5 6 
#
# 1 0.008983 -0.003390 -0.003826 0.007199 -0.003372 -0.003649
# 2 -0.003390 0.011898 0.001146 -0.002585 -0.004349 0.001656
# 3 -0.003826 0.001146 0.014485 -0.007872 -0.004184 0.004061
# 4 0.007199 -0.002585 -0.007872 0.047532 -0.009147 -0.009266
# 5 -0.003372 -0.004349 -0.004184 -0.009147 0.032738 0.000619
# 6 -0.003649 0.001656 0.004061 -0.009266 0.000619 0.023437
#
#
# Mechanical properties :
#
#
# Convention : Reuss Voigt Hill
#
# Bulk Modulus (GPa) = 43.05502 64.43991 53.74746
# Shear Modulus (GPa) = 31.45519 41.17877 36.31698
#
# Velocity S-wave (km/s) = 3.55169 4.06374 3.81631
# Velocity P-wave (km/s) = 5.83830 6.91817 6.40105
#
# Compressibility (1/GPa) = 0.02322610
#
# Stress axis : x y z
#
# Youngs Moduli (GPa) = 111.31546 84.05008 69.03562
#
# Poissons Ratio (x) = 0.28495 0.26412
# Poissons Ratio (y) = 0.37738 -0.07911
# Poissons Ratio (z) = 0.42588 -0.09631
#
# Static dielectric constant tensor:
#      x y z
#    x 1.994940 -0.036820 -0.001030 
#    y -0.036820 1.998180 -0.015220 
#    z -0.001030 -0.015220 2.045330 
# 
# From -- ./inp_files/69803.got.cif
#   From: 2010.05.17/outbox.cif.g08.bks.cpg/sg2_35_cif.got.tgz:69803.got - 2010.06.03 11:33:40.
