data_PCOD9068580
_publ_section_title
;
Structure prediction by ZEFSAII (Michael W. Deem and Ramdas Pophale) SiO2 
 PCOD9068580
Probable space group: P -1
;
_chemical_formula_sum "Si O2"
_cell_formula_units_Z 13
_cell_length_a 16.344484
_cell_length_b 9.803807
_cell_length_c 14.254077
_cell_angle_alpha 137.293252
_cell_angle_beta 160.673123
_cell_angle_gamma 43.018625
_cell_volume 505.415017
_symmetry_space_group_name_H-M "P -1"
_symmetry_group_IT_number 2
_symmetry_cell_setting 'triclinic'
loop_
_space_group_symop_operation_xyz
x,y,z
-x,-y,-z
loop_
_atom_site_type_symbol
_atom_site_label
_atom_site_fract_x
_atom_site_fract_y
_atom_site_fract_z
Si Si1 0.220116 0.355608 0.716560
Si Si2 0.332034 0.329425 0.225713
Si Si3 0.599181 0.913936 0.379434
Si Si4 0.407056 0.686048 0.210614
Si Si5 0.000000 0.000000 0.000000
Si Si6 0.863037 0.469350 0.701415
Si Si7 0.776687 0.026387 0.349527
O O1 0.404995 0.271272 0.790015
O O2 0.146459 0.154613 0.583701
O O3 0.000000 0.500000 0.500000
O O4 0.325357 0.493028 0.976274
O O5 0.500000 0.500000 0.500000
O O6 0.165167 0.374043 0.162310
O O7 0.491040 0.110335 0.301586
O O8 0.156520 0.376685 0.969235
O O9 0.421213 0.877510 0.254586
O O10 0.869194 0.914083 0.719687
O O11 0.693203 0.605084 0.510720
O O12 0.214547 0.789997 0.132518
O O13 0.754847 0.256204 0.483379
O O14 0.000000 0.000000 0.500000
O O15 0.500000 0.000000 0.000000
#
# Coordination Sequence:
#
# PCOD9068580 Si02
#       7
#     2   2   2   2   1   2   2
#     4  12  28  51  80 120 159 217 274 346 412 503
#     4  11  27  47  75 111 156 210 268 339 410 491
#     4  12  28  48  81 114 159 210 277 335 419 489
#     4  12  27  50  80 115 158 215 274 342 421 492
#     4  12  26  48  76 112 162 204 274 324 422 492
#     4  11  27  47  76 111 158 207 276 332 418 483
#     4  12  30  53  83 121 165 221 276 342 420 508
#
# _framework density 25.721436000000001
#
# number of rings (size 3 to 8) (size 9 to 14) (size 15 to 20)
#    0.000    0.308    4.615    1.846   10.769    1.231 
#    0.000    0.000    0.000    0.000    0.000    0.000 
#    0.000    0.000    0.000    0.000    0.000    0.000 
#
# Total GULP energy -72515.945167 kJ/mol
# GULP energy per Si atom -5578.149628 kJ/mol
# Density = 2.566289 g / cm^3
# Si number density = 25.721436 Si / 1000 Ang^3
#
#
#
# Elastic Constant Matrix: (Units=GPa)
#
#
# Indices 1 2 3 4 5 6 
#
# 1 39.7625 27.2017 21.6932 1.0034 -13.4551 -3.9413
# 2 27.2017 194.5500 56.9246 -21.2864 -5.9654 8.0584
# 3 21.6932 56.9246 126.6522 -22.4368 2.4601 -4.3387
# 4 1.0034 -21.2864 -22.4368 40.0300 -4.3799 -14.5151
# 5 -13.4551 -5.9654 2.4601 -4.3799 27.2893 8.0588
# 6 -3.9413 8.0584 -4.3387 -14.5151 8.0588 46.6627
#
#
#
# Elastic Compliance Matrix: (Units=1/GPa)
#
#
# Indices 1 2 3 4 5 6 
#
# 1 0.036564 -0.003267 -0.005994 -0.004589 0.017519 -0.001358
# 2 -0.003267 0.006482 -0.002034 0.002078 0.000632 -0.001047
# 3 -0.005994 -0.002034 0.011126 0.006103 -0.004472 0.003550
# 4 -0.004589 0.002078 0.006103 0.033314 -0.000020 0.010187
# 5 0.017519 0.000632 -0.004472 -0.000020 0.047988 -0.007339
# 6 -0.001358 -0.001047 0.003550 0.010187 -0.007339 0.026263
#
#
# Mechanical properties :
#
#
# Convention : Reuss Voigt Hill
#
# Bulk Modulus (GPa) = 31.66354 63.62263 47.64309
# Shear Modulus (GPa) = 25.66027 39.80607 32.73317
#
# Velocity S-wave (km/s) = 3.16194 3.93820 3.57123
# Velocity P-wave (km/s) = 5.06630 6.74301 5.96387
#
# Compressibility (1/GPa) = 0.03158207
#
# Stress axis : x y z
#
# Youngs Moduli (GPa) = 27.34937 154.27053 89.87938
#
# Poissons Ratio (x) = 0.50403 0.53874
# Poissons Ratio (y) = 0.08936 0.18280
# Poissons Ratio (z) = 0.16393 0.31375
#
# Static dielectric constant tensor:
#      x y z
#    x 2.224970 -0.069890 0.066880 
#    y -0.069890 1.960540 -0.048730 
#    z 0.066880 -0.048730 2.088090 
# 
# From -- ./inp_files/94363.got.cif
#   From: 2010.05.17/outbox.cif.g08.bks.cpg/sg2_48_cif.got.tgz:94363.got - 2010.06.03 11:33:40.
