data_PCOD9068653
_publ_section_title
;
Structure prediction by ZEFSAII (Michael W. Deem and Ramdas Pophale) SiO2 
 PCOD9068653
Probable space group: P -1
;
_chemical_formula_sum "Si O2"
_cell_formula_units_Z 14
_cell_length_a 6.797708
_cell_length_b 8.360481
_cell_length_c 11.003396
_cell_angle_alpha 79.582851
_cell_angle_beta 78.586153
_cell_angle_gamma 100.038000
_cell_volume 588.387208
_symmetry_space_group_name_H-M "P -1"
_symmetry_group_IT_number 2
_symmetry_cell_setting 'triclinic'
loop_
_space_group_symop_operation_xyz
x,y,z
-x,-y,-z
loop_
_atom_site_type_symbol
_atom_site_label
_atom_site_fract_x
_atom_site_fract_y
_atom_site_fract_z
Si Si1 0.945844 0.802366 0.030799
Si Si2 0.824642 0.289481 0.219964
Si Si3 0.900315 0.207808 0.727770
Si Si4 0.270812 0.173317 0.537803
Si Si5 0.160412 0.451366 0.349474
Si Si6 0.556780 0.022024 0.657024
Si Si7 0.440134 0.452630 0.876348
O O1 0.702942 0.731041 0.082630
O O2 0.051554 0.746231 0.145361
O O3 0.032083 0.737680 0.906657
O O4 0.000000 0.000000 0.000000
O O5 0.643204 0.125728 0.283502
O O6 0.704938 0.432306 0.177777
O O7 0.969665 0.340898 0.312433
O O8 0.899047 0.376221 0.629805
O O9 0.080172 0.129822 0.658873
O O10 0.686935 0.077779 0.752856
O O11 0.249637 0.340674 0.450623
O O12 0.292169 0.040195 0.449020
O O13 0.475400 0.176851 0.590220
O O14 0.351267 0.516837 0.227178
O O15 0.500000 0.500000 0.000000
#
# Coordination Sequence:
#
# PCOD9068653 Si02
#       7
#     2   2   2   2   2   2   2
#     4  12  28  47  75 110 149 186 243 307 361 437
#     4  12  26  50  73 111 147 195 241 297 373 437
#     4  12  28  48  73 112 150 190 246 308 361 435
#     4  11  27  50  73 109 149 195 249 300 367 436
#     4  12  27  47  78 107 150 193 243 305 366 435
#     4  11  28  47  78 108 145 198 248 300 369 432
#     4  12  25  48  74 106 148 198 240 290 371 441
#
# _framework density 23.793855000000001
#
# number of rings (size 3 to 8) (size 9 to 14) (size 15 to 20)
#    0.000    0.286    4.286    3.000   14.000    1.143 
#    0.000    0.000    0.000    0.000    0.000    0.000 
#    0.000    0.000    0.000    0.000    0.000    0.000 
#
# Total GULP energy -78433.350489 kJ/mol
# GULP energy per Si atom -5602.382178 kJ/mol
# Density = 2.373970 g / cm^3
# Si number density = 23.793855 Si / 1000 Ang^3
#
#
#
# Elastic Constant Matrix: (Units=GPa)
#
#
# Indices 1 2 3 4 5 6 
#
# 1 93.1904 63.9062 22.7911 1.1095 -13.9730 -2.1462
# 2 63.9062 90.3408 12.5746 -19.4972 -3.7730 13.7732
# 3 22.7911 12.5746 61.5204 -6.0927 -11.6240 3.9825
# 4 1.1095 -19.4972 -6.0927 33.4672 -8.8900 4.9047
# 5 -13.9730 -3.7730 -11.6240 -8.8900 33.0037 1.3955
# 6 -2.1462 13.7732 3.9825 4.9047 1.3955 60.1132
#
#
#
# Elastic Compliance Matrix: (Units=1/GPa)
#
#
# Indices 1 2 3 4 5 6 
#
# 1 0.032053 -0.026990 -0.008507 -0.019205 0.001917 0.009414
# 2 -0.026990 0.036806 0.006284 0.025895 0.002476 -0.011983
# 3 -0.008507 0.006284 0.020807 0.010301 0.007394 -0.004134
# 4 -0.019205 0.025895 0.010301 0.052719 0.013161 -0.011908
# 5 0.001917 0.002476 0.007394 0.013161 0.037668 -0.002937
# 6 0.009414 -0.011983 -0.004134 -0.011908 -0.002937 0.021031
#
#
# Mechanical properties :
#
#
# Convention : Reuss Voigt Hill
#
# Bulk Modulus (GPa) = 32.01084 49.28838 40.64961
# Shear Modulus (GPa) = 18.52394 35.03545 26.77970
#
# Velocity S-wave (km/s) = 2.79322 3.84143 3.35847
# Velocity P-wave (km/s) = 4.88727 6.35886 5.67100
#
# Compressibility (1/GPa) = 0.03123941
#
# Stress axis : x y z
#
# Youngs Moduli (GPa) = 31.19876 27.16981 48.06124
#
# Poissons Ratio (x) = 0.73330 0.40885
# Poissons Ratio (y) = 0.84204 -0.30200
# Poissons Ratio (z) = 0.26540 -0.17073
#
# Static dielectric constant tensor:
#      x y z
#    x 1.875840 -0.029210 -0.005540 
#    y -0.029210 1.898750 -0.033340 
#    z -0.005540 -0.033340 1.938340 
# 
# From -- ./inp_files/68227.got.cif
#   From: 2010.05.17/outbox.cif.g08.bks.cpg/sg2_35_cif.got.tgz:68227.got - 2010.06.03 11:33:40.
