data_PCOD9068741
_publ_section_title
;
Structure prediction by ZEFSAII (Michael W. Deem and Ramdas Pophale) SiO2 
 PCOD9068741
Probable space group: P -1
;
_chemical_formula_sum "Si O2"
_cell_formula_units_Z 16
_cell_length_a 7.773880
_cell_length_b 10.827753
_cell_length_c 11.348483
_cell_angle_alpha 111.022485
_cell_angle_beta 45.494845
_cell_angle_gamma 92.710648
_cell_volume 605.275970
_symmetry_space_group_name_H-M "P -1"
_symmetry_group_IT_number 2
_symmetry_cell_setting 'triclinic'
loop_
_space_group_symop_operation_xyz
x,y,z
-x,-y,-z
loop_
_atom_site_type_symbol
_atom_site_label
_atom_site_fract_x
_atom_site_fract_y
_atom_site_fract_z
Si Si1 0.766837 0.892091 0.865508
Si Si2 0.320980 0.252267 0.924009
Si Si3 0.353308 0.521821 0.952966
Si Si4 0.534322 0.297573 0.441354
Si Si5 0.098306 0.233894 0.712819
Si Si6 0.915450 0.154769 0.542012
Si Si7 0.746253 0.493433 0.550055
Si Si8 0.166252 0.018260 0.787581
O O1 0.903493 0.985604 0.905552
O O2 0.438731 0.515270 0.259192
O O3 0.702813 0.774835 0.935017
O O4 0.500000 0.000000 0.000000
O O5 0.737441 0.367964 0.420426
O O6 0.611456 0.207798 0.722229
O O7 0.198925 0.411111 0.001678
O O8 0.193116 0.147797 0.890431
O O9 0.164789 0.674752 0.074647
O O10 0.500000 0.500000 0.000000
O O11 0.405264 0.374184 0.411612
O O12 0.642431 0.130810 0.321982
O O13 0.311781 0.308991 0.647077
O O14 0.030871 0.236613 0.608613
O O15 0.189337 0.077263 0.665139
O O16 0.050567 0.156931 0.352580
O O17 0.000000 0.000000 0.500000
O O18 0.000000 0.500000 0.500000
#
# Coordination Sequence:
#
# PCOD9068741 Si02
#       8
#     2   2   2   2   2   2   2   2
#     4  12  28  49  81 120 165 218 274 342 428 507
#     4  12  28  52  76 122 166 214 279 346 420 502
#     4  12  28  51  82 114 165 225 282 347 421 500
#     4  11  28  52  85 124 163 218 285 342 420 509
#     4  12  26  51  82 116 163 218 279 345 421 492
#     4  12  24  49  81 114 165 214 268 344 421 494
#     4  11  28  56  84 121 170 222 277 343 420 508
#     4  12  28  49  84 120 169 213 273 361 422 493
#
# _framework density 26.434224
#
# number of rings (size 3 to 8) (size 9 to 14) (size 15 to 20)
#    0.000    0.250    3.750    3.000    3.500    8.000 
#    2.250    0.625    0.000    0.000    0.000    0.000 
#    0.000    0.000    0.000    0.000    0.000    0.000 
#
# Total GULP energy -89614.023767 kJ/mol
# GULP energy per Si atom -5600.876485 kJ/mol
# Density = 2.637406 g / cm^3
# Si number density = 26.434224 Si / 1000 Ang^3
#
#
#
# Elastic Constant Matrix: (Units=GPa)
#
#
# Indices 1 2 3 4 5 6 
#
# 1 144.8288 63.1066 38.9033 -11.2599 -8.4960 -4.9112
# 2 63.1066 176.8548 44.6842 -6.7748 -6.8988 -25.5918
# 3 38.9033 44.6842 121.5408 -23.5138 -1.6204 -15.3001
# 4 -11.2599 -6.7748 -23.5138 46.1956 -7.4541 -2.1060
# 5 -8.4960 -6.8988 -1.6204 -7.4541 48.7446 -5.5037
# 6 -4.9112 -25.5918 -15.3001 -2.1060 -5.5037 59.5151
#
#
#
# Elastic Compliance Matrix: (Units=1/GPa)
#
#
# Indices 1 2 3 4 5 6 
#
# 1 0.008642 -0.002686 -0.001657 0.001021 0.001145 -0.000726
# 2 -0.002686 0.007412 -0.001542 -0.000101 0.000812 0.002641
# 3 -0.001657 -0.001542 0.010575 0.004990 0.000853 0.002175
# 4 0.001021 -0.000101 0.004990 0.025265 0.004490 0.002633
# 5 0.001145 0.000812 0.000853 0.004490 0.021866 0.002844
# 6 -0.000726 0.002641 0.002175 0.002633 0.002844 0.018793
#
#
# Mechanical properties :
#
#
# Convention : Reuss Voigt Hill
#
# Bulk Modulus (GPa) = 67.29625 81.84584 74.57105
# Shear Modulus (GPa) = 45.75476 50.65975 48.20725
#
# Velocity S-wave (km/s) = 4.16491 4.38247 4.27508
# Velocity P-wave (km/s) = 6.97438 7.52578 7.25532
#
# Compressibility (1/GPa) = 0.01485967
#
# Stress axis : x y z
#
# Youngs Moduli (GPa) = 115.70958 134.90931 94.55967
#
# Poissons Ratio (x) = 0.36242 0.15671
# Poissons Ratio (y) = 0.31084 0.14577
# Poissons Ratio (z) = 0.19177 0.20797
#
# Static dielectric constant tensor:
#      x y z
#    x 2.188240 0.023130 0.047260 
#    y 0.023130 2.066920 0.018690 
#    z 0.047260 0.018690 2.061840 
# 
# From -- ./inp_files/586760.got.cif
#   From: 2010.05.17/outbox.cif.g08.bks.cpg/sg2_294_cif.got.tgz:586760.got - 2010.06.03 11:33:40.
