data_PCOD9068392
_publ_section_title
;
Structure prediction by ZEFSAII (Michael W. Deem and Ramdas Pophale) SiO2 
 PCOD9068392
Probable space group: P -1
;
_chemical_formula_sum "Si O2"
_cell_formula_units_Z 10
_cell_length_a 5.349933
_cell_length_b 15.186254
_cell_length_c 11.900021
_cell_angle_alpha 30.925867
_cell_angle_beta 125.879448
_cell_angle_gamma 128.298794
_cell_volume 386.377277
_symmetry_space_group_name_H-M "P -1"
_symmetry_group_IT_number 2
_symmetry_cell_setting 'triclinic'
loop_
_space_group_symop_operation_xyz
x,y,z
-x,-y,-z
loop_
_atom_site_type_symbol
_atom_site_label
_atom_site_fract_x
_atom_site_fract_y
_atom_site_fract_z
Si Si1 0.969749 0.511510 0.346631
Si Si2 0.488292 0.061696 0.302545
Si Si3 0.640833 0.104697 0.066258
Si Si4 0.615582 0.466085 0.943872
Si Si5 0.165288 0.178279 0.710582
O O1 0.000000 0.500000 0.500000
O O2 0.160018 0.382302 0.481623
O O3 0.592122 0.440790 0.291607
O O4 0.128720 0.713426 0.124972
O O5 0.747328 0.085309 0.244123
O O6 0.480870 0.261945 0.097147
O O7 0.500000 0.000000 0.500000
O O8 0.186187 0.930056 0.305479
O O9 0.628813 0.916568 0.210806
O O10 0.298426 0.143755 0.906153
O O11 0.500000 0.500000 0.000000
O O12 0.000000 0.500000 0.000000
#
# Coordination Sequence:
#
# PCOD9068392 Si02
#       5
#     2   2   2   2   2
#     4  12  27  50  83 122 157 215 273 334 414 491
#     4  12  27  50  77 112 160 215 270 330 409 486
#     4  11  26  51  80 117 167 204 271 343 405 484
#     4  12  28  55  79 117 168 216 271 344 412 494
#     4  11  26  49  81 120 156 210 270 337 409 480
#
# _framework density 25.881439
#
# number of rings (size 3 to 8) (size 9 to 14) (size 15 to 20)
#    0.000    0.400    2.000    4.800    5.600    4.000 
#    7.200    0.000    0.000    0.000    0.000    0.000 
#    0.000    0.000    0.000    0.000    0.000    0.000 
#
# Total GULP energy -55845.214939 kJ/mol
# GULP energy per Si atom -5584.521494 kJ/mol
# Density = 2.582253 g / cm^3
# Si number density = 25.881439 Si / 1000 Ang^3
#
#
#
# Elastic Constant Matrix: (Units=GPa)
#
#
# Indices 1 2 3 4 5 6 
#
# 1 126.4020 70.1539 71.9350 19.0863 2.2724 -3.6921
# 2 70.1539 146.8346 72.4159 4.4449 -7.7108 -8.6392
# 3 71.9350 72.4159 144.7671 19.4480 2.2004 -5.6822
# 4 19.0863 4.4449 19.4480 66.6565 -19.5405 0.4762
# 5 2.2724 -7.7108 2.2004 -19.5405 51.2569 4.5630
# 6 -3.6921 -8.6392 -5.6822 0.4762 4.5630 64.4907
#
#
#
# Elastic Compliance Matrix: (Units=1/GPa)
#
#
# Indices 1 2 3 4 5 6 
#
# 1 0.012997 -0.004330 -0.003863 -0.002946 -0.002185 0.000000
# 2 -0.004330 0.010751 -0.003563 0.002382 0.002811 0.000662
# 3 -0.003863 -0.003563 0.010973 -0.002383 -0.001781 0.000412
# 4 -0.002946 0.002382 -0.002383 0.018667 0.007774 -0.000747
# 5 -0.002185 0.002811 -0.001781 0.007774 0.023212 -0.001605
# 6 0.000000 0.000662 0.000412 -0.000747 -0.001605 0.015750
#
#
# Mechanical properties :
#
#
# Convention : Reuss Voigt Hill
#
# Bulk Modulus (GPa) = 89.21925 94.11258 91.66592
# Shear Modulus (GPa) = 41.80646 50.04741 45.92694
#
# Velocity S-wave (km/s) = 4.02345 4.40218 4.21707
# Velocity P-wave (km/s) = 7.49208 7.89182 7.69455
#
# Compressibility (1/GPa) = 0.01120834
#
# Stress axis : x y z
#
# Youngs Moduli (GPa) = 76.93968 93.01651 91.13298
#
# Poissons Ratio (x) = 0.40276 0.35208
# Poissons Ratio (y) = 0.33314 0.32470
# Poissons Ratio (z) = 0.29725 0.33142
#
# Static dielectric constant tensor:
#      x y z
#    x 2.304900 0.159870 0.036460 
#    y 0.159870 1.913760 -0.058910 
#    z 0.036460 -0.058910 1.879120 
# 
# From -- ./inp_files/57307.got.cif
#   From: 2010.05.17/outbox.cif.g08.bks.cpg/sg2_29_cif.got.tgz:57307.got - 2010.06.03 11:33:40.
