data_PCOD9068816
_publ_section_title
;
Structure prediction by ZEFSAII (Michael W. Deem and Ramdas Pophale) SiO2 
 PCOD9068816
Probable space group: P -1
;
_chemical_formula_sum "Si O2"
_cell_formula_units_Z 12
_cell_length_a 13.160356
_cell_length_b 9.205309
_cell_length_c 9.057620
_cell_angle_alpha 114.102657
_cell_angle_beta 33.577941
_cell_angle_gamma 112.661638
_cell_volume 551.755975
_symmetry_space_group_name_H-M "P -1"
_symmetry_group_IT_number 2
_symmetry_cell_setting 'triclinic'
loop_
_space_group_symop_operation_xyz
x,y,z
-x,-y,-z
loop_
_atom_site_type_symbol
_atom_site_label
_atom_site_fract_x
_atom_site_fract_y
_atom_site_fract_z
Si Si1 0.067280 0.179616 0.469080
Si Si2 0.498249 0.164122 0.970974
Si Si3 0.686059 0.280517 0.493990
Si Si4 0.968080 0.651900 0.698925
Si Si5 0.600884 0.481228 0.159707
Si Si6 0.850409 0.365244 0.051161
O O1 0.012580 0.205551 0.377862
O O2 0.286432 0.203158 0.232161
O O3 0.000000 0.000000 0.500000
O O4 0.964121 0.287513 0.752180
O O5 0.579227 0.171461 0.706247
O O6 0.600203 0.316837 0.997641
O O7 0.500000 0.000000 0.000000
O O8 0.576447 0.433637 0.646719
O O9 0.759409 0.233455 0.223487
O O10 0.878890 0.334653 0.358999
O O11 0.000000 0.500000 0.500000
O O12 0.761335 0.620431 0.989241
O O13 0.672357 0.433446 0.215760
O O14 0.000000 0.500000 0.000000
#
# Coordination Sequence:
#
# PCOD9068816 Si02
#       6
#     2   2   2   2   2   2
#     4  12  26  47  70 100 143 188 230 287 347 414
#     4  12  25  44  69 101 138 188 237 280 341 421
#     4  12  24  41  71 103 135 178 233 288 342 403
#     4  12  20  41  70  99 135 183 234 280 337 413
#     4  12  23  42  70 102 138 181 235 281 336 421
#     4  12  24  43  72 107 142 177 229 291 352 400
#
# _framework density 21.748746000000001
#
# number of rings (size 3 to 8) (size 9 to 14) (size 15 to 20)
#    0.000    0.000    6.667    5.000    0.000    0.000 
#    0.000    6.667    0.000    0.000    0.000    0.000 
#    0.000    0.000    0.000    0.000    0.000    0.000 
#
# Total GULP energy -66861.970592 kJ/mol
# GULP energy per Si atom -5571.830883 kJ/mol
# Density = 2.169924 g / cm^3
# Si number density = 21.748746 Si / 1000 Ang^3
#
#
#
# Elastic Constant Matrix: (Units=GPa)
#
#
# Indices 1 2 3 4 5 6 
#
# 1 159.7609 42.7645 55.4363 -12.3465 -8.6594 -28.5451
# 2 42.7645 84.7474 28.7379 -24.6371 6.6470 -24.0553
# 3 55.4363 28.7379 104.1855 -25.4138 -2.3266 -13.9312
# 4 -12.3465 -24.6371 -25.4138 31.1424 -15.2824 6.2233
# 5 -8.6594 6.6470 -2.3266 -15.2824 46.9005 -15.6979
# 6 -28.5451 -24.0553 -13.9312 6.2233 -15.6979 42.0936
#
#
#
# Elastic Compliance Matrix: (Units=1/GPa)
#
#
# Indices 1 2 3 4 5 6 
#
# 1 0.009192 -0.002432 -0.003626 -0.000598 0.003332 0.004974
# 2 -0.002432 0.019641 0.001254 0.016309 0.005348 0.009573
# 3 -0.003626 0.001254 0.015160 0.014001 0.005565 0.003280
# 4 -0.000598 0.016309 0.014001 0.065348 0.023843 0.012779
# 5 0.003332 0.005348 0.005565 0.023843 0.034782 0.016603
# 6 0.004974 0.009573 0.003280 0.012779 0.016603 0.037989
#
#
# Mechanical properties :
#
#
# Convention : Reuss Voigt Hill
#
# Bulk Modulus (GPa) = 29.08324 66.95238 48.01781
# Shear Modulus (GPa) = 24.60861 38.81096 31.70978
#
# Velocity S-wave (km/s) = 3.36742 4.22893 3.82253
# Velocity P-wave (km/s) = 5.34048 7.39571 6.45047
#
# Compressibility (1/GPa) = 0.03438407
#
# Stress axis : x y z
#
# Youngs Moduli (GPa) = 108.79221 50.91493 65.96257
#
# Poissons Ratio (x) = 0.12381 0.23921
# Poissons Ratio (y) = 0.26456 -0.08272
# Poissons Ratio (z) = 0.39453 -0.06385
#
# Static dielectric constant tensor:
#      x y z
#    x 1.791630 -0.021970 0.022090 
#    y -0.021970 1.775510 -0.085450 
#    z 0.022090 -0.085450 1.917270 
# 
# From -- ./inp_files/176553.got.cif
#   From: 2010.05.17/outbox.cif.g08.bks.cpg/sg2_89_cif.got.tgz:176553.got - 2010.06.03 11:33:40.
