data_PCOD9068427
_publ_section_title
;
Structure prediction by ZEFSAII (Michael W. Deem and Ramdas Pophale) SiO2 
 PCOD9068427
Probable space group: P -1
;
_chemical_formula_sum "Si O2"
_cell_formula_units_Z 15
_cell_length_a 10.121460
_cell_length_b 16.243476
_cell_length_c 12.163401
_cell_angle_alpha 154.023698
_cell_angle_beta 43.310000
_cell_angle_gamma 129.787472
_cell_volume 600.142687
_symmetry_space_group_name_H-M "P -1"
_symmetry_group_IT_number 2
_symmetry_cell_setting 'triclinic'
loop_
_space_group_symop_operation_xyz
x,y,z
-x,-y,-z
loop_
_atom_site_type_symbol
_atom_site_label
_atom_site_fract_x
_atom_site_fract_y
_atom_site_fract_z
Si Si1 0.742985 0.231212 0.877924
Si Si2 0.578441 0.814388 0.669458
Si Si3 0.617197 0.836697 0.416446
Si Si4 0.500000 0.500000 0.500000
Si Si5 0.983466 0.690131 0.369735
Si Si6 0.782308 0.089948 0.330546
Si Si7 0.009200 0.726888 0.778973
Si Si8 0.028626 0.691421 0.970282
O O1 0.562432 0.327048 0.164673
O O2 0.852447 0.363425 0.884385
O O3 0.892150 0.184296 0.831048
O O4 0.697241 0.045147 0.617213
O O5 0.554006 0.813477 0.552972
O O6 0.479929 0.644710 0.584199
O O7 0.804462 0.784906 0.528009
O O8 0.500000 0.000000 0.000000
O O9 0.438770 0.837026 0.442589
O O10 0.796469 0.693041 0.112217
O O11 0.080929 0.823962 0.557948
O O12 0.898079 0.517670 0.284454
O O13 0.856611 0.178211 0.277557
O O14 0.814925 0.862969 0.044423
O O15 0.000000 0.500000 0.500000
O O16 0.079754 0.751474 0.890185
#
# Coordination Sequence:
#
# PCOD9068427 Si02
#       8
#     2   2   2   1   2   2   2   2
#     4  12  26  46  75 113 152 196 250 323 374 449
#     4  12  27  46  76 112 149 196 252 315 375 446
#     4  12  28  48  73 114 153 202 254 314 382 452
#     4  12  26  44  74 116 146 188 256 318 372 444
#     4  12  26  52  77 111 158 199 257 315 383 458
#     4  11  29  49  76 113 153 200 254 314 374 466
#     4  11  26  50  77 107 152 203 251 307 386 451
#     4  12  25  48  80 110 148 207 256 309 389 452
#
# _framework density 24.994054999999999
#
# number of rings (size 3 to 8) (size 9 to 14) (size 15 to 20)
#    0.000    0.267    5.333    2.400    7.467    3.733 
#    2.400    0.000    0.000    0.000    0.000    0.000 
#    0.000    0.000    0.000    0.000    0.000    0.000 
#
# Total GULP energy -83772.765856 kJ/mol
# GULP energy per Si atom -5584.851057 kJ/mol
# Density = 2.493717 g / cm^3
# Si number density = 24.994055 Si / 1000 Ang^3
#
#
#
# Elastic Constant Matrix: (Units=GPa)
#
#
# Indices 1 2 3 4 5 6 
#
# 1 116.7817 8.9760 14.9270 4.4644 -11.2482 -4.3496
# 2 8.9760 125.6921 0.7517 17.2363 12.1587 -45.1136
# 3 14.9270 0.7517 72.3864 16.0270 -9.9822 -8.2963
# 4 4.4644 17.2363 16.0270 49.2337 -5.1224 3.1793
# 5 -11.2482 12.1587 -9.9822 -5.1224 33.3032 -4.7954
# 6 -4.3496 -45.1136 -8.2963 3.1793 -4.7954 36.2563
#
#
#
# Elastic Compliance Matrix: (Units=1/GPa)
#
#
# Indices 1 2 3 4 5 6 
#
# 1 0.009113 -0.001069 -0.001562 0.000386 0.003026 -0.000228
# 2 -0.001069 0.018329 0.004415 -0.009701 -0.003760 0.024043
# 3 -0.001562 0.004415 0.017388 -0.007378 0.003433 0.010386
# 4 0.000386 -0.009701 -0.007378 0.027442 0.003426 -0.015666
# 5 0.003026 -0.003760 0.003433 0.003426 0.034075 0.000677
# 6 -0.000228 0.024043 0.010386 -0.015666 0.000677 0.061310
#
#
# Mechanical properties :
#
#
# Convention : Reuss Voigt Hill
#
# Bulk Modulus (GPa) = 20.66189 40.46328 30.56258
# Shear Modulus (GPa) = 27.74325 43.10566 35.42446
#
# Velocity S-wave (km/s) = 3.33527 4.15738 3.76881
# Velocity P-wave (km/s) = 4.80798 6.26653 5.58507
#
# Compressibility (1/GPa) = 0.04839829
#
# Stress axis : x y z
#
# Youngs Moduli (GPa) = 109.73200 54.55750 57.50949
#
# Poissons Ratio (x) = 0.05832 0.08985
# Poissons Ratio (y) = 0.11730 -0.25391
# Poissons Ratio (z) = 0.17144 -0.24087
#
# Static dielectric constant tensor:
#      x y z
#    x 2.106250 0.455470 -0.538480 
#    y 0.455470 3.265230 -1.593430 
#    z -0.538480 -1.593430 4.108280 
# 
# From -- ./inp_files/399895.got.cif
#   From: 2010.05.17/outbox.cif.g08.bks.cpg/sg2_200_cif.got.tgz:399895.got - 2010.06.03 11:33:40.
