data_PCOD9068593
_publ_section_title
;
Structure prediction by ZEFSAII (Michael W. Deem and Ramdas Pophale) SiO2 
 PCOD9068593
Probable space group: P -1
;
_chemical_formula_sum "Si O2"
_cell_formula_units_Z 16
_cell_length_a 9.027406
_cell_length_b 18.116047
_cell_length_c 11.479249
_cell_angle_alpha 43.190584
_cell_angle_beta 103.026491
_cell_angle_gamma 135.031963
_cell_volume 726.146607
_symmetry_space_group_name_H-M "P -1"
_symmetry_group_IT_number 2
_symmetry_cell_setting 'triclinic'
loop_
_space_group_symop_operation_xyz
x,y,z
-x,-y,-z
loop_
_atom_site_type_symbol
_atom_site_label
_atom_site_fract_x
_atom_site_fract_y
_atom_site_fract_z
Si Si1 0.797549 0.683366 0.799608
Si Si2 0.626328 0.417825 0.700597
Si Si3 0.396199 0.232767 0.432725
Si Si4 0.683945 0.549122 0.308600
Si Si5 0.555059 0.896683 0.862920
Si Si6 0.301995 0.701781 0.794182
Si Si7 0.172173 0.874522 0.866342
Si Si8 0.046008 0.721545 0.587513
O O1 0.834125 0.825448 0.593042
O O2 0.998202 0.772716 0.834521
O O3 0.849275 0.637693 0.751710
O O4 0.500000 0.500000 0.000000
O O5 0.685259 0.482300 0.504738
O O6 0.476576 0.433914 0.712210
O O7 0.898411 0.561062 0.654801
O O8 0.465867 0.216420 0.925065
O O9 0.545832 0.395665 0.362882
O O10 0.574256 0.307339 0.266567
O O11 0.308492 0.070436 0.662415
O O12 0.969658 0.744481 0.086098
O O13 0.457737 0.802581 0.825672
O O14 0.370909 0.888879 0.881186
O O15 0.845065 0.111759 0.651355
O O16 0.287451 0.804973 0.600344
O O17 0.000000 0.500000 0.000000
#
# Coordination Sequence:
#
# PCOD9068593 Si02
#       8
#     2   2   2   2   2   2   2   2
#     4  12  23  41  68 104 137 173 217 269 338 397
#     4  11  27  48  71  93 128 181 229 276 326 390
#     4  12  25  42  68 104 137 172 218 276 331 393
#     4  11  27  49  68  96 130 175 232 277 328 384
#     4  12  26  43  70 101 136 179 216 267 337 400
#     4  12  22  40  69 101 140 175 210 268 333 402
#     4  12  25  44  68 103 138 173 216 274 334 397
#     4  12  23  44  67 101 136 173 221 267 331 402
#
# _framework density 22.034117999999999
#
# number of rings (size 3 to 8) (size 9 to 14) (size 15 to 20)
#    0.000    0.250    6.250    3.000    3.500    1.500 
#    0.000    3.750    0.000    0.000    0.000    0.000 
#    0.000    0.000    0.000    0.000    0.000    0.000 
#
# Total GULP energy -89559.258348 kJ/mol
# GULP energy per Si atom -5597.453647 kJ/mol
# Density = 2.198397 g / cm^3
# Si number density = 22.034118 Si / 1000 Ang^3
#
#
#
# Elastic Constant Matrix: (Units=GPa)
#
#
# Indices 1 2 3 4 5 6 
#
# 1 66.8560 15.8708 30.5278 24.4795 12.8258 -8.0669
# 2 15.8708 20.0063 13.2410 12.8975 -1.8521 -10.8720
# 3 30.5278 13.2410 154.6277 13.3257 14.2328 -12.0163
# 4 24.4795 12.8975 13.3257 39.3711 -0.2171 0.9439
# 5 12.8258 -1.8521 14.2328 -0.2171 42.1099 2.3629
# 6 -8.0669 -10.8720 -12.0163 0.9439 2.3629 22.9601
#
#
#
# Elastic Compliance Matrix: (Units=1/GPa)
#
#
# Indices 1 2 3 4 5 6 
#
# 1 0.024139 -0.008385 -0.001991 -0.011742 -0.007373 0.004710
# 2 -0.008385 0.100456 -0.001501 -0.028227 0.004837 0.044498
# 3 -0.001991 -0.001501 0.007476 -0.000879 -0.002146 0.002759
# 4 -0.011742 -0.028227 -0.000879 0.042748 0.003981 -0.020118
# 5 -0.007373 0.004837 -0.002146 0.003981 0.027198 -0.004386
# 6 0.004710 0.044498 0.002759 -0.020118 -0.004386 0.069002
#
#
# Mechanical properties :
#
#
# Convention : Reuss Voigt Hill
#
# Bulk Modulus (GPa) = 9.23220 40.08546 24.65883
# Shear Modulus (GPa) = 15.11123 33.01158 24.06140
#
# Velocity S-wave (km/s) = 2.62164 3.87486 3.30814
# Velocity P-wave (km/s) = 3.65555 6.18477 5.08008
#
# Compressibility (1/GPa) = 0.10831654
#
# Stress axis : x y z
#
# Youngs Moduli (GPa) = 41.42630 9.95464 133.75245
#
# Poissons Ratio (x) = 0.08347 0.26632
# Poissons Ratio (y) = 0.34735 0.20082
# Poissons Ratio (z) = 0.08249 0.01495
#
# Static dielectric constant tensor:
#      x y z
#    x 1.863420 0.020870 0.051490 
#    y 0.020870 1.782270 -0.010450 
#    z 0.051490 -0.010450 1.846670 
# 
# From -- ./inp_files/281481.got.cif
#   From: 2010.05.17/outbox.cif.g08.bks.cpg/sg2_141_cif.got.tgz:281481.got - 2010.06.03 11:33:40.
