data_PCOD9068795
_publ_section_title
;
Structure prediction by ZEFSAII (Michael W. Deem and Ramdas Pophale) SiO2 
 PCOD9068795
Probable space group: P -1
;
_chemical_formula_sum "Si O2"
_cell_formula_units_Z 12
_cell_length_a 10.032419
_cell_length_b 7.359487
_cell_length_c 14.582090
_cell_angle_alpha 101.590285
_cell_angle_beta 37.391298
_cell_angle_gamma 118.610112
_cell_volume 540.441668
_symmetry_space_group_name_H-M "P -1"
_symmetry_group_IT_number 2
_symmetry_cell_setting 'triclinic'
loop_
_space_group_symop_operation_xyz
x,y,z
-x,-y,-z
loop_
_atom_site_type_symbol
_atom_site_label
_atom_site_fract_x
_atom_site_fract_y
_atom_site_fract_z
Si Si1 0.521980 0.405128 0.573731
Si Si2 0.218139 0.850830 0.563073
Si Si3 0.783824 0.600677 0.898536
Si Si4 0.076767 0.617837 0.337286
Si Si5 0.285388 0.045648 0.361956
Si Si6 0.756065 0.518827 0.112960
O O1 0.500000 0.500000 0.500000
O O2 0.574319 0.206659 0.518857
O O3 0.303395 0.363808 0.761037
O O4 0.801048 0.594664 0.480587
O O5 0.016154 0.826833 0.748100
O O6 0.007902 0.620178 0.597855
O O7 0.331861 0.036215 0.444080
O O8 0.855364 0.423565 0.806736
O O9 0.500000 0.500000 0.000000
O O10 0.785444 0.622887 0.007998
O O11 0.283971 0.841927 0.293568
O O12 0.505466 0.271638 0.221335
O O13 0.000000 0.000000 0.500000
O O14 0.000000 0.500000 0.000000
#
# Coordination Sequence:
#
# PCOD9068795 Si02
#       6
#     2   2   2   2   2   2
#     4   9  19  39  63  81 120 164 204 242 306 362
#     4   8  20  36  61  85 114 161 205 237 295 361
#     4   9  20  36  61  90 125 157 196 255 314 349
#     4   8  20  35  64  84 119 154 209 239 298 358
#     4  12  20  37  65  95 113 162 214 245 290 377
#     4  12  24  38  61  91 129 156 199 261 317 348
#
# _framework density 22.204058
#
# number of rings (size 3 to 8) (size 9 to 14) (size 15 to 20)
#    2.000    0.000    1.667    3.500    2.333    0.667 
#    0.000    4.167    0.000    0.000    0.000    0.000 
#    0.000    0.000    0.000    0.000    0.000    0.000 
#
# Total GULP energy -66821.399857 kJ/mol
# GULP energy per Si atom -5568.449988 kJ/mol
# Density = 2.215352 g / cm^3
# Si number density = 22.204058 Si / 1000 Ang^3
#
#
#
# Elastic Constant Matrix: (Units=GPa)
#
#
# Indices 1 2 3 4 5 6 
#
# 1 93.6845 -19.5249 26.7319 20.1383 9.9846 -7.6528
# 2 -19.5249 50.3907 -6.1849 9.7024 4.6893 5.7502
# 3 26.7319 -6.1849 110.6236 26.9357 -0.9634 4.4033
# 4 20.1383 9.7024 26.9357 31.7450 2.3822 -3.3643
# 5 9.9846 4.6893 -0.9634 2.3822 49.8833 1.8990
# 6 -7.6528 5.7502 4.4033 -3.3643 1.8990 20.7136
#
#
#
# Elastic Compliance Matrix: (Units=1/GPa)
#
#
# Indices 1 2 3 4 5 6 
#
# 1 0.015543 0.008210 -0.000648 -0.011343 -0.003433 0.002074
# 2 0.008210 0.028309 0.004342 -0.018210 -0.003030 -0.008429
# 3 -0.000648 0.004342 0.012721 -0.012432 0.000798 -0.006241
# 4 -0.011343 -0.018210 -0.012432 0.056098 0.000585 0.012565
# 5 -0.003433 -0.003030 0.000798 0.000585 0.021099 -0.002436
# 6 0.002074 -0.008429 -0.006241 0.012565 -0.002436 0.054974
#
#
# Mechanical properties :
#
#
# Convention : Reuss Voigt Hill
#
# Bulk Modulus (GPa) = 12.44056 28.52702 20.48379
# Shear Modulus (GPa) = 26.07822 37.38015 31.72919
#
# Velocity S-wave (km/s) = 3.43079 4.10748 3.78429
# Velocity P-wave (km/s) = 4.61614 5.94733 5.32351
#
# Compressibility (1/GPa) = 0.08038225
#
# Stress axis : x y z
#
# Youngs Moduli (GPa) = 64.33599 35.32441 78.60855
#
# Poissons Ratio (x) = -0.29001 0.05091
# Poissons Ratio (y) = -0.52819 -0.34132
# Poissons Ratio (z) = 0.04166 -0.15338
#
# Static dielectric constant tensor:
#      x y z
#    x 1.841700 0.083350 0.006640 
#    y 0.083350 1.958760 0.034370 
#    z 0.006640 0.034370 1.829080 
# 
# From -- ./inp_files/490974.got.cif
#   From: 2010.05.17/outbox.cif.g08.bks.cpg/sg2_246_cif.got.tgz:490974.got - 2010.06.03 11:33:40.
