data_PCOD9068026
_publ_section_title
;
Structure prediction by ZEFSAII (Michael W. Deem and Ramdas Pophale) SiO2 
 PCOD9068026
Probable space group: P -1
;
_chemical_formula_sum "Si O2"
_cell_formula_units_Z 15
_cell_length_a 8.246628
_cell_length_b 9.744828
_cell_length_c 11.628596
_cell_angle_alpha 114.963159
_cell_angle_beta 60.008882
_cell_angle_gamma 120.274904
_cell_volume 680.686860
_symmetry_space_group_name_H-M "P -1"
_symmetry_group_IT_number 2
_symmetry_cell_setting 'triclinic'
loop_
_space_group_symop_operation_xyz
x,y,z
-x,-y,-z
loop_
_atom_site_type_symbol
_atom_site_label
_atom_site_fract_x
_atom_site_fract_y
_atom_site_fract_z
Si Si1 0.806078 0.119872 0.151218
Si Si2 0.410642 0.567518 0.389268
Si Si3 0.182442 0.689311 0.217567
Si Si4 0.500000 0.500000 0.000000
Si Si5 0.267349 0.966900 0.098808
Si Si6 0.794375 0.722775 0.787623
Si Si7 0.516328 0.114245 0.645186
Si Si8 0.265260 0.573838 0.691325
O O1 0.725430 0.261016 0.195284
O O2 0.994604 0.207333 0.197081
O O3 0.640604 0.981003 0.234630
O O4 0.849523 0.059126 0.991462
O O5 0.228821 0.426495 0.341260
O O6 0.517577 0.725420 0.329597
O O7 0.330631 0.616725 0.551416
O O8 0.575582 0.491764 0.333388
O O9 0.326391 0.586678 0.109514
O O10 0.189432 0.811219 0.153641
O O11 0.268136 0.806385 0.339607
O O12 0.956735 0.562348 0.270003
O O13 0.377861 0.356585 0.084151
O O14 0.242396 0.129571 0.212463
O O15 0.500000 0.000000 0.000000
O O16 0.500000 0.000000 0.500000
#
# Coordination Sequence:
#
# PCOD9068026 Si02
#       8
#     2   2   2   1   2   2   2   2
#     4  12  25  44  70 105 139 187 231 281 356 413
#     4  11  26  48  71 100 144 180 235 292 343 418
#     4  12  27  46  74 102 142 188 233 283 355 409
#     4  12  22  44  70 104 134 182 232 278 338 424
#     4  12  25  44  66 101 147 179 228 290 341 415
#     4  12  26  44  71 100 142 184 230 288 348 415
#     4  12  25  44  73 104 140 179 235 291 346 414
#     4  11  26  47  71 104 135 190 234 284 350 413
#
# _framework density 22.036565
#
# number of rings (size 3 to 8) (size 9 to 14) (size 15 to 20)
#    0.000    0.267    6.667    1.200    3.733    2.667 
#    0.000    1.333    0.000    0.000    0.000    0.000 
#    0.000    0.000    0.000    0.000    0.000    0.000 
#
# Total GULP energy -83669.407374 kJ/mol
# GULP energy per Si atom -5577.960492 kJ/mol
# Density = 2.198641 g / cm^3
# Si number density = 22.036565 Si / 1000 Ang^3
#
#
#
# Elastic Constant Matrix: (Units=GPa)
#
#
# Indices 1 2 3 4 5 6 
#
# 1 66.4103 16.9432 12.7259 3.3629 15.8767 6.5506
# 2 16.9432 130.1183 31.0816 -13.9683 10.2541 -7.4750
# 3 12.7259 31.0816 37.0926 0.4845 9.1215 -1.8262
# 4 3.3629 -13.9683 0.4845 45.8322 1.3025 4.2444
# 5 15.8767 10.2541 9.1215 1.3025 29.0524 4.7694
# 6 6.5506 -7.4750 -1.8262 4.2444 4.7694 34.0025
#
#
#
# Elastic Compliance Matrix: (Units=1/GPa)
#
#
# Indices 1 2 3 4 5 6 
#
# 1 0.018255 -0.001221 -0.003394 -0.001199 -0.007983 -0.002698
# 2 -0.001221 0.010243 -0.007894 0.003154 -0.000906 0.001796
# 3 -0.003394 -0.007894 0.036628 -0.002546 -0.007106 0.002200
# 4 -0.001199 0.003154 -0.002546 0.023094 -0.000358 -0.002045
# 5 -0.007983 -0.000906 -0.007106 -0.000358 0.042156 -0.004911
# 6 -0.002698 0.001796 0.002200 -0.002045 -0.004911 0.031387
#
#
# Mechanical properties :
#
#
# Convention : Reuss Voigt Hill
#
# Bulk Modulus (GPa) = 24.93289 39.45808 32.19549
# Shear Modulus (GPa) = 24.98103 33.30211 29.14157
#
# Velocity S-wave (km/s) = 3.37058 3.89166 3.64045
# Velocity P-wave (km/s) = 5.14651 6.17559 5.68439
#
# Compressibility (1/GPa) = 0.04010766
#
# Stress axis : x y z
#
# Youngs Moduli (GPa) = 54.77920 97.62528 27.30140
#
# Poissons Ratio (x) = 0.11919 0.09266
# Poissons Ratio (y) = 0.06688 0.21553
# Poissons Ratio (z) = 0.18592 0.77069
#
# Static dielectric constant tensor:
#      x y z
#    x 1.828660 -0.013900 0.037500 
#    y -0.013900 1.780520 0.038670 
#    z 0.037500 0.038670 1.809630 
# 
# From -- ./inp_files/189806.got.cif
#   From: 2010.05.17/outbox.cif.g08.bks.cpg/sg2_95_cif.got.tgz:189806.got - 2010.06.03 11:33:40.
