data_PCOD9068424
_publ_section_title
;
Structure prediction by ZEFSAII (Michael W. Deem and Ramdas Pophale) SiO2 
 PCOD9068424
Probable space group: P -1
;
_chemical_formula_sum "Si O2"
_cell_formula_units_Z 14
_cell_length_a 5.217886
_cell_length_b 16.123354
_cell_length_c 16.060161
_cell_angle_alpha 31.614597
_cell_angle_beta 110.761805
_cell_angle_gamma 93.010279
_cell_volume 570.171211
_symmetry_space_group_name_H-M "P -1"
_symmetry_group_IT_number 2
_symmetry_cell_setting 'triclinic'
loop_
_space_group_symop_operation_xyz
x,y,z
-x,-y,-z
loop_
_atom_site_type_symbol
_atom_site_label
_atom_site_fract_x
_atom_site_fract_y
_atom_site_fract_z
Si Si1 0.964889 0.013977 0.299303
Si Si2 0.286524 0.145251 0.727127
Si Si3 0.563243 0.028810 0.386142
Si Si4 0.465115 0.448092 0.833081
Si Si5 0.778014 0.508282 0.658218
Si Si6 0.374201 0.398644 0.125956
Si Si7 0.923177 0.835294 0.130953
O O1 0.882009 0.956467 0.429420
O O2 0.311128 0.989203 0.347184
O O3 0.914502 0.893337 0.329426
O O4 0.717100 0.234091 0.069867
O O5 0.367688 0.293351 0.572451
O O6 0.118296 0.213904 0.738035
O O7 0.583216 0.942727 0.953587
O O8 0.459160 0.235083 0.212562
O O9 0.500000 0.000000 0.500000
O O10 0.565726 0.489135 0.720501
O O11 0.498727 0.589041 0.778863
O O12 0.113909 0.473785 0.765567
O O13 0.855012 0.347438 0.738421
O O14 0.500000 0.500000 0.000000
O O15 0.000000 0.500000 0.000000
O O16 0.000000 0.000000 0.000000
#
# Coordination Sequence:
#
# PCOD9068424 Si02
#       7
#     2   2   2   2   2   2   2
#     4  12  25  47  71 100 147 192 238 291 367 423
#     4  11  28  46  74 111 141 193 238 301 356 434
#     4  12  27  44  69 104 144 189 241 299 350 421
#     4  12  25  46  71 104 141 190 243 295 356 433
#     4  12  28  46  75 108 145 185 244 292 357 431
#     4  12  23  43  67  97 133 188 237 285 352 412
#     4  11  26  50  77 103 148 190 238 294 372 427
#
# _framework density 24.554027999999999
#
# number of rings (size 3 to 8) (size 9 to 14) (size 15 to 20)
#    0.000    0.286    4.286    3.429   10.000    0.571 
#    0.000    0.000    0.000    0.000    0.000    0.000 
#    0.000    0.000    0.000    0.000    0.000    0.000 
#
# Total GULP energy -78271.143833 kJ/mol
# GULP energy per Si atom -5590.795988 kJ/mol
# Density = 2.449814 g / cm^3
# Si number density = 24.554028 Si / 1000 Ang^3
#
#
#
# Elastic Constant Matrix: (Units=GPa)
#
#
# Indices 1 2 3 4 5 6 
#
# 1 97.5172 18.7443 29.6857 -6.3232 -24.3240 1.3805
# 2 18.7443 142.4612 30.2393 -17.9641 -6.0405 -9.9804
# 3 29.6857 30.2393 82.0848 -2.1967 -31.8499 -16.3083
# 4 -6.3232 -17.9641 -2.1967 38.6395 -1.9934 -8.0893
# 5 -24.3240 -6.0405 -31.8499 -1.9934 40.9033 0.4710
# 6 1.3805 -9.9804 -16.3083 -8.0893 0.4710 49.9457
#
#
#
# Elastic Compliance Matrix: (Units=1/GPa)
#
#
# Indices 1 2 3 4 5 6 
#
# 1 0.012641 -0.000818 -0.002180 0.001652 0.005791 -0.001012
# 2 -0.000818 0.008253 -0.002907 0.003749 -0.001363 0.001343
# 3 -0.002180 -0.002907 0.021070 0.001604 0.014684 0.006481
# 4 0.001652 0.003749 0.001604 0.029446 0.004151 0.005957
# 5 0.005791 -0.001363 0.014684 0.004151 0.039273 0.004664
# 6 -0.001012 0.001343 0.006481 0.005957 0.004664 0.023355
#
#
# Mechanical properties :
#
#
# Convention : Reuss Voigt Hill
#
# Bulk Modulus (GPa) = 33.16175 53.26688 43.21431
# Shear Modulus (GPa) = 32.07214 42.12395 37.09804
#
# Velocity S-wave (km/s) = 3.61804 4.14643 3.89121
# Velocity P-wave (km/s) = 5.56674 6.68316 6.15033
#
# Compressibility (1/GPa) = 0.03015522
#
# Stress axis : x y z
#
# Youngs Moduli (GPa) = 79.10527 121.16893 47.46119
#
# Poissons Ratio (x) = 0.09906 0.10348
# Poissons Ratio (y) = 0.06467 0.13795
# Poissons Ratio (z) = 0.17248 0.35219
#
# Static dielectric constant tensor:
#      x y z
#    x 1.853010 0.064480 0.079220 
#    y 0.064480 1.884780 0.114500 
#    z 0.079220 0.114500 2.004690 
# 
# From -- ./inp_files/297187.got.cif
#   From: 2010.05.17/outbox.cif.g08.bks.cpg/sg2_149_cif.got.tgz:297187.got - 2010.06.03 11:33:40.
