data_PCOD9068931
_publ_section_title
;
Structure prediction by ZEFSAII (Michael W. Deem and Ramdas Pophale) SiO2 
 PCOD9068931
Probable space group: P -1
;
_chemical_formula_sum "Si O2"
_cell_formula_units_Z 14
_cell_length_a 14.277275
_cell_length_b 12.394791
_cell_length_c 8.878903
_cell_angle_alpha 44.684805
_cell_angle_beta 122.578391
_cell_angle_gamma 148.506078
_cell_volume 567.297179
_symmetry_space_group_name_H-M "P -1"
_symmetry_group_IT_number 2
_symmetry_cell_setting 'triclinic'
loop_
_space_group_symop_operation_xyz
x,y,z
-x,-y,-z
loop_
_atom_site_type_symbol
_atom_site_label
_atom_site_fract_x
_atom_site_fract_y
_atom_site_fract_z
Si Si1 0.336753 0.133341 0.861338
Si Si2 0.381232 0.050700 0.663112
Si Si3 0.325545 0.313884 0.927411
Si Si4 0.267568 0.595164 0.596380
Si Si5 0.085470 0.872583 0.362098
Si Si6 0.646554 0.295443 0.100178
Si Si7 0.964978 0.876056 0.749454
O O1 0.410377 0.173307 0.720647
O O2 0.383290 0.344726 0.775448
O O3 0.437861 0.121392 0.068497
O O4 0.119722 0.916006 0.869434
O O5 0.562511 0.221668 0.551344
O O6 0.230758 0.968609 0.512077
O O7 0.313817 0.802809 0.878274
O O8 0.239816 0.383675 0.814423
O O9 0.500000 0.500000 0.000000
O O10 0.192812 0.033265 0.143818
O O11 0.311670 0.709295 0.686183
O O12 0.077871 0.424221 0.519638
O O13 0.022959 0.969221 0.277944
O O14 0.773051 0.578716 0.888023
O O15 0.000000 0.000000 0.500000
#
# Coordination Sequence:
#
# PCOD9068931 Si02
#       7
#     2   2   2   2   2   2   2
#     4  12  26  44  74 104 143 184 237 290 361 410
#     4  12  29  46  69 107 149 191 229 289 357 431
#     4  12  21  43  73 107 138 183 238 303 344 410
#     4  12  25  44  76 103 145 186 242 290 350 420
#     4  12  24  46  73 108 139 183 246 293 353 410
#     4  12  28  49  71 103 148 191 236 283 358 431
#     4  12  26  45  75 107 137 182 237 303 349 411
#
# _framework density 24.678422000000001
#
# number of rings (size 3 to 8) (size 9 to 14) (size 15 to 20)
#    0.000    0.000    7.143    2.143    2.000    3.429 
#    0.000    0.000    0.000    0.000    0.000    0.000 
#    0.000    0.000    0.000    0.000    0.000    0.000 
#
# Total GULP energy -78300.081672 kJ/mol
# GULP energy per Si atom -5592.862977 kJ/mol
# Density = 2.462225 g / cm^3
# Si number density = 24.678422 Si / 1000 Ang^3
#
#
#
# Elastic Constant Matrix: (Units=GPa)
#
#
# Indices 1 2 3 4 5 6 
#
# 1 106.5355 40.4499 27.6812 0.9778 -17.9047 -14.0910
# 2 40.4499 132.1829 33.1436 11.9442 -24.0577 4.7966
# 3 27.6812 33.1436 41.9719 7.2105 -13.8956 -7.6296
# 4 0.9778 11.9442 7.2105 20.7410 -6.9976 -6.0723
# 5 -17.9047 -24.0577 -13.8956 -6.9976 36.8718 11.7452
# 6 -14.0910 4.7966 -7.6296 -6.0723 11.7452 48.4636
#
#
#
# Elastic Compliance Matrix: (Units=1/GPa)
#
#
# Indices 1 2 3 4 5 6 
#
# 1 0.012574 -0.002512 -0.005814 0.004491 0.002164 0.003028
# 2 -0.002512 0.011106 -0.005721 -0.004042 0.004480 -0.004323
# 3 -0.005814 -0.005721 0.035295 -0.006373 0.004744 0.002484
# 4 0.004491 -0.004042 -0.006373 0.056368 0.005815 0.006356
# 5 0.002164 0.004480 0.004744 0.005815 0.036256 -0.007126
# 6 0.003028 -0.004323 0.002484 0.006356 -0.007126 0.024856
#
#
# Mechanical properties :
#
#
# Convention : Reuss Voigt Hill
#
# Bulk Modulus (GPa) = 32.38322 53.69332 43.03827
# Shear Modulus (GPa) = 23.27275 33.17632 28.22453
#
# Velocity S-wave (km/s) = 3.07423 3.67051 3.38552
# Velocity P-wave (km/s) = 5.07462 6.30618 5.72362
#
# Compressibility (1/GPa) = 0.03088019
#
# Stress axis : x y z
#
# Youngs Moduli (GPa) = 79.53065 90.04093 28.33261
#
# Poissons Ratio (x) = 0.22617 0.16473
# Poissons Ratio (y) = 0.19977 0.16210
# Poissons Ratio (z) = 0.46239 0.51517
#
# Static dielectric constant tensor:
#      x y z
#    x 1.958130 0.025840 0.009220 
#    y 0.025840 2.079630 0.013300 
#    z 0.009220 0.013300 1.984840 
# 
# From -- ./inp_files/306563.got.cif
#   From: 2010.05.17/outbox.cif.g08.bks.cpg/sg2_154_cif.got.tgz:306563.got - 2010.06.03 11:33:40.
