data_PCOD9068317
_publ_section_title
;
Structure prediction by ZEFSAII (Michael W. Deem and Ramdas Pophale) SiO2 
 PCOD9068317
Probable space group: P -1
;
_chemical_formula_sum "Si O2"
_cell_formula_units_Z 14
_cell_length_a 6.743041
_cell_length_b 18.277223
_cell_length_c 13.271454
_cell_angle_alpha 144.888480
_cell_angle_beta 103.231036
_cell_angle_gamma 103.713498
_cell_volume 597.535030
_symmetry_space_group_name_H-M "P -1"
_symmetry_group_IT_number 2
_symmetry_cell_setting 'triclinic'
loop_
_space_group_symop_operation_xyz
x,y,z
-x,-y,-z
loop_
_atom_site_type_symbol
_atom_site_label
_atom_site_fract_x
_atom_site_fract_y
_atom_site_fract_z
Si Si1 0.865373 0.682301 0.221379
Si Si2 0.385020 0.265637 0.906021
Si Si3 0.954118 0.045669 0.793804
Si Si4 0.051075 0.687086 0.799758
Si Si5 0.615332 0.189973 0.683080
Si Si6 0.228496 0.933033 0.746748
Si Si7 0.930630 0.593865 0.460038
O O1 0.866471 0.795910 0.268347
O O2 0.039490 0.656121 0.149202
O O3 0.066929 0.803279 0.479739
O O4 0.500000 0.500000 0.000000
O O5 0.583708 0.266383 0.860537
O O6 0.199999 0.132509 0.831394
O O7 0.633939 0.478943 0.224442
O O8 0.618997 0.881891 0.515478
O O9 0.003298 0.210867 0.027828
O O10 0.032222 0.967775 0.791096
O O11 0.002450 0.526897 0.666892
O O12 0.862852 0.596112 0.570520
O O13 0.413464 0.865056 0.007514
O O14 0.500000 0.000000 0.500000
O O15 0.196413 0.807977 0.685304
#
# Coordination Sequence:
#
# PCOD9068317 Si02
#       7
#     2   2   2   2   2   2   2
#     4  12  25  43  69 107 152 186 238 300 370 438
#     4  12  24  43  68 107 147 190 236 296 366 439
#     4  12  24  43  76 107 143 192 249 295 365 435
#     4  11  26  51  72 104 142 200 244 301 365 427
#     4  12  23  40  71 102 144 197 235 292 368 438
#     4  12  24  48  73 107 146 187 246 305 360 440
#     4  11  26  49  73 101 150 190 247 307 355 435
#
# _framework density 23.429590999999999
#
# number of rings (size 3 to 8) (size 9 to 14) (size 15 to 20)
#    0.000    0.286    7.143    2.571    0.000    1.714 
#    5.143    0.000    0.000    0.000    0.000    0.000 
#    0.000    0.000    0.000    0.000    0.000    0.000 
#
# Total GULP energy -78268.811630 kJ/mol
# GULP energy per Si atom -5590.629402 kJ/mol
# Density = 2.337626 g / cm^3
# Si number density = 23.429591 Si / 1000 Ang^3
#
#
#
# Elastic Constant Matrix: (Units=GPa)
#
#
# Indices 1 2 3 4 5 6 
#
# 1 135.9302 48.1120 40.2189 7.8940 -11.5061 18.7787
# 2 48.1120 110.4607 31.3023 9.9340 -20.1246 -19.2761
# 3 40.2189 31.3023 88.1240 -9.5246 -8.1969 4.2181
# 4 7.8940 9.9340 -9.5246 51.6209 7.4834 -7.9115
# 5 -11.5061 -20.1246 -8.1969 7.4834 37.6893 7.2888
# 6 18.7787 -19.2761 4.2181 -7.9115 7.2888 32.7006
#
#
#
# Elastic Compliance Matrix: (Units=1/GPa)
#
#
# Indices 1 2 3 4 5 6 
#
# 1 0.012346 -0.005608 -0.003199 -0.003605 0.003024 -0.011529
# 2 -0.005608 0.015215 -0.003195 -0.001464 0.003803 0.011399
# 3 -0.003199 -0.003195 0.014374 0.003613 -0.000079 -0.001009
# 4 -0.003605 -0.001464 0.003613 0.023138 -0.007228 0.007950
# 5 0.003024 0.003803 -0.000079 -0.007228 0.032547 -0.008488
# 6 -0.011529 0.011399 -0.001009 0.007950 -0.008488 0.047866
#
#
# Mechanical properties :
#
#
# Convention : Reuss Voigt Hill
#
# Bulk Modulus (GPa) = 55.76948 63.75347 59.76147
# Shear Modulus (GPa) = 28.49548 38.72758 33.61153
#
# Velocity S-wave (km/s) = 3.49121 4.07004 3.79169
# Velocity P-wave (km/s) = 6.33294 7.02543 6.68815
#
# Compressibility (1/GPa) = 0.01793095
#
# Stress axis : x y z
#
# Youngs Moduli (GPa) = 80.99696 65.72591 69.56919
#
# Poissons Ratio (x) = 0.36856 0.22257
# Poissons Ratio (y) = 0.45419 0.22229
# Poissons Ratio (z) = 0.25913 0.21001
#
# Static dielectric constant tensor:
#      x y z
#    x 1.928120 -0.052400 -0.035470 
#    y -0.052400 1.965310 0.064040 
#    z -0.035470 0.064040 1.912560 
# 
# From -- ./inp_files/485598.got.cif
#   From: 2010.05.17/outbox.cif.g08.bks.cpg/sg2_243_cif.got.tgz:485598.got - 2010.06.03 11:33:40.
