data_PCOD9068199
_publ_section_title
;
Structure prediction by ZEFSAII (Michael W. Deem and Ramdas Pophale) SiO2 
 PCOD9068199
Probable space group: P -1
;
_chemical_formula_sum "Si O2"
_cell_formula_units_Z 12
_cell_length_a 8.993461
_cell_length_b 9.163101
_cell_length_c 9.426172
_cell_angle_alpha 62.696094
_cell_angle_beta 65.377171
_cell_angle_gamma 45.744360
_cell_volume 488.658160
_symmetry_space_group_name_H-M "P -1"
_symmetry_group_IT_number 2
_symmetry_cell_setting 'triclinic'
loop_
_space_group_symop_operation_xyz
x,y,z
-x,-y,-z
loop_
_atom_site_type_symbol
_atom_site_label
_atom_site_fract_x
_atom_site_fract_y
_atom_site_fract_z
Si Si1 0.291341 0.261115 0.851229
Si Si2 0.067436 0.417814 0.348677
Si Si3 0.743221 0.034434 0.646983
Si Si4 0.777468 0.055049 0.086262
Si Si5 0.178565 0.834902 0.706545
Si Si6 0.324348 0.441639 0.019497
O O1 0.189155 0.171250 0.376723
O O2 0.469007 0.860942 0.231402
O O3 0.262818 0.325271 0.996971
O O4 0.232884 0.111609 0.910513
O O5 0.207408 0.477699 0.197646
O O6 0.141368 0.459060 0.719847
O O7 0.000000 0.500000 0.500000
O O8 0.934910 0.965690 0.703720
O O9 0.712025 0.198886 0.470989
O O10 0.573937 0.283286 0.013733
O O11 0.769448 0.045469 0.263797
O O12 0.000000 0.000000 0.000000
O O13 0.253620 0.635517 0.861316
#
# Coordination Sequence:
#
# PCOD9068199 Si02
#       6
#     2   2   2   2   2   2
#     4  12  26  48  83 110 153 212 261 314 395 466
#     4  12  27  47  81 113 152 206 266 318 379 471
#     4  11  26  51  77 110 164 205 262 317 398 460
#     4  12  26  44  76 118 157 194 263 328 388 454
#     4  11  26  48  73 116 160 201 255 330 381 463
#     4  12  26  50  81 115 155 206 266 315 393 472
#
# _framework density 24.557044999999999
#
# number of rings (size 3 to 8) (size 9 to 14) (size 15 to 20)
#    0.000    0.333    3.333    4.500    4.667    2.000 
#    3.000    0.000    0.000    0.000    0.000    0.000 
#    0.000    0.000    0.000    0.000    0.000    0.000 
#
# Total GULP energy -67254.044206 kJ/mol
# GULP energy per Si atom -5604.503684 kJ/mol
# Density = 2.450115 g / cm^3
# Si number density = 24.557045 Si / 1000 Ang^3
#
#
#
# Elastic Constant Matrix: (Units=GPa)
#
#
# Indices 1 2 3 4 5 6 
#
# 1 117.8378 19.9543 54.1535 9.1318 7.3588 -6.8416
# 2 19.9543 79.7777 53.1290 4.2449 -4.0813 -8.4996
# 3 54.1535 53.1290 183.2683 5.1826 4.2145 -8.6534
# 4 9.1318 4.2449 5.1826 39.9672 3.8896 4.0047
# 5 7.3588 -4.0813 4.2145 3.8896 40.6722 -0.6343
# 6 -6.8416 -8.4996 -8.6534 4.0047 -0.6343 43.6360
#
#
#
# Elastic Compliance Matrix: (Units=1/GPa)
#
#
# Indices 1 2 3 4 5 6 
#
# 1 0.010115 -0.000604 -0.002677 -0.001871 -0.001418 0.001089
# 2 -0.000604 0.016046 -0.004376 -0.001461 0.002349 0.002331
# 3 -0.002677 -0.004376 0.007538 0.000152 -0.000747 0.000198
# 4 -0.001871 -0.001461 0.000152 0.026112 -0.002367 -0.002979
# 5 -0.001418 0.002349 -0.000747 -0.002367 0.025393 0.000673
# 6 0.001089 0.002331 0.000198 -0.002979 0.000673 0.023864
#
#
# Mechanical properties :
#
#
# Convention : Reuss Voigt Hill
#
# Bulk Modulus (GPa) = 54.38946 70.59526 62.49236
# Shear Modulus (GPa) = 38.31038 41.76489 40.03764
#
# Velocity S-wave (km/s) = 3.95404 4.12846 4.04219
# Velocity P-wave (km/s) = 6.56066 7.17882 6.87669
#
# Compressibility (1/GPa) = 0.01838592
#
# Stress axis : x y z
#
# Youngs Moduli (GPa) = 98.85826 62.31907 132.65659
#
# Poissons Ratio (x) = 0.03767 0.35511
# Poissons Ratio (y) = 0.05975 0.58049
# Poissons Ratio (z) = 0.26463 0.27270
#
# Static dielectric constant tensor:
#      x y z
#    x 1.934210 0.071190 -0.022030 
#    y 0.071190 2.098080 -0.013940 
#    z -0.022030 -0.013940 1.939100 
# 
# From -- ./inp_files/153398.got.cif
#   From: 2010.05.17/outbox.cif.g08.bks.cpg/sg2_77_cif.got.tgz:153398.got - 2010.06.03 11:33:40.
