data_PCOD9068572
_publ_section_title
;
Structure prediction by ZEFSAII (Michael W. Deem and Ramdas Pophale) SiO2 
 PCOD9068572
Probable space group: P -1
;
_chemical_formula_sum "Si O2"
_cell_formula_units_Z 16
_cell_length_a 9.325267
_cell_length_b 8.167694
_cell_length_c 11.233594
_cell_angle_alpha 55.575467
_cell_angle_beta 78.941239
_cell_angle_gamma 89.376364
_cell_volume 687.621219
_symmetry_space_group_name_H-M "P -1"
_symmetry_group_IT_number 2
_symmetry_cell_setting 'triclinic'
loop_
_space_group_symop_operation_xyz
x,y,z
-x,-y,-z
loop_
_atom_site_type_symbol
_atom_site_label
_atom_site_fract_x
_atom_site_fract_y
_atom_site_fract_z
Si Si1 0.888321 0.659531 0.150413
Si Si2 0.715374 0.902444 0.254016
Si Si3 0.951229 0.676083 0.651218
Si Si4 0.806280 0.153318 0.634835
Si Si5 0.535230 0.836775 0.843567
Si Si6 0.322165 0.451935 0.416941
Si Si7 0.999654 0.123644 0.189005
Si Si8 0.418251 0.476823 0.835738
O O1 0.816955 0.826253 0.166737
O O2 0.991534 0.539864 0.262432
O O3 0.745903 0.513354 0.188522
O O4 0.974874 0.746216 0.986082
O O5 0.651214 0.710829 0.420591
O O6 0.593724 0.026790 0.169031
O O7 0.828779 0.042865 0.260557
O O8 0.080071 0.813603 0.505712
O O9 0.800443 0.653433 0.611649
O O10 0.941222 0.751411 0.756300
O O11 0.746994 0.360500 0.592544
O O12 0.668949 0.985565 0.707962
O O13 0.904808 0.062303 0.757349
O O14 0.475775 0.665578 0.830216
O O15 0.581454 0.720751 0.000937
O O16 0.468374 0.526098 0.289643
#
# Coordination Sequence:
#
# PCOD9068572 Si02
#       8
#     2   2   2   2   2   2   2   2
#     4  12  26  47  72 103 144 184 233 289 348 415
#     4  12  27  46  71 109 141 185 233 286 348 418
#     4  12  26  46  74 104 144 184 233 292 346 412
#     4  12  24  47  72 102 142 187 230 284 349 415
#     4  11  27  47  74 102 141 183 235 289 351 413
#     4  12  27  45  73 105 145 184 231 288 348 413
#     4  12  26  45  73 105 140 186 237 286 349 411
#     4  11  27  48  71 105 140 182 233 293 350 413
#
# _framework density 23.268623000000002
#
# number of rings (size 3 to 8) (size 9 to 14) (size 15 to 20)
#    0.000    0.250    3.750    4.500    8.750    2.500 
#    0.000    0.000    0.000    0.000    0.000    0.000 
#    0.000    0.000    0.000    0.000    0.000    0.000 
#
# Total GULP energy -89694.291969 kJ/mol
# GULP energy per Si atom -5605.893248 kJ/mol
# Density = 2.321566 g / cm^3
# Si number density = 23.268623 Si / 1000 Ang^3
#
#
#
# Elastic Constant Matrix: (Units=GPa)
#
#
# Indices 1 2 3 4 5 6 
#
# 1 44.5115 5.1755 13.5750 -13.7929 3.7047 0.4466
# 2 5.1755 80.4603 17.8512 -9.0685 -2.0313 2.5609
# 3 13.5750 17.8512 99.9059 -11.7836 -13.6610 1.1928
# 4 -13.7929 -9.0685 -11.7836 23.5114 -0.9780 5.3258
# 5 3.7047 -2.0313 -13.6610 -0.9780 26.7099 0.7672
# 6 0.4466 2.5609 1.1928 5.3258 0.7672 38.3178
#
#
#
# Elastic Compliance Matrix: (Units=1/GPa)
#
#
# Indices 1 2 3 4 5 6 
#
# 1 0.028590 0.000520 -0.002701 0.015971 -0.004654 -0.002411
# 2 0.000520 0.013411 -0.001837 0.004914 0.000232 -0.001533
# 3 -0.002701 -0.001837 0.012126 0.004274 0.006620 -0.000950
# 4 0.015971 0.004914 0.004274 0.058039 0.002722 -0.008769
# 5 -0.004654 0.000232 0.006620 0.002722 0.041628 -0.001379
# 6 -0.002411 -0.001533 -0.000950 -0.008769 -0.001379 0.027504
#
#
# Mechanical properties :
#
#
# Convention : Reuss Voigt Hill
#
# Bulk Modulus (GPa) = 21.69731 33.12013 27.40872
# Shear Modulus (GPa) = 24.42617 30.25956 27.34287
#
# Velocity S-wave (km/s) = 3.24349 3.61008 3.43169
# Velocity P-wave (km/s) = 4.83446 5.62509 5.24469
#
# Compressibility (1/GPa) = 0.04608867
#
# Stress axis : x y z
#
# Youngs Moduli (GPa) = 34.97712 74.56479 82.47074
#
# Poissons Ratio (x) = -0.03875 0.22279
# Poissons Ratio (y) = -0.01818 0.15153
# Poissons Ratio (z) = 0.09449 0.13700
#
# Static dielectric constant tensor:
#      x y z
#    x 1.851760 0.025490 -0.003270 
#    y 0.025490 1.909310 -0.024420 
#    z -0.003270 -0.024420 1.831790 
# 
# From -- ./inp_files/184296.got.cif
#   From: 2010.05.17/outbox.cif.g08.bks.cpg/sg2_93_cif.got.tgz:184296.got - 2010.06.03 11:33:40.
