data_PCOD9068948
_publ_section_title
;
Structure prediction by ZEFSAII (Michael W. Deem and Ramdas Pophale) SiO2 
 PCOD9068948
Probable space group: P -1
;
_chemical_formula_sum "Si O2"
_cell_formula_units_Z 13
_cell_length_a 8.084192
_cell_length_b 10.030404
_cell_length_c 11.113928
_cell_angle_alpha 77.501218
_cell_angle_beta 40.215309
_cell_angle_gamma 88.012681
_cell_volume 555.759127
_symmetry_space_group_name_H-M "P -1"
_symmetry_group_IT_number 2
_symmetry_cell_setting 'triclinic'
loop_
_space_group_symop_operation_xyz
x,y,z
-x,-y,-z
loop_
_atom_site_type_symbol
_atom_site_label
_atom_site_fract_x
_atom_site_fract_y
_atom_site_fract_z
Si Si1 0.732490 0.950966 0.586896
Si Si2 0.047629 0.350846 0.044820
Si Si3 0.352025 0.579816 0.319531
Si Si4 0.726375 0.247507 0.029353
Si Si5 0.746060 0.255439 0.453784
Si Si6 0.246511 0.288065 0.573242
Si Si7 0.500000 0.500000 0.000000
O O1 0.505607 0.887315 0.820440
O O2 0.750044 0.831721 0.503490
O O3 0.686554 0.089550 0.520164
O O4 0.000000 0.000000 0.500000
O O5 0.841418 0.245400 0.101330
O O6 0.997539 0.322653 0.219424
O O7 0.000000 0.500000 0.000000
O O8 0.341950 0.348379 0.851078
O O9 0.208179 0.686275 0.447913
O O10 0.280098 0.436693 0.460569
O O11 0.332642 0.550233 0.195470
O O12 0.597281 0.382304 0.056351
O O13 0.977085 0.254239 0.804236
O O14 0.499687 0.300597 0.517285
#
# Coordination Sequence:
#
# PCOD9068948 Si02
#       7
#     2   2   2   2   2   2   1
#     4  12  30  50  66 108 154 196 240 298 368 437
#     4  12  21  44  74 109 142 182 246 301 349 426
#     4  12  26  44  76 115 140 189 243 303 365 434
#     4  12  27  46  74 106 148 190 245 299 358 437
#     4  12  26  45  79 107 144 196 241 302 363 423
#     4  12  25  49  78 106 146 189 250 300 359 431
#     4  12  26  46  72 108 156 186 232 302 374 424
#
# _framework density 23.391427
#
# number of rings (size 3 to 8) (size 9 to 14) (size 15 to 20)
#    0.000    0.000    7.692    1.846    4.308    3.077 
#    0.000    0.000    0.000    0.000    0.000    0.000 
#    0.000    0.000    0.000    0.000    0.000    0.000 
#
# Total GULP energy -72586.681578 kJ/mol
# GULP energy per Si atom -5583.590891 kJ/mol
# Density = 2.333819 g / cm^3
# Si number density = 23.391427 Si / 1000 Ang^3
#
#
#
# Elastic Constant Matrix: (Units=GPa)
#
#
# Indices 1 2 3 4 5 6 
#
# 1 58.4448 0.4388 16.3163 2.9639 3.7371 13.0264
# 2 0.4388 97.5524 33.0032 3.6103 14.1002 11.3340
# 3 16.3163 33.0032 160.8467 13.8621 1.5701 15.5209
# 4 2.9639 3.6103 13.8621 42.2460 8.9192 7.9689
# 5 3.7371 14.1002 1.5701 8.9192 39.6104 -0.2127
# 6 13.0264 11.3340 15.5209 7.9689 -0.2127 34.2361
#
#
#
# Elastic Compliance Matrix: (Units=1/GPa)
#
#
# Indices 1 2 3 4 5 6 
#
# 1 0.019326 0.001673 -0.001649 0.000992 -0.002617 -0.007407
# 2 0.001673 0.012125 -0.002349 0.001352 -0.004706 -0.003930
# 3 -0.001649 -0.002349 0.007161 -0.002020 0.001155 -0.001364
# 4 0.000992 0.001352 -0.002020 0.026691 -0.006538 -0.006163
# 5 -0.002617 -0.004706 0.001155 -0.006538 0.028614 0.003729
# 6 -0.007407 -0.003930 -0.001364 -0.006163 0.003729 0.035404
#
#
# Mechanical properties :
#
#
# Convention : Reuss Voigt Hill
#
# Bulk Modulus (GPa) = 29.44507 46.26230 37.85369
# Shear Modulus (GPa) = 34.41361 41.02421 37.71891
#
# Velocity S-wave (km/s) = 3.83979 4.19240 4.01996
# Velocity P-wave (km/s) = 5.68102 6.57688 6.14530
#
# Compressibility (1/GPa) = 0.03396154
#
# Stress axis : x y z
#
# Youngs Moduli (GPa) = 51.74437 82.47550 139.65032
#
# Poissons Ratio (x) = -0.13798 0.23027
# Poissons Ratio (y) = -0.08656 0.32803
# Poissons Ratio (z) = 0.08532 0.19373
#
# Static dielectric constant tensor:
#      x y z
#    x 1.944270 0.021160 -0.037590 
#    y 0.021160 1.830280 0.006210 
#    z -0.037590 0.006210 1.868280 
# 
# From -- ./inp_files/174683.got.cif
#   From: 2010.05.17/outbox.cif.g08.bks.cpg/sg2_88_cif.got.tgz:174683.got - 2010.06.03 11:33:40.
