data_PCOD9068505
_publ_section_title
;
Structure prediction by ZEFSAII (Michael W. Deem and Ramdas Pophale) SiO2 
 PCOD9068505
Probable space group: P -1
;
_chemical_formula_sum "Si O2"
_cell_formula_units_Z 16
_cell_length_a 16.144221
_cell_length_b 7.660871
_cell_length_c 9.828725
_cell_angle_alpha 136.926728
_cell_angle_beta 74.653703
_cell_angle_gamma 82.203012
_cell_volume 693.532415
_symmetry_space_group_name_H-M "P -1"
_symmetry_group_IT_number 2
_symmetry_cell_setting 'triclinic'
loop_
_space_group_symop_operation_xyz
x,y,z
-x,-y,-z
loop_
_atom_site_type_symbol
_atom_site_label
_atom_site_fract_x
_atom_site_fract_y
_atom_site_fract_z
Si Si1 0.409157 0.654981 0.406342
Si Si2 0.610457 0.648862 0.999009
Si Si3 0.244877 0.176696 0.929156
Si Si4 0.588001 0.845407 0.704866
Si Si5 0.386350 0.398581 0.724390
Si Si6 0.066611 0.606033 0.615848
Si Si7 0.036962 0.258499 0.970443
Si Si8 0.733005 0.986968 0.869198
O O1 0.383611 0.443180 0.384960
O O2 0.519156 0.576873 0.356048
O O3 0.324735 0.978708 0.668843
O O4 0.400632 0.594564 0.217292
O O5 0.722975 0.582704 0.909138
O O6 0.574997 0.715569 0.206988
O O7 0.530622 0.947087 0.127471
O O8 0.137994 0.247200 0.968981
O O9 0.268388 0.006043 0.963681
O O10 0.628295 0.766957 0.489080
O O11 0.637731 0.008641 0.850629
O O12 0.281928 0.692193 0.971012
O O13 0.056509 0.919125 0.745951
O O14 0.175903 0.323569 0.391765
O O15 0.000000 0.500000 0.500000
O O16 0.034483 0.640972 0.808300
O O17 0.000000 0.500000 0.000000
#
# Coordination Sequence:
#
# PCOD9068505 Si02
#       8
#     2   2   2   2   2   2   2   2
#     4  12  23  41  66  95 141 196 243 287 360 437
#     4  12  26  40  63 103 147 192 240 302 360 432
#     4  12  25  45  72 104 142 189 246 301 367 445
#     4  12  23  41  66  95 141 195 245 284 359 436
#     4  12  26  40  64 101 148 190 242 302 358 432
#     4  11  26  52  82 108 152 193 248 318 383 449
#     4  11  28  52  81 116 147 191 251 320 384 454
#     4  12  25  44  73 104 139 196 244 297 367 448
#
# _framework density 23.070297
#
# number of rings (size 3 to 8) (size 9 to 14) (size 15 to 20)
#    0.000    0.250    6.250    3.000    0.000    3.500 
#    0.000    0.000    0.000    0.000    0.000    0.000 
#    0.000    0.000    0.000    0.000    0.000    0.000 
#
# Total GULP energy -89261.520167 kJ/mol
# GULP energy per Si atom -5578.845010 kJ/mol
# Density = 2.301779 g / cm^3
# Si number density = 23.070297 Si / 1000 Ang^3
#
#
#
# Elastic Constant Matrix: (Units=GPa)
#
#
# Indices 1 2 3 4 5 6 
#
# 1 113.7851 38.0684 33.0878 2.3761 14.0367 -16.6196
# 2 38.0684 110.1571 36.7880 -6.7189 11.7099 -8.0618
# 3 33.0878 36.7880 126.9107 3.1121 9.8082 -8.6226
# 4 2.3761 -6.7189 3.1121 35.6028 -4.4229 9.3831
# 5 14.0367 11.7099 9.8082 -4.4229 32.7888 -6.5905
# 6 -16.6196 -8.0618 -8.6226 9.3831 -6.5905 26.7508
#
#
#
# Elastic Compliance Matrix: (Units=1/GPa)
#
#
# Indices 1 2 3 4 5 6 
#
# 1 0.011496 -0.002951 -0.001437 -0.003172 -0.002607 0.006260
# 2 -0.002951 0.011212 -0.002439 0.002446 -0.001790 -0.000539
# 3 -0.001437 -0.002439 0.009208 -0.001754 -0.001170 0.001667
# 4 -0.003172 0.002446 -0.001754 0.032571 0.002888 -0.012512
# 5 -0.002607 -0.001790 -0.001170 0.002888 0.033961 0.004818
# 6 0.006260 -0.000539 0.001667 -0.012512 0.004818 0.047222
#
#
# Mechanical properties :
#
#
# Convention : Reuss Voigt Hill
#
# Bulk Modulus (GPa) = 54.75967 62.97123 58.86545
# Shear Modulus (GPa) = 30.22769 35.22241 32.72505
#
# Velocity S-wave (km/s) = 3.62365 3.91159 3.77037
# Velocity P-wave (km/s) = 6.42615 6.91053 6.67273
#
# Compressibility (1/GPa) = 0.01826161
#
# Stress axis : x y z
#
# Youngs Moduli (GPa) = 86.98742 89.18793 108.60200
#
# Poissons Ratio (x) = 0.26320 0.15608
# Poissons Ratio (y) = 0.25670 0.26489
# Poissons Ratio (z) = 0.12501 0.21753
#
# Static dielectric constant tensor:
#      x y z
#    x 1.870160 0.073140 0.018520 
#    y 0.073140 1.943870 0.020160 
#    z 0.018520 0.020160 1.891040 
# 
# From -- ./inp_files/215652.got.cif
#   From: 2010.05.17/outbox.cif.g08.bks.cpg/sg2_108_cif.got.tgz:215652.got - 2010.06.03 11:33:40.
