data_PCOD9068554
_publ_section_title
;
Structure prediction by ZEFSAII (Michael W. Deem and Ramdas Pophale) SiO2 
 PCOD9068554
Probable space group: P -1
;
_chemical_formula_sum "Si O2"
_cell_formula_units_Z 12
_cell_length_a 5.320042
_cell_length_b 17.868922
_cell_length_c 19.457267
_cell_angle_alpha 165.645413
_cell_angle_beta 76.543479
_cell_angle_gamma 105.709520
_cell_volume 438.037543
_symmetry_space_group_name_H-M "P -1"
_symmetry_group_IT_number 2
_symmetry_cell_setting 'triclinic'
loop_
_space_group_symop_operation_xyz
x,y,z
-x,-y,-z
loop_
_atom_site_type_symbol
_atom_site_label
_atom_site_fract_x
_atom_site_fract_y
_atom_site_fract_z
Si Si1 0.271354 0.367799 0.804766
Si Si2 0.561349 0.080147 0.810436
Si Si3 0.225615 0.917336 0.510322
Si Si4 0.852252 0.559264 0.319626
Si Si5 0.682058 0.749629 0.755267
Si Si6 0.083977 0.713623 0.583836
O O1 0.394824 0.701412 0.064483
O O2 0.490658 0.169607 0.593160
O O3 0.997814 0.258238 0.684521
O O4 0.769241 0.729136 0.198715
O O5 0.766679 0.248952 0.005611
O O6 0.283217 0.002935 0.797092
O O7 0.626035 0.755230 0.496093
O O8 0.106175 0.781727 0.468875
O O9 0.893379 0.557624 0.396588
O O10 0.500000 0.500000 0.500000
O O11 0.766923 0.556255 0.640855
O O12 0.500000 0.000000 0.000000
O O13 0.059717 0.169221 0.237261
#
# Coordination Sequence:
#
# PCOD9068554 Si02
#       6
#     2   2   2   2   2   2
#     4   9  20  42  70 105 155 209 262 318 381 455
#     4  11  27  46  73 114 153 199 257 319 383 458
#     4   9  20  42  70 105 155 209 262 318 381 455
#     4  11  27  46  73 114 153 199 257 319 383 458
#     4  11  28  55  79 112 149 199 250 317 399 488
#     4  11  28  50  83 112 154 200 255 322 400 477
#
# _framework density 27.394912000000001
#
# number of rings (size 3 to 8) (size 9 to 14) (size 15 to 20)
#    0.000    1.667    0.000    1.000    9.333   11.333 
#    0.000    3.333    0.000    0.000    0.000    0.000 
#    0.000    0.000    0.000    0.000    0.000    0.000 
#
# Total GULP energy -67262.110340 kJ/mol
# GULP energy per Si atom -5605.175862 kJ/mol
# Density = 2.733256 g / cm^3
# Si number density = 27.394912 Si / 1000 Ang^3
#
#
#
# Elastic Constant Matrix: (Units=GPa)
#
#
# Indices 1 2 3 4 5 6 
#
# 1 138.5814 51.8545 48.5115 13.4310 -8.7221 4.3591
# 2 51.8545 146.8429 47.1448 10.1845 -2.0535 -10.4392
# 3 48.5115 47.1448 125.6676 10.2544 -17.3044 -3.5198
# 4 13.4310 10.1845 10.2544 25.3130 -0.4836 3.9131
# 5 -8.7221 -2.0535 -17.3044 -0.4836 44.0479 10.8791
# 6 4.3591 -10.4392 -3.5198 3.9131 10.8791 66.9008
#
#
#
# Elastic Compliance Matrix: (Units=1/GPa)
#
#
# Indices 1 2 3 4 5 6 
#
# 1 0.009313 -0.002402 -0.002349 -0.002831 0.001053 -0.001111
# 2 -0.002402 0.008613 -0.002327 -0.001538 -0.001425 0.001700
# 3 -0.002349 -0.002327 0.010375 -0.001935 0.003511 -0.000122
# 4 -0.002831 -0.001538 -0.001935 0.042809 -0.000276 -0.002616
# 5 0.001053 -0.001425 0.003511 -0.000276 0.025258 -0.004197
# 6 -0.001111 0.001700 -0.000122 -0.002616 -0.004197 0.016114
#
#
# Mechanical properties :
#
#
# Convention : Reuss Voigt Hill
#
# Bulk Modulus (GPa) = 70.69875 78.45705 74.57790
# Shear Modulus (GPa) = 38.06528 44.82441 41.44485
#
# Velocity S-wave (km/s) = 3.73165 4.04942 3.89378
# Velocity P-wave (km/s) = 6.66560 7.11092 6.89186
#
# Compressibility (1/GPa) = 0.01414452
#
# Stress axis : x y z
#
# Youngs Moduli (GPa) = 107.37989 116.10357 96.38434
#
# Poissons Ratio (x) = 0.27892 0.22640
# Poissons Ratio (y) = 0.25796 0.22428
# Poissons Ratio (z) = 0.25222 0.27017
#
# Static dielectric constant tensor:
#      x y z
#    x 2.125790 0.081100 0.017750 
#    y 0.081100 2.209640 -0.002130 
#    z 0.017750 -0.002130 2.066960 
# 
# From -- ./inp_files/605165.got.cif
#   From: 2010.05.17/outbox.cif.g08.bks.cpg/sg2_303_cif.got.tgz:605165.got - 2010.06.03 11:33:40.
