data_PCOD9068725
_publ_section_title
;
Structure prediction by ZEFSAII (Michael W. Deem and Ramdas Pophale) SiO2 
 PCOD9068725
Probable space group: P -1
;
_chemical_formula_sum "Si O2"
_cell_formula_units_Z 16
_cell_length_a 24.184577
_cell_length_b 23.636053
_cell_length_c 5.581867
_cell_angle_alpha 85.508884
_cell_angle_beta 84.605329
_cell_angle_gamma 11.717348
_cell_volume 643.625648
_symmetry_space_group_name_H-M "P -1"
_symmetry_group_IT_number 2
_symmetry_cell_setting 'triclinic'
loop_
_space_group_symop_operation_xyz
x,y,z
-x,-y,-z
loop_
_atom_site_type_symbol
_atom_site_label
_atom_site_fract_x
_atom_site_fract_y
_atom_site_fract_z
Si Si1 0.472143 0.117775 0.003608
Si Si2 0.726720 0.480654 0.892674
Si Si3 0.454773 0.511446 0.264031
Si Si4 0.298331 0.370570 0.361463
Si Si5 0.238273 0.264371 0.683695
Si Si6 0.228685 0.087346 0.348047
Si Si7 0.193847 0.998709 0.200056
Si Si8 0.934972 0.954470 0.369207
O O1 0.273409 0.341213 0.214376
O O2 0.292547 0.265106 0.828306
O O3 0.701794 0.846326 0.113453
O O4 0.629950 0.014514 0.870718
O O5 0.756471 0.515172 0.784458
O O6 0.892122 0.271804 0.727485
O O7 0.411766 0.781372 0.967823
O O8 0.886080 0.315317 0.131810
O O9 0.500000 0.500000 0.500000
O O10 0.154749 0.785029 0.327948
O O11 0.674736 0.240710 0.248473
O O12 0.500000 0.500000 0.000000
O O13 0.608420 0.061001 0.428299
O O14 0.086492 0.583065 0.595337
O O15 0.000000 0.500000 0.500000
O O16 0.500000 0.000000 0.500000
O O17 0.268333 0.980978 0.321187
O O18 0.189475 0.945022 0.365994
#
# Coordination Sequence:
#
# PCOD9068725 Si02
#       8
#     2   2   2   2   2   2   2   2
#     4  11  28  50  81 110 155 206 248 334 398 466
#     4  12  26  46  75 113 160 206 254 316 397 481
#     4  12  30  54  81 118 161 218 288 341 402 471
#     4  12  27  46  73 115 159 199 253 310 394 484
#     4  11  28  55  79 110 145 201 272 321 393 464
#     4  12  27  46  73 115 159 199 253 310 394 484
#     4  12  26  46  75 113 160 206 254 316 397 481
#     4  12  28  48  82 110 162 211 262 336 398 470
#
# _framework density 24.859168
#
# number of rings (size 3 to 8) (size 9 to 14) (size 15 to 20)
#    0.000    0.250    2.500    4.500    7.000    8.000 
#    0.000    1.875    0.000    0.000    0.000    0.000 
#    0.000    0.000    0.000    0.000    0.000    0.000 
#
# Total GULP energy -89582.115842 kJ/mol
# GULP energy per Si atom -5598.882240 kJ/mol
# Density = 2.480259 g / cm^3
# Si number density = 24.859168 Si / 1000 Ang^3
#
#
#
# Elastic Constant Matrix: (Units=GPa)
#
#
# Indices 1 2 3 4 5 6 
#
# 1 87.0340 27.1063 43.2631 -2.0387 -1.2205 0.4806
# 2 27.1063 111.6981 14.3820 -0.3711 -7.4071 -4.6307
# 3 43.2631 14.3820 93.8752 -11.0427 -11.8273 -2.6218
# 4 -2.0387 -0.3711 -11.0427 51.9458 6.4051 1.2619
# 5 -1.2205 -7.4071 -11.8273 6.4051 69.9090 0.3828
# 6 0.4806 -4.6307 -2.6218 1.2619 0.3828 39.7179
#
#
#
# Elastic Compliance Matrix: (Units=1/GPa)
#
#
# Indices 1 2 3 4 5 6 
#
# 1 0.015977 -0.003078 -0.007156 -0.000746 -0.001184 -0.000989
# 2 -0.003078 0.009808 0.000053 -0.000192 0.001006 0.001181
# 3 -0.007156 0.000053 0.014531 0.002526 0.002102 0.000951
# 4 -0.000746 -0.000192 0.002526 0.019945 -0.001431 -0.000467
# 5 -0.001184 0.001006 0.002102 -0.001431 0.014876 0.000172
# 6 -0.000989 0.001181 0.000951 -0.000467 0.000172 0.025403
#
#
# Mechanical properties :
#
#
# Convention : Reuss Voigt Hill
#
# Bulk Modulus (GPa) = 50.11646 51.34554 50.73100
# Shear Modulus (GPa) = 39.19942 46.17159 42.68551
#
# Velocity S-wave (km/s) = 3.97528 4.31435 4.14828
# Velocity P-wave (km/s) = 6.42451 6.74667 6.58756
#
# Compressibility (1/GPa) = 0.01995352
#
# Stress axis : x y z
#
# Youngs Moduli (GPa) = 62.59040 101.95987 68.81893
#
# Poissons Ratio (x) = 0.31381 0.49248
# Poissons Ratio (y) = 0.19264 -0.00364
# Poissons Ratio (z) = 0.44790 -0.00539
#
# Static dielectric constant tensor:
#      x y z
#    x 2.048400 -0.017630 -0.005390 
#    y -0.017630 1.884600 -0.005530 
#    z -0.005390 -0.005530 1.949470 
# 
# From -- ./inp_files/127748.got.cif
#   From: 2010.05.17/outbox.cif.g08.bks.cpg/sg2_64_cif.got.tgz:127748.got - 2010.06.03 11:33:40.
