data_PCOD9068629
_publ_section_title
;
Structure prediction by ZEFSAII (Michael W. Deem and Ramdas Pophale) SiO2 
 PCOD9068629
Probable space group: P -1
;
_chemical_formula_sum "Si O2"
_cell_formula_units_Z 12
_cell_length_a 9.256964
_cell_length_b 14.322604
_cell_length_c 5.147105
_cell_angle_alpha 81.038123
_cell_angle_beta 100.642150
_cell_angle_gamma 138.241500
_cell_volume 446.501839
_symmetry_space_group_name_H-M "P -1"
_symmetry_group_IT_number 2
_symmetry_cell_setting 'triclinic'
loop_
_space_group_symop_operation_xyz
x,y,z
-x,-y,-z
loop_
_atom_site_type_symbol
_atom_site_label
_atom_site_fract_x
_atom_site_fract_y
_atom_site_fract_z
Si Si1 0.947942 0.765536 0.934802
Si Si2 0.380942 0.017394 0.635724
Si Si3 0.062862 0.968897 0.280999
Si Si4 0.346815 0.703515 0.181815
Si Si5 0.893493 0.530749 0.205664
Si Si6 0.474763 0.381244 0.454023
O O1 0.736094 0.714872 0.759093
O O2 0.160108 0.884847 0.772798
O O3 0.978931 0.825803 0.208295
O O4 0.917172 0.638498 0.995959
O O5 0.533176 0.139711 0.844640
O O6 0.500000 0.000000 0.500000
O O7 0.313706 0.067146 0.385643
O O8 0.000000 0.000000 0.500000
O O9 0.000000 0.000000 0.000000
O O10 0.521143 0.702714 0.301032
O O11 0.138292 0.623220 0.337781
O O12 0.215964 0.605803 0.932751
O O13 0.706916 0.472164 0.363667
O O14 0.500000 0.500000 0.500000
#
# Coordination Sequence:
#
# PCOD9068629 Si02
#       6
#     2   2   2   2   2   2
#     4  12  28  50  81 121 165 213 282 340 417 492
#     4  12  30  51  82 118 170 219 277 342 421 496
#     4  12  27  50  80 119 165 215 271 338 410 495
#     4  11  27  49  76 113 159 211 271 336 414 490
#     4  11  27  49  78 111 161 209 274 336 412 492
#     4  12  27  46  83 116 158 210 272 342 415 489
#
# _framework density 26.875591
#
# number of rings (size 3 to 8) (size 9 to 14) (size 15 to 20)
#    0.000    0.333    3.333    3.000    7.000    6.667 
#    0.000    0.000    0.000    0.000    0.000    0.000 
#    0.000    0.000    0.000    0.000    0.000    0.000 
#
# Total GULP energy -67140.698723 kJ/mol
# GULP energy per Si atom -5595.058227 kJ/mol
# Density = 2.681442 g / cm^3
# Si number density = 26.875591 Si / 1000 Ang^3
#
#
#
# Elastic Constant Matrix: (Units=GPa)
#
#
# Indices 1 2 3 4 5 6 
#
# 1 231.9169 51.4224 65.9034 8.6673 -6.3887 7.9291
# 2 51.4224 122.1739 38.3926 14.9269 -12.8021 -2.3947
# 3 65.9034 38.3926 134.5596 23.2363 -11.0327 -1.3356
# 4 8.6673 14.9269 23.2363 40.8800 1.5476 -6.9039
# 5 -6.3887 -12.8021 -11.0327 1.5476 57.6561 11.2642
# 6 7.9291 -2.3947 -1.3356 -6.9039 11.2642 45.6641
#
#
#
# Elastic Compliance Matrix: (Units=1/GPa)
#
#
# Indices 1 2 3 4 5 6 
#
# 1 0.005325 -0.001625 -0.002257 0.000582 -0.000027 -0.000981
# 2 -0.001625 0.009811 -0.001422 -0.002509 0.001807 -0.000070
# 3 -0.002257 -0.001422 0.009888 -0.004765 0.001551 -0.000497
# 4 0.000582 -0.002509 -0.004765 0.028885 -0.003110 0.004762
# 5 -0.000027 0.001807 0.001551 -0.003110 0.019107 -0.005039
# 6 -0.000981 -0.000070 -0.000497 0.004762 -0.005039 0.024014
#
#
# Mechanical properties :
#
#
# Convention : Reuss Voigt Hill
#
# Bulk Modulus (GPa) = 69.37387 88.89858 79.13623
# Shear Modulus (GPa) = 44.46711 51.03551 47.75131
#
# Velocity S-wave (km/s) = 4.07203 4.36243 4.21973
# Velocity P-wave (km/s) = 6.92659 7.65010 7.29731
#
# Compressibility (1/GPa) = 0.01441465
#
# Stress axis : x y z
#
# Youngs Moduli (GPa) = 187.81008 101.93013 101.13460
#
# Poissons Ratio (x) = 0.16565 0.22822
# Poissons Ratio (y) = 0.30521 0.14386
# Poissons Ratio (z) = 0.42382 0.14499
#
# Static dielectric constant tensor:
#      x y z
#    x 2.356250 0.016590 0.135720 
#    y 0.016590 2.290210 -0.208270 
#    z 0.135720 -0.208270 2.371540 
# 
# From -- ./inp_files/38924.got.cif
#   From: 2010.05.17/outbox.cif.g08.bks.cpg/sg2_20_cif.got.tgz:38924.got - 2010.06.03 11:33:40.
