data_PCOD9068945
_publ_section_title
;
Structure prediction by ZEFSAII (Michael W. Deem and Ramdas Pophale) SiO2 
 PCOD9068945
Probable space group: P -1
;
_chemical_formula_sum "Si O2"
_cell_formula_units_Z 16
_cell_length_a 7.859668
_cell_length_b 14.819481
_cell_length_c 11.619733
_cell_angle_alpha 125.888817
_cell_angle_beta 37.024661
_cell_angle_gamma 120.718118
_cell_volume 657.711623
_symmetry_space_group_name_H-M "P -1"
_symmetry_group_IT_number 2
_symmetry_cell_setting 'triclinic'
loop_
_space_group_symop_operation_xyz
x,y,z
-x,-y,-z
loop_
_atom_site_type_symbol
_atom_site_label
_atom_site_fract_x
_atom_site_fract_y
_atom_site_fract_z
Si Si1 0.160060 0.969243 0.658631
Si Si2 0.694136 0.294027 0.185035
Si Si3 0.479038 0.260933 0.508256
Si Si4 0.108538 0.818025 0.345633
Si Si5 0.451807 0.617256 0.045292
Si Si6 0.246258 0.219224 0.823473
Si Si7 0.422607 0.105097 0.040378
Si Si8 0.331448 0.511264 0.795541
O O1 0.110411 0.903195 0.515417
O O2 0.908536 0.907980 0.826764
O O3 0.500000 0.000000 0.500000
O O4 0.091555 0.096912 0.814020
O O5 0.704234 0.254200 0.280931
O O6 0.472393 0.211458 0.176019
O O7 0.625010 0.418406 0.291547
O O8 0.000535 0.288931 0.958561
O O9 0.509624 0.222469 0.594169
O O10 0.441380 0.391281 0.636191
O O11 0.193477 0.192534 0.563372
O O12 0.171517 0.689583 0.250011
O O13 0.356601 0.870044 0.164613
O O14 0.657981 0.715051 0.065014
O O15 0.500000 0.500000 0.000000
O O16 0.486467 0.582228 0.868760
O O17 0.500000 0.000000 0.000000
O O18 0.000000 0.500000 0.000000
#
# Coordination Sequence:
#
# PCOD9068945 Si02
#       8
#     2   2   2   2   2   2   2   2
#     4  12  27  45  69 104 145 182 230 295 359 422
#     4  12  24  43  70 104 136 185 245 291 346 423
#     4  12  24  43  73 104 135 184 245 294 346 419
#     4  12  25  45  74 102 136 189 236 290 350 421
#     4  12  23  44  74  97 142 187 223 288 366 419
#     4  12  25  45  68 103 144 183 233 291 362 419
#     4  12  24  44  72 102 138 185 240 290 346 423
#     4  12  21  44  73  99 139 187 235 299 352 417
#
# _framework density 24.326771000000001
#
# number of rings (size 3 to 8) (size 9 to 14) (size 15 to 20)
#    0.000    0.000   10.000    0.375    1.750    1.500 
#    2.250    1.875    0.000    0.000    0.000    0.000 
#    0.000    0.000    0.000    0.000    0.000    0.000 
#
# Total GULP energy -89179.421916 kJ/mol
# GULP energy per Si atom -5573.713870 kJ/mol
# Density = 2.427140 g / cm^3
# Si number density = 24.326771 Si / 1000 Ang^3
#
#
#
# Elastic Constant Matrix: (Units=GPa)
#
#
# Indices 1 2 3 4 5 6 
#
# 1 64.9429 19.8069 16.7475 -6.0523 9.0453 19.7387
# 2 19.8069 99.0358 39.9755 8.6597 12.1231 -1.0459
# 3 16.7475 39.9755 98.4213 -5.2907 21.2455 14.6543
# 4 -6.0523 8.6597 -5.2907 51.9298 5.0461 4.0680
# 5 9.0453 12.1231 21.2455 5.0461 37.2946 12.0327
# 6 19.7387 -1.0459 14.6543 4.0680 12.0327 37.1912
#
#
#
# Elastic Compliance Matrix: (Units=1/GPa)
#
#
# Indices 1 2 3 4 5 6 
#
# 1 0.020725 -0.004762 0.000488 0.004225 -0.000586 -0.011598
# 2 -0.004762 0.013896 -0.005587 -0.003758 -0.001625 0.006056
# 3 0.000488 -0.005587 0.014401 0.003353 -0.005445 -0.004696
# 4 0.004225 -0.003758 0.003353 0.021402 -0.002981 -0.005046
# 5 -0.000586 -0.001625 -0.005445 -0.002981 0.033615 -0.008139
# 6 -0.011598 0.006056 -0.004696 -0.005046 -0.008139 0.038249
#
#
# Mechanical properties :
#
#
# Convention : Reuss Voigt Hill
#
# Bulk Modulus (GPa) = 34.12838 46.16220 40.14529
# Shear Modulus (GPa) = 29.10723 37.67445 33.39084
#
# Velocity S-wave (km/s) = 3.46281 3.93960 3.70888
# Velocity P-wave (km/s) = 5.48158 6.30167 5.90587
#
# Compressibility (1/GPa) = 0.02930113
#
# Stress axis : x y z
#
# Youngs Moduli (GPa) = 48.25030 71.96094 69.43818
#
# Poissons Ratio (x) = 0.34269 -0.03390
# Poissons Ratio (y) = 0.22978 0.38795
# Poissons Ratio (z) = -0.02356 0.40204
#
# Static dielectric constant tensor:
#      x y z
#    x 2.028470 -0.110840 -0.038840 
#    y -0.110840 1.482600 -0.200120 
#    z -0.038840 -0.200120 1.838830 
# 
# From -- ./inp_files/399530.got.cif
#   From: 2010.05.17/outbox.cif.g08.bks.cpg/sg2_200_cif.got.tgz:399530.got - 2010.06.03 11:33:40.
