data_PCOD9068975
_publ_section_title
;
Structure prediction by ZEFSAII (Michael W. Deem and Ramdas Pophale) SiO2 
 PCOD9068975
Probable space group: P -1
;
_chemical_formula_sum "Si O2"
_cell_formula_units_Z 16
_cell_length_a 9.574421
_cell_length_b 12.555172
_cell_length_c 9.092294
_cell_angle_alpha 56.376073
_cell_angle_beta 51.925149
_cell_angle_gamma 67.160202
_cell_volume 714.622638
_symmetry_space_group_name_H-M "P -1"
_symmetry_group_IT_number 2
_symmetry_cell_setting 'triclinic'
loop_
_space_group_symop_operation_xyz
x,y,z
-x,-y,-z
loop_
_atom_site_type_symbol
_atom_site_label
_atom_site_fract_x
_atom_site_fract_y
_atom_site_fract_z
Si Si1 0.333106 0.241253 0.147199
Si Si2 0.876781 0.587859 0.406175
Si Si3 0.694691 0.972843 0.467483
Si Si4 0.892526 0.872798 0.144607
Si Si5 0.571981 0.868233 0.132050
Si Si6 0.977625 0.407621 0.221705
Si Si7 0.723043 0.229643 0.378682
Si Si8 0.484700 0.374402 0.201637
O O1 0.290363 0.098716 0.331642
O O2 0.475552 0.268970 0.159216
O O3 0.170124 0.347066 0.195103
O O4 0.391598 0.233758 0.945969
O O5 0.961081 0.722304 0.206544
O O6 0.867034 0.496673 0.341290
O O7 0.688707 0.615026 0.589268
O O8 0.000000 0.500000 0.500000
O O9 0.792277 0.878060 0.361922
O O10 0.500000 0.000000 0.500000
O O11 0.779821 0.107302 0.334367
O O12 0.750758 0.890846 0.090095
O O13 0.000000 0.000000 0.000000
O O14 0.432735 0.816927 0.378724
O O15 0.500000 0.000000 0.000000
O O16 0.874520 0.285681 0.333229
O O17 0.000000 0.500000 0.000000
O O18 0.644628 0.338866 0.235493
O O19 0.500000 0.500000 0.000000
#
# Coordination Sequence:
#
# PCOD9068975 Si02
#       8
#     2   2   2   2   2   2   2   2
#     4  12  24  47  69 103 151 185 243 299 361 438
#     4  12  25  51  72 104 152 191 251 301 363 443
#     4  12  21  47  73 102 144 185 238 300 362 434
#     4  12  27  46  75 106 146 193 239 302 369 437
#     4  12  25  46  71 112 146 188 241 302 367 436
#     4  12  29  47  70 105 149 196 240 300 364 430
#     4  12  27  47  74 106 147 191 241 304 366 431
#     4  12  26  47  75 103 138 200 247 298 365 435
#
# _framework density 22.389438999999999
#
# number of rings (size 3 to 8) (size 9 to 14) (size 15 to 20)
#    0.000    0.000    7.500    1.500    5.250    3.000 
#    0.000    0.000    0.000    0.000    0.000    0.000 
#    0.000    0.000    0.000    0.000    0.000    0.000 
#
# Total GULP energy -89401.890895 kJ/mol
# GULP energy per Si atom -5587.618181 kJ/mol
# Density = 2.233848 g / cm^3
# Si number density = 22.389439 Si / 1000 Ang^3
#
#
#
# Elastic Constant Matrix: (Units=GPa)
#
#
# Indices 1 2 3 4 5 6 
#
# 1 73.2883 12.7259 17.2927 -6.0106 14.8361 13.6560
# 2 12.7259 114.1366 21.0781 -2.6361 5.8224 18.4651
# 3 17.2927 21.0781 77.9547 -12.9264 21.1664 -0.5596
# 4 -6.0106 -2.6361 -12.9264 57.2768 4.0918 17.6640
# 5 14.8361 5.8224 21.1664 4.0918 33.3035 -7.3013
# 6 13.6560 18.4651 -0.5596 17.6640 -7.3013 41.2037
#
#
#
# Elastic Compliance Matrix: (Units=1/GPa)
#
#
# Indices 1 2 3 4 5 6 
#
# 1 0.018441 0.000471 -0.000217 0.006089 -0.011306 -0.010940
# 2 0.000471 0.010220 -0.001909 0.002141 -0.002384 -0.006102
# 3 -0.000217 -0.001909 0.017672 0.005839 -0.012289 -0.003513
# 4 0.006089 0.002141 0.005839 0.025476 -0.013482 -0.016209
# 5 -0.011306 -0.002384 -0.012289 -0.013482 0.049142 0.019136
# 6 -0.010940 -0.006102 -0.003513 -0.016209 0.019136 0.040922
#
#
# Mechanical properties :
#
#
# Convention : Reuss Voigt Hill
#
# Bulk Modulus (GPa) = 23.24376 40.84145 32.04261
# Shear Modulus (GPa) = 27.85135 40.64234 34.24685
#
# Velocity S-wave (km/s) = 3.53079 4.26519 3.91525
# Velocity P-wave (km/s) = 5.19867 6.52203 5.89758
#
# Compressibility (1/GPa) = 0.04302229
#
# Stress axis : x y z
#
# Youngs Moduli (GPa) = 54.22788 97.84908 56.58669
#
# Poissons Ratio (x) = -0.04611 0.01229
# Poissons Ratio (y) = -0.02556 0.10804
# Poissons Ratio (z) = 0.01177 0.18682
#
# Static dielectric constant tensor:
#      x y z
#    x 1.828110 0.044160 -0.044900 
#    y 0.044160 1.861150 -0.024210 
#    z -0.044900 -0.024210 1.952170 
# 
# From -- ./inp_files/184818.got.cif
#   From: 2010.05.17/outbox.cif.g08.bks.cpg/sg2_93_cif.got.tgz:184818.got - 2010.06.03 11:33:40.
