data_PCOD9068237
_publ_section_title
;
Structure prediction by ZEFSAII (Michael W. Deem and Ramdas Pophale) SiO2 
 PCOD9068237
Probable space group: P -1
;
_chemical_formula_sum "Si O2"
_cell_formula_units_Z 13
_cell_length_a 9.120576
_cell_length_b 15.112912
_cell_length_c 6.141997
_cell_angle_alpha 77.990037
_cell_angle_beta 107.317788
_cell_angle_gamma 139.928372
_cell_volume 520.023377
_symmetry_space_group_name_H-M "P -1"
_symmetry_group_IT_number 2
_symmetry_cell_setting 'triclinic'
loop_
_space_group_symop_operation_xyz
x,y,z
-x,-y,-z
loop_
_atom_site_type_symbol
_atom_site_label
_atom_site_fract_x
_atom_site_fract_y
_atom_site_fract_z
Si Si1 0.657393 0.874972 0.393172
Si Si2 0.282232 0.417836 0.102685
Si Si3 0.882396 0.235086 0.690050
Si Si4 0.500000 0.000000 0.000000
Si Si5 0.414519 0.794278 0.745029
Si Si6 0.039369 0.167279 0.428588
Si Si7 0.728276 0.396940 0.886574
O O1 0.631432 0.887533 0.628800
O O2 0.824608 0.863527 0.435412
O O3 0.408406 0.727096 0.279949
O O4 0.789275 0.023944 0.280565
O O5 0.190034 0.291555 0.262024
O O6 0.500000 0.500000 0.000000
O O7 0.320155 0.519972 0.224912
O O8 0.074456 0.352786 0.882407
O O9 0.805074 0.276185 0.462762
O O10 0.985739 0.201717 0.599793
O O11 0.665341 0.104223 0.803896
O O12 0.419066 0.872982 0.889947
O O13 0.395444 0.688521 0.900358
O O14 0.000000 0.500000 0.000000
#
# Coordination Sequence:
#
# PCOD9068237 Si02
#       7
#     2   2   2   1   2   2   2
#     4  11  26  48  76 112 150 196 255 317 377 447
#     4  12  28  49  75 112 155 206 250 304 376 462
#     4  12  26  45  78 110 150 199 249 310 380 444
#     4  12  24  44  72 114 144 182 254 308 378 434
#     4  12  26  44  76 109 150 193 246 317 376 442
#     4  11  26  49  77 113 149 204 253 313 382 442
#     4  12  27  47  71 111 153 199 251 307 374 455
#
# _framework density 24.998878000000001
#
# number of rings (size 3 to 8) (size 9 to 14) (size 15 to 20)
#    0.000    0.308    1.538    6.923    6.462    7.385 
#    0.000    3.846    0.000    0.000    0.000    0.000 
#    0.000    0.000    0.000    0.000    0.000    0.000 
#
# Total GULP energy -72585.086149 kJ/mol
# GULP energy per Si atom -5583.468165 kJ/mol
# Density = 2.494198 g / cm^3
# Si number density = 24.998878 Si / 1000 Ang^3
#
#
#
# Elastic Constant Matrix: (Units=GPa)
#
#
# Indices 1 2 3 4 5 6 
#
# 1 101.7012 32.2913 13.3909 -1.3996 -39.5255 -6.6933
# 2 32.2913 165.8530 34.9266 -9.8021 -11.7996 -7.3080
# 3 13.3909 34.9266 86.4634 -6.5779 -27.1939 -2.9472
# 4 -1.3996 -9.8021 -6.5779 47.5935 7.3119 -1.8619
# 5 -39.5255 -11.7996 -27.1939 7.3119 36.5264 -0.4897
# 6 -6.6933 -7.3080 -2.9472 -1.8619 -0.4897 45.3817
#
#
#
# Elastic Compliance Matrix: (Units=1/GPa)
#
#
# Indices 1 2 3 4 5 6 
#
# 1 0.020638 -0.003541 0.006493 -0.003208 0.026706 0.003052
# 2 -0.003541 0.007286 -0.003685 0.001601 -0.004536 0.000428
# 3 0.006493 -0.003685 0.018198 -0.000998 0.019607 0.001717
# 4 -0.003208 0.001601 -0.000998 0.022386 -0.008171 0.000550
# 5 0.026706 -0.004536 0.019607 -0.008171 0.071110 0.004914
# 6 0.003052 0.000428 0.001717 0.000550 0.004914 0.022742
#
#
# Mechanical properties :
#
#
# Convention : Reuss Voigt Hill
#
# Bulk Modulus (GPa) = 22.39317 57.24837 39.82077
# Shear Modulus (GPa) = 27.97865 44.12758 36.05311
#
# Velocity S-wave (km/s) = 3.34907 4.20597 3.80174
# Velocity P-wave (km/s) = 4.89205 6.82180 5.93587
#
# Compressibility (1/GPa) = 0.04465647
#
# Stress axis : x y z
#
# Youngs Moduli (GPa) = 48.45500 137.25781 54.95204
#
# Poissons Ratio (x) = 0.48599 -0.35682
# Poissons Ratio (y) = 0.17156 0.20249
# Poissons Ratio (z) = -0.31463 0.50577
#
# Static dielectric constant tensor:
#      x y z
#    x 1.901530 0.012260 0.045390 
#    y 0.012260 2.006800 -0.001820 
#    z 0.045390 -0.001820 1.972300 
# 
# From -- ./inp_files/38839.got.cif
#   From: 2010.05.17/outbox.cif.g08.bks.cpg/sg2_20_cif.got.tgz:38839.got - 2010.06.03 11:33:40.
