data_PCOD9068977
_publ_section_title
;
Structure prediction by ZEFSAII (Michael W. Deem and Ramdas Pophale) SiO2 
 PCOD9068977
Probable space group: P -1
;
_chemical_formula_sum "Si O2"
_cell_formula_units_Z 12
_cell_length_a 11.953764
_cell_length_b 9.260456
_cell_length_c 6.845275
_cell_angle_alpha 72.622140
_cell_angle_beta 93.268205
_cell_angle_gamma 138.761004
_cell_volume 459.488175
_symmetry_space_group_name_H-M "P -1"
_symmetry_group_IT_number 2
_symmetry_cell_setting 'triclinic'
loop_
_space_group_symop_operation_xyz
x,y,z
-x,-y,-z
loop_
_atom_site_type_symbol
_atom_site_label
_atom_site_fract_x
_atom_site_fract_y
_atom_site_fract_z
Si Si1 0.110901 0.813666 0.326800
Si Si2 0.535973 0.649201 0.815115
Si Si3 0.087174 0.252751 0.360528
Si Si4 0.683954 0.112170 0.025059
Si Si5 0.509268 0.385496 0.667523
Si Si6 0.805575 0.512978 0.117908
O O1 0.030842 0.734460 0.567835
O O2 0.934262 0.660666 0.251330
O O3 0.261296 0.096189 0.243364
O O4 0.211269 0.798047 0.205550
O O5 0.529851 0.607663 0.578221
O O6 0.388431 0.626101 0.803546
O O7 0.505744 0.580860 0.097884
O O8 0.288354 0.464125 0.373492
O O9 0.105106 0.291049 0.117196
O O10 0.000000 0.000000 0.500000
O O11 0.784566 0.326098 0.097642
O O12 0.633654 0.900089 0.205159
O O13 0.500000 0.000000 0.000000
#
# Coordination Sequence:
#
# PCOD9068977 Si02
#       6
#     2   2   2   2   2   2
#     4  12  26  44  77 110 146 197 250 306 375 444
#     4  12  21  47  74 104 148 200 243 304 371 439
#     4  12  25  44  71 117 150 181 256 316 359 443
#     4  12  24  52  77 101 155 203 242 307 381 447
#     4  12  26  47  77 109 146 197 252 309 372 445
#     4  12  27  49  77 107 152 204 247 302 383 443
#
# _framework density 26.116012999999999
#
# number of rings (size 3 to 8) (size 9 to 14) (size 15 to 20)
#    0.000    0.000    8.333    1.500    2.333    3.333 
#    0.000    5.000    0.000    0.000    0.000    0.000 
#    0.000    0.000    0.000    0.000    0.000    0.000 
#
# Total GULP energy -67095.579482 kJ/mol
# GULP energy per Si atom -5591.298290 kJ/mol
# Density = 2.605657 g / cm^3
# Si number density = 26.116013 Si / 1000 Ang^3
#
#
#
# Elastic Constant Matrix: (Units=GPa)
#
#
# Indices 1 2 3 4 5 6 
#
# 1 121.2664 34.1540 51.2995 -3.3650 -44.0178 -4.0750
# 2 34.1540 176.0242 22.0461 8.4891 -7.1260 -26.9591
# 3 51.2995 22.0461 102.6349 3.6247 -33.1414 -28.9972
# 4 -3.3650 8.4891 3.6247 54.3636 7.7437 0.2424
# 5 -44.0178 -7.1260 -33.1414 7.7437 57.1846 -4.5268
# 6 -4.0750 -26.9591 -28.9972 0.2424 -4.5268 50.7838
#
#
#
# Elastic Compliance Matrix: (Units=1/GPa)
#
#
# Indices 1 2 3 4 5 6 
#
# 1 0.013239 -0.002037 -0.004417 0.000419 0.007169 -0.001904
# 2 -0.002037 0.006632 0.000777 -0.001256 0.000181 0.003823
# 3 -0.004417 0.000777 0.017554 -0.002767 0.008101 0.010816
# 4 0.000419 -0.001256 -0.002767 0.019423 -0.004280 -0.002688
# 5 0.007169 0.000181 0.008101 -0.004280 0.028928 0.007896
# 6 -0.001904 0.003823 0.010816 -0.002688 0.007896 0.028461
#
#
# Mechanical properties :
#
#
# Convention : Reuss Voigt Hill
#
# Bulk Modulus (GPa) = 38.35984 68.32497 53.34241
# Shear Modulus (GPa) = 37.23519 51.96145 44.59832
#
# Velocity S-wave (km/s) = 3.78002 4.46538 4.13692
# Velocity P-wave (km/s) = 5.81133 7.26671 6.57938
#
# Compressibility (1/GPa) = 0.02606893
#
# Stress axis : x y z
#
# Youngs Moduli (GPa) = 75.53685 150.77297 56.96780
#
# Poissons Ratio (x) = 0.30714 0.25165
# Poissons Ratio (y) = 0.15388 -0.04424
# Poissons Ratio (z) = 0.33368 -0.11708
#
# Static dielectric constant tensor:
#      x y z
#    x 2.028880 -0.081390 0.014880 
#    y -0.081390 1.957520 0.080570 
#    z 0.014880 0.080570 2.253670 
# 
# From -- ./inp_files/94784.got.cif
#   From: 2010.05.17/outbox.cif.g08.bks.cpg/sg2_48_cif.got.tgz:94784.got - 2010.06.03 11:33:40.
