data_PCOD9068673
_publ_section_title
;
Structure prediction by ZEFSAII (Michael W. Deem and Ramdas Pophale) SiO2 
 PCOD9068673
Probable space group: P -1
;
_chemical_formula_sum "Si O2"
_cell_formula_units_Z 14
_cell_length_a 16.587308
_cell_length_b 15.392653
_cell_length_c 9.923032
_cell_angle_alpha 146.509337
_cell_angle_beta 34.845724
_cell_angle_gamma 155.115413
_cell_volume 565.384790
_symmetry_space_group_name_H-M "P -1"
_symmetry_group_IT_number 2
_symmetry_cell_setting 'triclinic'
loop_
_space_group_symop_operation_xyz
x,y,z
-x,-y,-z
loop_
_atom_site_type_symbol
_atom_site_label
_atom_site_fract_x
_atom_site_fract_y
_atom_site_fract_z
Si Si1 0.044012 0.900834 0.703266
Si Si2 0.669083 0.704191 0.626316
Si Si3 0.684692 0.078763 0.765401
Si Si4 0.368017 0.311934 0.051792
Si Si5 0.524577 0.922100 0.499878
Si Si6 0.933581 0.473386 0.400601
Si Si7 0.947525 0.218158 0.829707
O O1 0.839749 0.767790 0.731816
O O2 0.027579 0.711045 0.533390
O O3 0.250449 0.053039 0.533186
O O4 0.000000 0.000000 0.000000
O O5 0.500000 0.500000 0.500000
O O6 0.551441 0.638770 0.844721
O O7 0.849967 0.719626 0.388877
O O8 0.775708 0.954695 0.765010
O O9 0.865599 0.243499 0.840044
O O10 0.604363 0.069749 0.714430
O O11 0.500000 0.000000 0.000000
O O12 0.500000 0.500000 0.000000
O O13 0.336870 0.114132 0.778639
O O14 0.299912 0.683602 0.514303
O O15 0.500000 0.000000 0.500000
O O16 0.000000 0.500000 0.500000
O O17 0.984606 0.368202 0.096535
#
# Coordination Sequence:
#
# PCOD9068673 Si02
#       7
#     2   2   2   2   2   2   2
#     4  12  27  48  77 114 155 214 269 337 418 497
#     4  11  28  49  84 117 169 215 278 347 424 505
#     4  12  26  49  80 113 166 207 274 346 417 495
#     4  12  26  48  76 113 155 208 277 335 415 501
#     4  12  26  48  78 115 156 213 271 333 417 500
#     4  12  28  48  76 114 163 209 275 343 410 498
#     4  11  27  51  79 123 163 220 280 347 425 500
#
# _framework density 24.761900000000001
#
# number of rings (size 3 to 8) (size 9 to 14) (size 15 to 20)
#    0.000    0.286    5.714    1.714    6.000    1.714 
#    0.000    0.000    0.000    0.000    0.000    0.000 
#    0.000    0.000    0.000    0.000    0.000    0.000 
#
# Total GULP energy -77955.480737 kJ/mol
# GULP energy per Si atom -5568.248624 kJ/mol
# Density = 2.470554 g / cm^3
# Si number density = 24.761900 Si / 1000 Ang^3
#
#
#
# Elastic Constant Matrix: (Units=GPa)
#
#
# Indices 1 2 3 4 5 6 
#
# 1 148.0822 38.5734 85.7571 8.1572 30.0748 6.8975
# 2 38.5734 100.8023 58.7506 6.2285 2.1303 15.8047
# 3 85.7571 58.7506 223.4414 0.1706 23.1760 -2.6585
# 4 8.1572 6.2285 0.1706 52.7470 17.4880 -8.3132
# 5 30.0748 2.1303 23.1760 17.4880 69.2922 -8.1479
# 6 6.8975 15.8047 -2.6585 -8.3132 -8.1479 30.2010
#
#
#
# Elastic Compliance Matrix: (Units=1/GPa)
#
#
# Indices 1 2 3 4 5 6 
#
# 1 0.009730 -0.001380 -0.003060 -0.000680 -0.003321 -0.002852
# 2 -0.001380 0.013727 -0.003285 -0.002979 0.001125 -0.007674
# 3 -0.003060 -0.003285 0.006636 0.001620 -0.000820 0.003227
# 4 -0.000680 -0.002979 0.001620 0.022093 -0.004955 0.006602
# 5 -0.003321 0.001125 -0.000820 -0.004955 0.017778 0.003530
# 6 -0.002852 -0.007674 0.003227 0.006602 0.003530 0.040833
#
#
# Mechanical properties :
#
#
# Convention : Reuss Voigt Hill
#
# Bulk Modulus (GPa) = 68.30185 93.16535 80.73360
# Shear Modulus (GPa) = 38.13068 49.73104 43.93086
#
# Velocity S-wave (km/s) = 3.92840 4.48634 4.21661
# Velocity P-wave (km/s) = 6.94405 8.03384 7.50874
#
# Compressibility (1/GPa) = 0.01464089
#
# Stress axis : x y z
#
# Youngs Moduli (GPa) = 102.77989 72.85003 150.69252
#
# Poissons Ratio (x) = 0.10054 0.46117
# Poissons Ratio (y) = 0.14184 0.49508
# Poissons Ratio (z) = 0.31454 0.23934
#
# Static dielectric constant tensor:
#      x y z
#    x 4.616590 -1.032330 2.423930 
#    y -1.032330 1.981290 -0.822210 
#    z 2.423930 -0.822210 4.114950 
# 
# From -- ./inp_files/316059.got.cif
#   From: 2010.05.17/outbox.cif.g08.bks.cpg/sg2_159_cif.got.tgz:316059.got - 2010.06.03 11:33:40.
