data_PCOD9068678
_publ_section_title
;
Structure prediction by ZEFSAII (Michael W. Deem and Ramdas Pophale) SiO2 
 PCOD9068678
Probable space group: P -1
;
_chemical_formula_sum "Si O2"
_cell_formula_units_Z 16
_cell_length_a 9.216808
_cell_length_b 15.044426
_cell_length_c 5.307961
_cell_angle_alpha 116.461517
_cell_angle_beta 66.602881
_cell_angle_gamma 99.968220
_cell_volume 604.716275
_symmetry_space_group_name_H-M "P -1"
_symmetry_group_IT_number 2
_symmetry_cell_setting 'triclinic'
loop_
_space_group_symop_operation_xyz
x,y,z
-x,-y,-z
loop_
_atom_site_type_symbol
_atom_site_label
_atom_site_fract_x
_atom_site_fract_y
_atom_site_fract_z
Si Si1 0.258375 0.750166 0.624626
Si Si2 0.690985 0.987624 0.405172
Si Si3 0.882228 0.179660 0.686462
Si Si4 0.600512 0.524422 0.208085
Si Si5 0.833554 0.632559 0.898530
Si Si6 0.822682 0.440305 0.300801
Si Si7 0.458877 0.116170 0.238784
Si Si8 0.203838 0.176606 0.181340
O O1 0.198228 0.749343 0.380517
O O2 0.404858 0.823984 0.644170
O O3 0.001526 0.605734 0.876253
O O4 0.141721 0.797788 0.975647
O O5 0.686296 0.898778 0.494605
O O6 0.500000 0.000000 0.500000
O O7 0.782039 0.080107 0.572230
O O8 0.792471 0.939500 0.053041
O O9 0.062943 0.181991 0.484744
O O10 0.755141 0.458864 0.093303
O O11 0.282871 0.640786 0.580386
O O12 0.500000 0.500000 0.000000
O O13 0.690641 0.625449 0.190674
O O14 0.817810 0.543702 0.588641
O O15 0.827777 0.734620 0.878860
O O16 0.500000 0.500000 0.500000
O O17 0.611630 0.818733 0.855596
O O18 0.500000 0.000000 0.000000
#
# Coordination Sequence:
#
# PCOD9068678 Si02
#       8
#     2   2   2   2   2   2   2   2
#     4  12  27  48  80 113 158 206 266 317 402 469
#     4  12  24  48  76 108 158 209 264 325 408 470
#     4  12  27  49  76 117 156 201 267 330 390 477
#     4  12  27  51  79 116 158 203 268 332 396 465
#     4  11  27  54  79 118 161 218 269 330 399 480
#     4  11  27  51  85 111 166 214 267 328 400 476
#     4  12  25  48  76 110 155 212 259 330 398 481
#     4  12  28  47  79 116 157 205 270 329 395 473
#
# _framework density 26.458693
#
# number of rings (size 3 to 8) (size 9 to 14) (size 15 to 20)
#    0.000    0.250    6.250    0.750    5.250    3.500 
#    0.000    0.000    0.000    0.000    0.000    0.000 
#    0.000    0.000    0.000    0.000    0.000    0.000 
#
# Total GULP energy -89402.800325 kJ/mol
# GULP energy per Si atom -5587.675020 kJ/mol
# Density = 2.639847 g / cm^3
# Si number density = 26.458693 Si / 1000 Ang^3
#
#
#
# Elastic Constant Matrix: (Units=GPa)
#
#
# Indices 1 2 3 4 5 6 
#
# 1 178.6520 53.0711 15.7585 -10.3512 15.5210 -12.2425
# 2 53.0711 141.8655 35.1455 -11.7644 -14.0812 3.1804
# 3 15.7585 35.1455 92.8343 -14.0400 -14.0758 0.3320
# 4 -10.3512 -11.7644 -14.0400 56.6479 -2.7459 -0.9900
# 5 15.5210 -14.0812 -14.0758 -2.7459 35.2999 -3.7303
# 6 -12.2425 3.1804 0.3320 -0.9900 -3.7303 33.9033
#
#
#
# Elastic Compliance Matrix: (Units=1/GPa)
#
#
# Indices 1 2 3 4 5 6 
#
# 1 0.007084 -0.002926 -0.000700 0.000347 -0.004283 0.002378
# 2 -0.002926 0.009207 -0.002227 0.000994 0.003997 -0.001430
# 3 -0.000700 -0.002227 0.012895 0.002847 0.004830 0.000444
# 4 0.000347 0.000994 0.002847 0.018786 0.002933 0.000876
# 5 -0.004283 0.003997 0.004830 0.002933 0.034158 0.001875
# 6 0.002378 -0.001430 0.000444 0.000876 0.001875 0.030716
#
#
# Mechanical properties :
#
#
# Convention : Reuss Voigt Hill
#
# Bulk Modulus (GPa) = 57.21231 69.03357 63.12294
# Shear Modulus (GPa) = 38.34975 45.79534 42.07254
#
# Velocity S-wave (km/s) = 3.81125 4.16483 3.99196
# Velocity P-wave (km/s) = 6.40607 7.01965 6.71987
#
# Compressibility (1/GPa) = 0.01747876
#
# Stress axis : x y z
#
# Youngs Moduli (GPa) = 141.17059 108.61782 77.54790
#
# Poissons Ratio (x) = 0.31783 0.05428
# Poissons Ratio (y) = 0.41309 0.17272
# Poissons Ratio (z) = 0.09882 0.24192
#
# Static dielectric constant tensor:
#      x y z
#    x 2.218810 0.004440 0.164630 
#    y 0.004440 2.069430 0.005140 
#    z 0.164630 0.005140 2.387270 
# 
# From -- ./inp_files/48516.got.cif
#   From: 2010.05.17/outbox.cif.g08.bks.cpg/sg2_25_cif.got.tgz:48516.got - 2010.06.03 11:33:40.
