data_PCOD9068058
_publ_section_title
;
Structure prediction by ZEFSAII (Michael W. Deem and Ramdas Pophale) SiO2 
 PCOD9068058
Probable space group: P -1
;
_chemical_formula_sum "Si O2"
_cell_formula_units_Z 13
_cell_length_a 9.266449
_cell_length_b 8.763412
_cell_length_c 9.689780
_cell_angle_alpha 81.319719
_cell_angle_beta 112.479149
_cell_angle_gamma 56.006357
_cell_volume 530.136535
_symmetry_space_group_name_H-M "P -1"
_symmetry_group_IT_number 2
_symmetry_cell_setting 'triclinic'
loop_
_space_group_symop_operation_xyz
x,y,z
-x,-y,-z
loop_
_atom_site_type_symbol
_atom_site_label
_atom_site_fract_x
_atom_site_fract_y
_atom_site_fract_z
Si Si1 0.906852 0.271767 0.361196
Si Si2 0.620535 0.904347 0.914565
Si Si3 0.000000 0.500000 0.500000
Si Si4 0.348377 0.468447 0.013779
Si Si5 0.575160 0.806650 0.457497
Si Si6 0.060314 0.788854 0.105643
Si Si7 0.756266 0.201793 0.554248
O O1 0.017586 0.301705 0.512464
O O2 0.732740 0.298205 0.384024
O O3 0.807768 0.450867 0.187095
O O4 0.063912 0.048998 0.375584
O O5 0.585877 0.747177 0.888101
O O6 0.514780 0.087107 0.739726
O O7 0.860572 0.805343 0.030357
O O8 0.500000 0.000000 0.000000
O O9 0.818308 0.606558 0.543909
O O10 0.224317 0.618804 0.076446
O O11 0.500000 0.500000 0.000000
O O12 0.453887 0.740861 0.480850
O O13 0.500000 0.000000 0.500000
O O14 0.157300 0.753851 0.295586
O O15 0.000000 0.000000 0.000000
#
# Coordination Sequence:
#
# PCOD9068058 Si02
#       7
#     2   2   1   2   2   2   2
#     4  11  26  47  73 111 151 200 252 307 377 457
#     4  12  28  48  75 108 154 200 252 316 384 450
#     4  12  28  46  78 110 150 196 258 308 376 458
#     4  12  28  47  74 111 153 200 254 309 382 459
#     4  12  27  50  76 110 152 199 251 317 379 449
#     4  12  24  48  75 111 151 198 255 313 379 453
#     4  11  26  48  78 106 154 199 248 318 381 446
#
# _framework density 24.521985000000001
#
# number of rings (size 3 to 8) (size 9 to 14) (size 15 to 20)
#    0.000    0.308    4.615    2.308    8.615    1.846 
#    0.000    0.000    0.000    0.000    0.000    0.000 
#    0.000    0.000    0.000    0.000    0.000    0.000 
#
# Total GULP energy -72526.975164 kJ/mol
# GULP energy per Si atom -5578.998090 kJ/mol
# Density = 2.446617 g / cm^3
# Si number density = 24.521985 Si / 1000 Ang^3
#
#
#
# Elastic Constant Matrix: (Units=GPa)
#
#
# Indices 1 2 3 4 5 6 
#
# 1 201.3969 59.7367 14.8581 21.4285 -8.5336 -17.0875
# 2 59.7367 157.3053 14.3515 32.8098 -10.6051 -9.3797
# 3 14.8581 14.3515 65.9195 8.9356 -16.8336 -7.6272
# 4 21.4285 32.8098 8.9356 32.8584 1.5689 -15.5255
# 5 -8.5336 -10.6051 -16.8336 1.5689 38.3294 5.7703
# 6 -17.0875 -9.3797 -7.6272 -15.5255 5.7703 50.5823
#
#
#
# Elastic Compliance Matrix: (Units=1/GPa)
#
#
# Indices 1 2 3 4 5 6 
#
# 1 0.005784 -0.001765 -0.000483 -0.001396 0.000483 0.001070
# 2 -0.001765 0.008936 0.000143 -0.008871 0.002801 -0.001960
# 3 -0.000483 0.000143 0.017995 -0.005052 0.008025 0.000111
# 4 -0.001396 -0.008871 -0.005052 0.048095 -0.008894 0.012898
# 5 0.000483 0.002801 0.008025 -0.008894 0.031528 -0.004434
# 6 0.001070 -0.001960 0.000111 0.012898 -0.004434 0.024249
#
#
# Mechanical properties :
#
#
# Convention : Reuss Voigt Hill
#
# Bulk Modulus (GPa) = 35.08065 66.94603 51.01334
# Shear Modulus (GPa) = 33.26691 46.73237 39.99964
#
# Velocity S-wave (km/s) = 3.68722 4.37021 4.04316
# Velocity P-wave (km/s) = 5.69775 7.26805 6.53027
#
# Compressibility (1/GPa) = 0.02850574
#
# Stress axis : x y z
#
# Youngs Moduli (GPa) = 172.88257 111.90157 55.57171
#
# Poissons Ratio (x) = 0.19750 0.02684
# Poissons Ratio (y) = 0.30513 -0.00795
# Poissons Ratio (z) = 0.08351 -0.01602
#
# Static dielectric constant tensor:
#      x y z
#    x 2.254410 0.458960 0.058220 
#    y 0.458960 2.618130 -0.053690 
#    z 0.058220 -0.053690 1.969870 
# 
# From -- ./inp_files/152838.got.cif
#   From: 2010.05.17/outbox.cif.g08.bks.cpg/sg2_77_cif.got.tgz:152838.got - 2010.06.03 11:33:40.
