data_PCOD9068692
_publ_section_title
;
Structure prediction by ZEFSAII (Michael W. Deem and Ramdas Pophale) SiO2 
 PCOD9068692
Probable space group: P -1
;
_chemical_formula_sum "Si O2"
_cell_formula_units_Z 16
_cell_length_a 19.924977
_cell_length_b 19.349607
_cell_length_c 11.325203
_cell_angle_alpha 38.643537
_cell_angle_beta 142.538354
_cell_angle_gamma 165.366120
_cell_volume 668.529380
_symmetry_space_group_name_H-M "P -1"
_symmetry_group_IT_number 2
_symmetry_cell_setting 'triclinic'
loop_
_space_group_symop_operation_xyz
x,y,z
-x,-y,-z
loop_
_atom_site_type_symbol
_atom_site_label
_atom_site_fract_x
_atom_site_fract_y
_atom_site_fract_z
Si Si1 0.195802 0.495852 0.744151
Si Si2 0.346864 0.949771 0.277341
Si Si3 0.903508 0.022917 0.271463
Si Si4 0.302297 0.242871 0.145535
Si Si5 0.113703 0.745372 0.968957
Si Si6 0.173647 0.743305 0.796948
Si Si7 0.643043 0.556340 0.850587
Si Si8 0.587674 0.265570 0.524934
O O1 0.270597 0.618356 0.560981
O O2 0.901812 0.245360 0.723483
O O3 0.418764 0.744047 0.817149
O O4 0.265215 0.431619 0.924690
O O5 0.247162 0.834266 0.161739
O O6 0.500000 0.000000 0.500000
O O7 0.631201 0.734255 0.207793
O O8 0.000000 0.000000 0.500000
O O9 0.122181 0.248160 0.175883
O O10 0.903760 0.136308 0.198368
O O11 0.348995 0.315503 0.252593
O O12 0.403767 0.208185 0.327826
O O13 0.500000 0.500000 0.000000
O O14 0.000000 0.000000 0.000000
O O15 0.868037 0.427818 0.046236
O O16 0.258224 0.851862 0.904008
O O17 0.866318 0.516498 0.657577
O O18 0.374698 0.982505 0.662035
#
# Coordination Sequence:
#
# PCOD9068692 Si02
#       8
#     2   2   2   2   2   2   2   2
#     4  12  24  46  74 110 156 195 252 326 385 468
#     4  12  26  46  78 112 149 200 256 322 390 463
#     4  12  28  48  79 111 153 206 262 328 396 478
#     4  12  26  44  74 108 157 206 253 325 392 462
#     4  11  27  53  76 112 156 201 267 320 403 459
#     4  11  29  49  77 107 156 212 257 331 377 487
#     4  12  25  48  73 111 152 203 256 326 408 449
#     4  12  27  48  75 115 153 209 273 306 399 481
#
# _framework density 23.933130999999999
#
# number of rings (size 3 to 8) (size 9 to 14) (size 15 to 20)
#    0.000    0.250    3.750    3.750    5.250    7.000 
#    0.000    0.000    0.000    0.000    0.000    0.000 
#    0.000    0.000    0.000    0.000    0.000    0.000 
#
# Total GULP energy -89308.064687 kJ/mol
# GULP energy per Si atom -5581.754043 kJ/mol
# Density = 2.387866 g / cm^3
# Si number density = 23.933131 Si / 1000 Ang^3
#
#
#
# Elastic Constant Matrix: (Units=GPa)
#
#
# Indices 1 2 3 4 5 6 
#
# 1 393.7420 229.5705 67.2076 -22.2915 -63.5186 10.7551
# 2 229.5705 325.3562 63.3458 -8.6797 -44.8900 26.5206
# 3 67.2076 63.3458 179.3217 2.8098 -2.5158 0.9617
# 4 -22.2915 -8.6797 2.8098 45.5838 9.3626 -6.2886
# 5 -63.5186 -44.8900 -2.5158 9.3626 61.5527 -9.7707
# 6 10.7551 26.5206 0.9617 -6.2886 -9.7707 39.6978
#
#
#
# Elastic Compliance Matrix: (Units=1/GPa)
#
#
# Indices 1 2 3 4 5 6 
#
# 1 0.004951 -0.003038 -0.000775 0.001525 0.002894 0.001661
# 2 -0.003038 0.005684 -0.000830 -0.000890 0.000645 -0.002936
# 3 -0.000775 -0.000830 0.006155 -0.000673 -0.001010 0.000260
# 4 0.001525 -0.000890 -0.000673 0.023461 -0.002133 0.003389
# 5 0.002894 0.000645 -0.001010 -0.002133 0.020546 0.003529
# 6 0.001661 -0.002936 0.000260 0.003389 0.003529 0.028101
#
#
# Mechanical properties :
#
#
# Convention : Reuss Voigt Hill
#
# Bulk Modulus (GPa) = 133.26792 179.85198 156.55995
# Shear Modulus (GPa) = 49.65976 65.25323 57.45650
#
# Velocity S-wave (km/s) = 4.56009 5.22724 4.90502
# Velocity P-wave (km/s) = 9.13949 10.57085 9.88112
#
# Compressibility (1/GPa) = 0.00750368
#
# Stress axis : x y z
#
# Youngs Moduli (GPa) = 201.97535 175.94785 162.46497
#
# Poissons Ratio (x) = 0.53455 0.12584
# Poissons Ratio (y) = 0.61363 0.13490
# Poissons Ratio (z) = 0.15645 0.14609
#
# Static dielectric constant tensor:
#      x y z
#    x 1.968250 -0.074750 0.115390 
#    y -0.074750 1.917680 -0.006100 
#    z 0.115390 -0.006100 1.983050 
# 
# From -- ./inp_files/543370.got.cif
#   From: 2010.05.17/outbox.cif.g08.bks.cpg/sg2_272_cif.got.tgz:543370.got - 2010.06.03 11:33:40.
