data_PCOD9068674
_publ_section_title
;
Structure prediction by ZEFSAII (Michael W. Deem and Ramdas Pophale) SiO2 
 PCOD9068674
Probable space group: P -1
;
_chemical_formula_sum "Si O2"
_cell_formula_units_Z 10
_cell_length_a 13.410727
_cell_length_b 5.154049
_cell_length_c 6.890182
_cell_angle_alpha 73.030511
_cell_angle_beta 119.758337
_cell_angle_gamma 83.701973
_cell_volume 376.398127
_symmetry_space_group_name_H-M "P -1"
_symmetry_group_IT_number 2
_symmetry_cell_setting 'triclinic'
loop_
_space_group_symop_operation_xyz
x,y,z
-x,-y,-z
loop_
_atom_site_type_symbol
_atom_site_label
_atom_site_fract_x
_atom_site_fract_y
_atom_site_fract_z
Si Si1 0.721239 0.100303 0.039061
Si Si2 0.476617 0.215979 0.609576
Si Si3 0.205100 0.363185 0.460020
Si Si4 0.896001 0.309369 0.353536
Si Si5 0.910935 0.804849 0.991392
O O1 0.771986 0.354028 0.098692
O O2 0.781909 0.880801 0.314477
O O3 0.583189 0.113294 0.892977
O O4 0.786050 0.011225 0.915102
O O5 0.500000 0.500000 0.500000
O O6 0.340421 0.303828 0.529700
O O7 0.500000 0.000000 0.500000
O O8 0.155827 0.639127 0.489389
O O9 0.122590 0.332798 0.206411
O O10 0.942919 0.556443 0.245509
O O11 0.000000 0.000000 0.500000
O O12 0.000000 0.000000 0.000000
#
# Coordination Sequence:
#
# PCOD9068674 Si02
#       5
#     2   2   2   2   2
#     4  11  27  51  81 122 166 215 282 346 423 506
#     4  12  27  53  87 122 165 218 288 352 426 511
#     4  11  27  52  88 118 167 225 276 348 429 498
#     4  11  29  54  79 128 171 218 284 346 420 510
#     4  11  27  54  81 122 168 224 282 343 420 508
#
# _framework density 26.567612
#
# number of rings (size 3 to 8) (size 9 to 14) (size 15 to 20)
#    0.000    0.800    2.000    1.800    8.400    9.600 
#    3.600    0.000    0.000    0.000    0.000    0.000 
#    0.000    0.000    0.000    0.000    0.000    0.000 
#
# Total GULP energy -55967.832200 kJ/mol
# GULP energy per Si atom -5596.783220 kJ/mol
# Density = 2.650714 g / cm^3
# Si number density = 26.567612 Si / 1000 Ang^3
#
#
#
# Elastic Constant Matrix: (Units=GPa)
#
#
# Indices 1 2 3 4 5 6 
#
# 1 264.7666 104.5483 70.1573 27.5296 23.6535 -14.3236
# 2 104.5483 177.9258 59.7549 23.7929 5.9316 -21.6764
# 3 70.1573 59.7549 184.5534 23.7459 10.9050 -3.8432
# 4 27.5296 23.7929 23.7459 51.1647 11.1324 -9.4978
# 5 23.6535 5.9316 10.9050 11.1324 58.7265 7.7175
# 6 -14.3236 -21.6764 -3.8432 -9.4978 7.7175 56.6827
#
#
#
# Elastic Compliance Matrix: (Units=1/GPa)
#
#
# Indices 1 2 3 4 5 6 
#
# 1 0.005299 -0.002583 -0.000976 -0.000782 -0.001593 0.000371
# 2 -0.002583 0.008036 -0.001425 -0.001419 0.000497 0.002018
# 3 -0.000976 -0.001425 0.006495 -0.001896 -0.000226 -0.000638
# 4 -0.000782 -0.001419 -0.001896 0.023037 -0.004022 0.003539
# 5 -0.001593 0.000497 -0.000226 -0.004022 0.018880 -0.003472
# 6 0.000371 0.002018 -0.000638 0.003539 -0.003472 0.019530
#
#
# Mechanical properties :
#
#
# Convention : Reuss Voigt Hill
#
# Bulk Modulus (GPa) = 101.39239 121.79631 111.59435
# Shear Modulus (GPa) = 52.89257 59.50047 56.19652
#
# Velocity S-wave (km/s) = 4.46675 4.73756 4.60415
# Velocity P-wave (km/s) = 8.05290 8.71031 8.38805
#
# Compressibility (1/GPa) = 0.00986267
#
# Stress axis : x y z
#
# Youngs Moduli (GPa) = 188.71035 124.44410 153.97347
#
# Poissons Ratio (x) = 0.32147 0.15022
# Poissons Ratio (y) = 0.48749 0.21934
# Poissons Ratio (z) = 0.18411 0.17728
#
# Static dielectric constant tensor:
#      x y z
#    x 3.868350 0.591040 2.294780 
#    y 0.591040 2.503100 0.645810 
#    z 2.294780 0.645810 5.017510 
# 
# From -- ./inp_files/19152.got.cif
#   From: 2010.05.17/outbox.cif.g08.bks.cpg/sg2_10_cif.got.tgz:19152.got - 2010.06.03 11:33:40.
