data_PCOD9068992
_publ_section_title
;
Structure prediction by ZEFSAII (Michael W. Deem and Ramdas Pophale) SiO2 
 PCOD9068992
Probable space group: P -1
;
_chemical_formula_sum "Si O2"
_cell_formula_units_Z 12
_cell_length_a 8.496827
_cell_length_b 9.562323
_cell_length_c 13.490934
_cell_angle_alpha 62.717825
_cell_angle_beta 78.977766
_cell_angle_gamma 32.587912
_cell_volume 479.175424
_symmetry_space_group_name_H-M "P -1"
_symmetry_group_IT_number 2
_symmetry_cell_setting 'triclinic'
loop_
_space_group_symop_operation_xyz
x,y,z
-x,-y,-z
loop_
_atom_site_type_symbol
_atom_site_label
_atom_site_fract_x
_atom_site_fract_y
_atom_site_fract_z
Si Si1 0.937802 0.735903 0.910922
Si Si2 0.519505 0.029469 0.251359
Si Si3 0.539367 0.330632 0.855031
Si Si4 0.126270 0.713890 0.580121
Si Si5 0.409326 0.273570 0.512675
Si Si6 0.854149 0.395382 0.776574
O O1 0.682878 0.936145 0.786963
O O2 0.260874 0.546438 0.898928
O O3 0.761276 0.988289 0.932766
O O4 0.000000 0.500000 0.000000
O O5 0.292282 0.359825 0.207614
O O6 0.699417 0.795974 0.398308
O O7 0.774292 0.886514 0.192587
O O8 0.351763 0.504098 0.716295
O O9 0.751380 0.306830 0.845079
O O10 0.303250 0.499952 0.530102
O O11 0.000000 0.000000 0.500000
O O12 0.789000 0.912639 0.571611
O O13 0.299378 0.426768 0.369208
#
# Coordination Sequence:
#
# PCOD9068992 Si02
#       6
#     2   2   2   2   2   2
#     4  12  27  50  76  95 124 178 239 290 338 392
#     4  12  24  45  64 101 141 178 223 276 331 396
#     4  12  24  46  70 101 135 175 229 281 333 398
#     4  12  22  37  66 101 139 177 227 269 314 403
#     4  12  23  39  65  99 143 188 220 252 326 411
#     4  12  26  40  68 104 145 177 212 270 343 409
#
# _framework density 25.043019999999999
#
# number of rings (size 3 to 8) (size 9 to 14) (size 15 to 20)
#    0.000    0.000    5.000    6.000    2.333    0.000 
#    0.000    5.000    0.000    0.000    0.000    0.000 
#    0.000    0.000    0.000    0.000    0.000    0.000 
#
# Total GULP energy -67263.976573 kJ/mol
# GULP energy per Si atom -5605.331381 kJ/mol
# Density = 2.498602 g / cm^3
# Si number density = 25.043020 Si / 1000 Ang^3
#
#
#
# Elastic Constant Matrix: (Units=GPa)
#
#
# Indices 1 2 3 4 5 6 
#
# 1 90.7233 50.0883 15.2576 9.1587 -27.6648 -18.8757
# 2 50.0883 229.5928 36.4240 -19.4174 -33.0284 9.4021
# 3 15.2576 36.4240 99.5557 -23.1636 -22.1399 9.6163
# 4 9.1587 -19.4174 -23.1636 48.6095 18.6350 -19.9882
# 5 -27.6648 -33.0284 -22.1399 18.6350 56.4869 -5.5570
# 6 -18.8757 9.4021 9.6163 -19.9882 -5.5570 54.9732
#
#
#
# Elastic Compliance Matrix: (Units=1/GPa)
#
#
# Indices 1 2 3 4 5 6 
#
# 1 0.017401 -0.003042 -0.001618 -0.006431 0.008755 0.005325
# 2 -0.003042 0.005443 -0.000889 0.001567 0.000712 -0.001178
# 3 -0.001618 -0.000889 0.012202 0.004818 0.001822 -0.000602
# 4 -0.006431 0.001567 0.004818 0.031475 -0.010029 0.007111
# 5 0.008755 0.000712 0.001822 -0.010029 0.026588 0.001607
# 6 0.005325 -0.001178 -0.000602 0.007111 0.001607 0.023074
#
#
# Mechanical properties :
#
#
# Convention : Reuss Voigt Hill
#
# Bulk Modulus (GPa) = 41.75416 69.26796 55.51106
# Shear Modulus (GPa) = 36.96508 53.22069 45.09289
#
# Velocity S-wave (km/s) = 3.84613 4.61496 4.24797
# Velocity P-wave (km/s) = 6.03595 7.49111 6.80255
#
# Compressibility (1/GPa) = 0.02394971
#
# Stress axis : x y z
#
# Youngs Moduli (GPa) = 57.46830 183.71059 81.95330
#
# Poissons Ratio (x) = 0.55887 0.13256
# Poissons Ratio (y) = 0.17482 0.07283
# Poissons Ratio (z) = 0.09296 0.16326
#
# Static dielectric constant tensor:
#      x y z
#    x 1.997710 -0.080530 0.010070 
#    y -0.080530 1.901560 -0.030250 
#    z 0.010070 -0.030250 2.015070 
# 
# From -- ./inp_files/49556.got.cif
#   From: 2010.05.17/outbox.cif.g08.bks.cpg/sg2_25_cif.got.tgz:49556.got - 2010.06.03 11:33:40.
