data_PCOD9068245
_publ_section_title
;
Structure prediction by ZEFSAII (Michael W. Deem and Ramdas Pophale) SiO2 
 PCOD9068245
Probable space group: P -1
;
_chemical_formula_sum "Si O2"
_cell_formula_units_Z 13
_cell_length_a 9.483644
_cell_length_b 9.194363
_cell_length_c 8.851775
_cell_angle_alpha 78.369995
_cell_angle_beta 79.237596
_cell_angle_gamma 47.367107
_cell_volume 554.839846
_symmetry_space_group_name_H-M "P -1"
_symmetry_group_IT_number 2
_symmetry_cell_setting 'triclinic'
loop_
_space_group_symop_operation_xyz
x,y,z
-x,-y,-z
loop_
_atom_site_type_symbol
_atom_site_label
_atom_site_fract_x
_atom_site_fract_y
_atom_site_fract_z
Si Si1 0.047559 0.796280 0.018611
Si Si2 0.276057 0.181771 0.037084
Si Si3 0.296745 0.472768 0.824576
Si Si4 0.000000 0.000000 0.500000
Si Si5 0.760764 0.878021 0.597303
Si Si6 0.646444 0.681515 0.477689
Si Si7 0.695118 0.352240 0.717522
O O1 0.183240 0.672455 0.159825
O O2 0.160754 0.698547 0.857953
O O3 0.858433 0.825592 0.041313
O O4 0.000000 0.000000 0.000000
O O5 0.228537 0.171961 0.219056
O O6 0.246454 0.374970 0.968976
O O7 0.500000 0.000000 0.000000
O O8 0.262466 0.433043 0.674029
O O9 0.515242 0.378434 0.806522
O O10 0.821099 0.161827 0.622348
O O11 0.080017 0.114018 0.482944
O O12 0.767171 0.721590 0.533759
O O13 0.554919 0.098610 0.562967
O O14 0.615804 0.551038 0.604151
#
# Coordination Sequence:
#
# PCOD9068245 Si02
#       7
#     2   2   2   1   2   2   2
#     4  12  29  48  77 112 149 203 260 313 383 451
#     4  12  25  51  78 109 153 194 259 314 384 452
#     4  12  26  52  76 114 154 204 253 318 382 450
#     4  12  26  46  76 112 158 190 262 310 378 446
#     4  11  26  48  77 112 148 204 249 318 376 459
#     4  11  26  48  77 109 150 203 251 307 390 448
#     4  12  28  49  77 115 153 205 249 323 376 456
#
# _framework density 23.430185000000002
#
# number of rings (size 3 to 8) (size 9 to 14) (size 15 to 20)
#    0.000    0.308    3.077    4.154    6.462    1.846 
#    0.000    0.000    0.000    0.000    0.000    0.000 
#    0.000    0.000    0.000    0.000    0.000    0.000 
#
# Total GULP energy -72652.998818 kJ/mol
# GULP energy per Si atom -5588.692217 kJ/mol
# Density = 2.337686 g / cm^3
# Si number density = 23.430185 Si / 1000 Ang^3
#
#
#
# Elastic Constant Matrix: (Units=GPa)
#
#
# Indices 1 2 3 4 5 6 
#
# 1 200.7218 46.3762 56.4904 13.3254 -12.3819 21.4416
# 2 46.3762 112.9076 32.9382 20.8930 4.8932 14.3881
# 3 56.4904 32.9382 77.8002 -8.5261 2.1379 7.0016
# 4 13.3254 20.8930 -8.5261 48.9902 4.7369 -8.5776
# 5 -12.3819 4.8932 2.1379 4.7369 46.2970 8.5272
# 6 21.4416 14.3881 7.0016 -8.5776 8.5272 30.7726
#
#
#
# Elastic Compliance Matrix: (Units=1/GPa)
#
#
# Indices 1 2 3 4 5 6 
#
# 1 0.007866 -0.000032 -0.005728 -0.004670 0.004063 -0.006590
# 2 -0.000032 0.012825 -0.005645 -0.007791 0.001009 -0.007141
# 3 -0.005728 -0.005645 0.019967 0.008784 -0.003785 0.005585
# 4 -0.004670 -0.007791 0.008784 0.029813 -0.006654 0.015051
# 5 0.004063 0.001009 -0.003785 -0.006654 0.025530 -0.011371
# 6 -0.006590 -0.007141 0.005585 0.015051 -0.011371 0.046503
#
#
# Mechanical properties :
#
#
# Convention : Reuss Voigt Hill
#
# Bulk Modulus (GPa) = 56.03339 73.67102 64.85220
# Shear Modulus (GPa) = 29.19487 42.25360 35.72424
#
# Velocity S-wave (km/s) = 3.53375 4.25123 3.90899
# Velocity P-wave (km/s) = 6.37313 7.45710 6.93632
#
# Compressibility (1/GPa) = 0.01784650
#
# Stress axis : x y z
#
# Youngs Moduli (GPa) = 127.12536 77.97415 50.08305
#
# Poissons Ratio (x) = 0.00250 0.28689
# Poissons Ratio (y) = 0.00408 0.28273
# Poissons Ratio (z) = 0.72822 0.44018
#
# Static dielectric constant tensor:
#      x y z
#    x 1.860440 -0.012840 0.028700 
#    y -0.012840 1.952980 -0.062740 
#    z 0.028700 -0.062740 1.916110 
# 
# From -- ./inp_files/156520.got.cif
#   From: 2010.05.17/outbox.cif.g08.bks.cpg/sg2_79_cif.got.tgz:156520.got - 2010.06.03 11:33:40.
