data_PCOD9068566
_publ_section_title
;
Structure prediction by ZEFSAII (Michael W. Deem and Ramdas Pophale) SiO2 
 PCOD9068566
Probable space group: P -1
;
_chemical_formula_sum "Si O2"
_cell_formula_units_Z 14
_cell_length_a 12.470805
_cell_length_b 5.216550
_cell_length_c 11.442274
_cell_angle_alpha 121.595602
_cell_angle_beta 84.551384
_cell_angle_gamma 104.943670
_cell_volume 611.859328
_symmetry_space_group_name_H-M "P -1"
_symmetry_group_IT_number 2
_symmetry_cell_setting 'triclinic'
loop_
_space_group_symop_operation_xyz
x,y,z
-x,-y,-z
loop_
_atom_site_type_symbol
_atom_site_label
_atom_site_fract_x
_atom_site_fract_y
_atom_site_fract_z
Si Si1 0.006546 0.360619 0.094180
Si Si2 0.459702 0.674572 0.158480
Si Si3 0.311756 0.116222 0.186286
Si Si4 0.118740 0.928430 0.324341
Si Si5 0.083123 0.841207 0.578427
Si Si6 0.768096 0.216051 0.116811
Si Si7 0.695974 0.832801 0.246280
O O1 0.110087 0.572712 0.202592
O O2 0.893880 0.362976 0.174387
O O3 0.000000 0.500000 0.000000
O O4 0.000000 0.000000 0.000000
O O5 0.377066 0.426313 0.189004
O O6 0.567406 0.832438 0.263363
O O7 0.399913 0.931675 0.179367
O O8 0.500000 0.500000 0.000000
O O9 0.225704 0.143689 0.303854
O O10 0.240205 0.897260 0.042096
O O11 0.112667 0.955943 0.470152
O O12 0.001658 0.988499 0.307593
O O13 0.000000 0.500000 0.500000
O O14 0.204645 0.914876 0.641800
O O15 0.705147 0.489580 0.198867
O O16 0.724069 0.914571 0.127403
#
# Coordination Sequence:
#
# PCOD9068566 Si02
#       7
#     2   2   2   2   2   2   2
#     4  12  25  38  66 107 144 174 220 295 371 429
#     4  12  24  44  69 106 147 186 232 286 364 430
#     4  12  25  42  71 107 145 184 225 301 359 426
#     4  11  27  47  69 107 144 187 246 294 362 423
#     4  11  27  50  75  98 141 202 243 300 346 428
#     4  12  22  39  67 105 140 179 228 289 361 420
#     4  12  25  44  72 101 140 188 242 283 353 424
#
# _framework density 22.881076
#
# number of rings (size 3 to 8) (size 9 to 14) (size 15 to 20)
#    0.000    0.286    5.714    3.000    8.000    0.000 
#    0.000    1.429    0.000    0.000    0.000    0.000 
#    0.000    0.000    0.000    0.000    0.000    0.000 
#
# Total GULP energy -78249.036623 kJ/mol
# GULP energy per Si atom -5589.216902 kJ/mol
# Density = 2.282900 g / cm^3
# Si number density = 22.881076 Si / 1000 Ang^3
#
#
#
# Elastic Constant Matrix: (Units=GPa)
#
#
# Indices 1 2 3 4 5 6 
#
# 1 109.1086 33.1241 28.2140 -2.7061 22.5602 20.3299
# 2 33.1241 99.0949 23.0896 -14.0952 2.2768 12.4958
# 3 28.2140 23.0896 63.4956 -10.8870 4.4588 11.2682
# 4 -2.7061 -14.0952 -10.8870 36.7589 7.6995 -4.5003
# 5 22.5602 2.2768 4.4588 7.6995 30.4758 0.6536
# 6 20.3299 12.4958 11.2682 -4.5003 0.6536 48.6505
#
#
#
# Elastic Compliance Matrix: (Units=1/GPa)
#
#
# Indices 1 2 3 4 5 6 
#
# 1 0.013680 -0.002983 -0.003585 0.000277 -0.009365 -0.003969
# 2 -0.002983 0.012256 -0.002408 0.003475 0.000789 -0.001033
# 3 -0.003585 -0.002408 0.019423 0.004562 -0.001119 -0.001945
# 4 0.000277 0.003475 0.004562 0.031966 -0.009230 0.001016
# 5 -0.009365 0.000789 -0.001119 -0.009230 0.042127 0.002550
# 6 -0.003969 -0.001033 -0.001945 0.001016 0.002550 0.022989
#
#
# Mechanical properties :
#
#
# Convention : Reuss Voigt Hill
#
# Bulk Modulus (GPa) = 36.48326 48.95048 42.71687
# Shear Modulus (GPa) = 29.49360 35.66178 32.57769
#
# Velocity S-wave (km/s) = 3.59415 3.95216 3.77740
# Velocity P-wave (km/s) = 5.76223 6.50123 6.14285
#
# Compressibility (1/GPa) = 0.02740983
#
# Stress axis : x y z
#
# Youngs Moduli (GPa) = 73.09765 81.59452 51.48406
#
# Poissons Ratio (x) = 0.24336 0.18456
# Poissons Ratio (y) = 0.21801 0.12395
# Poissons Ratio (z) = 0.26204 0.19645
#
# Static dielectric constant tensor:
#      x y z
#    x 1.946990 -0.074080 -0.037980 
#    y -0.074080 1.958900 0.075330 
#    z -0.037980 0.075330 1.897430 
# 
# From -- ./inp_files/124189.got.cif
#   From: 2010.05.17/outbox.cif.g08.bks.cpg/sg2_63_cif.got.tgz:124189.got - 2010.06.03 11:33:40.
