data_PCOD9068254
_publ_section_title
;
Structure prediction by ZEFSAII (Michael W. Deem and Ramdas Pophale) SiO2 
 PCOD9068254
Probable space group: P -1
;
_chemical_formula_sum "Si O2"
_cell_formula_units_Z 15
_cell_length_a 8.415008
_cell_length_b 20.470185
_cell_length_c 5.399126
_cell_angle_alpha 99.554245
_cell_angle_beta 59.157412
_cell_angle_gamma 130.134166
_cell_volume 591.013502
_symmetry_space_group_name_H-M "P -1"
_symmetry_group_IT_number 2
_symmetry_cell_setting 'triclinic'
loop_
_space_group_symop_operation_xyz
x,y,z
-x,-y,-z
loop_
_atom_site_type_symbol
_atom_site_label
_atom_site_fract_x
_atom_site_fract_y
_atom_site_fract_z
Si Si1 0.610175 0.879574 0.699895
Si Si2 0.835973 0.166576 0.197458
Si Si3 0.409049 0.692489 0.744550
Si Si4 0.890162 0.721782 0.460150
Si Si5 0.903257 0.033071 0.914499
Si Si6 0.714686 0.428670 0.606564
Si Si7 0.855645 0.569674 0.211502
Si Si8 0.500000 0.500000 0.000000
O O1 0.448092 0.877747 0.621507
O O2 0.452277 0.778348 0.833709
O O3 0.868667 0.909043 0.424236
O O4 0.671367 0.948236 0.900576
O O5 0.953009 0.221659 0.389505
O O6 0.858041 0.092510 0.114049
O O7 0.971109 0.226724 0.878277
O O8 0.643323 0.706938 0.649544
O O9 0.376465 0.664833 0.461591
O O10 0.136269 0.611759 0.007216
O O11 0.840003 0.630995 0.433572
O O12 0.000000 0.000000 0.000000
O O13 0.703197 0.476412 0.409738
O O14 0.537558 0.427590 0.922479
O O15 0.000000 0.500000 0.500000
O O16 0.741803 0.561216 0.034639
#
# Coordination Sequence:
#
# PCOD9068254 Si02
#       8
#     2   2   2   2   2   2   2   1
#     4  11  26  48  77 113 156 200 258 317 387 468
#     4  12  28  50  78 116 156 204 256 322 389 463
#     4  12  25  49  74 110 150 205 258 316 390 461
#     4  12  29  47  78 115 154 202 261 324 384 461
#     4  11  26  49  79 114 157 203 254 318 392 467
#     4  12  28  45  75 108 149 203 259 325 390 461
#     4  12  28  47  75 110 153 206 261 326 390 464
#     4  12  26  48  70 106 148 196 264 320 394 454
#
# _framework density 25.380130999999999
#
# number of rings (size 3 to 8) (size 9 to 14) (size 15 to 20)
#    0.000    0.267    5.333    2.000    7.467    2.667 
#    0.000    0.000    0.000    0.000    0.000    0.000 
#    0.000    0.000    0.000    0.000    0.000    0.000 
#
# Total GULP energy -83805.770190 kJ/mol
# GULP energy per Si atom -5587.051346 kJ/mol
# Density = 2.532236 g / cm^3
# Si number density = 25.380131 Si / 1000 Ang^3
#
#
#
# Elastic Constant Matrix: (Units=GPa)
#
#
# Indices 1 2 3 4 5 6 
#
# 1 118.9156 84.0482 6.9009 34.5980 -2.5192 5.7853
# 2 84.0482 91.2362 71.5713 17.3911 -3.2099 56.3713
# 3 6.9009 71.5713 62.0437 29.0604 6.2666 -21.8412
# 4 34.5980 17.3911 29.0604 37.2288 -4.9336 20.9329
# 5 -2.5192 -3.2099 6.2666 -4.9336 48.2239 19.4205
# 6 5.7853 56.3713 -21.8412 20.9329 19.4205 28.1274
#
#
#
# Elastic Compliance Matrix: (Units=1/GPa)
#
#
# Indices 1 2 3 4 5 6 
#
# 1 0.009165 0.000017 -0.004231 -0.000141 0.004251 -0.008035
# 2 0.000017 0.003429 0.005009 -0.011268 -0.005193 0.008986
# 3 -0.004231 0.005009 0.005582 0.003136 0.003593 -0.009648
# 4 -0.000141 -0.011268 0.003136 0.026094 -0.001055 0.006356
# 5 0.004251 -0.005193 0.003593 -0.001055 0.020443 -0.001006
# 6 -0.008035 0.008986 -0.009648 0.006356 -0.001006 0.007668
#
#
# Mechanical properties :
#
#
# Convention : Reuss Voigt Hill
#
# Bulk Modulus (GPa) = 50.59330 66.35958 58.47644
# Shear Modulus (GPa) = 64.61662 30.02769 47.32215
#
# Velocity S-wave (km/s) = 5.05122 3.44338 4.32271
# Velocity P-wave (km/s) = 7.34828 6.48168 6.92854
#
# Compressibility (1/GPa) = 0.01976546
#
# Stress axis : x y z
#
# Youngs Moduli (GPa) = 109.11385 291.65815 179.14488
#
# Poissons Ratio (x) = -0.00504 0.75795
# Poissons Ratio (y) = -0.00188 -0.89728
# Poissons Ratio (z) = 0.46165 -1.46082
#
# Static dielectric constant tensor:
#      x y z
#    x 1.954340 0.020890 0.052220 
#    y 0.020890 1.983570 0.044050 
#    z 0.052220 0.044050 2.158680 
# 
# From -- ./inp_files/53430.got.cif
#   From: 2010.05.17/outbox.cif.g08.bks.cpg/sg2_27_cif.got.tgz:53430.got - 2010.06.03 11:33:40.
