data_PCOD9068096
_publ_section_title
;
Structure prediction by ZEFSAII (Michael W. Deem and Ramdas Pophale) SiO2 
 PCOD9068096
Probable space group: P -1
;
_chemical_formula_sum "Si O2"
_cell_formula_units_Z 14
_cell_length_a 18.744231
_cell_length_b 13.607921
_cell_length_c 6.666506
_cell_angle_alpha 82.509557
_cell_angle_beta 96.286416
_cell_angle_gamma 159.006022
_cell_volume 603.655757
_symmetry_space_group_name_H-M "P -1"
_symmetry_group_IT_number 2
_symmetry_cell_setting 'triclinic'
loop_
_space_group_symop_operation_xyz
x,y,z
-x,-y,-z
loop_
_atom_site_type_symbol
_atom_site_label
_atom_site_fract_x
_atom_site_fract_y
_atom_site_fract_z
Si Si1 0.301491 0.367844 0.493656
Si Si2 0.701886 0.953577 0.253842
Si Si3 0.710331 0.772978 0.103373
Si Si4 0.308501 0.856889 0.037941
Si Si5 0.063714 0.480482 0.423988
Si Si6 0.027632 0.123229 0.799084
Si Si7 0.709288 0.345174 0.230968
O O1 0.488141 0.655735 0.363707
O O2 0.341418 0.327356 0.661511
O O3 0.204879 0.316414 0.645043
O O4 0.151625 0.135594 0.339631
O O5 0.764240 0.956890 0.098637
O O6 0.868393 0.161984 0.421873
O O7 0.693912 0.050885 0.126979
O O8 0.500000 0.500000 0.000000
O O9 0.887877 0.933616 0.018153
O O10 0.127583 0.598178 0.194265
O O11 0.490457 0.107812 0.186227
O O12 0.302825 0.755471 0.915204
O O13 0.233476 0.638190 0.550970
O O14 0.000000 0.500000 0.500000
O O15 0.124442 0.355448 0.821066
#
# Coordination Sequence:
#
# PCOD9068096 Si02
#       7
#     2   2   2   2   2   2   2
#     4  11  27  49  70 111 146 190 249 295 365 447
#     4  12  26  46  80 110 152 190 244 312 364 438
#     4  12  26  44  74 105 147 189 241 298 368 426
#     4  11  27  49  70 111 146 190 249 295 365 447
#     4  12  26  44  74 105 147 189 241 298 368 426
#     4  11  26  47  76 103 147 193 242 296 370 433
#     4  11  26  47  76 103 147 193 242 296 370 433
#
# _framework density 23.192028000000001
#
# number of rings (size 3 to 8) (size 9 to 14) (size 15 to 20)
#    0.000    0.571    2.857    3.429    8.000    4.571 
#    0.000    0.000    0.000    0.000    0.000    0.000 
#    0.000    0.000    0.000    0.000    0.000    0.000 
#
# Total GULP energy -77981.404158 kJ/mol
# GULP energy per Si atom -5570.100297 kJ/mol
# Density = 2.313924 g / cm^3
# Si number density = 23.192028 Si / 1000 Ang^3
#
#
#
# Elastic Constant Matrix: (Units=GPa)
#
#
# Indices 1 2 3 4 5 6 
#
# 1 223.7009 80.1820 90.9196 -13.8364 30.0254 -63.3324
# 2 80.1820 149.9940 56.6213 -1.7818 5.3203 -16.9475
# 3 90.9196 56.6213 113.1731 -14.2815 15.0641 -29.5077
# 4 -13.8364 -1.7818 -14.2815 49.2926 -9.4155 -0.3111
# 5 30.0254 5.3203 15.0641 -9.4155 44.2957 -13.4339
# 6 -63.3324 -16.9475 -29.5077 -0.3111 -13.4339 59.6735
#
#
#
# Elastic Compliance Matrix: (Units=1/GPa)
#
#
# Indices 1 2 3 4 5 6 
#
# 1 0.009275 -0.002612 -0.003986 0.000933 -0.002420 0.006591
# 2 -0.002612 0.009005 -0.003079 -0.001110 0.001043 -0.001508
# 3 -0.003986 -0.003079 0.014538 0.002866 -0.000673 0.001947
# 4 0.000933 -0.001110 0.002866 0.022160 0.004192 0.003152
# 5 -0.002420 0.001043 -0.000673 0.004192 0.026217 0.003319
# 6 0.006591 -0.001508 0.001947 0.003152 0.003319 0.025051
#
#
# Mechanical properties :
#
#
# Convention : Reuss Voigt Hill
#
# Bulk Modulus (GPa) = 74.27444 104.70155 89.48800
# Shear Modulus (GPa) = 38.43561 47.92869 43.18215
#
# Velocity S-wave (km/s) = 4.07538 4.55092 4.31970
# Velocity P-wave (km/s) = 7.36481 8.53569 7.97177
#
# Compressibility (1/GPa) = 0.01346358
#
# Stress axis : x y z
#
# Youngs Moduli (GPa) = 107.81536 111.05122 68.78672
#
# Poissons Ratio (x) = 0.29004 0.27420
# Poissons Ratio (y) = 0.28159 0.21180
# Poissons Ratio (z) = 0.42977 0.34193
#
# Static dielectric constant tensor:
#      x y z
#    x 2.019800 0.006840 0.038220 
#    y 0.006840 1.877300 -0.021840 
#    z 0.038220 -0.021840 1.857660 
# 
# From -- ./inp_files/119440.got.cif
#   From: 2010.05.17/outbox.cif.g08.bks.cpg/sg2_60_cif.got.tgz:119440.got - 2010.06.03 11:33:40.
