data_PCOD9068761
_publ_section_title
;
Structure prediction by ZEFSAII (Michael W. Deem and Ramdas Pophale) SiO2 
 PCOD9068761
Probable space group: P -1
;
_chemical_formula_sum "Si O2"
_cell_formula_units_Z 12
_cell_length_a 17.223079
_cell_length_b 5.464517
_cell_length_c 17.285658
_cell_angle_alpha 98.257739
_cell_angle_beta 163.588585
_cell_angle_gamma 81.973319
_cell_volume 454.863555
_symmetry_space_group_name_H-M "P -1"
_symmetry_group_IT_number 2
_symmetry_cell_setting 'triclinic'
loop_
_space_group_symop_operation_xyz
x,y,z
-x,-y,-z
loop_
_atom_site_type_symbol
_atom_site_label
_atom_site_fract_x
_atom_site_fract_y
_atom_site_fract_z
Si Si1 0.042939 0.644770 0.626812
Si Si2 0.703300 0.790471 0.950469
Si Si3 0.423192 0.064706 0.556549
Si Si4 0.457405 0.071276 0.873622
Si Si5 0.196380 0.483669 0.443454
Si Si6 0.823225 0.247590 0.822608
O O1 0.000000 0.500000 0.500000
O O2 0.861240 0.893731 0.449907
O O3 0.911056 0.539132 0.573121
O O4 0.364594 0.678654 0.950908
O O5 0.514624 0.549861 0.751345
O O6 0.614012 0.967416 0.803743
O O7 0.605587 0.904411 0.943799
O O8 0.015150 0.702986 0.244863
O O9 0.181290 0.230092 0.370393
O O10 0.587760 0.241197 0.662472
O O11 0.322958 0.829780 0.400471
O O12 0.500000 0.000000 0.000000
O O13 0.000000 0.500000 0.000000
O O14 0.000000 0.000000 0.000000
#
# Coordination Sequence:
#
# PCOD9068761 Si02
#       6
#     2   2   2   2   2   2
#     4  12  24  45  71 109 160 211 276 341 408 490
#     4  12  28  48  80 117 162 215 274 344 418 498
#     4  11  30  52  80 124 168 208 288 342 426 527
#     4  12  24  45  71 109 160 211 276 341 408 490
#     4  12  28  48  80 117 162 215 274 344 418 498
#     4  11  30  55  89 122 170 222 280 356 444 524
#
# _framework density 26.381537000000002
#
# number of rings (size 3 to 8) (size 9 to 14) (size 15 to 20)
#    0.000    0.333    1.667    5.000    9.333    1.333 
#    0.000    2.500    0.000    0.000    0.000    0.000 
#    0.000    0.000    0.000    0.000    0.000    0.000 
#
# Total GULP energy -67326.853842 kJ/mol
# GULP energy per Si atom -5610.571154 kJ/mol
# Density = 2.632149 g / cm^3
# Si number density = 26.381537 Si / 1000 Ang^3
#
#
#
# Elastic Constant Matrix: (Units=GPa)
#
#
# Indices 1 2 3 4 5 6 
#
# 1 218.9672 72.4876 44.3390 5.1890 -20.5714 -12.5903
# 2 72.4876 134.7081 37.3217 11.4646 -13.0091 -11.6192
# 3 44.3390 37.3217 95.5238 2.4055 -12.3855 -6.2753
# 4 5.1890 11.4646 2.4055 64.0661 14.1931 0.9540
# 5 -20.5714 -13.0091 -12.3855 14.1931 29.7214 6.2978
# 6 -12.5903 -11.6192 -6.2753 0.9540 6.2978 47.9876
#
#
#
# Elastic Compliance Matrix: (Units=1/GPa)
#
#
# Indices 1 2 3 4 5 6 
#
# 1 0.005959 -0.002473 -0.001414 -0.000577 0.002634 0.000445
# 2 -0.002473 0.009890 -0.002278 -0.002031 0.002389 0.001175
# 3 -0.001414 -0.002278 0.012509 -0.000734 0.003531 0.000264
# 4 -0.000577 -0.002031 -0.000734 0.018349 -0.010412 0.000263
# 5 0.002634 0.002389 0.003531 -0.010412 0.043764 -0.003805
# 6 0.000445 0.001175 0.000264 0.000263 -0.003805 0.021769
#
#
# Mechanical properties :
#
#
# Convention : Reuss Voigt Hill
#
# Bulk Modulus (GPa) = 62.39545 84.16618 73.28082
# Shear Modulus (GPa) = 38.48731 48.02507 43.25619
#
# Velocity S-wave (km/s) = 3.82366 4.27125 4.05364
# Velocity P-wave (km/s) = 6.57240 7.50316 7.05315
#
# Compressibility (1/GPa) = 0.01602681
#
# Stress axis : x y z
#
# Youngs Moduli (GPa) = 167.82577 101.11135 79.94293
#
# Poissons Ratio (x) = 0.25001 0.11307
# Poissons Ratio (y) = 0.41496 0.18214
# Poissons Ratio (z) = 0.23738 0.23037
#
# Static dielectric constant tensor:
#      x y z
#    x 2.036920 0.009510 -0.003240 
#    y 0.009510 2.138610 0.036170 
#    z -0.003240 0.036170 2.038610 
# 
# From -- ./inp_files/525406.got.cif
#   From: 2010.05.17/outbox.cif.g08.bks.cpg/sg2_263_cif.got.tgz:525406.got - 2010.06.03 11:33:40.
