data_PCOD9068988
_publ_section_title
;
Structure prediction by ZEFSAII (Michael W. Deem and Ramdas Pophale) SiO2 
 PCOD9068988
Probable space group: P -1
;
_chemical_formula_sum "Si O2"
_cell_formula_units_Z 16
_cell_length_a 11.859599
_cell_length_b 12.069163
_cell_length_c 12.868672
_cell_angle_alpha 61.039354
_cell_angle_beta 61.564111
_cell_angle_gamma 24.023577
_cell_volume 653.135036
_symmetry_space_group_name_H-M "P -1"
_symmetry_group_IT_number 2
_symmetry_cell_setting 'triclinic'
loop_
_space_group_symop_operation_xyz
x,y,z
-x,-y,-z
loop_
_atom_site_type_symbol
_atom_site_label
_atom_site_fract_x
_atom_site_fract_y
_atom_site_fract_z
Si Si1 0.047343 0.676169 0.318873
Si Si2 0.191217 0.646158 0.916711
Si Si3 0.491056 0.967140 0.138712
Si Si4 0.430894 0.796414 0.571401
Si Si5 0.062530 0.522720 0.168933
Si Si6 0.376740 0.545170 0.664846
Si Si7 0.794344 0.196803 0.903113
Si Si8 0.798251 0.997488 0.642012
O O1 0.253742 0.452541 0.421340
O O2 0.187583 0.677990 0.205002
O O3 0.972056 0.405794 0.729309
O O4 0.761346 0.974783 0.358724
O O5 0.311324 0.519327 0.807545
O O6 0.473584 0.440154 0.947132
O O7 0.058938 0.648817 0.038267
O O8 0.953887 0.960415 0.863874
O O9 0.292364 0.023595 0.222241
O O10 0.800156 0.670640 0.179623
O O11 0.351989 0.201084 0.161636
O O12 0.500000 0.000000 0.000000
O O13 0.389774 0.679814 0.632952
O O14 0.331597 0.932832 0.441485
O O15 0.656646 0.252783 0.622321
O O16 0.124072 0.733253 0.614426
O O17 0.000000 0.000000 0.000000
#
# Coordination Sequence:
#
# PCOD9068988 Si02
#       8
#     2   2   2   2   2   2   2   2
#     4  12  24  43  65 102 144 177 217 274 334 409
#     4  12  23  37  65 100 138 172 214 266 342 402
#     4  12  26  50  71  99 131 174 232 286 334 381
#     4  12  25  44  67 101 140 179 219 274 342 407
#     4  12  26  43  71 101 134 179 226 277 333 397
#     4  12  22  42  68 102 133 176 223 275 345 407
#     4  12  22  37  60  95 144 180 207 261 334 408
#     4  12  26  45  70  95 133 181 234 284 328 393
#
# _framework density 24.497229000000001
#
# number of rings (size 3 to 8) (size 9 to 14) (size 15 to 20)
#    0.000    0.000    3.750    7.500    1.750    0.000 
#    0.000    3.750    0.000    0.000    0.000    0.000 
#    0.000    0.000    0.000    0.000    0.000    0.000 
#
# Total GULP energy -89678.994333 kJ/mol
# GULP energy per Si atom -5604.937146 kJ/mol
# Density = 2.444147 g / cm^3
# Si number density = 24.497229 Si / 1000 Ang^3
#
#
#
# Elastic Constant Matrix: (Units=GPa)
#
#
# Indices 1 2 3 4 5 6 
#
# 1 75.7592 21.9482 24.9281 -4.3303 17.3570 0.2283
# 2 21.9482 67.1402 -9.8118 -10.3811 1.5136 4.6275
# 3 24.9281 -9.8118 81.0744 2.3367 12.6038 1.2491
# 4 -4.3303 -10.3811 2.3367 23.2333 -8.1248 12.3195
# 5 17.3570 1.5136 12.6038 -8.1248 36.5593 4.8259
# 6 0.2283 4.6275 1.2491 12.3195 4.8259 51.7822
#
#
#
# Elastic Compliance Matrix: (Units=1/GPa)
#
#
# Indices 1 2 3 4 5 6 
#
# 1 0.018674 -0.007343 -0.005381 -0.003086 -0.007676 0.002153
# 2 -0.007343 0.019827 0.003697 0.011341 0.004565 -0.004952
# 3 -0.005381 0.003697 0.014998 -0.002059 -0.003243 0.000124
# 4 -0.003086 0.011341 -0.002059 0.063504 0.018161 -0.017751
# 5 -0.007676 0.004565 -0.003243 0.018161 0.037027 -0.008067
# 6 0.002153 -0.004952 0.000124 -0.017751 -0.008067 0.024717
#
#
# Mechanical properties :
#
#
# Convention : Reuss Voigt Hill
#
# Bulk Modulus (GPa) = 28.21372 33.12254 30.66813
# Shear Modulus (GPa) = 23.96748 34.77560 29.37154
#
# Velocity S-wave (km/s) = 3.13129 3.77181 3.46638
# Velocity P-wave (km/s) = 4.96139 5.70254 5.34483
#
# Compressibility (1/GPa) = 0.03544375
#
# Stress axis : x y z
#
# Youngs Moduli (GPa) = 53.55148 50.43647 66.67609
#
# Poissons Ratio (x) = 0.37037 0.35880
# Poissons Ratio (y) = 0.39324 -0.24651
# Poissons Ratio (z) = 0.28817 -0.18647
#
# Static dielectric constant tensor:
#      x y z
#    x 1.981270 0.068860 0.047120 
#    y 0.068860 1.925650 -0.029210 
#    z 0.047120 -0.029210 1.947770 
# 
# From -- ./inp_files/534261.got.cif
#   From: 2010.05.17/outbox.cif.g08.bks.cpg/sg2_268_cif.got.tgz:534261.got - 2010.06.03 11:33:40.
