data_PCOD9068025
_publ_section_title
;
Structure prediction by ZEFSAII (Michael W. Deem and Ramdas Pophale) SiO2 
 PCOD9068025
Probable space group: P -1
;
_chemical_formula_sum "Si O2"
_cell_formula_units_Z 12
_cell_length_a 11.213064
_cell_length_b 6.455857
_cell_length_c 8.721264
_cell_angle_alpha 97.591932
_cell_angle_beta 107.811602
_cell_angle_gamma 50.882237
_cell_volume 464.754757
_symmetry_space_group_name_H-M "P -1"
_symmetry_group_IT_number 2
_symmetry_cell_setting 'triclinic'
loop_
_space_group_symop_operation_xyz
x,y,z
-x,-y,-z
loop_
_atom_site_type_symbol
_atom_site_label
_atom_site_fract_x
_atom_site_fract_y
_atom_site_fract_z
Si Si1 0.949563 0.366357 0.856368
Si Si2 0.437058 0.919435 0.604150
Si Si3 0.897513 0.720267 0.612735
Si Si4 0.106433 0.868923 0.684435
Si Si5 0.567179 0.676008 0.170571
Si Si6 0.652586 0.431780 0.845062
O O1 0.856758 0.586328 0.706410
O O2 0.833366 0.316586 0.880562
O O3 0.091868 0.093512 0.800354
O O4 0.000000 0.500000 0.000000
O O5 0.263839 0.017723 0.495250
O O6 0.414812 0.104752 0.753767
O O7 0.500000 0.000000 0.500000
O O8 0.555715 0.618990 0.679446
O O9 0.000000 0.500000 0.500000
O O10 0.013282 0.778850 0.726534
O O11 0.288789 0.602654 0.716297
O O12 0.000000 0.000000 0.500000
O O13 0.397834 0.755446 0.167213
O O14 0.590945 0.607134 0.993918
#
# Coordination Sequence:
#
# PCOD9068025 Si02
#       6
#     2   2   2   2   2   2
#     4  12  28  46  72 108 143 186 241 300 356 425
#     4  12  25  45  72 106 144 186 237 296 355 427
#     4  12  24  46  72 106 141 188 239 289 360 426
#     4  12  25  46  76 105 142 189 242 294 355 427
#     4  11  26  47  71 103 144 191 237 292 361 428
#     4  11  27  46  70 102 144 188 239 293 362 422
#
# _framework density 25.820070000000001
#
# number of rings (size 3 to 8) (size 9 to 14) (size 15 to 20)
#    0.000    0.333    5.000    2.500    2.333    6.000 
#    0.000    0.000    0.000    0.000    0.000    0.000 
#    0.000    0.000    0.000    0.000    0.000    0.000 
#
# Total GULP energy -67282.668750 kJ/mol
# GULP energy per Si atom -5606.889063 kJ/mol
# Density = 2.576130 g / cm^3
# Si number density = 25.820070 Si / 1000 Ang^3
#
#
#
# Elastic Constant Matrix: (Units=GPa)
#
#
# Indices 1 2 3 4 5 6 
#
# 1 124.8527 -4.3432 16.5478 -2.7680 6.1121 3.8743
# 2 -4.3432 73.1586 21.4502 10.8416 6.9258 -2.3655
# 3 16.5478 21.4502 94.9709 -4.0556 2.1669 -5.1773
# 4 -2.7680 10.8416 -4.0556 52.6758 7.1428 5.3878
# 5 6.1121 6.9258 2.1669 7.1428 38.9026 -5.5707
# 6 3.8743 -2.3655 -5.1773 5.3878 -5.5707 23.6827
#
#
#
# Elastic Compliance Matrix: (Units=1/GPa)
#
#
# Indices 1 2 3 4 5 6 
#
# 1 0.008451 0.001035 -0.001761 0.000572 -0.001838 -0.002227
# 2 0.001035 0.015522 -0.003734 -0.003241 -0.002004 0.000831
# 3 -0.001761 -0.003734 0.011852 0.001303 0.000371 0.002297
# 4 0.000572 -0.003241 0.001303 0.020966 -0.004281 -0.005909
# 5 -0.001838 -0.002004 0.000371 -0.004281 0.028233 0.007797
# 6 -0.002227 0.000831 0.002297 -0.005909 0.007797 0.046353
#
#
# Mechanical properties :
#
#
# Convention : Reuss Voigt Hill
#
# Bulk Modulus (GPa) = 37.16708 40.03242 38.59975
# Shear Modulus (GPa) = 33.49768 40.34070 36.91919
#
# Velocity S-wave (km/s) = 3.60578 3.95698 3.78546
# Velocity P-wave (km/s) = 5.63573 6.03448 5.83851
#
# Compressibility (1/GPa) = 0.02690553
#
# Stress axis : x y z
#
# Youngs Moduli (GPa) = 118.33428 64.42487 84.37325
#
# Poissons Ratio (x) = -0.06670 0.14860
# Poissons Ratio (y) = -0.12251 0.31501
# Poissons Ratio (z) = 0.20842 0.24053
#
# Static dielectric constant tensor:
#      x y z
#    x 2.027420 -0.005370 -0.032910 
#    y -0.005370 2.018950 -0.021220 
#    z -0.032910 -0.021220 2.042650 
# 
# From -- ./inp_files/107240.got.cif
#   From: 2010.05.17/outbox.cif.g08.bks.cpg/sg2_54_cif.got.tgz:107240.got - 2010.06.03 11:33:40.
