data_PCOD9068137
_publ_section_title
;
Structure prediction by ZEFSAII (Michael W. Deem and Ramdas Pophale) SiO2 
 PCOD9068137
Probable space group: P -1
;
_chemical_formula_sum "Si O2"
_cell_formula_units_Z 16
_cell_length_a 15.739180
_cell_length_b 6.647913
_cell_length_c 11.652793
_cell_angle_alpha 77.505565
_cell_angle_beta 130.860395
_cell_angle_gamma 127.129570
_cell_volume 702.221065
_symmetry_space_group_name_H-M "P -1"
_symmetry_group_IT_number 2
_symmetry_cell_setting 'triclinic'
loop_
_space_group_symop_operation_xyz
x,y,z
-x,-y,-z
loop_
_atom_site_type_symbol
_atom_site_label
_atom_site_fract_x
_atom_site_fract_y
_atom_site_fract_z
Si Si1 0.228023 0.758691 0.257917
Si Si2 0.640254 0.348626 0.814651
Si Si3 0.349926 0.645038 0.783023
Si Si4 0.196314 0.374687 0.451383
Si Si5 0.666571 0.055633 0.075074
Si Si6 0.616298 0.752518 0.493527
Si Si7 0.117569 0.061184 0.750226
Si Si8 0.876411 0.956552 0.972357
O O1 0.328658 0.752611 0.258122
O O2 0.156928 0.504564 0.307036
O O3 0.309757 0.998596 0.389519
O O4 0.135878 0.816237 0.096053
O O5 0.680665 0.256390 0.970455
O O6 0.476420 0.233508 0.684902
O O7 0.734152 0.663152 0.852499
O O8 0.307689 0.589847 0.618477
O O9 0.228292 0.359946 0.766835
O O10 0.516166 0.772293 0.939791
O O11 0.341666 0.850566 0.819004
O O12 0.273358 0.277518 0.464066
O O13 0.951090 0.867529 0.588838
O O14 0.800790 0.058286 0.188355
O O15 0.500000 0.500000 0.500000
O O16 0.103216 0.062397 0.874260
O O17 0.000000 0.000000 0.000000
#
# Coordination Sequence:
#
# PCOD9068137 Si02
#       8
#     2   2   2   2   2   2   2   2
#     4  12  24  44  70 106 147 187 239 293 365 433
#     4  12  24  43  71 106 143 192 239 299 359 429
#     4  11  27  50  73 106 147 189 249 301 361 431
#     4  12  29  46  75 110 147 200 236 298 371 436
#     4  11  26  47  78 109 136 195 249 299 365 427
#     4  12  25  42  68 107 149 190 240 293 365 429
#     4  12  26  48  74 106 148 191 243 303 361 432
#     4  12  26  42  71 108 149 190 236 300 362 433
#
# _framework density 22.784848
#
# number of rings (size 3 to 8) (size 9 to 14) (size 15 to 20)
#    0.000    0.250    5.000    3.375    5.250    5.500 
#    0.000    0.000    0.000    0.000    0.000    0.000 
#    0.000    0.000    0.000    0.000    0.000    0.000 
#
# Total GULP energy -89550.315399 kJ/mol
# GULP energy per Si atom -5596.894712 kJ/mol
# Density = 2.273299 g / cm^3
# Si number density = 22.784848 Si / 1000 Ang^3
#
#
#
# Elastic Constant Matrix: (Units=GPa)
#
#
# Indices 1 2 3 4 5 6 
#
# 1 108.5928 39.6101 30.0271 -0.8622 5.3532 1.0912
# 2 39.6101 121.4375 36.4266 -4.7803 2.0560 11.9983
# 3 30.0271 36.4266 76.4755 15.6817 -7.2645 -8.4793
# 4 -0.8622 -4.7803 15.6817 40.1509 5.7050 -5.4396
# 5 5.3532 2.0560 -7.2645 5.7050 39.2230 4.2387
# 6 1.0912 11.9983 -8.4793 -5.4396 4.2387 31.7134
#
#
#
# Elastic Compliance Matrix: (Units=1/GPa)
#
#
# Indices 1 2 3 4 5 6 
#
# 1 0.011295 -0.002423 -0.003869 0.001825 -0.002411 0.000129
# 2 -0.002423 0.011406 -0.005789 0.003052 -0.001233 -0.005091
# 3 -0.003869 -0.005789 0.020244 -0.008672 0.005243 0.005548
# 4 0.001825 0.003052 -0.008672 0.029978 -0.006645 0.002494
# 5 -0.002411 -0.001233 0.005243 -0.006645 0.028145 -0.002950
# 6 0.000129 -0.005091 0.005548 0.002494 -0.002950 0.035760
#
#
# Mechanical properties :
#
#
# Convention : Reuss Voigt Hill
#
# Bulk Modulus (GPa) = 53.24418 57.62591 55.43504
# Shear Modulus (GPa) = 29.89539 35.58025 32.73782
#
# Velocity S-wave (km/s) = 3.62618 3.95596 3.79466
# Velocity P-wave (km/s) = 6.39932 6.79797 6.60166
#
# Compressibility (1/GPa) = 0.01878140
#
# Stress axis : x y z
#
# Youngs Moduli (GPa) = 88.53769 87.67643 49.39755
#
# Poissons Ratio (x) = 0.21248 0.19113
# Poissons Ratio (y) = 0.21457 0.28594
# Poissons Ratio (z) = 0.34258 0.50752
#
# Static dielectric constant tensor:
#      x y z
#    x 1.784580 0.030380 0.017010 
#    y 0.030380 1.866470 -0.006830 
#    z 0.017010 -0.006830 1.912170 
# 
# From -- ./inp_files/440441.got.cif
#   From: 2010.05.17/outbox.cif.g08.bks.cpg/sg2_221_cif.got.tgz:440441.got - 2010.06.03 11:33:40.
