data_PCOD9068973
_publ_section_title
;
Structure prediction by ZEFSAII (Michael W. Deem and Ramdas Pophale) SiO2 
 PCOD9068973
Probable space group: P -1
;
_chemical_formula_sum "Si O2"
_cell_formula_units_Z 16
_cell_length_a 9.031794
_cell_length_b 9.688715
_cell_length_c 16.853064
_cell_angle_alpha 42.317177
_cell_angle_beta 72.400392
_cell_angle_gamma 99.429860
_cell_volume 754.455929
_symmetry_space_group_name_H-M "P -1"
_symmetry_group_IT_number 2
_symmetry_cell_setting 'triclinic'
loop_
_space_group_symop_operation_xyz
x,y,z
-x,-y,-z
loop_
_atom_site_type_symbol
_atom_site_label
_atom_site_fract_x
_atom_site_fract_y
_atom_site_fract_z
Si Si1 0.819317 0.987656 0.562592
Si Si2 0.772536 0.876112 0.101357
Si Si3 0.793813 0.433841 0.083905
Si Si4 0.566250 0.408083 0.457111
Si Si5 0.804296 0.284622 0.578139
Si Si6 0.425407 0.889895 0.893110
Si Si7 0.549770 0.599190 0.096371
Si Si8 0.693983 0.091369 0.387227
O O1 0.618551 0.696385 0.724546
O O2 0.819530 0.139959 0.422403
O O3 0.838221 0.108553 0.594034
O O4 0.000000 0.000000 0.500000
O O5 0.676505 0.631002 0.279126
O O6 0.655614 0.774259 0.081323
O O7 0.720203 0.058234 0.068528
O O8 0.000000 0.000000 0.000000
O O9 0.647071 0.213368 0.139936
O O10 0.723804 0.614171 0.016359
O O11 0.766680 0.335772 0.219210
O O12 0.000000 0.500000 0.000000
O O13 0.500000 0.500000 0.500000
O O14 0.714736 0.367328 0.491609
O O15 0.377245 0.147212 0.558788
O O16 0.000000 0.500000 0.500000
O O17 0.642863 0.143064 0.734032
O O18 0.448165 0.697908 0.020261
O O19 0.500000 0.000000 0.500000
#
# Coordination Sequence:
#
# PCOD9068973 Si02
#       8
#     2   2   2   2   2   2   2   2
#     4  12  28  45  74 108 139 189 241 294 362 426
#     4  12  27  46  71 108 142 193 242 291 358 421
#     4  12  25  45  74 106 137 188 239 293 357 424
#     4  12  23  45  75  97 140 190 240 295 349 414
#     4  12  28  47  72 107 143 187 238 296 363 429
#     4  12  26  49  67 104 151 187 234 295 360 426
#     4  12  26  47  71 103 149 188 235 298 356 427
#     4  12  21  47  72  99 138 182 242 298 344 415
#
# _framework density 21.207336999999999
#
# number of rings (size 3 to 8) (size 9 to 14) (size 15 to 20)
#    0.000    0.000    7.500    1.500    7.000    1.000 
#    0.000    0.000    0.000    0.000    0.000    0.000 
#    0.000    0.000    0.000    0.000    0.000    0.000 
#
# Total GULP energy -89325.973211 kJ/mol
# GULP energy per Si atom -5582.873326 kJ/mol
# Density = 2.115907 g / cm^3
# Si number density = 21.207337 Si / 1000 Ang^3
#
#
#
# Elastic Constant Matrix: (Units=GPa)
#
#
# Indices 1 2 3 4 5 6 
#
# 1 100.4794 10.6941 34.6371 11.8925 -4.0786 -19.5593
# 2 10.6941 89.2758 -8.1931 14.6331 -1.1934 -7.2356
# 3 34.6371 -8.1931 66.9074 12.3619 6.1211 -2.8902
# 4 11.8925 14.6331 12.3619 25.2403 -6.6706 -6.9099
# 5 -4.0786 -1.1934 6.1211 -6.6706 32.9373 4.4014
# 6 -19.5593 -7.2356 -2.8902 -6.9099 4.4014 48.4344
#
#
#
# Elastic Compliance Matrix: (Units=1/GPa)
#
#
# Indices 1 2 3 4 5 6 
#
# 1 0.013671 -0.001941 -0.007373 0.000193 0.002417 0.004599
# 2 -0.001941 0.013470 0.004727 -0.009818 -0.002666 0.000352
# 3 -0.007373 0.004727 0.022237 -0.012621 -0.007150 -0.002095
# 4 0.000193 -0.009818 -0.012621 0.056054 0.012738 0.004697
# 5 0.002417 -0.002666 -0.007150 0.012738 0.034630 -0.001178
# 6 0.004599 0.000352 -0.002095 0.004697 -0.001178 0.023208
#
#
# Mechanical properties :
#
#
# Convention : Reuss Voigt Hill
#
# Bulk Modulus (GPa) = 24.87247 36.77096 30.82171
# Shear Modulus (GPa) = 26.90407 35.95734 31.43071
#
# Velocity S-wave (km/s) = 3.56563 4.12213 3.85394
# Velocity P-wave (km/s) = 5.35774 6.32711 5.86250
#
# Compressibility (1/GPa) = 0.04020510
#
# Stress axis : x y z
#
# Youngs Moduli (GPa) = 73.14769 74.24036 44.96924
#
# Poissons Ratio (x) = 0.14409 0.33156
# Poissons Ratio (y) = 0.14197 -0.21258
# Poissons Ratio (z) = 0.53932 -0.35096
#
# Static dielectric constant tensor:
#      x y z
#    x 1.741060 -0.053230 -0.014930 
#    y -0.053230 1.809730 -0.057800 
#    z -0.014930 -0.057800 1.780550 
# 
# From -- ./inp_files/205643.got.cif
#   From: 2010.05.17/outbox.cif.g08.bks.cpg/sg2_103_cif.got.tgz:205643.got - 2010.06.03 11:33:40.
