data_PCOD9068328
_publ_section_title
;
Structure prediction by ZEFSAII (Michael W. Deem and Ramdas Pophale) SiO2 
 PCOD9068328
Probable space group: P -1
;
_chemical_formula_sum "Si O2"
_cell_formula_units_Z 15
_cell_length_a 9.321599
_cell_length_b 11.745429
_cell_length_c 15.031317
_cell_angle_alpha 150.529474
_cell_angle_beta 130.489367
_cell_angle_gamma 57.187543
_cell_volume 614.558597
_symmetry_space_group_name_H-M "P -1"
_symmetry_group_IT_number 2
_symmetry_cell_setting 'triclinic'
loop_
_space_group_symop_operation_xyz
x,y,z
-x,-y,-z
loop_
_atom_site_type_symbol
_atom_site_label
_atom_site_fract_x
_atom_site_fract_y
_atom_site_fract_z
Si Si1 0.232371 0.327739 0.094475
Si Si2 0.162050 0.553058 0.936103
Si Si3 0.288435 0.152171 0.621590
Si Si4 0.099084 0.870493 0.639068
Si Si5 0.481813 0.223575 0.288255
Si Si6 0.586121 0.302910 0.705035
Si Si7 0.177536 0.841494 0.956766
Si Si8 0.000000 0.500000 0.500000
O O1 0.370033 0.224000 0.150614
O O2 0.365663 0.464926 0.171296
O O3 0.064096 0.487959 0.167464
O O4 0.112359 0.109563 0.859399
O O5 0.286684 0.328385 0.822705
O O6 0.182197 0.686659 0.941844
O O7 0.259960 0.697708 0.154406
O O8 0.388494 0.272660 0.656293
O O9 0.067263 0.113673 0.487058
O O10 0.387228 0.910230 0.496629
O O11 0.306322 0.847390 0.669503
O O12 0.053215 0.655603 0.539832
O O13 0.500000 0.500000 0.500000
O O14 0.354278 0.031706 0.159861
O O15 0.138078 0.685833 0.746736
O O16 0.000000 0.000000 0.000000
#
# Coordination Sequence:
#
# PCOD9068328 Si02
#       8
#     2   2   2   2   2   2   2   1
#     4  12  26  48  73 110 155 193 249 313 383 449
#     4  12  24  47  77 108 145 198 255 309 369 457
#     4  11  26  49  74 105 144 200 257 303 376 443
#     4  12  25  44  75 106 148 198 242 307 384 447
#     4  12  27  45  70 117 151 193 251 310 381 458
#     4  11  28  50  73 106 149 199 252 316 368 448
#     4  12  25  46  75 110 153 194 248 311 378 448
#     4  12  24  44  74 106 146 198 234 306 376 454
#
# _framework density 24.40776
#
# number of rings (size 3 to 8) (size 9 to 14) (size 15 to 20)
#    0.000    0.267    5.333    2.800    3.733    2.667 
#    2.400    0.000    0.000    0.000    0.000    0.000 
#    0.000    0.000    0.000    0.000    0.000    0.000 
#
# Total GULP energy -83653.100442 kJ/mol
# GULP energy per Si atom -5576.873363 kJ/mol
# Density = 2.435221 g / cm^3
# Si number density = 24.407760 Si / 1000 Ang^3
#
#
#
# Elastic Constant Matrix: (Units=GPa)
#
#
# Indices 1 2 3 4 5 6 
#
# 1 77.1279 7.1200 27.6605 10.4715 22.4804 -29.6224
# 2 7.1200 31.2939 -2.5269 -4.4721 0.4055 -5.5803
# 3 27.6605 -2.5269 109.4833 11.6886 10.7626 -4.9877
# 4 10.4715 -4.4721 11.6886 29.2530 5.3540 5.3135
# 5 22.4804 0.4055 10.7626 5.3540 37.6158 3.8463
# 6 -29.6224 -5.5803 -4.9877 5.3135 3.8463 49.5791
#
#
#
# Elastic Compliance Matrix: (Units=1/GPa)
#
#
# Indices 1 2 3 4 5 6 
#
# 1 0.027331 -0.004493 -0.003661 -0.009342 -0.015716 0.017676
# 2 -0.004493 0.034019 0.001196 0.006040 0.001062 0.000535
# 3 -0.003661 0.001196 0.010350 -0.002445 -0.000365 -0.000721
# 4 -0.009342 0.006040 -0.002445 0.040928 0.001378 -0.009641
# 5 -0.015716 0.001062 -0.000365 0.001378 0.037135 -0.012335
# 6 0.017676 0.000535 -0.000721 -0.009641 -0.012335 0.032709
#
#
# Mechanical properties :
#
#
# Convention : Reuss Voigt Hill
#
# Bulk Modulus (GPa) = 17.30649 31.37915 24.34282
# Shear Modulus (GPa) = 23.18565 35.66632 29.42598
#
# Velocity S-wave (km/s) = 3.08544 3.82680 3.47594
# Velocity P-wave (km/s) = 4.44963 5.69298 5.10927
#
# Compressibility (1/GPa) = 0.05778181
#
# Stress axis : x y z
#
# Youngs Moduli (GPa) = 36.58831 29.39550 96.61492
#
# Poissons Ratio (x) = 0.13209 0.35374
# Poissons Ratio (y) = 0.16441 -0.11550
# Poissons Ratio (z) = 0.13396 -0.03514
#
# Static dielectric constant tensor:
#      x y z
#    x 2.083530 -0.282920 0.128470 
#    y -0.282920 2.381340 -0.440370 
#    z 0.128470 -0.440370 2.191280 
# 
# From -- ./inp_files/379155.got.cif
#   From: 2010.05.17/outbox.cif.g08.bks.cpg/sg2_190_cif.got.tgz:379155.got - 2010.06.03 11:33:40.
