data_PCOD9068106
_publ_section_title
;
Structure prediction by ZEFSAII (Michael W. Deem and Ramdas Pophale) SiO2 
 PCOD9068106
Probable space group: P -1
;
_chemical_formula_sum "Si O2"
_cell_formula_units_Z 14
_cell_length_a 10.074198
_cell_length_b 11.788921
_cell_length_c 12.580076
_cell_angle_alpha 54.824337
_cell_angle_beta 59.183645
_cell_angle_gamma 107.476513
_cell_volume 555.498979
_symmetry_space_group_name_H-M "P -1"
_symmetry_group_IT_number 2
_symmetry_cell_setting 'triclinic'
loop_
_space_group_symop_operation_xyz
x,y,z
-x,-y,-z
loop_
_atom_site_type_symbol
_atom_site_label
_atom_site_fract_x
_atom_site_fract_y
_atom_site_fract_z
Si Si1 0.958926 0.865545 0.923676
Si Si2 0.498364 0.985614 0.718088
Si Si3 0.437427 0.296643 0.672012
Si Si4 0.360608 0.606153 0.035388
Si Si5 0.870357 0.486556 0.159621
Si Si6 0.888730 0.411126 0.475259
Si Si7 0.891133 0.836432 0.737119
O O1 0.064486 0.977527 0.700070
O O2 0.742839 0.819180 0.082809
O O3 0.787520 0.586309 0.129467
O O4 0.219829 0.066428 0.796149
O O5 0.654601 0.212226 0.452288
O O6 0.606380 0.102160 0.729238
O O7 0.548568 0.859850 0.752831
O O8 0.157447 0.731785 0.978926
O O9 0.500000 0.500000 0.500000
O O10 0.740494 0.445445 0.484264
O O11 0.576129 0.670116 0.976012
O O12 0.140452 0.522087 0.246577
O O13 0.176799 0.371876 0.157334
O O14 0.000000 0.500000 0.000000
O O15 0.000000 0.500000 0.500000
O O16 0.000000 0.000000 0.500000
#
# Coordination Sequence:
#
# PCOD9068106 Si02
#       7
#     2   2   2   2   2   2   2
#     4  11  26  47  76 116 158 217 269 340 419 487
#     4  12  25  48  74 117 157 200 272 331 401 492
#     4  11  26  49  77 111 164 211 278 343 411 495
#     4  11  26  47  78 112 161 206 272 338 406 499
#     4  12  26  47  80 117 160 210 264 337 415 489
#     4  12  26  48  79 114 158 217 277 339 411 484
#     4  11  26  50  77 114 162 213 268 338 416 501
#
# _framework density 25.202566000000001
#
# number of rings (size 3 to 8) (size 9 to 14) (size 15 to 20)
#    0.000    0.571    2.857    3.857    2.000    5.143 
#    0.000    0.714    0.000    0.000    0.000    0.000 
#    0.000    0.000    0.000    0.000    0.000    0.000 
#
# Total GULP energy -78168.034825 kJ/mol
# GULP energy per Si atom -5583.431059 kJ/mol
# Density = 2.514520 g / cm^3
# Si number density = 25.202566 Si / 1000 Ang^3
#
#
#
# Elastic Constant Matrix: (Units=GPa)
#
#
# Indices 1 2 3 4 5 6 
#
# 1 134.4335 78.9254 55.2319 18.9130 -13.6752 -16.1626
# 2 78.9254 206.1396 86.5512 22.3783 16.2276 -1.3920
# 3 55.2319 86.5512 108.0190 5.1782 2.1695 -5.5190
# 4 18.9130 22.3783 5.1782 51.2586 -10.2468 5.4597
# 5 -13.6752 16.2276 2.1695 -10.2468 43.1227 0.6018
# 6 -16.1626 -1.3920 -5.5190 5.4597 0.6018 56.6819
#
#
#
# Elastic Compliance Matrix: (Units=1/GPa)
#
#
# Indices 1 2 3 4 5 6 
#
# 1 0.011837 -0.003293 -0.003251 -0.002007 0.004636 0.003122
# 2 -0.003293 0.009099 -0.005405 -0.003100 -0.004921 -0.000891
# 3 -0.003251 -0.005405 0.015143 0.002159 0.000751 0.000199
# 4 -0.002007 -0.003100 0.002159 0.022850 0.005889 -0.002702
# 5 0.004636 -0.004921 0.000751 0.005889 0.027867 0.000411
# 6 0.003122 -0.000891 0.000199 -0.002702 0.000411 0.018786
#
#
# Mechanical properties :
#
#
# Convention : Reuss Voigt Hill
#
# Bulk Modulus (GPa) = 82.10210 98.88990 90.49600
# Shear Modulus (GPa) = 37.44169 45.40486 41.42327
#
# Velocity S-wave (km/s) = 3.85857 4.24913 4.05855
# Velocity P-wave (km/s) = 7.24562 7.96220 7.61235
#
# Compressibility (1/GPa) = 0.01217996
#
# Stress axis : x y z
#
# Youngs Moduli (GPa) = 84.48059 109.89949 66.03870
#
# Poissons Ratio (x) = 0.36189 0.21472
# Poissons Ratio (y) = 0.27819 0.35695
# Poissons Ratio (z) = 0.27468 0.59403
#
# Static dielectric constant tensor:
#      x y z
#    x 2.168190 -0.055420 0.004810 
#    y -0.055420 2.013540 0.047310 
#    z 0.004810 0.047310 2.137430 
# 
# From -- ./inp_files/420835.got.cif
#   From: 2010.05.17/outbox.cif.g08.bks.cpg/sg2_211_cif.got.tgz:420835.got - 2010.06.03 11:33:40.
