data_PCOD9068192
_publ_section_title
;
Structure prediction by ZEFSAII (Michael W. Deem and Ramdas Pophale) SiO2 
 PCOD9068192
Probable space group: P -1
;
_chemical_formula_sum "Si O2"
_cell_formula_units_Z 14
_cell_length_a 8.817077
_cell_length_b 11.916145
_cell_length_c 9.402283
_cell_angle_alpha 104.579836
_cell_angle_beta 45.899317
_cell_angle_gamma 88.766047
_cell_volume 658.476542
_symmetry_space_group_name_H-M "P -1"
_symmetry_group_IT_number 2
_symmetry_cell_setting 'triclinic'
loop_
_space_group_symop_operation_xyz
x,y,z
-x,-y,-z
loop_
_atom_site_type_symbol
_atom_site_label
_atom_site_fract_x
_atom_site_fract_y
_atom_site_fract_z
Si Si1 0.163015 0.461531 0.744872
Si Si2 0.605922 0.870026 0.968285
Si Si3 0.978861 0.867018 0.959014
Si Si4 0.771474 0.169609 0.598230
Si Si5 0.724899 0.937339 0.411053
Si Si6 0.821546 0.761232 0.524064
Si Si7 0.669694 0.339946 0.454861
O O1 0.104980 0.363984 0.647448
O O2 0.412221 0.400093 0.617917
O O3 0.191767 0.569353 0.658145
O O4 0.000000 0.500000 0.000000
O O5 0.810742 0.865360 0.939083
O O6 0.694448 0.768856 0.757365
O O7 0.422098 0.838921 0.174294
O O8 0.500000 0.000000 0.000000
O O9 0.217099 0.775752 0.752368
O O10 0.876047 0.846547 0.170606
O O11 0.000000 0.000000 0.000000
O O12 0.705081 0.283296 0.570983
O O13 0.975866 0.185203 0.557444
O O14 0.823780 0.043645 0.435918
O O15 0.672276 0.860785 0.549298
O O16 0.500000 0.000000 0.500000
#
# Coordination Sequence:
#
# PCOD9068192 Si02
#       7
#     2   2   2   2   2   2   2
#     4  11  28  52  78 100 142 194 255 305 354 442
#     4  12  26  43  68 110 154 189 229 295 368 438
#     4  12  24  41  73 107 147 188 237 300 363 435
#     4  12  25  42  70 108 149 184 239 296 365 431
#     4  12  22  40  68 104 147 195 233 287 356 433
#     4  12  26  45  70 104 145 189 241 303 364 426
#     4  11  26  48  73 108 141 188 251 302 363 433
#
# _framework density 21.261196999999999
#
# number of rings (size 3 to 8) (size 9 to 14) (size 15 to 20)
#    0.000    0.286    5.714    2.143    6.000    2.857 
#    0.000    1.429    0.000    0.000    0.000    0.000 
#    0.000    0.000    0.000    0.000    0.000    0.000 
#
# Total GULP energy -78269.343205 kJ/mol
# GULP energy per Si atom -5590.667372 kJ/mol
# Density = 2.121281 g / cm^3
# Si number density = 21.261197 Si / 1000 Ang^3
#
#
#
# Elastic Constant Matrix: (Units=GPa)
#
#
# Indices 1 2 3 4 5 6 
#
# 1 80.2379 44.1730 51.6791 -1.3207 8.8370 5.3074
# 2 44.1730 120.7539 52.8794 -1.7170 11.1441 -1.6600
# 3 51.6791 52.8794 195.8011 -6.7691 8.9831 4.9783
# 4 -1.3207 -1.7170 -6.7691 41.9801 1.6103 8.4265
# 5 8.8370 11.1441 8.9831 1.6103 38.8973 2.0519
# 6 5.3074 -1.6600 4.9783 8.4265 2.0519 32.3422
#
#
#
# Elastic Compliance Matrix: (Units=1/GPa)
#
#
# Indices 1 2 3 4 5 6 
#
# 1 0.017573 -0.004920 -0.003147 0.000444 -0.001734 -0.002658
# 2 -0.004920 0.010982 -0.001643 -0.000266 -0.001733 0.001803
# 3 -0.003147 -0.001643 0.006452 0.001050 -0.000305 -0.000815
# 4 0.000444 -0.000266 0.001050 0.025396 -0.000960 -0.006804
# 5 -0.001734 -0.001733 -0.000305 -0.000960 0.026773 -0.001206
# 6 -0.002658 0.001803 -0.000815 -0.006804 -0.001206 0.033423
#
#
# Mechanical properties :
#
#
# Convention : Reuss Voigt Hill
#
# Bulk Modulus (GPa) = 64.15612 77.13955 70.64783
# Shear Modulus (GPa) = 34.43218 39.18133 36.80676
#
# Velocity S-wave (km/s) = 4.02865 4.29751 4.16525
# Velocity P-wave (km/s) = 7.20283 7.80931 7.51219
#
# Compressibility (1/GPa) = 0.01558698
#
# Stress axis : x y z
#
# Youngs Moduli (GPa) = 56.90689 91.06214 154.98166
#
# Poissons Ratio (x) = 0.44806 0.48768
# Poissons Ratio (y) = 0.28001 0.25457
# Poissons Ratio (z) = 0.17907 0.14958
#
# Static dielectric constant tensor:
#      x y z
#    x 1.779720 -0.010470 0.021580 
#    y -0.010470 1.796850 -0.025140 
#    z 0.021580 -0.025140 1.835950 
# 
# From -- ./inp_files/181019.got.cif
#   From: 2010.05.17/outbox.cif.g08.bks.cpg/sg2_91_cif.got.tgz:181019.got - 2010.06.03 11:33:40.
