data_PCOD9068196
_publ_section_title
;
Structure prediction by ZEFSAII (Michael W. Deem and Ramdas Pophale) SiO2 
 PCOD9068196
Probable space group: P -1
;
_chemical_formula_sum "Si O2"
_cell_formula_units_Z 12
_cell_length_a 14.818446
_cell_length_b 10.413808
_cell_length_c 15.185889
_cell_angle_alpha 39.029251
_cell_angle_beta 160.830593
_cell_angle_gamma 139.956062
_cell_volume 478.799463
_symmetry_space_group_name_H-M "P -1"
_symmetry_group_IT_number 2
_symmetry_cell_setting 'triclinic'
loop_
_space_group_symop_operation_xyz
x,y,z
-x,-y,-z
loop_
_atom_site_type_symbol
_atom_site_label
_atom_site_fract_x
_atom_site_fract_y
_atom_site_fract_z
Si Si1 0.352747 0.690911 0.731656
Si Si2 0.924519 0.646648 0.036636
Si Si3 0.965781 0.548720 0.593973
Si Si4 0.503800 0.915840 0.448533
Si Si5 0.699932 0.859250 0.302566
Si Si6 0.316060 0.596810 0.206829
O O1 0.187099 0.607421 0.535702
O O2 0.154898 0.715527 0.619093
O O3 0.514907 0.908110 0.733772
O O4 0.500000 0.500000 0.000000
O O5 0.865928 0.590316 0.114734
O O6 0.251194 0.733228 0.293434
O O7 0.785852 0.818827 0.764820
O O8 0.779600 0.445916 0.960450
O O9 0.767590 0.659972 0.414484
O O10 0.500000 0.000000 0.500000
O O11 0.550735 0.795705 0.292629
O O12 0.000000 0.000000 0.500000
O O13 0.500000 0.000000 0.000000
O O14 0.500000 0.500000 0.500000
O O15 0.000000 0.500000 0.000000
#
# Coordination Sequence:
#
# PCOD9068196 Si02
#       6
#     2   2   2   2   2   2
#     4  11  27  45  74 113 162 204 257 325 392 485
#     4  12  26  47  77 106 149 206 251 320 393 465
#     4  11  26  48  73 110 157 208 257 324 404 466
#     4  12  25  44  73 111 150 195 260 310 381 475
#     4  12  28  50  80 112 153 211 269 332 396 479
#     4  12  27  51  76 111 152 202 265 333 398 463
#
# _framework density 25.062685999999999
#
# number of rings (size 3 to 8) (size 9 to 14) (size 15 to 20)
#    0.000    0.333    1.667    6.500    9.333    4.000 
#    0.000    0.000    0.000    0.000    0.000    0.000 
#    0.000    0.000    0.000    0.000    0.000    0.000 
#
# Total GULP energy -66813.645736 kJ/mol
# GULP energy per Si atom -5567.803811 kJ/mol
# Density = 2.500564 g / cm^3
# Si number density = 25.062686 Si / 1000 Ang^3
#
#
#
# Elastic Constant Matrix: (Units=GPa)
#
#
# Indices 1 2 3 4 5 6 
#
# 1 96.4093 51.0548 45.0472 5.5721 0.1638 36.0203
# 2 51.0548 126.5330 45.6146 3.8602 -3.0907 48.2014
# 3 45.0472 45.6146 178.7892 14.6221 -18.9185 20.9225
# 4 5.5721 3.8602 14.6221 53.0730 5.7255 -7.8894
# 5 0.1638 -3.0907 -18.9185 5.7255 55.9368 -1.3807
# 6 36.0203 48.2014 20.9225 -7.8894 -1.3807 55.5202
#
#
#
# Elastic Compliance Matrix: (Units=1/GPa)
#
#
# Indices 1 2 3 4 5 6 
#
# 1 0.015724 -0.002698 -0.002388 -0.001764 -0.001001 -0.007234
# 2 -0.002698 0.013115 -0.001414 -0.001690 0.000197 -0.009338
# 3 -0.002388 -0.001414 0.006974 -0.001842 0.002475 -0.000051
# 4 -0.001764 -0.001690 -0.001842 0.020871 -0.002694 0.006205
# 5 -0.001001 0.000197 0.002475 -0.002694 0.018995 -0.000365
# 6 -0.007234 -0.009338 -0.000051 0.006205 -0.000365 0.031704
#
#
# Mechanical properties :
#
#
# Convention : Reuss Voigt Hill
#
# Bulk Modulus (GPa) = 43.83784 76.12941 59.98363
# Shear Modulus (GPa) = 39.06584 50.24034 44.65309
#
# Velocity S-wave (km/s) = 3.95235 4.48212 4.22555
# Velocity P-wave (km/s) = 6.19333 7.56488 6.91320
#
# Compressibility (1/GPa) = 0.02281134
#
# Stress axis : x y z
#
# Youngs Moduli (GPa) = 63.59794 76.24667 143.38233
#
# Poissons Ratio (x) = 0.20573 0.34246
# Poissons Ratio (y) = 0.17160 0.20281
# Poissons Ratio (z) = 0.15190 0.10785
#
# Static dielectric constant tensor:
#      x y z
#    x 2.283120 0.002040 0.086260 
#    y 0.002040 2.076620 -0.062630 
#    z 0.086260 -0.062630 1.980320 
# 
# From -- ./inp_files/531677.got.cif
#   From: 2010.05.17/outbox.cif.g08.bks.cpg/sg2_266_cif.got.tgz:531677.got - 2010.06.03 11:33:40.
