data_PCOD9068994
_publ_section_title
;
Structure prediction by ZEFSAII (Michael W. Deem and Ramdas Pophale) SiO2 
 PCOD9068994
Probable space group: P -1
;
_chemical_formula_sum "Si O2"
_cell_formula_units_Z 16
_cell_length_a 25.418433
_cell_length_b 9.142991
_cell_length_c 25.969194
_cell_angle_alpha 38.566366
_cell_angle_beta 168.742917
_cell_angle_gamma 142.507434
_cell_volume 716.740468
_symmetry_space_group_name_H-M "P -1"
_symmetry_group_IT_number 2
_symmetry_cell_setting 'triclinic'
loop_
_space_group_symop_operation_xyz
x,y,z
-x,-y,-z
loop_
_atom_site_type_symbol
_atom_site_label
_atom_site_fract_x
_atom_site_fract_y
_atom_site_fract_z
Si Si1 0.023555 0.072563 0.299673
Si Si2 0.378431 0.261651 0.914654
Si Si3 0.063189 0.782234 0.586468
Si Si4 0.305760 0.083612 0.248878
Si Si5 0.949176 0.292797 0.667746
Si Si6 0.353086 0.091658 0.177706
Si Si7 0.612244 0.401693 0.788737
Si Si8 0.304616 0.574463 0.249910
O O1 0.330128 0.201439 0.576482
O O2 0.832117 0.923314 0.200859
O O3 0.871636 0.282319 0.079162
O O4 0.036769 0.890415 0.315476
O O5 0.188679 0.303818 0.672313
O O6 0.500000 0.500000 0.000000
O O7 0.642658 0.162157 0.176225
O O8 0.080113 0.558350 0.701051
O O9 0.000000 0.000000 0.500000
O O10 0.325173 0.984989 0.237480
O O11 0.382368 0.370370 0.233068
O O12 0.500000 0.000000 0.500000
O O13 0.000000 0.000000 0.000000
O O14 0.635955 0.277939 0.387333
O O15 0.102176 0.201592 0.887649
O O16 0.367437 0.859018 0.221727
O O17 0.646040 0.525943 0.730609
O O18 0.500000 0.500000 0.500000
O O19 0.000000 0.500000 0.000000
#
# Coordination Sequence:
#
# PCOD9068994 Si02
#       8
#     2   2   2   2   2   2   2   2
#     4  12  24  44  72 103 141 178 242 298 348 415
#     4  12  26  46  78 106 146 203 247 294 370 441
#     4  12  28  48  74 111 152 192 247 303 367 439
#     4  12  26  48  69  97 143 183 229 288 354 431
#     4  12  24  45  72 100 145 179 232 300 354 418
#     4  12  25  43  70 100 133 187 227 279 370 418
#     4  12  25  43  68 102 134 179 230 294 346 416
#     4  12  22  38  63  95 128 167 225 278 338 414
#
# _framework density 22.323284000000001
#
# number of rings (size 3 to 8) (size 9 to 14) (size 15 to 20)
#    0.000    0.000    3.750    6.750    1.750    3.000 
#    0.000    0.000    0.000    0.000    0.000    0.000 
#    0.000    0.000    0.000    0.000    0.000    0.000 
#
# Total GULP energy -89578.328584 kJ/mol
# GULP energy per Si atom -5598.645537 kJ/mol
# Density = 2.227248 g / cm^3
# Si number density = 22.323284 Si / 1000 Ang^3
#
#
#
# Elastic Constant Matrix: (Units=GPa)
#
#
# Indices 1 2 3 4 5 6 
#
# 1 82.4542 10.9234 14.4776 9.4935 13.5376 2.7595
# 2 10.9234 84.6407 9.6928 -4.4589 5.7388 -4.4336
# 3 14.4776 9.6928 98.6573 11.7777 7.8054 -6.3582
# 4 9.4935 -4.4589 11.7777 36.0377 12.9663 8.9258
# 5 13.5376 5.7388 7.8054 12.9663 50.2591 1.0732
# 6 2.7595 -4.4336 -6.3582 8.9258 1.0732 34.8096
#
#
#
# Elastic Compliance Matrix: (Units=1/GPa)
#
#
# Indices 1 2 3 4 5 6 
#
# 1 0.013276 -0.001530 -0.001401 -0.002060 -0.002633 -0.000894
# 2 -0.001530 0.012431 -0.001136 0.002650 -0.001533 0.000865
# 3 -0.001401 -0.001136 0.011158 -0.004091 -0.000235 0.003061
# 4 -0.002060 0.002650 -0.004091 0.035047 -0.007962 -0.008988
# 5 -0.002633 -0.001533 -0.000235 -0.007962 0.022844 0.001308
# 6 -0.000894 0.000865 0.003061 -0.008988 0.001308 0.031732
#
#
# Mechanical properties :
#
#
# Convention : Reuss Voigt Hill
#
# Bulk Modulus (GPa) = 34.80629 37.32668 36.06648
# Shear Modulus (GPa) = 34.67430 39.59852 37.13641
#
# Velocity S-wave (km/s) = 3.94544 4.21630 4.08312
# Velocity P-wave (km/s) = 6.03168 6.36083 6.19844
#
# Compressibility (1/GPa) = 0.02873044
#
# Stress axis : x y z
#
# Youngs Moduli (GPa) = 75.32361 80.44407 89.62451
#
# Poissons Ratio (x) = 0.12305 0.12559
# Poissons Ratio (y) = 0.11522 0.10183
# Poissons Ratio (z) = 0.10555 0.09140
#
# Static dielectric constant tensor:
#      x y z
#    x 1.820910 0.011420 -0.009110 
#    y 0.011420 1.797870 0.019120 
#    z -0.009110 0.019120 1.794540 
# 
# From -- ./inp_files/621150.got.cif
#   From: 2010.05.17/outbox.cif.g08.bks.cpg/sg2_311_cif.got.tgz:621150.got - 2010.06.03 11:33:40.
