data_PCOD9068853
_publ_section_title
;
Structure prediction by ZEFSAII (Michael W. Deem and Ramdas Pophale) SiO2 
 PCOD9068853
Probable space group: P -1
;
_chemical_formula_sum "Si O2"
_cell_formula_units_Z 14
_cell_length_a 9.520718
_cell_length_b 14.009098
_cell_length_c 9.065621
_cell_angle_alpha 107.182241
_cell_angle_beta 33.731900
_cell_angle_gamma 118.818206
_cell_volume 574.301327
_symmetry_space_group_name_H-M "P -1"
_symmetry_group_IT_number 2
_symmetry_cell_setting 'triclinic'
loop_
_space_group_symop_operation_xyz
x,y,z
-x,-y,-z
loop_
_atom_site_type_symbol
_atom_site_label
_atom_site_fract_x
_atom_site_fract_y
_atom_site_fract_z
Si Si1 0.781423 0.122545 0.569729
Si Si2 0.102673 0.998890 0.076993
Si Si3 0.570668 0.492600 0.102633
Si Si4 0.967698 0.787040 0.291017
Si Si5 0.680754 0.309993 0.218313
Si Si6 0.899090 0.509737 0.329324
Si Si7 0.910861 0.304221 0.297832
O O1 0.926465 0.045514 0.353580
O O2 0.865219 0.156784 0.680692
O O3 0.909765 0.228827 0.396455
O O4 0.442799 0.070150 0.822814
O O5 0.041464 0.878695 0.139530
O O6 0.000000 0.000000 0.000000
O O7 0.293502 0.439247 0.416641
O O8 0.500000 0.500000 0.000000
O O9 0.764805 0.430611 0.932410
O O10 0.784192 0.622418 0.013823
O O11 0.635014 0.742576 0.585718
O O12 0.080746 0.699456 0.095169
O O13 0.771277 0.434493 0.261404
O O14 0.690987 0.245560 0.332524
O O15 0.848027 0.407920 0.446773
#
# Coordination Sequence:
#
# PCOD9068853 Si02
#       7
#     2   2   2   2   2   2   2
#     4  12  24  37  53  80 106 135 175 224 262 308
#     4  12  25  38  56  74 104 142 179 217 266 307
#     4   9  16  29  51  84 108 129 165 217 260 296
#     4  12  21  37  54  76 104 138 178 224 261 301
#     4   9  19  35  55  73 102 138 177 211 255 315
#     4   8  18  29  53  75 107 132 173 209 253 306
#     4   8  21  32  56  74 109 134 176 209 261 307
#
# _framework density 24.377447
#
# number of rings (size 3 to 8) (size 9 to 14) (size 15 to 20)
#    1.714    0.000    0.000    6.857    2.000    0.000 
#    0.000    0.000    0.000    0.000    0.000   14.000 
#    0.000    0.000    0.000    0.000    0.000    0.000 
#
# Total GULP energy -78188.890440 kJ/mol
# GULP energy per Si atom -5584.920746 kJ/mol
# Density = 2.432196 g / cm^3
# Si number density = 24.377447 Si / 1000 Ang^3
#
#
#
# Elastic Constant Matrix: (Units=GPa)
#
#
# Indices 1 2 3 4 5 6 
#
# 1 157.4548 36.9742 76.4986 -1.8371 -20.3187 19.2100
# 2 36.9742 38.2976 30.0379 4.7291 -5.1383 6.0375
# 3 76.4986 30.0379 188.6560 4.1671 -23.5528 23.7399
# 4 -1.8371 4.7291 4.1671 43.1864 1.7868 7.1889
# 5 -20.3187 -5.1383 -23.5528 1.7868 42.7941 -8.2399
# 6 19.2100 6.0375 23.7399 7.1889 -8.2399 52.4123
#
#
#
# Elastic Compliance Matrix: (Units=1/GPa)
#
#
# Indices 1 2 3 4 5 6 
#
# 1 0.009646 -0.007140 -0.002359 0.001591 0.002062 -0.001539
# 2 -0.007140 0.035565 -0.002765 -0.003955 -0.000429 0.000247
# 3 -0.002359 -0.002765 0.007190 -0.000301 0.002193 -0.001688
# 4 0.001591 -0.003955 -0.000301 0.024347 -0.001591 -0.003581
# 5 0.002062 -0.000429 0.002193 -0.001591 0.026073 0.002618
# 6 -0.001539 0.000247 -0.001688 -0.003581 0.002618 0.021282
#
#
# Mechanical properties :
#
#
# Convention : Reuss Voigt Hill
#
# Bulk Modulus (GPa) = 35.87546 74.60332 55.23939
# Shear Modulus (GPa) = 31.66149 43.73839 37.69994
#
# Velocity S-wave (km/s) = 3.60780 4.24041 3.93683
# Velocity P-wave (km/s) = 5.66600 7.39220 6.58590
#
# Compressibility (1/GPa) = 0.02787421
#
# Stress axis : x y z
#
# Youngs Moduli (GPa) = 103.67079 28.11770 139.08041
#
# Poissons Ratio (x) = 0.20076 0.32804
# Poissons Ratio (y) = 0.74020 0.38453
# Poissons Ratio (z) = 0.24452 0.07774
#
# Static dielectric constant tensor:
#      x y z
#    x 1.982400 -0.050470 0.012420 
#    y -0.050470 1.990990 -0.025090 
#    z 0.012420 -0.025090 2.007860 
# 
# From -- ./inp_files/217960.got.cif
#   From: 2010.05.17/outbox.cif.g08.bks.cpg/sg2_109_cif.got.tgz:217960.got - 2010.06.03 11:33:40.
