data_PCOD9068894
_publ_section_title
;
Structure prediction by ZEFSAII (Michael W. Deem and Ramdas Pophale) SiO2 
 PCOD9068894
Probable space group: P -1
;
_chemical_formula_sum "Si O2"
_cell_formula_units_Z 16
_cell_length_a 28.588964
_cell_length_b 18.874752
_cell_length_c 6.727224
_cell_angle_alpha 45.074941
_cell_angle_beta 136.658650
_cell_angle_gamma 161.234931
_cell_volume 798.940360
_symmetry_space_group_name_H-M "P -1"
_symmetry_group_IT_number 2
_symmetry_cell_setting 'triclinic'
loop_
_space_group_symop_operation_xyz
x,y,z
-x,-y,-z
loop_
_atom_site_type_symbol
_atom_site_label
_atom_site_fract_x
_atom_site_fract_y
_atom_site_fract_z
Si Si1 0.669041 0.486300 0.333416
Si Si2 0.937404 0.692952 0.755590
Si Si3 0.222064 0.194971 0.699914
Si Si4 0.320120 0.983821 0.321031
Si Si5 0.912932 0.472330 0.407584
Si Si6 0.599597 0.537961 0.653474
Si Si7 0.106200 0.805184 0.695562
Si Si8 0.681214 0.860417 0.651142
O O1 0.779374 0.538784 0.531220
O O2 0.743161 0.650926 0.410059
O O3 0.498552 0.228852 0.361283
O O4 0.659135 0.547260 0.993764
O O5 0.010561 0.740981 0.688578
O O6 0.918159 0.580656 0.081920
O O7 0.055498 0.931655 0.723977
O O8 0.271053 0.255948 0.501617
O O9 0.325065 0.251769 0.028427
O O10 0.254340 0.789223 0.554772
O O11 0.274480 0.998737 0.330078
O O12 0.229605 0.904252 0.005516
O O13 0.000000 0.500000 0.500000
O O14 0.995851 0.596405 0.628611
O O15 0.500000 0.500000 0.500000
O O16 0.479334 0.321781 0.574458
O O17 0.200835 0.992397 0.455429
#
# Coordination Sequence:
#
# PCOD9068894 Si02
#       8
#     2   2   2   2   2   2   2   2
#     4  12  28  44  66 101 144 181 221 272 343 403
#     4  12  28  45  65 104 140 179 223 276 339 402
#     4  12  23  43  68  96 140 184 224 273 330 403
#     4  12  24  44  72 103 130 176 230 281 333 397
#     4  12  24  45  76 101 129 174 229 284 335 393
#     4  12  23  38  69 101 133 179 227 276 331 394
#     4  12  22  43  75  99 134 172 230 282 330 397
#     4  12  21  40  70 102 133 171 231 283 325 387
#
# _framework density 20.026526
#
# number of rings (size 3 to 8) (size 9 to 14) (size 15 to 20)
#    0.000    0.000    8.750    2.625    0.000    2.000 
#    0.000    0.625    0.000    0.000    0.000    0.000 
#    0.000    0.000    0.000    0.000    0.000    0.000 
#
# Total GULP energy -89465.357065 kJ/mol
# GULP energy per Si atom -5591.584817 kJ/mol
# Density = 1.998095 g / cm^3
# Si number density = 20.026526 Si / 1000 Ang^3
#
#
#
# Elastic Constant Matrix: (Units=GPa)
#
#
# Indices 1 2 3 4 5 6 
#
# 1 74.8446 67.9495 48.8567 6.4986 -5.7532 8.8008
# 2 67.9495 138.9134 65.0268 -16.7565 3.3463 3.4388
# 3 48.8567 65.0268 113.0397 -4.6934 -6.4581 20.9192
# 4 6.4986 -16.7565 -4.6934 38.0542 3.9818 -6.3301
# 5 -5.7532 3.3463 -6.4581 3.9818 30.1589 6.8918
# 6 8.8008 3.4388 20.9192 -6.3301 6.8918 36.8859
#
#
#
# Elastic Compliance Matrix: (Units=1/GPa)
#
#
# Indices 1 2 3 4 5 6 
#
# 1 0.035519 -0.018155 -0.002953 -0.017521 0.012875 -0.010520
# 2 -0.018155 0.020632 -0.005993 0.014356 -0.011304 0.010383
# 3 -0.002953 -0.005993 0.015466 -0.002326 0.005774 -0.008986
# 4 -0.017521 0.014356 -0.002326 0.038960 -0.013638 0.013396
# 5 0.012875 -0.011304 0.005774 -0.013638 0.043507 -0.015762
# 6 -0.010520 0.010383 -0.008986 0.013396 -0.015762 0.038993
#
#
# Mechanical properties :
#
#
# Convention : Reuss Voigt Hill
#
# Bulk Modulus (GPa) = 57.42013 76.71818 67.06916
# Shear Modulus (GPa) = 19.75620 30.68411 25.22015
#
# Velocity S-wave (km/s) = 3.14427 3.91854 3.55256
# Velocity P-wave (km/s) = 6.47427 7.67234 7.09863
#
# Compressibility (1/GPa) = 0.01741549
#
# Stress axis : x y z
#
# Youngs Moduli (GPa) = 28.15364 48.46923 64.65610
#
# Poissons Ratio (x) = 0.87997 0.19092
# Poissons Ratio (y) = 0.51114 0.38747
# Poissons Ratio (z) = 0.08314 0.29047
#
# Static dielectric constant tensor:
#      x y z
#    x 1.709680 -0.029210 -0.019830 
#    y -0.029210 1.764710 -0.012360 
#    z -0.019830 -0.012360 1.685700 
# 
# From -- ./inp_files/97553.got.cif
#   From: 2010.05.17/outbox.cif.g08.bks.cpg/sg2_49_cif.got.tgz:97553.got - 2010.06.03 11:33:40.
