data_PCOD9068356
_publ_section_title
;
Structure prediction by ZEFSAII (Michael W. Deem and Ramdas Pophale) SiO2 
 PCOD9068356
Probable space group: P -1
;
_chemical_formula_sum "Si O2"
_cell_formula_units_Z 13
_cell_length_a 10.744747
_cell_length_b 12.611173
_cell_length_c 9.506029
_cell_angle_alpha 58.092219
_cell_angle_beta 44.288454
_cell_angle_gamma 35.335434
_cell_volume 515.285863
_symmetry_space_group_name_H-M "P -1"
_symmetry_group_IT_number 2
_symmetry_cell_setting 'triclinic'
loop_
_space_group_symop_operation_xyz
x,y,z
-x,-y,-z
loop_
_atom_site_type_symbol
_atom_site_label
_atom_site_fract_x
_atom_site_fract_y
_atom_site_fract_z
Si Si1 0.673080 0.406696 0.787847
Si Si2 0.632441 0.213602 0.737719
Si Si3 0.183618 0.410122 0.549178
Si Si4 0.500000 0.000000 0.500000
Si Si5 0.943452 0.885756 0.097382
Si Si6 0.870783 0.665092 0.885707
Si Si7 0.888569 0.203579 0.290454
O O1 0.579931 0.348424 0.798892
O O2 0.650224 0.549980 0.630278
O O3 0.962295 0.231743 0.749519
O O4 0.500000 0.500000 0.000000
O O5 0.643998 0.275628 0.531986
O O6 0.913354 0.014944 0.696957
O O7 0.435458 0.199533 0.927193
O O8 0.364462 0.193949 0.558744
O O9 0.000000 0.500000 0.500000
O O10 0.970077 0.555677 0.737403
O O11 0.368695 0.976091 0.742457
O O12 0.081807 0.778935 0.912598
O O13 0.000000 0.000000 0.000000
O O14 0.990643 0.739730 0.763698
O O15 0.000000 0.500000 0.000000
#
# Coordination Sequence:
#
# PCOD9068356 Si02
#       7
#     2   2   2   1   2   2   2
#     4  12  25  47  78 111 153 201 256 321 381 455
#     4  11  26  50  78 106 156 201 251 320 382 453
#     4  12  26  50  77 112 155 196 259 316 383 459
#     4  12  28  48  78 114 152 198 248 326 382 448
#     4  12  26  47  78 116 152 198 260 311 383 455
#     4  12  28  49  74 110 150 200 252 313 384 456
#     4  11  26  49  76 113 150 205 254 312 384 460
#
# _framework density 25.228714
#
# number of rings (size 3 to 8) (size 9 to 14) (size 15 to 20)
#    0.000    0.308    4.615    3.231    4.308    4.308 
#    2.769    0.000    0.000    0.000    0.000    0.000 
#    0.000    0.000    0.000    0.000    0.000    0.000 
#
# Total GULP energy -72403.448204 kJ/mol
# GULP energy per Si atom -5569.496016 kJ/mol
# Density = 2.517129 g / cm^3
# Si number density = 25.228714 Si / 1000 Ang^3
#
#
#
# Elastic Constant Matrix: (Units=GPa)
#
#
# Indices 1 2 3 4 5 6 
#
# 1 70.1401 22.1860 54.3293 -0.3081 27.4902 27.5490
# 2 22.1860 98.6722 14.8487 -6.7122 -0.3433 44.1734
# 3 54.3293 14.8487 189.3283 6.8342 8.9861 24.9064
# 4 -0.3081 -6.7122 6.8342 43.7061 12.9026 -4.5197
# 5 27.4902 -0.3433 8.9861 12.9026 47.6197 -6.6056
# 6 27.5490 44.1734 24.9064 -4.5197 -6.6056 42.6774
#
#
#
# Elastic Compliance Matrix: (Units=1/GPa)
#
#
# Indices 1 2 3 4 5 6 
#
# 1 0.043760 0.007851 -0.007243 0.008076 -0.031033 -0.036095
# 2 0.007851 0.021082 0.000104 0.003070 -0.009121 -0.028036
# 3 -0.007243 0.000104 0.007170 -0.002117 0.003500 0.000701
# 4 0.008076 0.003070 -0.002117 0.026741 -0.012351 -0.006235
# 5 -0.031033 -0.009121 0.003500 -0.012351 0.046150 0.033266
# 6 -0.036095 -0.028036 0.000701 -0.006235 0.033266 0.079830
#
#
# Mechanical properties :
#
#
# Convention : Reuss Voigt Hill
#
# Bulk Modulus (GPa) = 13.61734 60.09651 36.85692
# Shear Modulus (GPa) = 20.17860 44.58575 32.38217
#
# Velocity S-wave (km/s) = 2.83119 4.20844 3.58655
# Velocity P-wave (km/s) = 4.01208 6.89108 5.63843
#
# Compressibility (1/GPa) = 0.07343577
#
# Stress axis : x y z
#
# Youngs Moduli (GPa) = 22.85207 47.43385 139.46509
#
# Poissons Ratio (x) = -0.37241 1.01017
# Poissons Ratio (y) = -0.17942 -0.01449
# Poissons Ratio (z) = 0.16552 -0.00493
#
# Static dielectric constant tensor:
#      x y z
#    x 2.008450 -0.055330 -0.154020 
#    y -0.055330 1.846930 0.094100 
#    z -0.154020 0.094100 2.040730 
# 
# From -- ./inp_files/237806.got.cif
#   From: 2010.05.17/outbox.cif.g08.bks.cpg/sg2_119_cif.got.tgz:237806.got - 2010.06.03 11:33:40.
