data_PCOD9068186
_publ_section_title
;
Structure prediction by ZEFSAII (Michael W. Deem and Ramdas Pophale) SiO2 
 PCOD9068186
Probable space group: P -1
;
_chemical_formula_sum "Si O2"
_cell_formula_units_Z 16
_cell_length_a 9.271940
_cell_length_b 12.818080
_cell_length_c 17.448106
_cell_angle_alpha 47.217454
_cell_angle_beta 122.665127
_cell_angle_gamma 150.441606
_cell_volume 743.280947
_symmetry_space_group_name_H-M "P -1"
_symmetry_group_IT_number 2
_symmetry_cell_setting 'triclinic'
loop_
_space_group_symop_operation_xyz
x,y,z
-x,-y,-z
loop_
_atom_site_type_symbol
_atom_site_label
_atom_site_fract_x
_atom_site_fract_y
_atom_site_fract_z
Si Si1 0.245561 0.736371 0.898977
Si Si2 0.749580 0.446174 0.468598
Si Si3 0.888266 0.992352 0.550779
Si Si4 0.233312 0.596900 0.796055
Si Si5 0.202119 0.504740 0.371138
Si Si6 0.800833 0.956996 0.247119
Si Si7 0.925196 0.076675 0.749468
Si Si8 0.079301 0.889942 0.090966
O O1 0.197011 0.652890 0.838954
O O2 0.221159 0.889317 0.826327
O O3 0.578211 0.912011 0.927683
O O4 0.000000 0.500000 0.000000
O O5 0.657674 0.364758 0.571388
O O6 0.000000 0.500000 0.500000
O O7 0.897571 0.697368 0.367603
O O8 0.464013 0.234766 0.439970
O O9 0.030336 0.243553 0.465912
O O10 0.999042 0.972951 0.662706
O O11 0.000000 0.000000 0.500000
O O12 0.024053 0.531599 0.706730
O O13 0.126956 0.361853 0.886328
O O14 0.576564 0.839203 0.751523
O O15 0.470498 0.673407 0.304898
O O16 0.940811 0.989231 0.193605
O O17 0.962372 0.157749 0.805763
O O18 0.000000 0.000000 0.000000
#
# Coordination Sequence:
#
# PCOD9068186 Si02
#       8
#     2   2   2   2   2   2   2   2
#     4  11  28  49  75 106 138 181 237 298 358 424
#     4  12  26  41  68 102 146 188 244 281 338 424
#     4  12  24  41  68  98 141 190 228 284 345 403
#     4  11  26  48  73 101 144 187 231 293 355 418
#     4  12  24  45  67 102 143 191 235 282 347 413
#     4  12  25  46  68 107 147 183 239 294 351 424
#     4  11  27  44  69 109 141 185 239 291 351 422
#     4  11  27  49  76 101 139 185 235 297 358 423
#
# _framework density 21.52618
#
# number of rings (size 3 to 8) (size 9 to 14) (size 15 to 20)
#    0.000    0.500    3.750    3.375    8.750    3.500 
#    0.000    0.000    0.000    0.000    0.000    0.000 
#    0.000    0.000    0.000    0.000    0.000    0.000 
#
# Total GULP energy -89568.954225 kJ/mol
# GULP energy per Si atom -5598.059639 kJ/mol
# Density = 2.147719 g / cm^3
# Si number density = 21.526180 Si / 1000 Ang^3
#
#
#
# Elastic Constant Matrix: (Units=GPa)
#
#
# Indices 1 2 3 4 5 6 
#
# 1 135.8511 43.8045 33.2522 -15.9276 15.9140 12.9453
# 2 43.8045 116.0903 32.2078 -17.3933 13.2673 19.6773
# 3 33.2522 32.2078 79.4109 -19.5303 19.2060 13.1975
# 4 -15.9276 -17.3933 -19.5303 22.8136 1.4831 2.1573
# 5 15.9140 13.2673 19.2060 1.4831 48.3228 -2.5808
# 6 12.9453 19.6773 13.1975 2.1573 -2.5808 37.2974
#
#
#
# Elastic Compliance Matrix: (Units=1/GPa)
#
#
# Indices 1 2 3 4 5 6 
#
# 1 0.009242 -0.001864 -0.001057 0.004496 -0.002371 -0.002275
# 2 -0.001864 0.012110 -0.000162 0.008611 -0.003253 -0.006408
# 3 -0.001057 -0.000162 0.021458 0.018945 -0.009191 -0.008872
# 4 0.004496 0.008611 0.018945 0.072405 -0.014558 -0.018002
# 5 -0.002371 -0.003253 -0.009191 -0.014558 0.026922 0.008497
# 6 -0.002275 -0.006408 -0.008872 -0.018002 0.008497 0.035750
#
#
# Mechanical properties :
#
#
# Convention : Reuss Voigt Hill
#
# Bulk Modulus (GPa) = 27.28862 61.09790 44.19326
# Shear Modulus (GPa) = 25.47547 36.49261 30.98404
#
# Velocity S-wave (km/s) = 3.44388 4.12183 3.79801
# Velocity P-wave (km/s) = 5.34025 7.14824 6.30934
#
# Compressibility (1/GPa) = 0.03664531
#
# Stress axis : x y z
#
# Youngs Moduli (GPa) = 108.19694 82.57458 46.60353
#
# Poissons Ratio (x) = 0.15392 0.04925
# Poissons Ratio (y) = 0.20169 0.00754
# Poissons Ratio (z) = 0.11433 0.01335
#
# Static dielectric constant tensor:
#      x y z
#    x 1.804670 -0.031080 -0.010770 
#    y -0.031080 1.770490 0.008100 
#    z -0.010770 0.008100 1.796130 
# 
# From -- ./inp_files/85127.got.cif
#   From: 2010.05.17/outbox.cif.g08.bks.cpg/sg2_43_cif.got.tgz:85127.got - 2010.06.03 11:33:40.
