data_PCOD9068996
_publ_section_title
;
Structure prediction by ZEFSAII (Michael W. Deem and Ramdas Pophale) SiO2 
 PCOD9068996
Probable space group: P -1
;
_chemical_formula_sum "Si O2"
_cell_formula_units_Z 16
_cell_length_a 22.498390
_cell_length_b 5.165896
_cell_length_c 22.886414
_cell_angle_alpha 103.696491
_cell_angle_beta 19.603217
_cell_angle_gamma 111.337768
_cell_volume 781.977287
_symmetry_space_group_name_H-M "P -1"
_symmetry_group_IT_number 2
_symmetry_cell_setting 'triclinic'
loop_
_space_group_symop_operation_xyz
x,y,z
-x,-y,-z
loop_
_atom_site_type_symbol
_atom_site_label
_atom_site_fract_x
_atom_site_fract_y
_atom_site_fract_z
Si Si1 0.018153 0.145849 0.054172
Si Si2 0.433136 0.168728 0.522759
Si Si3 0.848655 0.192573 0.000425
Si Si4 0.162281 0.303066 0.613469
Si Si5 0.011559 0.843784 0.361608
Si Si6 0.569679 0.005427 0.611705
Si Si7 0.135802 0.678304 0.438107
Si Si8 0.469530 0.185939 0.985224
O O1 0.084826 0.493958 0.011705
O O2 0.152959 0.053575 0.965956
O O3 0.800912 0.991735 0.273597
O O4 0.000000 0.000000 0.000000
O O5 0.500000 0.500000 0.500000
O O6 0.505110 0.148586 0.390403
O O7 0.500000 0.000000 0.500000
O O8 0.007996 0.243867 0.805484
O O9 0.629820 0.083344 0.172319
O O10 0.286905 0.118189 0.499980
O O11 0.049372 0.216218 0.652341
O O12 0.312394 0.647526 0.490057
O O13 0.931126 0.540313 0.456344
O O14 0.910890 0.043722 0.491835
O O15 0.246793 0.016210 0.159842
O O16 0.360937 0.767413 0.216538
O O17 0.000000 0.500000 0.500000
O O18 0.500000 0.500000 0.000000
O O19 0.500000 0.000000 0.000000
#
# Coordination Sequence:
#
# PCOD9068996 Si02
#       8
#     2   2   2   2   2   2   2   2
#     4  12  23  41  66 101 135 168 223 287 345 407
#     4  12  22  38  64 100 131 165 222 281 338 406
#     4  12  24  46  69  93 134 181 221 281 342 397
#     4  12  26  47  67  96 139 183 230 270 331 412
#     4  12  26  43  68 104 136 181 230 272 327 414
#     4  12  25  46  70  95 135 182 226 280 345 394
#     4  12  23  43  72 101 142 178 218 281 345 384
#     4  12  23  41  70 103 138 178 219 276 342 393
#
# _framework density 20.460953
#
# number of rings (size 3 to 8) (size 9 to 14) (size 15 to 20)
#    0.000    0.000    5.000    6.000    0.000    2.000 
#    0.000    0.000    0.000    0.000    0.000    0.000 
#    0.000    0.000    0.000    0.000    0.000    0.000 
#
# Total GULP energy -89599.884990 kJ/mol
# GULP energy per Si atom -5599.992812 kJ/mol
# Density = 2.041438 g / cm^3
# Si number density = 20.460953 Si / 1000 Ang^3
#
#
#
# Elastic Constant Matrix: (Units=GPa)
#
#
# Indices 1 2 3 4 5 6 
#
# 1 102.8064 3.1347 8.5796 3.6409 -9.4181 -9.4402
# 2 3.1347 56.6638 0.0273 4.0355 -7.3241 -18.6138
# 3 8.5796 0.0273 157.9991 5.2214 -19.1810 -5.8125
# 4 3.6409 4.0355 5.2214 28.9111 -2.5534 -1.0519
# 5 -9.4181 -7.3241 -19.1810 -2.5534 19.8036 1.9524
# 6 -9.4402 -18.6138 -5.8125 -1.0519 1.9524 38.1099
#
#
#
# Elastic Compliance Matrix: (Units=1/GPa)
#
#
# Indices 1 2 3 4 5 6 
#
# 1 0.010446 0.001096 0.000195 -0.000944 0.005159 0.002863
# 2 0.001096 0.022512 0.001501 -0.002365 0.008914 0.010974
# 3 0.000195 0.001501 0.007308 -0.000840 0.007471 0.001490
# 4 -0.000944 -0.002365 -0.000840 0.035385 0.002491 -0.000668
# 5 0.005159 0.008914 0.007471 0.002491 0.063449 0.003589
# 6 0.002863 0.010974 0.001490 -0.000668 0.003589 0.032334
#
#
# Mechanical properties :
#
#
# Convention : Reuss Voigt Hill
#
# Bulk Modulus (GPa) = 21.80998 37.88361 29.84680
# Shear Modulus (GPa) = 27.60403 37.74678 32.67540
#
# Velocity S-wave (km/s) = 3.67701 4.29980 4.00054
# Velocity P-wave (km/s) = 5.35814 6.57315 5.99649
#
# Compressibility (1/GPa) = 0.04585056
#
# Stress axis : x y z
#
# Youngs Moduli (GPa) = 95.72885 44.42069 136.84020
#
# Poissons Ratio (x) = -0.04870 -0.02673
# Poissons Ratio (y) = -0.10496 -0.20534
# Poissons Ratio (z) = -0.01870 -0.06666
#
# Static dielectric constant tensor:
#      x y z
#    x 1.790490 -0.001700 0.034900 
#    y -0.001700 1.729740 0.035340 
#    z 0.034900 0.035340 1.777040 
# 
# From -- ./inp_files/600787.got.cif
#   From: 2010.05.17/outbox.cif.g08.bks.cpg/sg2_301_cif.got.tgz:600787.got - 2010.06.03 11:33:40.
