data_PCOD9068252
_publ_section_title
;
Structure prediction by ZEFSAII (Michael W. Deem and Ramdas Pophale) SiO2 
 PCOD9068252
Probable space group: P -1
;
_chemical_formula_sum "Si O2"
_cell_formula_units_Z 14
_cell_length_a 8.224441
_cell_length_b 18.398035
_cell_length_c 5.202696
_cell_angle_alpha 125.060094
_cell_angle_beta 108.198671
_cell_angle_gamma 58.997016
_cell_volume 552.184702
_symmetry_space_group_name_H-M "P -1"
_symmetry_group_IT_number 2
_symmetry_cell_setting 'triclinic'
loop_
_space_group_symop_operation_xyz
x,y,z
-x,-y,-z
loop_
_atom_site_type_symbol
_atom_site_label
_atom_site_fract_x
_atom_site_fract_y
_atom_site_fract_z
Si Si1 0.424658 0.565059 0.845818
Si Si2 0.428557 0.909863 0.611878
Si Si3 0.031896 0.719580 0.048395
Si Si4 0.187589 0.836197 0.706543
Si Si5 0.818719 0.894946 0.978450
Si Si6 0.506512 0.714444 0.968521
Si Si7 0.922189 0.568743 0.850047
O O1 0.500000 0.500000 0.500000
O O2 0.500000 0.500000 0.000000
O O3 0.201213 0.624954 0.820550
O O4 0.488049 0.653097 0.076295
O O5 0.319971 0.884413 0.747834
O O6 0.483489 0.820317 0.260907
O O7 0.264578 0.016889 0.673716
O O8 0.627259 0.916244 0.768500
O O9 0.105756 0.795055 0.353400
O O10 0.876591 0.787846 0.912005
O O11 0.969113 0.662810 0.113195
O O12 0.329886 0.742618 0.749813
O O13 0.001529 0.893231 0.912516
O O14 0.702383 0.633620 0.796798
O O15 0.000000 0.500000 0.500000
O O16 0.000000 0.500000 0.000000
#
# Coordination Sequence:
#
# PCOD9068252 Si02
#       7
#     2   2   2   2   2   2   2
#     4  12  25  44  72 106 147 197 254 313 386 462
#     4  11  26  48  77 112 156 208 264 328 406 483
#     4  12  26  47  75 107 157 199 261 329 396 475
#     4  12  24  46  77 114 156 203 264 329 403 474
#     4  11  26  48  77 112 156 208 264 328 406 483
#     4  12  26  47  75 107 157 199 261 329 396 475
#     4  12  30  50  79 116 161 214 272 336 406 482
#
# _framework density 25.353836999999999
#
# number of rings (size 3 to 8) (size 9 to 14) (size 15 to 20)
#    0.000    0.286    2.857    4.714    6.000    3.429 
#    0.000    3.571    0.000    0.000    0.000    0.000 
#    0.000    0.000    0.000    0.000    0.000    0.000 
#
# Total GULP energy -78155.146545 kJ/mol
# GULP energy per Si atom -5582.510468 kJ/mol
# Density = 2.529613 g / cm^3
# Si number density = 25.353837 Si / 1000 Ang^3
#
#
#
# Elastic Constant Matrix: (Units=GPa)
#
#
# Indices 1 2 3 4 5 6 
#
# 1 108.9632 42.4940 16.7362 14.3110 -7.9675 -20.3072
# 2 42.4940 151.3030 40.3316 16.6983 -32.7610 -19.2631
# 3 16.7362 40.3316 105.5920 12.6004 -26.8255 -25.3984
# 4 14.3110 16.6983 12.6004 39.4466 -6.4265 -11.4004
# 5 -7.9675 -32.7610 -26.8255 -6.4265 36.2027 22.4106
# 6 -20.3072 -19.2631 -25.3984 -11.4004 22.4106 54.3579
#
#
#
# Elastic Compliance Matrix: (Units=1/GPa)
#
#
# Indices 1 2 3 4 5 6 
#
# 1 0.011164 -0.003050 -0.000251 -0.002089 -0.003261 0.003879
# 2 -0.003050 0.009469 -0.001435 -0.001763 0.007778 -0.002031
# 3 -0.000251 -0.001435 0.012351 -0.001583 0.006073 0.002333
# 4 -0.002089 -0.001763 -0.001583 0.028432 -0.000731 0.004120
# 5 -0.003261 0.007778 0.006073 -0.000731 0.047932 -0.015539
# 6 0.003879 -0.002031 0.002333 0.004120 -0.015539 0.027487
#
#
# Mechanical properties :
#
#
# Convention : Reuss Voigt Hill
#
# Bulk Modulus (GPa) = 42.53215 62.77576 52.65396
# Shear Modulus (GPa) = 32.43690 43.75455 38.09573
#
# Velocity S-wave (km/s) = 3.58071 4.15873 3.88050
# Velocity P-wave (km/s) = 5.82298 6.91908 6.39456
#
# Compressibility (1/GPa) = 0.02351163
#
# Stress axis : x y z
#
# Youngs Moduli (GPa) = 89.57040 105.61105 80.96362
#
# Poissons Ratio (x) = 0.32216 0.02028
# Poissons Ratio (y) = 0.27323 0.11621
# Poissons Ratio (z) = 0.02244 0.15159
#
# Static dielectric constant tensor:
#      x y z
#    x 2.709260 0.147840 -0.064500 
#    y 0.147840 1.931130 0.003830 
#    z -0.064500 0.003830 2.030310 
# 
# From -- ./inp_files/53959.got.cif
#   From: 2010.05.17/outbox.cif.g08.bks.cpg/sg2_27_cif.got.tgz:53959.got - 2010.06.03 11:33:40.
