data_PCOD9068003
_publ_section_title
;
Structure prediction by ZEFSAII (Michael W. Deem and Ramdas Pophale) SiO2 
 PCOD9068003
Probable space group: P -1
;
_chemical_formula_sum "Si O2"
_cell_formula_units_Z 12
_cell_length_a 5.320616
_cell_length_b 14.874452
_cell_length_c 8.673357
_cell_angle_alpha 54.221414
_cell_angle_beta 97.130164
_cell_angle_gamma 121.117644
_cell_volume 460.823105
_symmetry_space_group_name_H-M "P -1"
_symmetry_group_IT_number 2
_symmetry_cell_setting 'triclinic'
loop_
_space_group_symop_operation_xyz
x,y,z
-x,-y,-z
loop_
_atom_site_type_symbol
_atom_site_label
_atom_site_fract_x
_atom_site_fract_y
_atom_site_fract_z
Si Si1 0.864319 0.725932 0.027345
Si Si2 0.363486 0.224362 0.555290
Si Si3 0.374623 0.585803 0.330831
Si Si4 0.843401 0.470491 0.184471
Si Si5 0.156061 0.913735 0.129778
Si Si6 0.258315 0.989548 0.607961
O O1 0.529217 0.681931 0.095175
O O2 0.814384 0.592140 0.098171
O O3 0.074373 0.846454 0.813921
O O4 0.019740 0.781094 0.149638
O O5 0.547127 0.308094 0.636000
O O6 0.513991 0.333093 0.319867
O O7 0.408167 0.108903 0.622567
O O8 0.007116 0.148489 0.653101
O O9 0.500000 0.500000 0.500000
O O10 0.944421 0.520183 0.666539
O O11 0.000000 0.500000 0.000000
O O12 0.500000 0.000000 0.000000
O O13 0.000000 0.000000 0.000000
O O14 0.500000 0.000000 0.500000
O O15 0.000000 0.000000 0.500000
#
# Coordination Sequence:
#
# PCOD9068003 Si02
#       6
#     2   2   2   2   2   2
#     4  11  27  47  76 113 158 210 273 341 400 495
#     4  11  26  50  79 118 157 220 270 338 403 501
#     4  11  26  49  81 118 159 215 278 339 410 493
#     4  12  28  49  81 118 167 216 273 344 418 493
#     4  11  26  46  79 115 155 206 270 340 403 479
#     4  12  30  51  78 116 168 221 271 338 422 499
#
# _framework density 26.040361999999998
#
# number of rings (size 3 to 8) (size 9 to 14) (size 15 to 20)
#    0.000    0.667    3.333    1.500   11.667    4.667 
#    0.000    0.000    0.000    0.000    0.000    0.000 
#    0.000    0.000    0.000    0.000    0.000    0.000 
#
# Total GULP energy -66957.259324 kJ/mol
# GULP energy per Si atom -5579.771610 kJ/mol
# Density = 2.598109 g / cm^3
# Si number density = 26.040362 Si / 1000 Ang^3
#
#
#
# Elastic Constant Matrix: (Units=GPa)
#
#
# Indices 1 2 3 4 5 6 
#
# 1 136.8742 43.3718 83.3315 4.4608 -47.9064 -2.8411
# 2 43.3718 130.7381 61.0108 -6.0963 -26.5597 -8.4354
# 3 83.3315 61.0108 224.2901 -27.1589 -68.9178 -14.7412
# 4 4.4608 -6.0963 -27.1589 57.3362 3.6455 -3.6514
# 5 -47.9064 -26.5597 -68.9178 3.6455 73.3615 4.1302
# 6 -2.8411 -8.4354 -14.7412 -3.6514 4.1302 34.7600
#
#
#
# Elastic Compliance Matrix: (Units=1/GPa)
#
#
# Indices 1 2 3 4 5 6 
#
# 1 0.011083 -0.001748 -0.002773 -0.002724 0.004218 -0.001482
# 2 -0.001748 0.009174 -0.001490 0.000453 0.000678 0.001419
# 3 -0.002773 -0.001490 0.008000 0.003706 0.004834 0.002620
# 4 -0.002724 0.000453 0.003706 0.019631 0.000698 0.003438
# 5 0.004218 0.000678 0.004834 0.000698 0.021130 0.000122
# 6 -0.001482 0.001419 0.002620 0.003438 0.000122 0.030450
#
#
# Mechanical properties :
#
#
# Convention : Reuss Voigt Hill
#
# Bulk Modulus (GPa) = 61.59487 96.37006 78.98246
# Shear Modulus (GPa) = 42.77065 53.37079 48.07072
#
# Velocity S-wave (km/s) = 4.05714 4.53210 4.30118
# Velocity P-wave (km/s) = 6.75664 8.02962 7.42048
#
# Compressibility (1/GPa) = 0.01623512
#
# Stress axis : x y z
#
# Youngs Moduli (GPa) = 90.23118 108.99875 124.99450
#
# Poissons Ratio (x) = 0.19055 0.34665
# Poissons Ratio (y) = 0.15774 0.18619
# Poissons Ratio (z) = 0.25024 0.16236
#
# Static dielectric constant tensor:
#      x y z
#    x 2.170550 0.192730 0.187730 
#    y 0.192730 2.046390 -0.053330 
#    z 0.187730 -0.053330 1.855370 
# 
# From -- ./inp_files/133939.got.cif
#   From: 2010.05.17/outbox.cif.g08.bks.cpg/sg2_67_cif.got.tgz:133939.got - 2010.06.03 11:33:40.
