data_PCOD9068450
_publ_section_title
;
Structure prediction by ZEFSAII (Michael W. Deem and Ramdas Pophale) SiO2 
 PCOD9068450
Probable space group: P -1
;
_chemical_formula_sum "Si O2"
_cell_formula_units_Z 12
_cell_length_a 13.780446
_cell_length_b 11.647294
_cell_length_c 13.560737
_cell_angle_alpha 130.069827
_cell_angle_beta 140.624863
_cell_angle_gamma 20.779062
_cell_volume 458.684079
_symmetry_space_group_name_H-M "P -1"
_symmetry_group_IT_number 2
_symmetry_cell_setting 'triclinic'
loop_
_space_group_symop_operation_xyz
x,y,z
-x,-y,-z
loop_
_atom_site_type_symbol
_atom_site_label
_atom_site_fract_x
_atom_site_fract_y
_atom_site_fract_z
Si Si1 0.170836 0.164711 0.736147
Si Si2 0.203815 0.682988 0.932185
Si Si3 0.698227 0.814846 0.797484
Si Si4 0.811964 0.827948 0.546126
Si Si5 0.442375 0.651107 0.440255
Si Si6 0.735556 0.456950 0.892251
O O1 0.830084 0.364378 0.553852
O O2 0.373540 0.076168 0.760532
O O3 0.202546 0.014188 0.454154
O O4 0.465513 0.796352 0.807353
O O5 0.378100 0.446479 0.030905
O O6 0.962175 0.780660 0.733614
O O7 0.500000 0.500000 0.000000
O O8 0.722367 0.308619 0.748875
O O9 0.010663 0.416396 0.833499
O O10 0.878290 0.813478 0.951286
O O11 0.580845 0.885060 0.630394
O O12 0.000000 0.500000 0.500000
O O13 0.500000 0.500000 0.500000
O O14 0.000000 0.000000 0.000000
#
# Coordination Sequence:
#
# PCOD9068450 Si02
#       6
#     2   2   2   2   2   2
#     4  11  26  50  79 120 165 215 279 347 424 498
#     4  12  31  52  82 119 167 225 284 353 418 509
#     4  11  28  49  81 120 163 220 274 352 419 506
#     4  11  28  53  84 118 175 218 289 336 434 496
#     4  11  26  52  88 124 169 222 285 357 428 503
#     4  12  26  49  84 119 171 217 288 346 431 503
#
# _framework density 26.161795999999999
#
# number of rings (size 3 to 8) (size 9 to 14) (size 15 to 20)
#    0.000    0.667    1.667    3.500    9.333    3.333 
#    3.000    0.000    0.000    0.000    0.000    0.000 
#    0.000    0.000    0.000    0.000    0.000    0.000 
#
# Total GULP energy -67079.313200 kJ/mol
# GULP energy per Si atom -5589.942767 kJ/mol
# Density = 2.610225 g / cm^3
# Si number density = 26.161796 Si / 1000 Ang^3
#
#
#
# Elastic Constant Matrix: (Units=GPa)
#
#
# Indices 1 2 3 4 5 6 
#
# 1 158.0832 49.3558 94.4774 -4.3515 15.2432 -15.3516
# 2 49.3558 114.2594 72.1279 33.5463 10.0380 -16.0956
# 3 94.4774 72.1279 282.5951 12.0291 2.2482 -12.2891
# 4 -4.3515 33.5463 12.0291 45.0289 -4.2174 13.7315
# 5 15.2432 10.0380 2.2482 -4.2174 45.0923 -14.3366
# 6 -15.3516 -16.0956 -12.2891 13.7315 -14.3366 51.5943
#
#
#
# Elastic Compliance Matrix: (Units=1/GPa)
#
#
# Indices 1 2 3 4 5 6 
#
# 1 0.009072 -0.003617 -0.002301 0.004197 -0.001957 -0.000638
# 2 -0.003617 0.017322 -0.002239 -0.015049 -0.001590 0.007358
# 3 -0.002301 -0.002239 0.004861 0.000245 0.001058 0.000003
# 4 0.004197 -0.015049 0.000245 0.037878 0.001294 -0.013109
# 5 -0.001957 -0.001590 0.001058 0.001294 0.025106 0.005806
# 6 -0.000638 0.007358 0.000003 -0.013109 0.005806 0.026591
#
#
# Mechanical properties :
#
#
# Convention : Reuss Voigt Hill
#
# Bulk Modulus (GPa) = 66.92322 109.65108 88.28715
# Shear Modulus (GPa) = 35.18070 50.94154 43.06112
#
# Velocity S-wave (km/s) = 3.67104 4.41747 4.06144
# Velocity P-wave (km/s) = 6.60339 8.24757 7.47085
#
# Compressibility (1/GPa) = 0.01494250
#
# Stress axis : x y z
#
# Youngs Moduli (GPa) = 110.22558 57.72979 205.73696
#
# Poissons Ratio (x) = 0.20878 0.47336
# Poissons Ratio (y) = 0.39863 0.46063
# Poissons Ratio (z) = 0.25361 0.12925
#
# Static dielectric constant tensor:
#      x y z
#    x 2.235100 0.071820 -0.043190 
#    y 0.071820 2.180260 0.016480 
#    z -0.043190 0.016480 2.071610 
# 
# From -- ./inp_files/537270.got.cif
#   From: 2010.05.17/outbox.cif.g08.bks.cpg/sg2_269_cif.got.tgz:537270.got - 2010.06.03 11:33:40.
