data_PCOD9068240
_publ_section_title
;
Structure prediction by ZEFSAII (Michael W. Deem and Ramdas Pophale) SiO2 
 PCOD9068240
Probable space group: P -1
;
_chemical_formula_sum "Si O2"
_cell_formula_units_Z 14
_cell_length_a 15.193879
_cell_length_b 4.954838
_cell_length_c 9.062844
_cell_angle_alpha 80.701826
_cell_angle_beta 75.400780
_cell_angle_gamma 53.458736
_cell_volume 530.406255
_symmetry_space_group_name_H-M "P -1"
_symmetry_group_IT_number 2
_symmetry_cell_setting 'triclinic'
loop_
_space_group_symop_operation_xyz
x,y,z
-x,-y,-z
loop_
_atom_site_type_symbol
_atom_site_label
_atom_site_fract_x
_atom_site_fract_y
_atom_site_fract_z
Si Si1 0.478181 0.317704 0.897748
Si Si2 0.355274 0.323757 0.698756
Si Si3 0.791220 0.469642 0.680934
Si Si4 0.119296 0.146726 0.502170
Si Si5 0.072934 0.034313 0.085208
Si Si6 0.858002 0.691795 0.210558
Si Si7 0.422317 0.434774 0.353429
O O1 0.365472 0.465532 0.837183
O O2 0.556925 0.296548 0.735723
O O3 0.500000 0.500000 0.000000
O O4 0.500000 0.000000 0.000000
O O5 0.243283 0.342630 0.734498
O O6 0.377658 0.478778 0.534799
O O7 0.459332 0.927809 0.681610
O O8 0.798567 0.774694 0.614359
O O9 0.669422 0.553694 0.709618
O O10 0.863276 0.172218 0.555557
O O11 0.847167 0.300513 0.827246
O O12 0.145717 0.096046 0.668851
O O13 0.000000 0.500000 0.500000
O O14 0.978970 0.335028 0.201301
O O15 0.138167 0.155864 0.959283
O O16 0.000000 0.000000 0.000000
#
# Coordination Sequence:
#
# PCOD9068240 Si02
#       7
#     2   2   2   2   2   2   2
#     4  12  27  50  77 111 154 205 259 319 381 463
#     4  11  26  52  78 112 162 206 264 319 390 471
#     4  12  28  46  79 113 153 197 257 325 378 459
#     4  12  25  48  77 111 151 198 260 317 383 454
#     4  11  27  48  75 110 158 203 260 324 395 460
#     4  11  26  48  76 113 149 210 254 323 393 460
#     4  11  27  49  79 116 156 204 261 316 390 462
#
# _framework density 26.394863000000001
#
# number of rings (size 3 to 8) (size 9 to 14) (size 15 to 20)
#    0.000    0.571    4.286    1.714    8.000    3.429 
#    0.000    0.000    0.000    0.000    0.000    0.000 
#    0.000    0.000    0.000    0.000    0.000    0.000 
#
# Total GULP energy -78581.662950 kJ/mol
# GULP energy per Si atom -5612.975925 kJ/mol
# Density = 2.633479 g / cm^3
# Si number density = 26.394863 Si / 1000 Ang^3
#
#
#
# Elastic Constant Matrix: (Units=GPa)
#
#
# Indices 1 2 3 4 5 6 
#
# 1 135.8570 39.0303 72.0456 -16.2866 -8.3215 1.6957
# 2 39.0303 103.2829 46.4214 -4.0201 -13.7339 7.1533
# 3 72.0456 46.4214 162.5021 -28.5224 5.8887 3.9207
# 4 -16.2866 -4.0201 -28.5224 47.0377 3.8925 -5.1851
# 5 -8.3215 -13.7339 5.8887 3.8925 66.3046 2.7478
# 6 1.6957 7.1533 3.9207 -5.1851 2.7478 53.8803
#
#
#
# Elastic Compliance Matrix: (Units=1/GPa)
#
#
# Indices 1 2 3 4 5 6 
#
# 1 0.010121 -0.001940 -0.003812 0.000960 0.001140 0.000251
# 2 -0.001940 0.012168 -0.003001 -0.001859 0.002721 -0.001654
# 3 -0.003812 -0.003001 0.009552 0.004440 -0.002224 0.000364
# 4 0.000960 -0.001859 0.004440 0.024569 -0.002199 0.002370
# 5 0.001140 0.002721 -0.002224 -0.002199 0.016168 -0.001272
# 6 0.000251 -0.001654 0.000364 0.002370 -0.001272 0.019038
#
#
# Mechanical properties :
#
#
# Convention : Reuss Voigt Hill
#
# Bulk Modulus (GPa) = 69.75410 79.62629 74.69020
# Shear Modulus (GPa) = 43.89804 49.72082 46.80943
#
# Velocity S-wave (km/s) = 4.08257 4.34491 4.21578
# Velocity P-wave (km/s) = 6.97909 7.44337 7.21497
#
# Compressibility (1/GPa) = 0.01433607
#
# Stress axis : x y z
#
# Youngs Moduli (GPa) = 98.80117 82.18256 104.68799
#
# Poissons Ratio (x) = 0.15942 0.39906
# Poissons Ratio (y) = 0.19166 0.31416
# Poissons Ratio (z) = 0.37662 0.24662
#
# Static dielectric constant tensor:
#      x y z
#    x 2.035080 -0.054780 -0.005240 
#    y -0.054780 2.125590 0.068040 
#    z -0.005240 0.068040 2.085800 
# 
# From -- ./inp_files/287103.got.cif
#   From: 2010.05.17/outbox.cif.g08.bks.cpg/sg2_144_cif.got.tgz:287103.got - 2010.06.03 11:33:40.
