data_PCOD9068618
_publ_section_title
;
Structure prediction by ZEFSAII (Michael W. Deem and Ramdas Pophale) SiO2 
 PCOD9068618
Probable space group: P -1
;
_chemical_formula_sum "Si O2"
_cell_formula_units_Z 12
_cell_length_a 16.231479
_cell_length_b 14.416917
_cell_length_c 6.828835
_cell_angle_alpha 65.266119
_cell_angle_beta 64.435540
_cell_angle_gamma 16.941451
_cell_volume 419.966187
_symmetry_space_group_name_H-M "P -1"
_symmetry_group_IT_number 2
_symmetry_cell_setting 'triclinic'
loop_
_space_group_symop_operation_xyz
x,y,z
-x,-y,-z
loop_
_atom_site_type_symbol
_atom_site_label
_atom_site_fract_x
_atom_site_fract_y
_atom_site_fract_z
Si Si1 0.746715 0.815922 0.358009
Si Si2 0.033962 0.623910 0.906483
Si Si3 0.686279 0.216686 0.750866
Si Si4 0.159055 0.640268 0.026846
Si Si5 0.887711 0.217675 0.638690
Si Si6 0.553058 0.148685 0.593904
O O1 0.000000 0.500000 0.500000
O O2 0.857583 0.724018 0.110675
O O3 0.500000 0.000000 0.500000
O O4 0.660546 0.013171 0.384756
O O5 0.235941 0.445752 0.064111
O O6 0.319330 0.314357 0.754391
O O7 0.906531 0.900166 0.892689
O O8 0.752778 0.248519 0.777619
O O9 0.384207 0.486951 0.861920
O O10 0.821468 0.101055 0.503711
O O11 0.059030 0.781606 0.214140
O O12 0.806159 0.891048 0.717614
O O13 0.648398 0.536538 0.489989
#
# Coordination Sequence:
#
# PCOD9068618 Si02
#       6
#     2   2   2   2   2   2
#     4  12  30  54  83 114 148 193 250 312 388 466
#     4  12  29  49  78 116 154 195 252 314 377 460
#     4  11  27  49  71 114 156 203 269 310 363 433
#     4  12  27  47  75 110 155 207 259 312 370 436
#     4  11  28  47  81 106 158 209 258 310 372 440
#     4  12  29  49  80 114 155 200 247 313 385 445
#
# _framework density 28.573729
#
# number of rings (size 3 to 8) (size 9 to 14) (size 15 to 20)
#    0.000    0.333    1.667    4.000    9.333    9.333 
#    0.000    0.000    0.000    0.000    0.000    0.000 
#    0.000    0.000    0.000    0.000    0.000    0.000 
#
# Total GULP energy -67081.769598 kJ/mol
# GULP energy per Si atom -5590.147466 kJ/mol
# Density = 2.850869 g / cm^3
# Si number density = 28.573729 Si / 1000 Ang^3
#
#
#
# Elastic Constant Matrix: (Units=GPa)
#
#
# Indices 1 2 3 4 5 6 
#
# 1 156.4858 24.5242 50.2205 23.2099 -8.1326 -27.4471
# 2 24.5242 65.6278 21.0133 27.2354 -4.1715 -33.1835
# 3 50.2205 21.0133 149.2692 21.9535 -2.8601 -12.0993
# 4 23.2099 27.2354 21.9535 56.9475 4.4003 -20.3834
# 5 -8.1326 -4.1715 -2.8601 4.4003 70.1634 10.0988
# 6 -27.4471 -33.1835 -12.0993 -20.3834 10.0988 79.3974
#
#
#
# Elastic Compliance Matrix: (Units=1/GPa)
#
#
# Indices 1 2 3 4 5 6 
#
# 1 0.007719 -0.000767 -0.002138 -0.001440 0.000626 0.001572
# 2 -0.000767 0.022640 -0.001234 -0.007596 0.000680 0.006972
# 3 -0.002138 -0.001234 0.007810 -0.001757 0.000185 -0.000539
# 4 -0.001440 -0.007596 -0.001757 0.023516 -0.002513 0.002416
# 5 0.000626 0.000680 0.000185 -0.002513 0.014819 -0.002001
# 6 0.001572 0.006972 -0.000539 0.002416 -0.002001 0.016845
#
#
# Mechanical properties :
#
#
# Convention : Reuss Voigt Hill
#
# Bulk Modulus (GPa) = 33.45331 62.54430 47.99880
# Shear Modulus (GPa) = 44.80657 59.67667 52.24162
#
# Velocity S-wave (km/s) = 3.96422 4.57499 4.28051
# Velocity P-wave (km/s) = 5.71722 7.06000 6.42379
#
# Compressibility (1/GPa) = 0.02989241
#
# Stress axis : x y z
#
# Youngs Moduli (GPa) = 129.55778 44.16887 128.03450
#
# Poissons Ratio (x) = 0.03389 0.27368
# Poissons Ratio (y) = 0.09941 0.15795
# Poissons Ratio (z) = 0.27694 0.05449
#
# Static dielectric constant tensor:
#      x y z
#    x 2.746060 0.547910 -0.252910 
#    y 0.547910 2.898030 -0.323420 
#    z -0.252910 -0.323420 2.316150 
# 
# From -- ./inp_files/334172.got.cif
#   From: 2010.05.17/outbox.cif.g08.bks.cpg/sg2_168_cif.got.tgz:334172.got - 2010.06.03 11:33:40.
