data_PCOD9068479
_publ_section_title
;
Structure prediction by ZEFSAII (Michael W. Deem and Ramdas Pophale) SiO2 
 PCOD9068479
Probable space group: P -1
;
_chemical_formula_sum "Si O2"
_cell_formula_units_Z 13
_cell_length_a 9.258610
_cell_length_b 11.954667
_cell_length_c 14.949011
_cell_angle_alpha 151.292528
_cell_angle_beta 103.288650
_cell_angle_gamma 95.841558
_cell_volume 588.478452
_symmetry_space_group_name_H-M "P -1"
_symmetry_group_IT_number 2
_symmetry_cell_setting 'triclinic'
loop_
_space_group_symop_operation_xyz
x,y,z
-x,-y,-z
loop_
_atom_site_type_symbol
_atom_site_label
_atom_site_fract_x
_atom_site_fract_y
_atom_site_fract_z
Si Si1 0.200422 0.633495 0.895552
Si Si2 0.076648 0.775621 0.269308
Si Si3 0.053404 0.815778 0.762354
Si Si4 0.718131 0.795692 0.765441
Si Si5 0.534590 0.795995 0.175608
Si Si6 0.949255 0.106557 0.380175
Si Si7 0.500000 0.000000 0.500000
O O1 0.032933 0.385259 0.766503
O O2 0.129751 0.463747 0.671389
O O3 0.394071 0.710097 0.012678
O O4 0.223793 0.932271 0.100685
O O5 0.307033 0.978260 0.454231
O O6 0.003996 0.939640 0.330161
O O7 0.000000 0.500000 0.000000
O O8 0.083576 0.985082 0.792218
O O9 0.000000 0.500000 0.500000
O O10 0.863455 0.727932 0.722740
O O11 0.233020 0.054674 0.022938
O O12 0.500000 0.500000 0.500000
O O13 0.753625 0.026154 0.332290
O O14 0.480139 0.919426 0.333063
O O15 0.500000 0.500000 0.000000
#
# Coordination Sequence:
#
# PCOD9068479 Si02
#       7
#     2   2   2   2   2   2   1
#     4  12  24  44  73 104 150 192 245 311 369 442
#     4  12  23  43  69 109 151 190 241 304 374 444
#     4  11  26  51  77 107 145 199 253 311 376 442
#     4  11  28  51  77 108 147 195 258 315 373 440
#     4  12  25  43  67 109 145 193 240 291 369 448
#     4  12  25  46  74 105 156 193 244 309 373 444
#     4  12  24  40  70 100 150 192 240 280 362 450
#
# _framework density 22.090865999999998
#
# number of rings (size 3 to 8) (size 9 to 14) (size 15 to 20)
#    0.000    0.308    6.154    2.308    2.154    1.846 
#    5.538    0.000    0.000    0.000    0.000    0.000 
#    0.000    0.000    0.000    0.000    0.000    0.000 
#
# Total GULP energy -72413.324336 kJ/mol
# GULP energy per Si atom -5570.255718 kJ/mol
# Density = 2.204059 g / cm^3
# Si number density = 22.090866 Si / 1000 Ang^3
#
#
#
# Elastic Constant Matrix: (Units=GPa)
#
#
# Indices 1 2 3 4 5 6 
#
# 1 117.2000 32.0195 60.7313 -7.8217 15.6205 -17.9858
# 2 32.0195 112.9894 50.5795 -21.4091 5.9172 -8.7382
# 3 60.7313 50.5795 132.8881 -32.2786 4.0160 -6.4408
# 4 -7.8217 -21.4091 -32.2786 38.6991 -13.5807 -0.5365
# 5 15.6205 5.9172 4.0160 -13.5807 45.0151 -7.7221
# 6 -17.9858 -8.7382 -6.4408 -0.5365 -7.7221 24.8560
#
#
#
# Elastic Compliance Matrix: (Units=1/GPa)
#
#
# Indices 1 2 3 4 5 6 
#
# 1 0.013347 -0.001105 -0.006378 -0.004640 -0.004254 0.006195
# 2 -0.001105 0.011327 -0.002687 0.004148 0.000874 0.002847
# 3 -0.006378 -0.002687 0.013804 0.010263 0.004361 -0.000406
# 4 -0.004640 0.004148 0.010263 0.040530 0.013370 0.005788
# 5 -0.004254 0.000874 0.004361 0.013370 0.028508 0.007504
# 6 0.006195 0.002847 -0.000406 0.005788 0.007504 0.048067
#
#
# Mechanical properties :
#
#
# Convention : Reuss Voigt Hill
#
# Bulk Modulus (GPa) = 55.13054 72.19312 63.66183
# Shear Modulus (GPa) = 27.47751 36.36384 31.92067
#
# Velocity S-wave (km/s) = 3.53064 4.06162 3.80540
# Velocity P-wave (km/s) = 6.45221 7.39910 6.94182
#
# Compressibility (1/GPa) = 0.01813877
#
# Stress axis : x y z
#
# Youngs Moduli (GPa) = 74.92291 88.28691 72.44317
#
# Poissons Ratio (x) = 0.09754 0.46201
# Poissons Ratio (y) = 0.08277 0.19467
# Poissons Ratio (z) = 0.47782 0.23724
#
# Static dielectric constant tensor:
#      x y z
#    x 1.720200 0.047280 0.015120 
#    y 0.047280 1.866520 -0.041620 
#    z 0.015120 -0.041620 1.858800 
# 
# From -- ./inp_files/497227.got.cif
#   From: 2010.05.17/outbox.cif.g08.bks.cpg/sg2_249_cif.got.tgz:497227.got - 2010.06.03 11:33:40.
