data_PCOD9068518
_publ_section_title
;
Structure prediction by ZEFSAII (Michael W. Deem and Ramdas Pophale) SiO2 
 PCOD9068518
Probable space group: P -1
;
_chemical_formula_sum "Si O2"
_cell_formula_units_Z 10
_cell_length_a 14.776767
_cell_length_b 11.545540
_cell_length_c 5.034865
_cell_angle_alpha 114.603305
_cell_angle_beta 56.092195
_cell_angle_gamma 148.833743
_cell_volume 365.199432
_symmetry_space_group_name_H-M "P -1"
_symmetry_group_IT_number 2
_symmetry_cell_setting 'triclinic'
loop_
_space_group_symop_operation_xyz
x,y,z
-x,-y,-z
loop_
_atom_site_type_symbol
_atom_site_label
_atom_site_fract_x
_atom_site_fract_y
_atom_site_fract_z
Si Si1 0.477348 0.599402 0.325660
Si Si2 0.486495 0.112654 0.807965
Si Si3 0.933166 0.202126 0.708228
Si Si4 0.828444 0.854844 0.348471
Si Si5 0.879858 0.506181 0.804682
O O1 0.476648 0.727844 0.284562
O O2 0.656674 0.766255 0.392852
O O3 0.281072 0.377132 0.593435
O O4 0.500000 0.500000 0.000000
O O5 0.652266 0.268693 0.908206
O O6 0.500000 0.000000 0.500000
O O7 0.271832 0.923813 0.090964
O O8 0.048357 0.320124 0.358541
O O9 0.889636 0.010197 0.633597
O O10 0.050989 0.388330 0.918690
O O11 0.000000 0.000000 0.000000
O O12 0.000000 0.500000 0.500000
#
# Coordination Sequence:
#
# PCOD9068518 Si02
#       5
#     2   2   2   2   2
#     4  11  26  54  79 124 165 219 295 343 428 517
#     4  12  28  53  86 119 174 223 275 360 423 504
#     4  12  28  54  81 125 166 220 288 348 428 506
#     4  11  28  52  86 119 168 222 283 360 426 502
#     4  12  29  52  82 124 167 223 288 340 430 524
#
# _framework density 27.382299
#
# number of rings (size 3 to 8) (size 9 to 14) (size 15 to 20)
#    0.000    0.400    4.000    1.800    2.800    8.000 
#    0.000    1.000    0.000    0.000    0.000    0.000 
#    0.000    0.000    0.000    0.000    0.000    0.000 
#
# Total GULP energy -56271.524552 kJ/mol
# GULP energy per Si atom -5627.152455 kJ/mol
# Density = 2.731998 g / cm^3
# Si number density = 27.382299 Si / 1000 Ang^3
#
#
#
# Elastic Constant Matrix: (Units=GPa)
#
#
# Indices 1 2 3 4 5 6 
#
# 1 120.6990 65.0670 25.9693 6.6275 -11.5404 3.4689
# 2 65.0670 184.8984 78.7968 -2.2005 -10.3009 35.3914
# 3 25.9693 78.7968 157.2369 -5.5427 -9.6145 9.8184
# 4 6.6275 -2.2005 -5.5427 72.3350 -5.2133 -11.7213
# 5 -11.5404 -10.3009 -9.6145 -5.2133 51.0472 -4.6473
# 6 3.4689 35.3914 9.8184 -11.7213 -4.6473 75.1948
#
#
#
# Elastic Compliance Matrix: (Units=1/GPa)
#
#
# Indices 1 2 3 4 5 6 
#
# 1 0.010544 -0.003991 0.000251 -0.000729 0.001674 0.001349
# 2 -0.003991 0.009067 -0.003673 -0.000240 -0.000121 -0.003649
# 3 0.000251 -0.003673 0.008194 0.000698 0.001005 0.000818
# 4 -0.000729 -0.000240 0.000698 0.014444 0.001612 0.002407
# 5 0.001674 -0.000121 0.001005 0.001612 0.020422 0.001362
# 6 0.001349 -0.003649 0.000818 0.002407 0.001362 0.015306
#
#
# Mechanical properties :
#
#
# Convention : Reuss Voigt Hill
#
# Bulk Modulus (GPa) = 77.04583 89.16672 83.10627
# Shear Modulus (GPa) = 51.47867 59.24881 55.36374
#
# Velocity S-wave (km/s) = 4.34060 4.65667 4.50141
# Velocity P-wave (km/s) = 7.30200 7.84520 7.57847
#
# Compressibility (1/GPa) = 0.01297929
#
# Stress axis : x y z
#
# Youngs Moduli (GPa) = 94.84148 110.29322 122.04426
#
# Poissons Ratio (x) = 0.44019 -0.03064
# Poissons Ratio (y) = 0.37852 0.44821
# Poissons Ratio (z) = -0.02381 0.40505
#
# Static dielectric constant tensor:
#      x y z
#    x 2.205640 -0.046980 -0.021790 
#    y -0.046980 2.144970 -0.010670 
#    z -0.021790 -0.010670 2.057860 
# 
# From -- ./inp_files/95443.got.cif
#   From: 2010.05.17/outbox.cif.g08.bks.cpg/sg2_48_cif.got.tgz:95443.got - 2010.06.03 11:33:40.
