data_PCOD9068024
_publ_section_title
;
Structure prediction by ZEFSAII (Michael W. Deem and Ramdas Pophale) SiO2 
 PCOD9068024
Probable space group: P -1
;
_chemical_formula_sum "Si O2"
_cell_formula_units_Z 8
_cell_length_a 4.963938
_cell_length_b 8.415542
_cell_length_c 7.983075
_cell_angle_alpha 68.617228
_cell_angle_beta 95.856102
_cell_angle_gamma 89.073886
_cell_volume 308.397802
_symmetry_space_group_name_H-M "P -1"
_symmetry_group_IT_number 2
_symmetry_cell_setting 'triclinic'
loop_
_space_group_symop_operation_xyz
x,y,z
-x,-y,-z
loop_
_atom_site_type_symbol
_atom_site_label
_atom_site_fract_x
_atom_site_fract_y
_atom_site_fract_z
Si Si1 0.730277 0.148532 0.792718
Si Si2 0.388524 0.219039 0.080898
Si Si3 0.912348 0.549351 0.252264
Si Si4 0.460158 0.324800 0.402843
O O1 0.591316 0.189144 0.948283
O O2 0.525800 0.198117 0.608188
O O3 0.973755 0.273838 0.742763
O O4 0.791446 0.946165 0.862635
O O5 0.214595 0.392203 0.956220
O O6 0.527067 0.236406 0.261781
O O7 0.665396 0.477588 0.366754
O O8 0.156796 0.406969 0.330807
#
# Coordination Sequence:
#
# PCOD9068024 Si02
#       4
#     2   2   2   2
#     4  11  26  47  71 103 141 182 227 284 345 407
#     4  11  26  47  71 103 141 182 227 284 345 407
#     4  12  25  48  71 104 138 182 230 286 337 408
#     4  12  27  46  73 102 138 182 232 282 339 408
#
# _framework density 25.940522999999999
#
# number of rings (size 3 to 8) (size 9 to 14) (size 15 to 20)
#    0.000    0.500    2.500    4.500    7.000    0.000 
#    0.000    2.500    0.000    0.000    0.000    0.000 
#    0.000    0.000    0.000    0.000    0.000    0.000 
#
# Total GULP energy -44854.332493 kJ/mol
# GULP energy per Si atom -5606.791562 kJ/mol
# Density = 2.588148 g / cm^3
# Si number density = 25.940523 Si / 1000 Ang^3
#
#
#
# Elastic Constant Matrix: (Units=GPa)
#
#
# Indices 1 2 3 4 5 6 
#
# 1 121.5698 11.4909 41.3773 -0.8923 -3.1798 5.0098
# 2 11.4909 69.0754 33.2133 13.7554 -20.7047 0.7096
# 3 41.3773 33.2133 139.7703 27.1418 0.3251 -23.7303
# 4 -0.8923 13.7554 27.1418 61.4150 2.4952 -3.2701
# 5 -3.1798 -20.7047 0.3251 2.4952 34.6341 -5.9396
# 6 5.0098 0.7096 -23.7303 -3.2701 -5.9396 30.4261
#
#
#
# Elastic Compliance Matrix: (Units=1/GPa)
#
#
# Indices 1 2 3 4 5 6 
#
# 1 0.009784 0.000026 -0.003995 0.001658 0.000053 -0.004539
# 2 0.000026 0.021238 -0.004816 -0.003255 0.012611 -0.002143
# 3 -0.003995 -0.004816 0.011761 -0.003623 -0.001507 0.009259
# 4 0.001658 -0.003255 -0.003623 0.018685 -0.003393 -0.001677
# 5 0.000053 0.012611 -0.001507 -0.003393 0.037619 0.005501
# 6 -0.004539 -0.002143 0.009259 -0.001677 0.005501 0.041779
#
#
# Mechanical properties :
#
#
# Convention : Reuss Voigt Hill
#
# Bulk Modulus (GPa) = 39.66264 55.84206 47.75235
# Shear Modulus (GPa) = 29.96876 41.58398 35.77637
#
# Velocity S-wave (km/s) = 3.40264 4.00816 3.71775
# Velocity P-wave (km/s) = 5.54620 6.55699 6.07266
#
# Compressibility (1/GPa) = 0.02521264
#
# Stress axis : x y z
#
# Youngs Moduli (GPa) = 102.21072 47.08467 85.02897
#
# Poissons Ratio (x) = -0.00122 0.33971
# Poissons Ratio (y) = -0.00265 0.40947
# Poissons Ratio (z) = 0.40836 0.22675
#
# Static dielectric constant tensor:
#      x y z
#    x 2.037750 0.006730 0.008520 
#    y 0.006730 2.070210 0.061080 
#    z 0.008520 0.061080 2.054610 
# 
# From -- ./inp_files/18708.got.cif
#   From: 2010.05.17/outbox.cif.g08.bks.cpg/sg2_10_cif.got.tgz:18708.got - 2010.06.03 11:33:40.
