data_PCOD9068862
_publ_section_title
;
Structure prediction by ZEFSAII (Michael W. Deem and Ramdas Pophale) SiO2 
 PCOD9068862
Probable space group: P -1
;
_chemical_formula_sum "Si O2"
_cell_formula_units_Z 16
_cell_length_a 9.785938
_cell_length_b 16.629005
_cell_length_c 9.433091
_cell_angle_alpha 119.278259
_cell_angle_beta 111.969285
_cell_angle_gamma 116.449478
_cell_volume 781.971115
_symmetry_space_group_name_H-M "P -1"
_symmetry_group_IT_number 2
_symmetry_cell_setting 'triclinic'
loop_
_space_group_symop_operation_xyz
x,y,z
-x,-y,-z
loop_
_atom_site_type_symbol
_atom_site_label
_atom_site_fract_x
_atom_site_fract_y
_atom_site_fract_z
Si Si1 0.304230 0.214286 0.823114
Si Si2 0.661293 0.388746 0.334601
Si Si3 0.845677 0.835576 0.594921
Si Si4 0.597121 0.955985 0.331119
Si Si5 0.338861 0.336931 0.350889
Si Si6 0.141798 0.708106 0.775132
Si Si7 0.082657 0.923250 0.208758
Si Si8 0.760997 0.102983 0.242604
O O1 0.250732 0.223237 0.652964
O O2 0.340387 0.121427 0.744975
O O3 0.092129 0.135290 0.778620
O O4 0.537714 0.364039 0.120525
O O5 0.467294 0.310344 0.310139
O O6 0.735906 0.321006 0.275285
O O7 0.895373 0.556497 0.609721
O O8 0.697397 0.703356 0.533813
O O9 0.115161 0.932175 0.783114
O O10 0.843856 0.943996 0.718620
O O11 0.691832 0.013513 0.576372
O O12 0.741047 0.089846 0.392866
O O13 0.327460 0.833331 0.071832
O O14 0.500000 0.500000 0.500000
O O15 0.078795 0.214217 0.076895
O O16 0.092644 0.751927 0.663100
O O17 0.500000 0.000000 0.000000
#
# Coordination Sequence:
#
# PCOD9068862 Si02
#       8
#     2   2   2   2   2   2   2   2
#     4   9  16  31  59  83 109 134 185 233 271 317
#     4   9  19  37  55  80 107 152 183 217 274 335
#     4  11  19  35  58  89 110 142 181 232 283 325
#     4   9  15  30  54  83 106 132 177 235 270 307
#     4  11  24  37  53  81 119 147 180 231 282 328
#     4   9  18  32  56  81 112 143 182 223 269 327
#     4  10  18  35  58  84 108 145 183 231 277 324
#     4  10  18  28  52  86 111 132 175 228 272 319
#
# _framework density 20.461113999999998
#
# number of rings (size 3 to 8) (size 9 to 14) (size 15 to 20)
#    0.000    2.250    2.500    1.875    1.750    0.000 
#    2.250    1.875    0.000   18.750    3.250    0.000 
#    0.000    0.000    0.000    0.000    0.000    0.000 
#
# Total GULP energy -89165.556472 kJ/mol
# GULP energy per Si atom -5572.847280 kJ/mol
# Density = 2.041454 g / cm^3
# Si number density = 20.461114 Si / 1000 Ang^3
#
#
#
# Elastic Constant Matrix: (Units=GPa)
#
#
# Indices 1 2 3 4 5 6 
#
# 1 55.9563 17.0255 22.5260 -6.2992 17.1515 0.5657
# 2 17.0255 118.6837 44.3862 -20.3212 0.4605 -7.6578
# 3 22.5260 44.3862 103.6904 -8.7999 9.5151 -8.8079
# 4 -6.2992 -20.3212 -8.7999 24.3097 -2.8385 0.4497
# 5 17.1515 0.4605 9.5151 -2.8385 28.2924 -2.8263
# 6 0.5657 -7.6578 -8.8079 0.4497 -2.8263 20.2578
#
#
#
# Elastic Compliance Matrix: (Units=1/GPa)
#
#
# Indices 1 2 3 4 5 6 
#
# 1 0.024419 -0.002223 -0.003348 0.001719 -0.013965 -0.004964
# 2 -0.002223 0.011819 -0.003943 0.008241 0.003621 0.003138
# 3 -0.003348 -0.003943 0.012552 0.000107 -0.001736 0.003816
# 4 0.001719 0.008241 0.000107 0.048923 0.003954 0.002579
# 5 -0.013965 0.003621 -0.001736 0.003954 0.045458 0.007259
# 6 -0.004964 0.003138 0.003816 0.002579 0.007259 0.053303
#
#
# Mechanical properties :
#
#
# Convention : Reuss Voigt Hill
#
# Bulk Modulus (GPa) = 33.59869 49.57845 41.58857
# Shear Modulus (GPa) = 22.18079 27.53149 24.85614
#
# Velocity S-wave (km/s) = 3.29606 3.67216 3.48918
# Velocity P-wave (km/s) = 5.56253 6.50099 6.04998
#
# Compressibility (1/GPa) = 0.02976307
#
# Stress axis : x y z
#
# Youngs Moduli (GPa) = 40.95130 84.61246 79.67138
#
# Poissons Ratio (x) = 0.18808 0.26672
# Poissons Ratio (y) = 0.09103 0.31411
# Poissons Ratio (z) = 0.13709 0.33359
#
# Static dielectric constant tensor:
#      x y z
#    x 1.784910 -0.010940 -0.005190 
#    y -0.010940 1.729420 0.001960 
#    z -0.005190 0.001960 1.777670 
# 
# From -- ./inp_files/278036.got.cif
#   From: 2010.05.17/outbox.cif.g08.bks.cpg/sg2_140_cif.got.tgz:278036.got - 2010.06.03 11:33:40.
