data_PCOD9068210
_publ_section_title
;
Structure prediction by ZEFSAII (Michael W. Deem and Ramdas Pophale) SiO2 
 PCOD9068210
Probable space group: P -1
;
_chemical_formula_sum "Si O2"
_cell_formula_units_Z 16
_cell_length_a 11.875640
_cell_length_b 8.745750
_cell_length_c 9.098464
_cell_angle_alpha 113.058329
_cell_angle_beta 106.256493
_cell_angle_gamma 55.242958
_cell_volume 712.337215
_symmetry_space_group_name_H-M "P -1"
_symmetry_group_IT_number 2
_symmetry_cell_setting 'triclinic'
loop_
_space_group_symop_operation_xyz
x,y,z
-x,-y,-z
loop_
_atom_site_type_symbol
_atom_site_label
_atom_site_fract_x
_atom_site_fract_y
_atom_site_fract_z
Si Si1 0.416084 0.428321 0.857047
Si Si2 0.476152 0.019573 0.821566
Si Si3 0.970146 0.346825 0.854448
Si Si4 0.639075 0.423875 0.425881
Si Si5 0.206249 0.024295 0.609687
Si Si6 0.881081 0.904723 0.740705
Si Si7 0.862729 0.231521 0.036191
Si Si8 0.755340 0.647942 0.684023
O O1 0.475421 0.203415 0.821649
O O2 0.418291 0.509488 0.730363
O O3 0.500000 0.500000 0.000000
O O4 0.260804 0.551241 0.905142
O O5 0.337329 0.038225 0.714454
O O6 0.606890 0.824958 0.737617
O O7 0.500000 0.000000 0.000000
O O8 0.955447 0.228396 0.935271
O O9 0.826004 0.489321 0.777675
O O10 0.078554 0.196632 0.718862
O O11 0.000000 0.500000 0.000000
O O12 0.500000 0.500000 0.500000
O O13 0.743501 0.195870 0.406899
O O14 0.725314 0.530638 0.510375
O O15 0.168014 0.043329 0.427860
O O16 0.846642 0.739935 0.710053
O O17 0.813294 0.088143 0.901052
O O18 0.041287 0.825667 0.805909
#
# Coordination Sequence:
#
# PCOD9068210 Si02
#       8
#     2   2   2   2   2   2   2   2
#     4  12  28  46  79 108 149 202 259 310 388 456
#     4  12  26  46  77 110 150 197 258 314 384 454
#     4  12  26  48  78 112 150 198 249 315 386 459
#     4  12  29  50  74 113 153 198 254 321 384 450
#     4  12  28  48  79 110 153 203 257 309 390 460
#     4  11  27  46  75 108 154 200 256 314 388 451
#     4  11  26  48  74 110 157 196 259 318 384 456
#     4  12  26  46  77 104 152 195 253 318 379 449
#
# _framework density 22.461269999999999
#
# number of rings (size 3 to 8) (size 9 to 14) (size 15 to 20)
#    0.000    0.250    2.500    5.250   10.500    2.500 
#    0.000    0.000    0.000    0.000    0.000    0.000 
#    0.000    0.000    0.000    0.000    0.000    0.000 
#
# Total GULP energy -89353.005844 kJ/mol
# GULP energy per Si atom -5584.562865 kJ/mol
# Density = 2.241015 g / cm^3
# Si number density = 22.461270 Si / 1000 Ang^3
#
#
#
# Elastic Constant Matrix: (Units=GPa)
#
#
# Indices 1 2 3 4 5 6 
#
# 1 69.7093 31.8052 36.9162 0.2834 14.0061 2.2877
# 2 31.8052 147.2086 52.7851 -2.5847 7.1627 1.6816
# 3 36.9162 52.7851 150.7721 -32.8967 23.3859 15.5132
# 4 0.2834 -2.5847 -32.8967 53.9621 1.0971 7.4634
# 5 14.0061 7.1627 23.3859 1.0971 36.4992 2.9792
# 6 2.2877 1.6816 15.5132 7.4634 2.9792 39.1921
#
#
#
# Elastic Compliance Matrix: (Units=1/GPa)
#
#
# Indices 1 2 3 4 5 6 
#
# 1 0.018210 -0.002494 -0.003609 -0.002505 -0.004214 0.001270
# 2 -0.002494 0.008285 -0.002930 -0.001560 0.001160 0.001159
# 3 -0.003609 -0.002930 0.011614 0.007805 -0.005280 -0.005346
# 4 -0.002505 -0.001560 0.007805 0.024304 -0.003876 -0.007210
# 5 -0.004214 0.001160 -0.005280 -0.003876 0.032240 0.000573
# 6 0.001270 0.001159 -0.005346 -0.007210 0.000573 0.028837
#
#
# Mechanical properties :
#
#
# Convention : Reuss Voigt Hill
#
# Bulk Modulus (GPa) = 49.89065 67.85589 58.87327
# Shear Modulus (GPa) = 33.73000 42.34293 38.03647
#
# Velocity S-wave (km/s) = 3.87938 4.34655 4.11959
# Velocity P-wave (km/s) = 6.50586 7.44753 6.99256
#
# Compressibility (1/GPa) = 0.02004384
#
# Stress axis : x y z
#
# Youngs Moduli (GPa) = 54.91617 120.69671 86.10351
#
# Poissons Ratio (x) = 0.30096 0.31077
# Poissons Ratio (y) = 0.13694 0.25225
# Poissons Ratio (z) = 0.19821 0.35360
#
# Static dielectric constant tensor:
#      x y z
#    x 1.790420 0.040240 -0.179190 
#    y 0.040240 1.718760 0.175860 
#    z -0.179190 0.175860 1.510550 
# 
# From -- ./inp_files/245598.got.cif
#   From: 2010.05.17/outbox.cif.g08.bks.cpg/sg2_123_cif.got.tgz:245598.got - 2010.06.03 11:33:40.
