data_PCOD9068414
_publ_section_title
;
Structure prediction by ZEFSAII (Michael W. Deem and Ramdas Pophale) SiO2 
 PCOD9068414
Probable space group: P -1
;
_chemical_formula_sum "Si O2"
_cell_formula_units_Z 9
_cell_length_a 11.551248
_cell_length_b 10.951508
_cell_length_c 11.588559
_cell_angle_alpha 141.153701
_cell_angle_beta 155.411625
_cell_angle_gamma 37.855663
_cell_volume 363.547044
_symmetry_space_group_name_H-M "P -1"
_symmetry_group_IT_number 2
_symmetry_cell_setting 'triclinic'
loop_
_space_group_symop_operation_xyz
x,y,z
-x,-y,-z
loop_
_atom_site_type_symbol
_atom_site_label
_atom_site_fract_x
_atom_site_fract_y
_atom_site_fract_z
Si Si1 0.887010 0.369630 0.139609
Si Si2 0.500000 0.500000 0.500000
Si Si3 0.524403 0.213143 0.521277
Si Si4 0.277363 0.877754 0.734497
Si Si5 0.588597 0.198696 0.945014
O O1 0.793374 0.254536 0.861848
O O2 0.693472 0.607119 0.137208
O O3 0.789491 0.272502 0.092282
O O4 0.230176 0.334261 0.414517
O O5 0.512323 0.299445 0.444439
O O6 0.399169 0.647036 0.629797
O O7 0.516746 0.981713 0.337288
O O8 0.238337 0.876742 0.835284
O O9 0.000000 0.000000 0.500000
O O10 0.500000 0.000000 0.000000
#
# Coordination Sequence:
#
# PCOD9068414 Si02
#       5
#     2   1   2   2   2
#     4  11  28  48  75 109 145 190 241 298 359 427
#     4  12  28  48  74 106 150 190 242 296 362 424
#     4  12  27  46  76 107 149 188 240 297 360 429
#     4  12  29  47  74 105 145 193 241 297 357 427
#     4  11  26  50  76 107 146 191 242 297 361 427
#
# _framework density 24.756081999999999
#
# number of rings (size 3 to 8) (size 9 to 14) (size 15 to 20)
#    0.000    0.444    4.444    1.333    6.222    8.889 
#    0.000    0.000    0.000    0.000    0.000    0.000 
#    0.000    0.000    0.000    0.000    0.000    0.000 
#
# Total GULP energy -50290.275284 kJ/mol
# GULP energy per Si atom -5587.808365 kJ/mol
# Density = 2.469974 g / cm^3
# Si number density = 24.756082 Si / 1000 Ang^3
#
#
#
# Elastic Constant Matrix: (Units=GPa)
#
#
# Indices 1 2 3 4 5 6 
#
# 1 110.6317 28.3605 -0.6592 -6.0327 -11.8302 14.8505
# 2 28.3605 124.3835 34.0752 20.7527 -7.3191 -1.1491
# 3 -0.6592 34.0752 82.7453 -3.4543 3.9817 -0.3384
# 4 -6.0327 20.7527 -3.4543 24.9331 -4.5992 -12.3934
# 5 -11.8302 -7.3191 3.9817 -4.5992 24.3302 4.9274
# 6 14.8505 -1.1491 -0.3384 -12.3934 4.9274 51.1883
#
#
#
# Elastic Compliance Matrix: (Units=1/GPa)
#
#
# Indices 1 2 3 4 5 6 
#
# 1 0.011240 -0.003637 0.001543 0.005780 0.005714 -0.002483
# 2 -0.003637 0.012685 -0.005850 -0.013044 0.000933 -0.001947
# 3 0.001543 -0.005850 0.014946 0.007681 -0.002328 0.001603
# 4 0.005780 -0.013044 0.007681 0.060684 0.006644 0.012134
# 5 0.005714 0.000933 -0.002328 0.006644 0.046717 -0.004541
# 6 -0.002483 -0.001947 0.001603 0.012134 -0.004541 0.023598
#
#
# Mechanical properties :
#
#
# Convention : Reuss Voigt Hill
#
# Bulk Modulus (GPa) = 43.50893 49.03483 46.27188
# Shear Modulus (GPa) = 25.85082 37.15589 31.50335
#
# Velocity S-wave (km/s) = 3.23495 3.87832 3.57115
# Velocity P-wave (km/s) = 5.61840 6.31707 5.97795
#
# Compressibility (1/GPa) = 0.02298379
#
# Stress axis : x y z
#
# Youngs Moduli (GPa) = 88.96800 78.83489 66.90789
#
# Poissons Ratio (x) = 0.28670 -0.10326
# Poissons Ratio (y) = 0.32355 0.39142
# Poissons Ratio (z) = -0.13731 0.46119
#
# Static dielectric constant tensor:
#      x y z
#    x 1.902800 -0.027930 -0.011910 
#    y -0.027930 1.959160 -0.025050 
#    z -0.011910 -0.025050 1.907980 
# 
# From -- ./inp_files/62274.got.cif
#   From: 2010.05.17/outbox.cif.g08.bks.cpg/sg2_32_cif.got.tgz:62274.got - 2010.06.03 11:33:40.
