data_PCOD9068952
_publ_section_title
;
Structure prediction by ZEFSAII (Michael W. Deem and Ramdas Pophale) SiO2 
 PCOD9068952
Probable space group: P -1
;
_chemical_formula_sum "Si O2"
_cell_formula_units_Z 16
_cell_length_a 16.904076
_cell_length_b 19.381679
_cell_length_c 11.391267
_cell_angle_alpha 46.818008
_cell_angle_beta 35.127912
_cell_angle_gamma 21.819784
_cell_volume 747.561651
_symmetry_space_group_name_H-M "P -1"
_symmetry_group_IT_number 2
_symmetry_cell_setting 'triclinic'
loop_
_space_group_symop_operation_xyz
x,y,z
-x,-y,-z
loop_
_atom_site_type_symbol
_atom_site_label
_atom_site_fract_x
_atom_site_fract_y
_atom_site_fract_z
Si Si1 0.030971 0.541084 0.155350
Si Si2 0.021423 0.887465 0.884248
Si Si3 0.388320 0.718408 0.170137
Si Si4 0.461359 0.492834 0.189361
Si Si5 0.177420 0.739003 0.611945
Si Si6 0.912532 0.712946 0.572629
Si Si7 0.167361 0.205129 0.692111
Si Si8 0.336030 0.103295 0.954913
O O1 0.029948 0.429562 0.295292
O O2 0.904473 0.669412 0.274896
O O3 0.838398 0.696334 0.101133
O O4 0.360409 0.379682 0.949057
O O5 0.298655 0.731363 0.811908
O O6 0.135914 0.815511 0.696468
O O7 0.769548 0.116474 0.921272
O O8 0.906904 0.853128 0.098754
O O9 0.507817 0.556310 0.141944
O O10 0.170716 0.809126 0.425025
O O11 0.146524 0.642397 0.425597
O O12 0.500000 0.500000 0.000000
O O13 0.500000 0.500000 0.500000
O O14 0.917241 0.821455 0.827256
O O15 0.965362 0.692600 0.393039
O O16 0.588310 0.933337 0.750631
O O17 0.500000 0.000000 0.500000
O O18 0.500000 0.000000 0.000000
#
# Coordination Sequence:
#
# PCOD9068952 Si02
#       8
#     2   2   2   2   2   2   2   2
#     4  12  24  46  72 107 134 185 237 283 348 418
#     4  12  25  44  72 104 134 182 242 283 341 421
#     4  12  25  44  77 101 134 188 238 286 347 411
#     4  12  25  47  66 103 147 185 225 287 348 418
#     4  12  21  46  73 100 139 183 234 297 341 409
#     4  12  27  43  73 102 146 184 226 290 359 408
#     4  12  21  45  71 100 139 177 230 293 340 410
#     4  12  26  45  69 105 147 183 231 287 356 419
#
# _framework density 21.402916999999999
#
# number of rings (size 3 to 8) (size 9 to 14) (size 15 to 20)
#    0.000    0.000    7.500    3.000    0.000    4.000 
#    0.000    0.000    0.000    0.000    0.000    0.000 
#    0.000    0.000    0.000    0.000    0.000    0.000 
#
# Total GULP energy -89446.631711 kJ/mol
# GULP energy per Si atom -5590.414482 kJ/mol
# Density = 2.135420 g / cm^3
# Si number density = 21.402917 Si / 1000 Ang^3
#
#
#
# Elastic Constant Matrix: (Units=GPa)
#
#
# Indices 1 2 3 4 5 6 
#
# 1 40.2609 9.5751 16.5775 -13.2447 -0.7451 -23.5872
# 2 9.5751 144.1944 48.8058 -17.7793 -15.6584 -22.7744
# 3 16.5775 48.8058 128.0849 0.9909 -7.4556 -0.6921
# 4 -13.2447 -17.7793 0.9909 45.2198 -10.1614 1.4819
# 5 -0.7451 -15.6584 -7.4556 -10.1614 37.4886 -0.7889
# 6 -23.5872 -22.7744 -0.6921 1.4819 -0.7889 34.7726
#
#
#
# Elastic Compliance Matrix: (Units=1/GPa)
#
#
# Indices 1 2 3 4 5 6 
#
# 1 0.066131 0.012537 -0.012550 0.025585 0.012084 0.052003
# 2 0.012537 0.012795 -0.006053 0.009966 0.007438 0.016508
# 3 -0.012550 -0.006053 0.011579 -0.006473 -0.002483 -0.012027
# 4 0.025585 0.009966 -0.006473 0.035989 0.013613 0.022528
# 5 0.012084 0.007438 -0.002483 0.013613 0.033496 0.013199
# 6 0.052003 0.016508 -0.012027 0.022528 0.013199 0.073945
#
#
# Mechanical properties :
#
#
# Convention : Reuss Voigt Hill
#
# Bulk Modulus (GPa) = 12.75950 51.38409 32.07180
# Shear Modulus (GPa) = 18.36948 39.33498 28.85223
#
# Velocity S-wave (km/s) = 2.93280 4.29165 3.67557
# Velocity P-wave (km/s) = 4.17648 6.97264 5.74720
#
# Compressibility (1/GPa) = 0.07837297
#
# Stress axis : x y z
#
# Youngs Moduli (GPa) = 15.12153 78.15413 86.36612
#
# Poissons Ratio (x) = -0.97980 1.08386
# Poissons Ratio (y) = -0.18958 0.52278
# Poissons Ratio (z) = 0.18977 0.47307
#
# Static dielectric constant tensor:
#      x y z
#    x 1.790810 -0.037730 0.001080 
#    y -0.037730 1.836620 0.024870 
#    z 0.001080 0.024870 1.782870 
# 
# From -- ./inp_files/467094.got.cif
#   From: 2010.05.17/outbox.cif.g08.bks.cpg/sg2_234_cif.got.tgz:467094.got - 2010.06.03 11:33:40.
