data_PCOD9068908
_publ_section_title
;
Structure prediction by ZEFSAII (Michael W. Deem and Ramdas Pophale) SiO2 
 PCOD9068908
Probable space group: P -1
;
_chemical_formula_sum "Si O2"
_cell_formula_units_Z 14
_cell_length_a 7.388153
_cell_length_b 7.069266
_cell_length_c 16.255642
_cell_angle_alpha 87.300990
_cell_angle_beta 82.892140
_cell_angle_gamma 139.473426
_cell_volume 534.173368
_symmetry_space_group_name_H-M "P -1"
_symmetry_group_IT_number 2
_symmetry_cell_setting 'triclinic'
loop_
_space_group_symop_operation_xyz
x,y,z
-x,-y,-z
loop_
_atom_site_type_symbol
_atom_site_label
_atom_site_fract_x
_atom_site_fract_y
_atom_site_fract_z
Si Si1 0.575282 0.319288 0.615376
Si Si2 0.155301 0.490784 0.923018
Si Si3 0.680589 0.347275 0.931035
Si Si4 0.294701 0.420621 0.718537
Si Si5 0.858005 0.091557 0.497306
Si Si6 0.695896 0.057481 0.688870
Si Si7 0.117534 0.033231 0.884622
O O1 0.500793 0.470786 0.645394
O O2 0.589590 0.186268 0.693494
O O3 0.877593 0.563164 0.547609
O O4 0.342813 0.073224 0.567013
O O5 0.112610 0.232737 0.927006
O O6 0.923882 0.398844 0.873585
O O7 0.437102 0.746968 0.961872
O O8 0.000000 0.500000 0.000000
O O9 0.386964 0.125352 0.900086
O O10 0.839965 0.678498 0.906766
O O11 0.176786 0.161623 0.788322
O O12 0.021802 0.292413 0.692823
O O13 0.479045 0.730895 0.749317
O O14 0.695507 0.010708 0.592020
O O15 0.000000 0.000000 0.500000
#
# Coordination Sequence:
#
# PCOD9068908 Si02
#       7
#     2   2   2   2   2   2   2
#     4  12  24  42  62  94 118 164 200 258 311 358
#     4   8  22  40  66  96 120 156 208 256 299 349
#     4   9  23  38  65  91 121 157 204 254 299 355
#     4  12  26  40  62  89 128 166 199 250 299 375
#     4  12  21  41  71  84 125 153 208 261 307 346
#     4  12  25  43  62  92 122 161 209 251 303 363
#     4  12  22  42  62  90 127 165 200 245 311 355
#
# _framework density 26.208718000000001
#
# number of rings (size 3 to 8) (size 9 to 14) (size 15 to 20)
#    0.857    0.000    2.857    4.714    0.000    5.714 
#    0.000    0.000    0.000    0.000    0.000    0.000 
#    0.000    0.000    0.000    0.000    0.000    0.000 
#
# Total GULP energy -77984.122658 kJ/mol
# GULP energy per Si atom -5570.294476 kJ/mol
# Density = 2.614907 g / cm^3
# Si number density = 26.208718 Si / 1000 Ang^3
#
#
#
# Elastic Constant Matrix: (Units=GPa)
#
#
# Indices 1 2 3 4 5 6 
#
# 1 163.0881 21.7161 15.8197 9.5767 21.0074 14.3725
# 2 21.7161 91.7319 -7.9078 -13.9528 13.4653 12.7874
# 3 15.8197 -7.9078 22.1109 -2.0390 11.8402 -0.8295
# 4 9.5767 -13.9528 -2.0390 26.3899 0.1177 8.3691
# 5 21.0074 13.4653 11.8402 0.1177 40.2008 6.6712
# 6 14.3725 12.7874 -0.8295 8.3691 6.6712 42.1748
#
#
#
# Elastic Compliance Matrix: (Units=1/GPa)
#
#
# Indices 1 2 3 4 5 6 
#
# 1 0.007571 -0.002735 -0.006276 -0.004409 -0.001041 -0.000835
# 2 -0.002735 0.016156 0.012306 0.012118 -0.006804 -0.005053
# 3 -0.006276 0.012306 0.066367 0.013945 -0.020460 0.000182
# 4 -0.004409 0.012118 0.013945 0.050573 -0.004139 -0.011278
# 5 -0.001041 -0.006804 -0.020460 -0.004139 0.034162 -0.002567
# 6 -0.000835 -0.005053 0.000182 -0.011278 -0.002567 0.028175
#
#
# Mechanical properties :
#
#
# Convention : Reuss Voigt Hill
#
# Bulk Modulus (GPa) = 10.34288 37.35411 23.84849
# Shear Modulus (GPa) = 21.86830 38.23995 30.05413
#
# Velocity S-wave (km/s) = 2.89172 3.82390 3.39000
# Velocity P-wave (km/s) = 3.88642 5.81204 4.94389
#
# Compressibility (1/GPa) = 0.09668483
#
# Stress axis : x y z
#
# Youngs Moduli (GPa) = 132.08200 61.89693 15.06775
#
# Poissons Ratio (x) = 0.16928 0.09456
# Poissons Ratio (y) = 0.36122 -0.18542
# Poissons Ratio (z) = 0.82890 -0.76170
#
# Static dielectric constant tensor:
#      x y z
#    x 1.741590 -0.290570 -0.201040 
#    y -0.290570 1.898230 -0.276210 
#    z -0.201040 -0.276210 2.074370 
# 
# From -- ./inp_files/557255.got.cif
#   From: 2010.05.17/outbox.cif.g08.bks.cpg/sg2_279_cif.got.tgz:557255.got - 2010.06.03 11:33:40.
