data_PCOD9068677
_publ_section_title
;
Structure prediction by ZEFSAII (Michael W. Deem and Ramdas Pophale) SiO2 
 PCOD9068677
Probable space group: P -1
;
_chemical_formula_sum "Si O2"
_cell_formula_units_Z 14
_cell_length_a 7.545843
_cell_length_b 9.027463
_cell_length_c 13.145863
_cell_angle_alpha 130.270189
_cell_angle_beta 123.792133
_cell_angle_gamma 52.331549
_cell_volume 521.231888
_symmetry_space_group_name_H-M "P -1"
_symmetry_group_IT_number 2
_symmetry_cell_setting 'triclinic'
loop_
_space_group_symop_operation_xyz
x,y,z
-x,-y,-z
loop_
_atom_site_type_symbol
_atom_site_label
_atom_site_fract_x
_atom_site_fract_y
_atom_site_fract_z
Si Si1 0.529481 0.364698 0.656336
Si Si2 0.223242 0.635268 0.971607
Si Si3 0.410331 0.978784 0.801256
Si Si4 0.679639 0.031307 0.730480
Si Si5 0.034604 0.572795 0.670328
Si Si6 0.833527 0.221394 0.494785
Si Si7 0.228930 0.327994 0.072284
O O1 0.609671 0.152336 0.655584
O O2 0.254586 0.477727 0.625216
O O3 0.625788 0.322380 0.554544
O O4 0.648057 0.507728 0.812535
O O5 0.142693 0.639625 0.833192
O O6 0.500000 0.500000 0.000000
O O7 0.186092 0.856250 0.110114
O O8 0.044947 0.563165 0.944712
O O9 0.257381 0.846598 0.667421
O O10 0.652465 0.822001 0.858186
O O11 0.459743 0.061380 0.745387
O O12 0.297984 0.163655 0.928385
O O13 0.834311 0.786111 0.661686
O O14 0.050301 0.611387 0.408060
O O15 0.000000 0.000000 0.500000
#
# Coordination Sequence:
#
# PCOD9068677 Si02
#       7
#     2   2   2   2   2   2   2
#     4  12  28  53  84 124 162 225 279 344 425 500
#     4  12  25  49  84 122 165 217 283 356 412 491
#     4  11  27  51  84 122 168 221 277 356 415 507
#     4  12  27  47  83 121 172 210 284 350 417 491
#     4  12  27  54  80 124 170 223 280 349 419 511
#     4  12  30  54  83 119 177 225 279 343 429 506
#     4  11  27  51  87 124 161 218 290 344 426 496
#
# _framework density 26.859446999999999
#
# number of rings (size 3 to 8) (size 9 to 14) (size 15 to 20)
#    0.000    0.286    4.286    2.143    6.000    5.143 
#    0.000    2.143    0.000    0.000    0.000    0.000 
#    0.000    0.000    0.000    0.000    0.000    0.000 
#
# Total GULP energy -78702.176931 kJ/mol
# GULP energy per Si atom -5621.584067 kJ/mol
# Density = 2.679831 g / cm^3
# Si number density = 26.859447 Si / 1000 Ang^3
#
#
#
# Elastic Constant Matrix: (Units=GPa)
#
#
# Indices 1 2 3 4 5 6 
#
# 1 178.5738 73.7855 37.0724 17.0406 -12.1762 -2.6990
# 2 73.7855 174.1650 50.5860 17.9478 -2.7518 5.8623
# 3 37.0724 50.5860 177.7201 18.9007 14.7673 -3.3835
# 4 17.0406 17.9478 18.9007 37.7917 6.2726 -1.9854
# 5 -12.1762 -2.7518 14.7673 6.2726 39.2663 11.1045
# 6 -2.6990 5.8623 -3.3835 -1.9854 11.1045 47.3078
#
#
#
# Elastic Compliance Matrix: (Units=1/GPa)
#
#
# Indices 1 2 3 4 5 6 
#
# 1 0.007204 -0.002568 -0.000774 -0.002091 0.002692 -0.000046
# 2 -0.002568 0.007536 -0.001521 -0.001912 0.001037 -0.001513
# 3 -0.000774 -0.001521 0.006671 -0.001713 -0.002932 0.001238
# 4 -0.002091 -0.001912 -0.001713 0.030253 -0.005707 0.002604
# 5 0.002692 0.001037 -0.002932 -0.005707 0.030536 -0.007592
# 6 -0.000046 -0.001513 0.001238 0.002604 -0.007592 0.023303
#
#
# Mechanical properties :
#
#
# Convention : Reuss Voigt Hill
#
# Bulk Modulus (GPa) = 85.58112 94.81631 90.19872
# Shear Modulus (GPa) = 41.97396 49.47416 45.72406
#
# Velocity S-wave (km/s) = 3.95742 4.29647 4.13043
# Velocity P-wave (km/s) = 7.26728 7.74535 7.51012
#
# Compressibility (1/GPa) = 0.01168482
#
# Stress axis : x y z
#
# Youngs Moduli (GPa) = 138.81290 132.70461 149.91191
#
# Poissons Ratio (x) = 0.34073 0.11605
# Poissons Ratio (y) = 0.35641 0.22801
# Poissons Ratio (z) = 0.10745 0.20184
#
# Static dielectric constant tensor:
#      x y z
#    x 2.080310 0.044210 -0.005570 
#    y 0.044210 2.120070 -0.051840 
#    z -0.005570 -0.051840 2.091900 
# 
# From -- ./inp_files/381434.got.cif
#   From: 2010.05.17/outbox.cif.g08.bks.cpg/sg2_191_cif.got.tgz:381434.got - 2010.06.03 11:33:40.
