data_PCOD9068711
_publ_section_title
;
Structure prediction by ZEFSAII (Michael W. Deem and Ramdas Pophale) SiO2 
 PCOD9068711
Probable space group: P -1
;
_chemical_formula_sum "Si O2"
_cell_formula_units_Z 13
_cell_length_a 16.748909
_cell_length_b 20.469185
_cell_length_c 9.611797
_cell_angle_alpha 144.219396
_cell_angle_beta 33.107217
_cell_angle_gamma 162.053618
_cell_volume 552.574146
_symmetry_space_group_name_H-M "P -1"
_symmetry_group_IT_number 2
_symmetry_cell_setting 'triclinic'
loop_
_space_group_symop_operation_xyz
x,y,z
-x,-y,-z
loop_
_atom_site_type_symbol
_atom_site_label
_atom_site_fract_x
_atom_site_fract_y
_atom_site_fract_z
Si Si1 0.172263 0.265669 0.084618
Si Si2 0.383030 0.668116 0.876475
Si Si3 0.052737 0.128324 0.325451
Si Si4 0.267806 0.918741 0.783181
Si Si5 0.480400 0.121060 0.235258
Si Si6 0.500000 0.500000 0.500000
Si Si7 0.119080 0.631425 0.695440
O O1 0.067653 0.202235 0.285815
O O2 0.000399 0.238453 0.192477
O O3 0.500000 0.500000 0.000000
O O4 0.081433 0.081094 0.855887
O O5 0.367668 0.718917 0.837261
O O6 0.442799 0.575886 0.618409
O O7 0.108792 0.508438 0.093375
O O8 0.616647 0.888240 0.001072
O O9 0.355664 0.326486 0.292634
O O10 0.842581 0.056334 0.608613
O O11 0.197782 0.804779 0.826051
O O12 0.500000 0.000000 0.500000
O O13 0.613082 0.246650 0.407103
O O14 0.500000 0.000000 0.000000
O O15 0.000000 0.500000 0.500000
#
# Coordination Sequence:
#
# PCOD9068711 Si02
#       7
#     2   2   2   2   2   1   2
#     4  11  28  48  77 113 157 205 267 328 398 464
#     4  12  28  47  77 112 157 208 253 329 396 473
#     4  11  28  48  75 109 155 208 263 324 386 485
#     4  12  25  48  80 114 153 206 270 330 391 470
#     4  12  27  50  75 112 157 202 261 326 404 465
#     4  12  28  50  74 108 160 206 262 306 406 476
#     4  12  27  45  78 112 150 199 264 321 393 465
#
# _framework density 23.526253000000001
#
# number of rings (size 3 to 8) (size 9 to 14) (size 15 to 20)
#    0.000    0.308    4.615    2.308    6.462    0.615 
#    0.000    0.000    0.000    0.000    0.000    0.000 
#    0.000    0.000    0.000    0.000    0.000    0.000 
#
# Total GULP energy -72519.012519 kJ/mol
# GULP energy per Si atom -5578.385578 kJ/mol
# Density = 2.347271 g / cm^3
# Si number density = 23.526253 Si / 1000 Ang^3
#
#
#
# Elastic Constant Matrix: (Units=GPa)
#
#
# Indices 1 2 3 4 5 6 
#
# 1 176.9216 48.1003 31.7398 -4.1844 6.7579 -17.6550
# 2 48.1003 106.5119 24.1742 7.0937 8.2501 -19.6071
# 3 31.7398 24.1742 77.4448 17.4924 5.0334 -19.7369
# 4 -4.1844 7.0937 17.4924 46.9935 -3.4880 7.9205
# 5 6.7579 8.2501 5.0334 -3.4880 34.3299 7.7896
# 6 -17.6550 -19.6071 -19.7369 7.9205 7.7896 52.2375
#
#
#
# Elastic Compliance Matrix: (Units=1/GPa)
#
#
# Indices 1 2 3 4 5 6 
#
# 1 0.006860 -0.002633 -0.002333 0.001824 -0.000237 0.000207
# 2 -0.002633 0.011984 -0.000721 -0.002756 -0.003506 0.004276
# 3 -0.002333 -0.000721 0.018355 -0.008611 -0.004723 0.007886
# 4 0.001824 -0.002756 -0.008611 0.026996 0.006283 -0.008702
# 5 -0.000237 -0.003506 -0.004723 0.006283 0.033418 -0.009116
# 6 0.000207 0.004276 0.007886 -0.008702 -0.009116 0.026477
#
#
# Mechanical properties :
#
#
# Convention : Reuss Voigt Hill
#
# Bulk Modulus (GPa) = 38.72479 63.21188 50.96833
# Shear Modulus (GPa) = 34.70470 43.83644 39.27057
#
# Velocity S-wave (km/s) = 3.84493 4.32128 4.09005
# Velocity P-wave (km/s) = 6.01725 7.19895 6.63446
#
# Compressibility (1/GPa) = 0.02582325
#
# Stress axis : x y z
#
# Youngs Moduli (GPa) = 145.78174 83.44599 54.47985
#
# Poissons Ratio (x) = 0.21973 0.12711
# Poissons Ratio (y) = 0.38387 0.03930
# Poissons Ratio (z) = 0.34013 0.06020
#
# Static dielectric constant tensor:
#      x y z
#    x 1.913810 0.110600 -0.029140 
#    y 0.110600 2.015010 -0.008390 
#    z -0.029140 -0.008390 1.925070 
# 
# From -- ./inp_files/296558.got.cif
#   From: 2010.05.17/outbox.cif.g08.bks.cpg/sg2_149_cif.got.tgz:296558.got - 2010.06.03 11:33:40.
