data_PCOD9068787
_publ_section_title
;
Structure prediction by ZEFSAII (Michael W. Deem and Ramdas Pophale) SiO2 
 PCOD9068787
Probable space group: P -1
;
_chemical_formula_sum "Si O2"
_cell_formula_units_Z 14
_cell_length_a 9.065897
_cell_length_b 13.855311
_cell_length_c 11.501888
_cell_angle_alpha 149.199965
_cell_angle_beta 57.192676
_cell_angle_gamma 115.772210
_cell_volume 620.209636
_symmetry_space_group_name_H-M "P -1"
_symmetry_group_IT_number 2
_symmetry_cell_setting 'triclinic'
loop_
_space_group_symop_operation_xyz
x,y,z
-x,-y,-z
loop_
_atom_site_type_symbol
_atom_site_label
_atom_site_fract_x
_atom_site_fract_y
_atom_site_fract_z
Si Si1 0.998259 0.791212 0.835516
Si Si2 0.273606 0.472288 0.444613
Si Si3 0.915629 0.802295 0.303308
Si Si4 0.871578 0.540243 0.263381
Si Si5 0.755355 0.345801 0.716653
Si Si6 0.507341 0.623578 0.953068
Si Si7 0.260715 0.095431 0.744518
O O1 0.185310 0.675072 0.649165
O O2 0.864265 0.673391 0.696539
O O3 0.911207 0.813387 0.022255
O O4 0.000000 0.000000 0.000000
O O5 0.269246 0.467023 0.580413
O O6 0.452206 0.414157 0.237607
O O7 0.762868 0.843370 0.315387
O O8 0.842170 0.701297 0.343912
O O9 0.064044 0.655795 0.030298
O O10 0.000000 0.000000 0.500000
O O11 0.047190 0.600402 0.316399
O O12 0.682645 0.387110 0.920857
O O13 0.740814 0.127169 0.472412
O O14 0.634493 0.470951 0.810416
O O15 0.576530 0.821006 0.172984
#
# Coordination Sequence:
#
# PCOD9068787 Si02
#       7
#     2   2   2   2   2   2   2
#     4  10  18  28  52  78 109 139 169 224 277 315
#     4  10  19  34  51  81 112 136 176 226 275 320
#     4  11  22  35  56  82 105 142 188 235 267 306
#     4  11  21  36  58  83 106 140 188 232 266 316
#     4  11  20  35  56  83 113 146 179 215 274 331
#     4  10  22  35  54  84 117 146 170 216 280 339
#     4  11  19  35  53  84 110 140 184 226 263 321
#
# _framework density 22.573011999999999
#
# number of rings (size 3 to 8) (size 9 to 14) (size 15 to 20)
#    0.000    1.429    4.286    3.857    0.000    0.000 
#    0.000    0.000    0.000    4.286    0.000    0.000 
#    0.000    0.000    0.000    0.000    0.000    0.000 
#
# Total GULP energy -78314.281898 kJ/mol
# GULP energy per Si atom -5593.877278 kJ/mol
# Density = 2.252164 g / cm^3
# Si number density = 22.573012 Si / 1000 Ang^3
#
#
#
# Elastic Constant Matrix: (Units=GPa)
#
#
# Indices 1 2 3 4 5 6 
#
# 1 49.1870 17.8446 21.6670 -0.7981 16.0732 -12.4809
# 2 17.8446 126.8061 70.5115 -6.6307 15.8982 -19.7478
# 3 21.6670 70.5115 127.8865 -2.9935 16.7737 -1.8411
# 4 -0.7981 -6.6307 -2.9935 72.0289 4.4923 -2.9960
# 5 16.0732 15.8982 16.7737 4.4923 14.1944 -9.4645
# 6 -12.4809 -19.7478 -1.8411 -2.9960 -9.4645 25.2990
#
#
#
# Elastic Compliance Matrix: (Units=1/GPa)
#
#
# Indices 1 2 3 4 5 6 
#
# 1 0.033239 0.001589 -0.001774 0.002824 -0.035064 0.004726
# 2 0.001589 0.013717 -0.007386 0.001530 -0.001992 0.010390
# 3 -0.001774 -0.007386 0.013759 0.000250 -0.013053 -0.010493
# 4 0.002824 0.001530 0.000250 0.014680 -0.009268 0.000877
# 5 -0.035064 -0.001992 -0.013053 -0.009268 0.155628 0.037321
# 6 0.004726 0.010390 -0.010493 0.000877 0.037321 0.063271
#
#
# Mechanical properties :
#
#
# Convention : Reuss Voigt Hill
#
# Bulk Modulus (GPa) = 21.94295 58.21396 40.07845
# Shear Modulus (GPa) = 15.40230 35.22824 25.31527
#
# Velocity S-wave (km/s) = 2.61498 3.95477 3.35249
# Velocity P-wave (km/s) = 4.34275 6.83365 5.72531
#
# Compressibility (1/GPa) = 0.04557273
#
# Stress axis : x y z
#
# Youngs Moduli (GPa) = 30.08537 72.90244 72.67948
#
# Poissons Ratio (x) = -0.11584 0.12896
# Poissons Ratio (y) = -0.04780 0.53678
# Poissons Ratio (z) = 0.05338 0.53843
#
# Static dielectric constant tensor:
#      x y z
#    x 1.839820 -0.004290 0.016140 
#    y -0.004290 1.870490 -0.049710 
#    z 0.016140 -0.049710 1.860050 
# 
# From -- ./inp_files/423220.got.cif
#   From: 2010.05.17/outbox.cif.g08.bks.cpg/sg2_212_cif.got.tgz:423220.got - 2010.06.03 11:33:40.
