data_PCOD9068770
_publ_section_title
;
Structure prediction by ZEFSAII (Michael W. Deem and Ramdas Pophale) SiO2 
 PCOD9068770
Probable space group: P -1
;
_chemical_formula_sum "Si O2"
_cell_formula_units_Z 14
_cell_length_a 8.494136
_cell_length_b 9.278400
_cell_length_c 8.882287
_cell_angle_alpha 101.876183
_cell_angle_beta 116.943475
_cell_angle_gamma 77.145042
_cell_volume 603.949018
_symmetry_space_group_name_H-M "P -1"
_symmetry_group_IT_number 2
_symmetry_cell_setting 'triclinic'
loop_
_space_group_symop_operation_xyz
x,y,z
-x,-y,-z
loop_
_atom_site_type_symbol
_atom_site_label
_atom_site_fract_x
_atom_site_fract_y
_atom_site_fract_z
Si Si1 0.436360 0.165120 0.071092
Si Si2 0.694831 0.359126 0.076615
Si Si3 0.933183 0.813430 0.244864
Si Si4 0.662895 0.734113 0.647640
Si Si5 0.178414 0.552879 0.156326
Si Si6 0.012733 0.087707 0.181503
Si Si7 0.813525 0.606115 0.390510
O O1 0.532173 0.281282 0.045130
O O2 0.475691 0.185058 0.270516
O O3 0.225763 0.197415 0.947784
O O4 0.500000 0.000000 0.000000
O O5 0.865360 0.232487 0.145978
O O6 0.726673 0.500008 0.217960
O O7 0.698379 0.406325 0.915535
O O8 0.868007 0.748468 0.356947
O O9 0.108205 0.700474 0.250626
O O10 0.975889 0.979276 0.277781
O O11 0.733501 0.581770 0.733661
O O12 0.667923 0.669053 0.467151
O O13 0.800744 0.852196 0.718658
O O14 0.000000 0.500000 0.000000
O O15 0.000000 0.000000 0.000000
O O16 0.000000 0.500000 0.500000
#
# Coordination Sequence:
#
# PCOD9068770 Si02
#       7
#     2   2   2   2   2   2   2
#     4  12  25  43  66  98 132 171 212 267 321 384
#     4  12  23  39  67  95 132 167 215 264 326 384
#     4  12  23  39  69  98 130 164 219 272 320 373
#     4  12  24  42  67  94 134 168 215 271 316 383
#     4  12  18  39  67  98 118 162 226 275 304 362
#     4  12  19  37  67  98 121 168 219 269 313 362
#     4  12  24  43  65  97 130 169 215 271 322 379
#
# _framework density 23.180765999999998
#
# number of rings (size 3 to 8) (size 9 to 14) (size 15 to 20)
#    0.000    0.000   11.429    0.000    0.000    3.429 
#    0.000    0.714    0.000    0.000    0.000    0.000 
#    0.000    0.000    0.000    0.000    0.000    0.000 
#
# Total GULP energy -78290.243025 kJ/mol
# GULP energy per Si atom -5592.160216 kJ/mol
# Density = 2.312801 g / cm^3
# Si number density = 23.180766 Si / 1000 Ang^3
#
#
#
# Elastic Constant Matrix: (Units=GPa)
#
#
# Indices 1 2 3 4 5 6 
#
# 1 88.4970 36.5285 30.3688 2.1624 -33.1066 30.0482
# 2 36.5285 129.4610 48.9178 -3.9982 -31.6752 27.1609
# 3 30.3688 48.9178 90.1236 6.5497 -49.3410 6.3536
# 4 2.1624 -3.9982 6.5497 36.4173 -0.1974 -20.3243
# 5 -33.1066 -31.6752 -49.3410 -0.1974 40.4078 0.5714
# 6 30.0482 27.1609 6.3536 -20.3243 0.5714 57.1960
#
#
#
# Elastic Compliance Matrix: (Units=1/GPa)
#
#
# Indices 1 2 3 4 5 6 
#
# 1 0.036451 0.001308 0.024233 -0.023607 0.060810 -0.031459
# 2 0.001308 0.011257 -0.001313 -0.002360 0.008377 -0.006809
# 3 0.024233 -0.001313 0.054494 -0.026859 0.085639 -0.028561
# 4 -0.023607 -0.002360 -0.026859 0.053205 -0.054237 0.035954
# 5 0.060810 0.008377 0.085639 -0.054237 0.186385 -0.066573
# 6 -0.031459 -0.006809 -0.028561 0.035954 -0.066573 0.053858
#
#
# Mechanical properties :
#
#
# Convention : Reuss Voigt Hill
#
# Bulk Modulus (GPa) = 6.63757 59.96799 33.30278
# Shear Modulus (GPa) = 12.58138 39.62200 26.10169
#
# Velocity S-wave (km/s) = 2.33223 4.13881 3.35924
# Velocity P-wave (km/s) = 3.18151 6.98323 5.42621
#
# Compressibility (1/GPa) = 0.15065749
#
# Stress axis : x y z
#
# Youngs Moduli (GPa) = 27.43384 88.83612 18.35071
#
# Poissons Ratio (x) = -0.11617 -0.44469
# Poissons Ratio (y) = -0.03587 0.02409
# Poissons Ratio (z) = -0.66480 0.11660
#
# Static dielectric constant tensor:
#      x y z
#    x 1.959680 -0.047030 -0.022230 
#    y -0.047030 1.843650 0.021350 
#    z -0.022230 0.021350 1.945300 
# 
# From -- ./inp_files/155520.got.cif
#   From: 2010.05.17/outbox.cif.g08.bks.cpg/sg2_78_cif.got.tgz:155520.got - 2010.06.03 11:33:40.
