data_PCOD9068956
_publ_section_title
;
Structure prediction by ZEFSAII (Michael W. Deem and Ramdas Pophale) SiO2 
 PCOD9068956
Probable space group: P -1
;
_chemical_formula_sum "Si O2"
_cell_formula_units_Z 16
_cell_length_a 14.376275
_cell_length_b 9.043901
_cell_length_c 19.444540
_cell_angle_alpha 36.230150
_cell_angle_beta 32.336683
_cell_angle_gamma 38.923902
_cell_volume 761.153196
_symmetry_space_group_name_H-M "P -1"
_symmetry_group_IT_number 2
_symmetry_cell_setting 'triclinic'
loop_
_space_group_symop_operation_xyz
x,y,z
-x,-y,-z
loop_
_atom_site_type_symbol
_atom_site_label
_atom_site_fract_x
_atom_site_fract_y
_atom_site_fract_z
Si Si1 0.288334 0.606452 0.616124
Si Si2 0.959942 0.016958 0.598697
Si Si3 0.173274 0.099466 0.878256
Si Si4 0.191730 0.446386 0.438688
Si Si5 0.292433 0.174118 0.071529
Si Si6 0.731627 0.118104 0.333107
Si Si7 0.906022 0.813678 0.949415
Si Si8 0.576282 0.334421 0.205558
O O1 0.500000 0.500000 0.500000
O O2 0.183112 0.392215 0.745004
O O3 0.295108 0.667811 0.670012
O O4 0.156212 0.878530 0.564644
O O5 0.859516 0.322902 0.560590
O O6 0.819608 0.881308 0.772724
O O7 0.000000 0.000000 0.500000
O O8 0.345745 0.903597 0.805763
O O9 0.191482 0.102249 0.948657
O O10 0.000000 0.000000 0.000000
O O11 0.361202 0.473241 0.277755
O O12 0.000000 0.500000 0.500000
O O13 0.264304 0.154874 0.533230
O O14 0.201415 0.114043 0.081184
O O15 0.302732 0.469997 0.953134
O O16 0.500000 0.000000 0.000000
O O17 0.604575 0.233241 0.304672
O O18 0.932473 0.059516 0.199037
O O19 0.000000 0.500000 0.000000
#
# Coordination Sequence:
#
# PCOD9068956 Si02
#       8
#     2   2   2   2   2   2   2   2
#     4  12  26  45  72 103 146 193 244 297 369 447
#     4  12  28  46  73 105 148 192 243 304 372 442
#     4  12  24  42  73 112 144 175 248 312 364 432
#     4  12  26  49  68 103 153 196 244 300 373 442
#     4  12  24  49  75 103 146 200 246 298 375 446
#     4  12  24  45  76 102 145 194 244 298 367 438
#     4  12  21  45  73 101 139 191 235 297 364 439
#     4  12  26  44  76 110 142 191 250 307 365 440
#
# _framework density 21.020734999999998
#
# number of rings (size 3 to 8) (size 9 to 14) (size 15 to 20)
#    0.000    0.000    7.500    1.875    3.500    2.000 
#    0.000    0.625    0.000    0.000    0.000    0.000 
#    0.000    0.000    0.000    0.000    0.000    0.000 
#
# Total GULP energy -89322.531147 kJ/mol
# GULP energy per Si atom -5582.658197 kJ/mol
# Density = 2.097289 g / cm^3
# Si number density = 21.020735 Si / 1000 Ang^3
#
#
#
# Elastic Constant Matrix: (Units=GPa)
#
#
# Indices 1 2 3 4 5 6 
#
# 1 96.8897 41.2226 65.9362 15.5358 4.8154 1.2636
# 2 41.2226 113.0174 28.7347 15.2032 3.8833 26.7034
# 3 65.9362 28.7347 99.6482 8.6352 0.4423 5.9479
# 4 15.5358 15.2032 8.6352 51.6065 8.4758 -2.2005
# 5 4.8154 3.8833 0.4423 8.4758 39.7479 12.2639
# 6 1.2636 26.7034 5.9479 -2.2005 12.2639 37.8041
#
#
#
# Elastic Compliance Matrix: (Units=1/GPa)
#
#
# Indices 1 2 3 4 5 6 
#
# 1 0.022228 -0.005929 -0.013214 -0.001861 -0.003601 0.006584
# 2 -0.005929 0.013715 0.000906 -0.003447 0.003486 -0.010964
# 3 -0.013214 0.000906 0.018744 -0.000010 0.002530 -0.003969
# 4 -0.001861 -0.003447 -0.000010 0.022172 -0.005928 0.005712
# 5 -0.003601 0.003486 0.002530 -0.005928 0.030494 -0.012978
# 6 0.006584 -0.010964 -0.003969 0.005712 -0.012978 0.039143
#
#
# Mechanical properties :
#
#
# Convention : Reuss Voigt Hill
#
# Bulk Modulus (GPa) = 54.90677 64.59358 59.75018
# Shear Modulus (GPa) = 26.44931 37.40915 31.92923
#
# Velocity S-wave (km/s) = 3.55103 4.22314 3.90159
# Velocity P-wave (km/s) = 6.55668 7.38750 6.98445
#
# Compressibility (1/GPa) = 0.01821269
#
# Stress axis : x y z
#
# Youngs Moduli (GPa) = 44.98920 72.91366 53.35068
#
# Poissons Ratio (x) = 0.43233 0.70496
# Poissons Ratio (y) = 0.26676 -0.04835
# Poissons Ratio (z) = 0.59447 -0.06607
#
# Static dielectric constant tensor:
#      x y z
#    x 1.615100 -0.036360 -0.092660 
#    y -0.036360 1.797940 -0.050840 
#    z -0.092660 -0.050840 1.806000 
# 
# From -- ./inp_files/572819.got.cif
#   From: 2010.05.17/outbox.cif.g08.bks.cpg/sg2_287_cif.got.tgz:572819.got - 2010.06.03 11:33:40.
