data_PCOD9068425
_publ_section_title
;
Structure prediction by ZEFSAII (Michael W. Deem and Ramdas Pophale) SiO2 
 PCOD9068425
Probable space group: P -1
;
_chemical_formula_sum "Si O2"
_cell_formula_units_Z 16
_cell_length_a 8.391644
_cell_length_b 14.389466
_cell_length_c 14.011897
_cell_angle_alpha 31.806349
_cell_angle_beta 76.756334
_cell_angle_gamma 96.201505
_cell_volume 700.815440
_symmetry_space_group_name_H-M "P -1"
_symmetry_group_IT_number 2
_symmetry_cell_setting 'triclinic'
loop_
_space_group_symop_operation_xyz
x,y,z
-x,-y,-z
loop_
_atom_site_type_symbol
_atom_site_label
_atom_site_fract_x
_atom_site_fract_y
_atom_site_fract_z
Si Si1 0.550392 0.822465 0.654154
Si Si2 0.561307 0.941209 0.893759
Si Si3 0.411985 0.497280 0.374701
Si Si4 0.842649 0.032187 0.601977
Si Si5 0.814546 0.875782 0.400032
Si Si6 0.131090 0.749042 0.040676
Si Si7 0.288260 0.587838 0.504153
Si Si8 0.872069 0.487477 0.939312
O O1 0.631245 0.816515 0.545732
O O2 0.500000 0.000000 0.500000
O O3 0.723671 0.894535 0.645369
O O4 0.346733 0.601471 0.911895
O O5 0.676346 0.004058 0.721772
O O6 0.651979 0.170564 0.732077
O O7 0.568797 0.754589 0.104431
O O8 0.324167 0.819453 0.014636
O O9 0.257481 0.354370 0.434929
O O10 0.289637 0.483233 0.496171
O O11 0.540948 0.403977 0.463121
O O12 0.982455 0.992285 0.679440
O O13 0.002141 0.277745 0.330492
O O14 0.855551 0.034950 0.169553
O O15 0.151750 0.673327 0.999508
O O16 0.923819 0.560400 0.283129
O O17 0.000000 0.500000 0.000000
#
# Coordination Sequence:
#
# PCOD9068425 Si02
#       8
#     2   2   2   2   2   2   2   2
#     4  12  24  45  71 100 142 192 240 289 358 432
#     4  12  24  49  76 105 145 190 243 295 359 435
#     4  11  27  49  73 112 143 190 242 302 363 429
#     4  12  25  45  68 106 144 186 241 295 359 428
#     4  12  26  46  70 106 152 186 241 305 356 427
#     4  12  24  45  75 103 141 193 236 296 360 427
#     4  11  26  50  77 103 149 190 240 300 367 424
#     4  12  24  40  71 102 135 186 240 288 352 423
#
# _framework density 22.830545999999998
#
# number of rings (size 3 to 8) (size 9 to 14) (size 15 to 20)
#    0.000    0.250    6.250    2.250    1.750    1.500 
#    4.500    0.000    0.000    0.000    0.000    0.000 
#    0.000    0.000    0.000    0.000    0.000    0.000 
#
# Total GULP energy -89613.181308 kJ/mol
# GULP energy per Si atom -5600.823832 kJ/mol
# Density = 2.277858 g / cm^3
# Si number density = 22.830546 Si / 1000 Ang^3
#
#
#
# Elastic Constant Matrix: (Units=GPa)
#
#
# Indices 1 2 3 4 5 6 
#
# 1 62.4910 26.1313 32.5537 -3.0240 -9.3239 4.1296
# 2 26.1313 91.1487 12.6587 -0.2036 -20.5803 -1.0669
# 3 32.5537 12.6587 111.5842 -4.6304 -8.8536 0.7861
# 4 -3.0240 -0.2036 -4.6304 27.1661 -2.5026 2.1191
# 5 -9.3239 -20.5803 -8.8536 -2.5026 40.3650 1.2355
# 6 4.1296 -1.0669 0.7861 2.1191 1.2355 19.5700
#
#
#
# Elastic Compliance Matrix: (Units=1/GPa)
#
#
# Indices 1 2 3 4 5 6 
#
# 1 0.021669 -0.005178 -0.005505 0.001952 0.001430 -0.004935
# 2 -0.005178 0.013738 0.000407 0.000022 0.005854 0.001453
# 3 -0.005505 0.000407 0.010678 0.001293 0.001342 0.000530
# 4 0.001952 0.000022 0.001293 0.037919 0.003243 -0.004773
# 5 0.001430 0.005854 0.001342 0.003243 0.028652 -0.002196
# 6 -0.004935 0.001453 0.000530 -0.004773 -0.002196 0.052854
#
#
# Mechanical properties :
#
#
# Convention : Reuss Voigt Hill
#
# Bulk Modulus (GPa) = 39.16466 45.32346 42.24406
# Shear Modulus (GPa) = 25.69719 30.34556 28.02138
#
# Velocity S-wave (km/s) = 3.35858 3.64973 3.50718
# Velocity P-wave (km/s) = 5.67731 6.13644 5.91133
#
# Compressibility (1/GPa) = 0.02553322
#
# Stress axis : x y z
#
# Youngs Moduli (GPa) = 46.14788 72.79066 93.64957
#
# Poissons Ratio (x) = 0.37694 0.51556
# Poissons Ratio (y) = 0.23897 -0.03816
# Poissons Ratio (z) = 0.25405 -0.02966
#
# Static dielectric constant tensor:
#      x y z
#    x 2.308600 0.365400 0.021100 
#    y 0.365400 2.140130 -0.054360 
#    z 0.021100 -0.054360 1.857290 
# 
# From -- ./inp_files/504978.got.cif
#   From: 2010.05.17/outbox.cif.g08.bks.cpg/sg2_253_cif.got.tgz:504978.got - 2010.06.03 11:33:40.
