data_PCOD9068455
_publ_section_title
;
Structure prediction by ZEFSAII (Michael W. Deem and Ramdas Pophale) SiO2 
 PCOD9068455
Probable space group: P -1
;
_chemical_formula_sum "Si O2"
_cell_formula_units_Z 12
_cell_length_a 8.664192
_cell_length_b 4.770640
_cell_length_c 14.013457
_cell_angle_alpha 81.195574
_cell_angle_beta 128.559222
_cell_angle_gamma 94.400384
_cell_volume 447.468122
_symmetry_space_group_name_H-M "P -1"
_symmetry_group_IT_number 2
_symmetry_cell_setting 'triclinic'
loop_
_space_group_symop_operation_xyz
x,y,z
-x,-y,-z
loop_
_atom_site_type_symbol
_atom_site_label
_atom_site_fract_x
_atom_site_fract_y
_atom_site_fract_z
Si Si1 0.010595 0.318735 0.610101
Si Si2 0.996401 0.822676 0.105655
Si Si3 0.739261 0.284405 0.060214
Si Si4 0.590888 0.079988 0.681933
Si Si5 0.576904 0.000599 0.182953
Si Si6 0.762004 0.778080 0.580454
O O1 0.922727 0.524556 0.648153
O O2 0.000000 0.500000 0.500000
O O3 0.229720 0.196914 0.716749
O O4 0.867436 0.054055 0.564577
O O5 0.844599 0.569571 0.057238
O O6 0.222187 0.747239 0.218891
O O7 0.911991 0.042058 0.140257
O O8 0.000000 0.000000 0.000000
O O9 0.633916 0.262356 0.123123
O O10 0.585758 0.171659 0.929196
O O11 0.506252 0.921588 0.749611
O O12 0.420546 0.274508 0.558361
O O13 0.669857 0.869654 0.640957
#
# Coordination Sequence:
#
# PCOD9068455 Si02
#       6
#     2   2   2   2   2   2
#     4  12  26  50  79 114 157 209 264 328 398 465
#     4  12  26  50  79 115 160 209 261 331 400 470
#     4  11  28  51  76 118 161 209 265 322 406 473
#     4  11  26  50  80 115 158 208 266 328 397 472
#     4  11  26  50  83 117 160 212 266 334 393 481
#     4  11  28  51  75 116 158 208 264 327 398 473
#
# _framework density 26.817554999999999
#
# number of rings (size 3 to 8) (size 9 to 14) (size 15 to 20)
#    0.000    0.667    3.333    2.000    0.000   14.667 
#    0.000    0.000    0.000    0.000    0.000    0.000 
#    0.000    0.000    0.000    0.000    0.000    0.000 
#
# Total GULP energy -67444.126049 kJ/mol
# GULP energy per Si atom -5620.343837 kJ/mol
# Density = 2.675652 g / cm^3
# Si number density = 26.817555 Si / 1000 Ang^3
#
#
#
# Elastic Constant Matrix: (Units=GPa)
#
#
# Indices 1 2 3 4 5 6 
#
# 1 193.3404 53.9036 79.8445 -2.1847 -15.0005 27.1013
# 2 53.9036 149.7505 34.1621 -7.9497 8.4196 43.3059
# 3 79.8445 34.1621 158.8068 5.6473 7.6595 33.5185
# 4 -2.1847 -7.9497 5.6473 31.1013 7.6502 4.2371
# 5 -15.0005 8.4196 7.6595 7.6502 64.9666 -8.7316
# 6 27.1013 43.3059 33.5185 4.2371 -8.7316 53.8492
#
#
#
# Elastic Compliance Matrix: (Units=1/GPa)
#
#
# Indices 1 2 3 4 5 6 
#
# 1 0.007306 -0.002167 -0.003454 -0.000107 0.002472 0.000625
# 2 -0.002167 0.010169 0.000700 0.004342 -0.003546 -0.008439
# 3 -0.003454 0.000700 0.009041 -0.000419 -0.002555 -0.004834
# 4 -0.000107 0.004342 -0.000419 0.035665 -0.005666 -0.006903
# 5 0.002472 -0.003546 -0.002555 -0.005666 0.018279 0.006608
# 6 0.000625 -0.008439 -0.004834 -0.006903 0.006608 0.029666
#
#
# Mechanical properties :
#
#
# Convention : Reuss Voigt Hill
#
# Bulk Modulus (GPa) = 59.97777 93.07978 76.52878
# Shear Modulus (GPa) = 39.83192 52.24927 46.04059
#
# Velocity S-wave (km/s) = 3.85813 4.41877 4.14793
# Velocity P-wave (km/s) = 6.50081 7.79858 7.17908
#
# Compressibility (1/GPa) = 0.01667284
#
# Stress axis : x y z
#
# Youngs Moduli (GPa) = 136.87448 98.34165 110.60114
#
# Poissons Ratio (x) = 0.21313 0.38207
# Poissons Ratio (y) = 0.29664 -0.07743
# Poissons Ratio (z) = 0.47283 -0.06885
#
# Static dielectric constant tensor:
#      x y z
#    x 2.100340 -0.001820 -0.010030 
#    y -0.001820 2.054590 -0.005440 
#    z -0.010030 -0.005440 2.103290 
# 
# From -- ./inp_files/487646.got.cif
#   From: 2010.05.17/outbox.cif.g08.bks.cpg/sg2_244_cif.got.tgz:487646.got - 2010.06.03 11:33:40.
