data_PCOD9068113
_publ_section_title
;
Structure prediction by ZEFSAII (Michael W. Deem and Ramdas Pophale) SiO2 
 PCOD9068113
Probable space group: P -1
;
_chemical_formula_sum "Si O2"
_cell_formula_units_Z 16
_cell_length_a 13.978920
_cell_length_b 12.649624
_cell_length_c 9.525292
_cell_angle_alpha 126.692024
_cell_angle_beta 69.884298
_cell_angle_gamma 65.159589
_cell_volume 705.750919
_symmetry_space_group_name_H-M "P -1"
_symmetry_group_IT_number 2
_symmetry_cell_setting 'triclinic'
loop_
_space_group_symop_operation_xyz
x,y,z
-x,-y,-z
loop_
_atom_site_type_symbol
_atom_site_label
_atom_site_fract_x
_atom_site_fract_y
_atom_site_fract_z
Si Si1 0.511188 0.806091 0.231999
Si Si2 0.638665 0.427024 0.685708
Si Si3 0.728712 0.442716 0.344244
Si Si4 0.429728 0.770001 0.532866
Si Si5 0.118363 0.246680 0.691269
Si Si6 0.972581 0.715580 0.803334
Si Si7 0.091313 0.520238 0.293072
Si Si8 0.031175 0.040161 0.664887
O O1 0.477858 0.818036 0.422651
O O2 0.326553 0.065334 0.469215
O O3 0.532776 0.649784 0.005081
O O4 0.703710 0.670607 0.009975
O O5 0.695571 0.414820 0.491420
O O6 0.519508 0.426251 0.712733
O O7 0.807382 0.201163 0.519303
O O8 0.541333 0.675482 0.543094
O O9 0.858429 0.427758 0.297809
O O10 0.850976 0.227108 0.002531
O O11 0.211794 0.004583 0.855267
O O12 0.080240 0.143885 0.699906
O O13 0.058956 0.287188 0.594242
O O14 0.000000 0.500000 0.000000
O O15 0.919836 0.621534 0.778783
O O16 0.043712 0.653896 0.560869
O O17 0.000000 0.000000 0.500000
#
# Coordination Sequence:
#
# PCOD9068113 Si02
#       8
#     2   2   2   2   2   2   2   2
#     4  12  26  48  75 112 147 193 249 310 369 449
#     4  12  25  46  71 111 151 194 247 309 371 447
#     4  12  25  45  73 107 152 197 247 302 376 442
#     4  12  26  44  73 107 151 194 246 304 375 440
#     4  12  27  48  78 110 149 199 252 307 375 451
#     4  11  26  49  71 110 150 194 246 315 364 450
#     4  11  26  47  77 106 148 196 251 302 378 439
#     4  12  26  45  76 113 156 198 249 314 373 445
#
# _framework density 22.670888000000001
#
# number of rings (size 3 to 8) (size 9 to 14) (size 15 to 20)
#    0.000    0.250    3.750    4.875    3.500    4.000 
#    0.000    2.500    0.000    0.000    0.000    0.000 
#    0.000    0.000    0.000    0.000    0.000    0.000 
#
# Total GULP energy -89567.460340 kJ/mol
# GULP energy per Si atom -5597.966271 kJ/mol
# Density = 2.261929 g / cm^3
# Si number density = 22.670888 Si / 1000 Ang^3
#
#
#
# Elastic Constant Matrix: (Units=GPa)
#
#
# Indices 1 2 3 4 5 6 
#
# 1 101.6478 39.3831 12.0105 -0.6448 -6.6247 -27.2382
# 2 39.3831 103.2486 38.5298 -7.8549 0.0081 -38.6422
# 3 12.0105 38.5298 71.4688 -3.3474 5.4670 -3.1540
# 4 -0.6448 -7.8549 -3.3474 38.2087 -1.5985 2.8533
# 5 -6.6247 0.0081 5.4670 -1.5985 36.3639 -0.0979
# 6 -27.2382 -38.6422 -3.1540 2.8533 -0.0979 40.2375
#
#
#
# Elastic Compliance Matrix: (Units=1/GPa)
#
#
# Indices 1 2 3 4 5 6 
#
# 1 0.012666 -0.002080 -0.000936 -0.000684 0.002436 0.006558
# 2 -0.002080 0.021232 -0.010301 0.002136 0.001308 0.018026
# 3 -0.000936 -0.010301 0.019550 0.000121 -0.003126 -0.009010
# 4 -0.000684 0.002136 0.000121 0.026675 0.001029 -0.000291
# 5 0.002436 0.001308 -0.003126 0.001029 0.028466 0.002656
# 6 0.006558 0.018026 -0.009010 -0.000291 0.002656 0.045924
#
#
# Mechanical properties :
#
#
# Convention : Reuss Voigt Hill
#
# Bulk Modulus (GPa) = 37.29486 50.69023 43.99255
# Shear Modulus (GPa) = 26.30392 35.39148 30.84770
#
# Velocity S-wave (km/s) = 3.40994 3.95536 3.69273
# Velocity P-wave (km/s) = 5.65596 6.57781 6.13422
#
# Compressibility (1/GPa) = 0.02681334
#
# Stress axis : x y z
#
# Youngs Moduli (GPa) = 78.95125 47.09895 51.15028
#
# Poissons Ratio (x) = 0.09796 0.04789
# Poissons Ratio (y) = 0.16420 0.52692
# Poissons Ratio (z) = 0.07392 0.48518
#
# Static dielectric constant tensor:
#      x y z
#    x 1.873630 0.027550 0.024840 
#    y 0.027550 1.845540 -0.014020 
#    z 0.024840 -0.014020 1.844100 
# 
# From -- ./inp_files/308307.got.cif
#   From: 2010.05.17/outbox.cif.g08.bks.cpg/sg2_155_cif.got.tgz:308307.got - 2010.06.03 11:33:40.
