data_PCOD9068018
_publ_section_title
;
Structure prediction by ZEFSAII (Michael W. Deem and Ramdas Pophale) SiO2 
 PCOD9068018
Probable space group: P -1
;
_chemical_formula_sum "Si O2"
_cell_formula_units_Z 16
_cell_length_a 9.378681
_cell_length_b 11.797661
_cell_length_c 17.882855
_cell_angle_alpha 151.426704
_cell_angle_beta 51.616307
_cell_angle_gamma 126.678590
_cell_volume 734.650848
_symmetry_space_group_name_H-M "P -1"
_symmetry_group_IT_number 2
_symmetry_cell_setting 'triclinic'
loop_
_space_group_symop_operation_xyz
x,y,z
-x,-y,-z
loop_
_atom_site_type_symbol
_atom_site_label
_atom_site_fract_x
_atom_site_fract_y
_atom_site_fract_z
Si Si1 0.856350 0.109923 0.163077
Si Si2 0.988753 0.971021 0.711848
Si Si3 0.748584 0.713277 0.093701
Si Si4 0.153433 0.539130 0.350847
Si Si5 0.324609 0.706893 0.235555
Si Si6 0.368149 0.201438 0.174306
Si Si7 0.158520 0.095873 0.446778
Si Si8 0.614593 0.416476 0.346169
O O1 0.689983 0.173460 0.203614
O O2 0.963805 0.358772 0.302762
O O3 0.789833 0.931018 0.147434
O O4 0.000000 0.000000 0.000000
O O5 0.113324 0.753894 0.542704
O O6 0.819826 0.916089 0.792433
O O7 0.902010 0.970366 0.656614
O O8 0.117339 0.208953 0.835674
O O9 0.534837 0.673659 0.162320
O O10 0.772222 0.480128 0.902420
O O11 0.216155 0.659738 0.321120
O O12 0.302267 0.368491 0.227782
O O13 0.324380 0.963149 0.345450
O O14 0.483545 0.379745 0.297440
O O15 0.500000 0.000000 0.000000
O O16 0.216875 0.376475 0.600482
O O17 0.000000 0.000000 0.500000
O O18 0.500000 0.500000 0.500000
#
# Coordination Sequence:
#
# PCOD9068018 Si02
#       8
#     2   2   2   2   2   2   2   2
#     4  12  22  42  75 101 137 189 236 286 355 424
#     4  12  26  46  74 107 141 186 242 300 354 416
#     4  11  27  43  73 105 143 188 235 299 357 429
#     4  12  24  47  73 104 143 186 243 288 353 431
#     4  11  26  47  70 105 143 195 235 283 363 434
#     4  12  28  44  71 113 148 179 237 307 361 412
#     4  12  25  46  72 103 144 188 238 288 353 424
#     4  12  25  44  72 105 139 187 236 298 346 414
#
# _framework density 21.779053999999999
#
# number of rings (size 3 to 8) (size 9 to 14) (size 15 to 20)
#    0.000    0.250    6.250    1.875    3.500    3.000 
#    0.000    0.000    0.000    0.000    0.000    0.000 
#    0.000    0.000    0.000    0.000    0.000    0.000 
#
# Total GULP energy -89480.069488 kJ/mol
# GULP energy per Si atom -5592.504343 kJ/mol
# Density = 2.172948 g / cm^3
# Si number density = 21.779054 Si / 1000 Ang^3
#
#
#
# Elastic Constant Matrix: (Units=GPa)
#
#
# Indices 1 2 3 4 5 6 
#
# 1 89.8028 -5.9459 13.7586 6.7705 -0.7995 -4.3624
# 2 -5.9459 74.1129 12.5567 -7.5067 0.5189 3.1856
# 3 13.7586 12.5567 93.1204 -12.4197 -7.5598 5.0927
# 4 6.7705 -7.5067 -12.4197 27.0665 6.6618 -6.0686
# 5 -0.7995 0.5189 -7.5598 6.6618 46.6646 12.9209
# 6 -4.3624 3.1856 5.0927 -6.0686 12.9209 36.7870
#
#
#
# Elastic Compliance Matrix: (Units=1/GPa)
#
#
# Indices 1 2 3 4 5 6 
#
# 1 0.011892 0.000955 -0.002421 -0.003586 0.000018 0.001065
# 2 0.000955 0.014182 -0.001704 0.003103 -0.000840 -0.000072
# 3 -0.002421 -0.001704 0.012213 0.004960 0.001693 -0.001607
# 4 -0.003586 0.003103 0.004960 0.044993 -0.008184 0.008916
# 5 0.000018 -0.000840 0.001693 -0.008184 0.025810 -0.010575
# 6 0.001065 -0.000072 -0.001607 0.008916 -0.010575 0.032724
#
#
# Mechanical properties :
#
#
# Convention : Reuss Voigt Hill
#
# Bulk Modulus (GPa) = 31.30164 33.08609 32.19386
# Shear Modulus (GPa) = 31.48582 37.88141 34.68361
#
# Velocity S-wave (km/s) = 3.80635 4.17508 3.99497
# Velocity P-wave (km/s) = 5.80700 6.20213 6.00781
#
# Compressibility (1/GPa) = 0.03194721
#
# Stress axis : x y z
#
# Youngs Moduli (GPa) = 84.09070 70.51437 81.87945
#
# Poissons Ratio (x) = -0.06735 0.19822
# Poissons Ratio (y) = -0.08031 0.13951
# Poissons Ratio (z) = 0.20358 0.12014
#
# Static dielectric constant tensor:
#      x y z
#    x 1.813580 -0.021030 -0.031570 
#    y -0.021030 1.800400 0.012490 
#    z -0.031570 0.012490 1.830370 
# 
# From -- ./inp_files/336835.got.cif
#   From: 2010.05.17/outbox.cif.g08.bks.cpg/sg2_169_cif.got.tgz:336835.got - 2010.06.03 11:33:40.
