data_PCOD9068683
_publ_section_title
;
Structure prediction by ZEFSAII (Michael W. Deem and Ramdas Pophale) SiO2 
 PCOD9068683
Probable space group: P -1
;
_chemical_formula_sum "Si O2"
_cell_formula_units_Z 14
_cell_length_a 9.287288
_cell_length_b 24.635342
_cell_length_c 5.043067
_cell_angle_alpha 115.754359
_cell_angle_beta 82.116716
_cell_angle_gamma 144.596982
_cell_volume 547.499361
_symmetry_space_group_name_H-M "P -1"
_symmetry_group_IT_number 2
_symmetry_cell_setting 'triclinic'
loop_
_space_group_symop_operation_xyz
x,y,z
-x,-y,-z
loop_
_atom_site_type_symbol
_atom_site_label
_atom_site_fract_x
_atom_site_fract_y
_atom_site_fract_z
Si Si1 0.730878 0.164825 0.205607
Si Si2 0.510185 0.808030 0.903042
Si Si3 0.693282 0.618489 0.582498
Si Si4 0.691849 0.025623 0.687137
Si Si5 0.566566 0.638295 0.125165
Si Si6 0.002189 0.456923 0.657329
Si Si7 0.224799 0.155444 0.566339
O O1 0.584542 0.155816 0.005005
O O2 0.022447 0.299024 0.457713
O O3 0.506080 0.084780 0.321659
O O4 0.803607 0.119078 0.049933
O O5 0.244369 0.675778 0.601138
O O6 0.740314 0.873292 0.763090
O O7 0.617164 0.821356 0.183962
O O8 0.500000 0.500000 0.500000
O O9 0.551780 0.606397 0.354752
O O10 0.786800 0.686339 0.971547
O O11 0.930242 0.073028 0.578407
O O12 0.500000 0.000000 0.500000
O O13 0.629996 0.730866 0.309142
O O14 0.294163 0.529873 0.794485
O O15 0.000000 0.500000 0.500000
O O16 0.000000 0.500000 0.000000
#
# Coordination Sequence:
#
# PCOD9068683 Si02
#       7
#     2   2   2   2   2   2   2
#     4  11  28  48  76 110 149 194 250 313 374 435
#     4  12  27  46  72 114 150 192 248 312 368 440
#     4  12  26  45  73 110 149 192 247 307 365 443
#     4  11  27  52  79 103 145 198 252 308 375 447
#     4  12  23  43  71 104 147 198 249 291 366 441
#     4  12  22  41  66 103 152 198 238 294 368 442
#     4  12  26  47  78 104 147 193 248 304 369 447
#
# _framework density 25.570805
#
# number of rings (size 3 to 8) (size 9 to 14) (size 15 to 20)
#    0.000    0.286    4.286    3.857    6.000    2.286 
#    0.000    0.000    0.000    0.000    0.000    0.000 
#    0.000    0.000    0.000    0.000    0.000    0.000 
#
# Total GULP energy -78312.179677 kJ/mol
# GULP energy per Si atom -5593.727120 kJ/mol
# Density = 2.551260 g / cm^3
# Si number density = 25.570805 Si / 1000 Ang^3
#
#
#
# Elastic Constant Matrix: (Units=GPa)
#
#
# Indices 1 2 3 4 5 6 
#
# 1 117.3249 56.2967 17.6158 -6.2850 10.7297 -20.0398
# 2 56.2967 204.1614 62.7383 -5.4546 24.0787 -13.6324
# 3 17.6158 62.7383 86.9086 -21.9392 16.8203 -25.8387
# 4 -6.2850 -5.4546 -21.9392 59.6488 -0.8577 15.7274
# 5 10.7297 24.0787 16.8203 -0.8577 48.6237 -11.6573
# 6 -20.0398 -13.6324 -25.8387 15.7274 -11.6573 39.7716
#
#
#
# Elastic Compliance Matrix: (Units=1/GPa)
#
#
# Indices 1 2 3 4 5 6 
#
# 1 0.010684 -0.003094 0.001702 0.000051 -0.000125 0.005372
# 2 -0.003094 0.007424 -0.005429 -0.000962 -0.001776 -0.002681
# 3 0.001702 -0.005429 0.019318 0.004326 -0.002082 0.009227
# 4 0.000051 -0.000962 0.004326 0.019810 -0.002107 -0.005946
# 5 -0.000125 -0.001776 -0.002082 -0.002107 0.023523 0.005704
# 6 0.005372 -0.002681 0.009227 -0.005946 0.005704 0.036949
#
#
# Mechanical properties :
#
#
# Convention : Reuss Voigt Hill
#
# Bulk Modulus (GPa) = 42.04258 75.74406 58.89332
# Shear Modulus (GPa) = 35.89899 47.72509 41.81204
#
# Velocity S-wave (km/s) = 3.75094 4.32486 4.04808
# Velocity P-wave (km/s) = 5.93605 7.39086 6.70304
#
# Compressibility (1/GPa) = 0.02378541
#
# Stress axis : x y z
#
# Youngs Moduli (GPa) = 93.59499 134.69342 51.76444
#
# Poissons Ratio (x) = 0.41680 -0.08813
# Poissons Ratio (y) = 0.28963 0.28101
# Poissons Ratio (z) = -0.15934 0.73121
#
# Static dielectric constant tensor:
#      x y z
#    x 2.281380 0.201300 -0.061830 
#    y 0.201300 2.131990 0.064570 
#    z -0.061830 0.064570 2.102250 
# 
# From -- ./inp_files/53298.got.cif
#   From: 2010.05.17/outbox.cif.g08.bks.cpg/sg2_27_cif.got.tgz:53298.got - 2010.06.03 11:33:40.
