data_PCOD9068332
_publ_section_title
;
Structure prediction by ZEFSAII (Michael W. Deem and Ramdas Pophale) SiO2 
 PCOD9068332
Probable space group: P -1
;
_chemical_formula_sum "Si O2"
_cell_formula_units_Z 16
_cell_length_a 8.781227
_cell_length_b 14.584674
_cell_length_c 13.865770
_cell_angle_alpha 147.579524
_cell_angle_beta 101.223968
_cell_angle_gamma 100.306774
_cell_volume 707.521430
_symmetry_space_group_name_H-M "P -1"
_symmetry_group_IT_number 2
_symmetry_cell_setting 'triclinic'
loop_
_space_group_symop_operation_xyz
x,y,z
-x,-y,-z
loop_
_atom_site_type_symbol
_atom_site_label
_atom_site_fract_x
_atom_site_fract_y
_atom_site_fract_z
Si Si1 0.246685 0.977898 0.050282
Si Si2 0.063322 0.240542 0.743418
Si Si3 0.899750 0.495518 0.334047
Si Si4 0.636857 0.069619 0.484237
Si Si5 0.391656 0.591806 0.943486
Si Si6 0.662417 0.299806 0.500771
Si Si7 0.744352 0.676519 0.959928
Si Si8 0.028148 0.939775 0.806717
O O1 0.169403 0.726137 0.817629
O O2 0.203644 0.026302 0.983433
O O3 0.110192 0.000131 0.123381
O O4 0.476846 0.149796 0.270490
O O5 0.256186 0.418803 0.858144
O O6 0.873891 0.225897 0.680603
O O7 0.125700 0.305972 0.920408
O O8 0.000000 0.000000 0.500000
O O9 0.135561 0.646475 0.465970
O O10 0.757174 0.409993 0.146628
O O11 0.891013 0.670454 0.542920
O O12 0.603559 0.179054 0.490744
O O13 0.500000 0.000000 0.500000
O O14 0.564374 0.837070 0.226410
O O15 0.517252 0.546768 0.856265
O O16 0.725118 0.538570 0.744182
O O17 0.861467 0.930336 0.163786
#
# Coordination Sequence:
#
# PCOD9068332 Si02
#       8
#     2   2   2   2   2   2   2   2
#     4  11  26  50  74 104 144 187 237 295 361 421
#     4  12  26  44  69 101 140 187 237 287 350 425
#     4  12  24  48  75 104 143 185 238 295 356 421
#     4  12  27  42  69 103 139 186 235 288 352 419
#     4  12  25  47  68 101 142 184 236 288 352 422
#     4  12  26  46  71 105 142 184 239 294 354 426
#     4  12  26  45  73 103 144 190 235 294 354 421
#     4  11  26  49  74 107 142 186 240 295 355 427
#
# _framework density 22.614156000000001
#
# number of rings (size 3 to 8) (size 9 to 14) (size 15 to 20)
#    0.000    0.250    5.000    3.750    5.250    2.000 
#    2.250    0.000    0.000    0.000    0.000    0.000 
#    0.000    0.000    0.000    0.000    0.000    0.000 
#
# Total GULP energy -89627.581615 kJ/mol
# GULP energy per Si atom -5601.723851 kJ/mol
# Density = 2.256269 g / cm^3
# Si number density = 22.614156 Si / 1000 Ang^3
#
#
#
# Elastic Constant Matrix: (Units=GPa)
#
#
# Indices 1 2 3 4 5 6 
#
# 1 72.5082 14.0445 29.1295 -5.6523 13.7074 -9.6824
# 2 14.0445 70.7459 11.4708 -6.8888 20.6105 -17.0567
# 3 29.1295 11.4708 80.2649 5.7181 10.2074 -15.2657
# 4 -5.6523 -6.8888 5.7181 33.5127 -18.1610 -1.0171
# 5 13.7074 20.6105 10.2074 -18.1610 42.1809 -8.2651
# 6 -9.6824 -17.0567 -15.2657 -1.0171 -8.2651 26.8965
#
#
#
# Elastic Compliance Matrix: (Units=1/GPa)
#
#
# Indices 1 2 3 4 5 6 
#
# 1 0.017112 -0.001207 -0.005619 0.002424 -0.002253 0.001605
# 2 -0.001207 0.018616 0.000459 0.000086 -0.006915 0.009510
# 3 -0.005619 0.000459 0.016456 -0.005327 -0.003429 0.006354
# 4 0.002424 0.000086 -0.005327 0.041969 0.019610 0.005517
# 5 -0.002253 -0.006915 -0.003429 0.019610 0.038133 0.005317
# 6 0.001605 0.009510 0.006354 0.005517 0.005317 0.049237
#
#
# Mechanical properties :
#
#
# Convention : Reuss Voigt Hill
#
# Bulk Modulus (GPa) = 25.34694 36.97872 31.16283
# Shear Modulus (GPa) = 24.10734 31.77629 27.94182
#
# Velocity S-wave (km/s) = 3.26855 3.75260 3.51891
# Velocity P-wave (km/s) = 5.04751 5.92988 5.50640
#
# Compressibility (1/GPa) = 0.03945249
#
# Stress axis : x y z
#
# Youngs Moduli (GPa) = 58.43926 53.71747 60.76747
#
# Poissons Ratio (x) = 0.06481 0.34143
# Poissons Ratio (y) = 0.07051 -0.02792
# Poissons Ratio (z) = 0.32835 -0.02468
#
# Static dielectric constant tensor:
#      x y z
#    x 1.856990 -0.011120 -0.063570 
#    y -0.011120 1.809570 0.014430 
#    z -0.063570 0.014430 1.844290 
# 
# From -- ./inp_files/90157.got.cif
#   From: 2010.05.17/outbox.cif.g08.bks.cpg/sg2_46_cif.got.tgz:90157.got - 2010.06.03 11:33:40.
