data_PCOD9068964
_publ_section_title
;
Structure prediction by ZEFSAII (Michael W. Deem and Ramdas Pophale) SiO2 
 PCOD9068964
Probable space group: P -1
;
_chemical_formula_sum "Si O2"
_cell_formula_units_Z 16
_cell_length_a 14.319693
_cell_length_b 10.797054
_cell_length_c 13.321091
_cell_angle_alpha 113.148608
_cell_angle_beta 131.942268
_cell_angle_gamma 30.995630
_cell_volume 696.576572
_symmetry_space_group_name_H-M "P -1"
_symmetry_group_IT_number 2
_symmetry_cell_setting 'triclinic'
loop_
_space_group_symop_operation_xyz
x,y,z
-x,-y,-z
loop_
_atom_site_type_symbol
_atom_site_label
_atom_site_fract_x
_atom_site_fract_y
_atom_site_fract_z
Si Si1 0.250369 0.715661 0.147351
Si Si2 0.524713 0.341920 0.037584
Si Si3 0.950775 0.275911 0.816331
Si Si4 0.277189 0.291507 0.879069
Si Si5 0.510578 0.235810 0.653057
Si Si6 0.836760 0.766710 0.873823
Si Si7 0.509011 0.154492 0.413232
Si Si8 0.953885 0.670893 0.449689
O O1 0.422028 0.482047 0.115442
O O2 0.405053 0.695644 0.296657
O O3 0.172431 0.689804 0.170545
O O4 0.000000 0.000000 0.000000
O O5 0.816520 0.025921 0.153743
O O6 0.500000 0.500000 0.000000
O O7 0.372330 0.341648 0.908378
O O8 0.725364 0.523448 0.658895
O O9 0.070512 0.294113 0.965853
O O10 0.158318 0.293963 0.718689
O O11 0.068233 0.527279 0.887216
O O12 0.500000 0.000000 0.000000
O O13 0.575408 0.080496 0.554634
O O14 0.220220 0.491031 0.557518
O O15 0.687135 0.037395 0.812010
O O16 0.621333 0.855901 0.731084
O O17 0.753316 0.951616 0.454640
O O18 0.000000 0.500000 0.500000
#
# Coordination Sequence:
#
# PCOD9068964 Si02
#       8
#     2   2   2   2   2   2   2   2
#     4  12  25  48  71 101 139 185 240 290 348 429
#     4  12  25  43  74 108 142 187 244 290 350 427
#     4  12  26  45  73 104 139 186 238 292 355 420
#     4  12  25  44  76 109 144 185 239 302 357 416
#     4  12  26  46  70 104 142 184 237 292 355 427
#     4  12  21  46  72 102 146 181 231 298 352 425
#     4  12  26  45  71 105 146 181 231 297 365 417
#     4  12  26  44  71 106 144 186 238 291 363 428
#
# _framework density 22.969477000000001
#
# number of rings (size 3 to 8) (size 9 to 14) (size 15 to 20)
#    0.000    0.000    6.250    3.750    1.750    1.500 
#    0.000    1.250    0.000    0.000    0.000    0.000 
#    0.000    0.000    0.000    0.000    0.000    0.000 
#
# Total GULP energy -89556.893479 kJ/mol
# GULP energy per Si atom -5597.305842 kJ/mol
# Density = 2.291720 g / cm^3
# Si number density = 22.969477 Si / 1000 Ang^3
#
#
#
# Elastic Constant Matrix: (Units=GPa)
#
#
# Indices 1 2 3 4 5 6 
#
# 1 98.8552 17.8574 18.1334 -6.7272 27.1052 -4.7096
# 2 17.8574 132.2125 22.9402 -27.6794 13.3006 -29.1685
# 3 18.1334 22.9402 102.4994 -6.6787 7.7279 -2.9653
# 4 -6.7272 -27.6794 -6.6787 32.7864 4.1478 5.0890
# 5 27.1052 13.3006 7.7279 4.1478 38.8907 -1.5708
# 6 -4.7096 -29.1685 -2.9653 5.0890 -1.5708 44.7949
#
#
#
# Elastic Compliance Matrix: (Units=1/GPa)
#
#
# Indices 1 2 3 4 5 6 
#
# 1 0.013187 0.000384 -0.001439 0.003806 -0.009411 0.000779
# 2 0.000384 0.011529 -0.001525 0.009117 -0.004628 0.006249
# 3 -0.001439 -0.001525 0.010431 0.000711 -0.000647 -0.000557
# 4 0.003806 0.009117 0.000711 0.040179 -0.010138 0.001464
# 5 -0.009411 -0.004628 -0.000647 -0.010138 0.034997 -0.001667
# 6 0.000779 0.006249 -0.000557 0.001464 -0.001667 0.026213
#
#
# Mechanical properties :
#
#
# Convention : Reuss Voigt Hill
#
# Bulk Modulus (GPa) = 33.34661 50.15877 41.75269
# Shear Modulus (GPa) = 32.96200 41.60348 37.28274
#
# Velocity S-wave (km/s) = 3.79229 4.26050 4.03320
# Velocity P-wave (km/s) = 5.80729 6.78874 6.31710
#
# Compressibility (1/GPa) = 0.02998806
#
# Stress axis : x y z
#
# Youngs Moduli (GPa) = 75.83343 86.73759 95.86933
#
# Poissons Ratio (x) = -0.03330 0.13794
# Poissons Ratio (y) = -0.02912 0.14615
# Poissons Ratio (z) = 0.10911 0.13223
#
# Static dielectric constant tensor:
#      x y z
#    x 1.886620 0.059470 -0.012930 
#    y 0.059470 1.898900 0.010400 
#    z -0.012930 0.010400 1.874280 
# 
# From -- ./inp_files/531896.got.cif
#   From: 2010.05.17/outbox.cif.g08.bks.cpg/sg2_266_cif.got.tgz:531896.got - 2010.06.03 11:33:40.
