data_PCOD9068590
_publ_section_title
;
Structure prediction by ZEFSAII (Michael W. Deem and Ramdas Pophale) SiO2 
 PCOD9068590
Probable space group: P -1
;
_chemical_formula_sum "Si O2"
_cell_formula_units_Z 10
_cell_length_a 9.246198
_cell_length_b 4.842268
_cell_length_c 10.423875
_cell_angle_alpha 88.452804
_cell_angle_beta 67.836683
_cell_angle_gamma 62.782615
_cell_volume 378.314213
_symmetry_space_group_name_H-M "P -1"
_symmetry_group_IT_number 2
_symmetry_cell_setting 'triclinic'
loop_
_space_group_symop_operation_xyz
x,y,z
-x,-y,-z
loop_
_atom_site_type_symbol
_atom_site_label
_atom_site_fract_x
_atom_site_fract_y
_atom_site_fract_z
Si Si1 0.620241 0.719052 0.072889
Si Si2 0.303571 0.626972 0.222877
Si Si3 0.335455 0.275169 0.470722
Si Si4 0.116746 0.987386 0.621673
Si Si5 0.188441 0.931769 0.881048
O O1 0.414125 0.814553 0.161929
O O2 0.707930 0.442792 0.150807
O O3 0.705848 0.941285 0.068623
O O4 0.674113 0.557527 0.916581
O O5 0.382495 0.382569 0.318938
O O6 0.095333 0.854155 0.317450
O O7 0.225466 0.611275 0.574405
O O8 0.500000 0.000000 0.500000
O O9 0.199247 0.140270 0.496017
O O10 0.158716 0.069324 0.747882
O O11 0.000000 0.000000 0.000000
#
# Coordination Sequence:
#
# PCOD9068590 Si02
#       5
#     2   2   2   2   2
#     4  11  27  47  79 114 164 208 254 325 391 472
#     4  11  27  50  79 121 160 206 267 323 395 461
#     4  12  28  51  79 114 160 210 263 327 394 470
#     4  12  27  48  83 114 156 207 268 324 388 470
#     4  12  25  48  76 115 158 205 261 314 393 468
#
# _framework density 26.433056000000001
#
# number of rings (size 3 to 8) (size 9 to 14) (size 15 to 20)
#    0.000    0.400    2.000    4.800    2.800    9.600 
#    0.000    0.000    0.000    0.000    0.000    0.000 
#    0.000    0.000    0.000    0.000    0.000    0.000 
#
# Total GULP energy -56080.462662 kJ/mol
# GULP energy per Si atom -5608.046266 kJ/mol
# Density = 2.637289 g / cm^3
# Si number density = 26.433056 Si / 1000 Ang^3
#
#
#
# Elastic Constant Matrix: (Units=GPa)
#
#
# Indices 1 2 3 4 5 6 
#
# 1 201.4192 88.5674 75.6471 16.7198 -26.4610 2.6826
# 2 88.5674 138.9850 42.3102 -5.0687 -16.2058 14.7802
# 3 75.6471 42.3102 155.0843 -0.4808 2.1686 -0.0580
# 4 16.7198 -5.0687 -0.4808 40.8742 -9.8312 0.7275
# 5 -26.4610 -16.2058 2.1686 -9.8312 55.9618 3.6043
# 6 2.6826 14.7802 -0.0580 0.7275 3.6043 50.6622
#
#
#
# Elastic Compliance Matrix: (Units=1/GPa)
#
#
# Indices 1 2 3 4 5 6 
#
# 1 0.008701 -0.004576 -0.003038 -0.003643 0.002218 0.000765
# 2 -0.004576 0.011054 -0.000801 0.003754 0.001933 -0.003175
# 3 -0.003038 -0.000801 0.008177 0.000777 -0.001883 0.000527
# 4 -0.003643 0.003754 0.000777 0.027485 0.004266 -0.001600
# 5 0.002218 0.001933 -0.001883 0.004266 0.020442 -0.002199
# 6 0.000765 -0.003175 0.000527 -0.001600 -0.002199 0.020804
#
#
# Mechanical properties :
#
#
# Convention : Reuss Voigt Hill
#
# Bulk Modulus (GPa) = 90.05207 100.94865 95.50036
# Shear Modulus (GPa) = 42.66436 48.76389 45.71413
#
# Velocity S-wave (km/s) = 4.02189 4.29978 4.16315
# Velocity P-wave (km/s) = 7.46387 7.93247 7.70173
#
# Compressibility (1/GPa) = 0.01110469
#
# Stress axis : x y z
#
# Youngs Moduli (GPa) = 114.92571 90.46122 122.28932
#
# Poissons Ratio (x) = 0.41392 0.37152
# Poissons Ratio (y) = 0.52586 0.09790
# Poissons Ratio (z) = 0.34915 0.07242
#
# Static dielectric constant tensor:
#      x y z
#    x 2.058350 -0.036360 0.023340 
#    y -0.036360 2.075620 0.035680 
#    z 0.023340 0.035680 2.056460 
# 
# From -- ./inp_files/59187.got.cif
#   From: 2010.05.17/outbox.cif.g08.bks.cpg/sg2_30_cif.got.tgz:59187.got - 2010.06.03 11:33:40.
