data_PCOD9068613
_publ_section_title
;
Structure prediction by ZEFSAII (Michael W. Deem and Ramdas Pophale) SiO2 
 PCOD9068613
Probable space group: P -1
;
_chemical_formula_sum "Si O2"
_cell_formula_units_Z 10
_cell_length_a 10.280591
_cell_length_b 15.616590
_cell_length_c 5.144331
_cell_angle_alpha 78.734125
_cell_angle_beta 76.144811
_cell_angle_gamma 26.575437
_cell_volume 358.405358
_symmetry_space_group_name_H-M "P -1"
_symmetry_group_IT_number 2
_symmetry_cell_setting 'triclinic'
loop_
_space_group_symop_operation_xyz
x,y,z
-x,-y,-z
loop_
_atom_site_type_symbol
_atom_site_label
_atom_site_fract_x
_atom_site_fract_y
_atom_site_fract_z
Si Si1 0.690950 0.708292 0.681031
Si Si2 0.697311 0.563915 0.395776
Si Si3 0.823442 0.035910 0.882206
Si Si4 0.784769 0.351863 0.126142
Si Si5 0.322557 0.132935 0.758500
O O1 0.687864 0.607530 0.669079
O O2 0.683239 0.761485 0.373617
O O3 0.980907 0.581224 0.750269
O O4 0.398517 0.890438 0.874350
O O5 0.397914 0.778086 0.295074
O O6 0.719340 0.452729 0.343808
O O7 0.047370 0.835858 0.767892
O O8 0.000000 0.000000 0.000000
O O9 0.500000 0.500000 0.000000
O O10 0.007808 0.273990 0.875045
O O11 0.500000 0.000000 0.500000
O O12 0.500000 0.000000 0.000000
#
# Coordination Sequence:
#
# PCOD9068613 Si02
#       5
#     2   2   2   2   2
#     4  11  27  48  81 122 160 218 285 346 424 505
#     4  11  27  48  82 117 162 214 282 346 417 502
#     4  12  26  52  78 117 170 219 270 350 426 503
#     4  12  27  50  80 121 168 218 283 344 429 499
#     4  12  26  51  86 125 165 225 288 355 422 513
#
# _framework density 27.901371000000001
#
# number of rings (size 3 to 8) (size 9 to 14) (size 15 to 20)
#    0.000    0.400    4.000    3.000    8.400    0.800 
#    0.000   10.000    0.000    0.000    0.000    0.000 
#    0.000    0.000    0.000    0.000    0.000    0.000 
#
# Total GULP energy -56018.206244 kJ/mol
# GULP energy per Si atom -5601.820624 kJ/mol
# Density = 2.783787 g / cm^3
# Si number density = 27.901371 Si / 1000 Ang^3
#
#
#
# Elastic Constant Matrix: (Units=GPa)
#
#
# Indices 1 2 3 4 5 6 
#
# 1 252.0340 114.4766 32.8930 -11.6355 28.1223 17.0822
# 2 114.4766 225.8025 43.7773 -28.0748 7.2633 1.3730
# 3 32.8930 43.7773 109.3819 -11.0828 -7.8421 -0.9281
# 4 -11.6355 -28.0748 -11.0828 49.5416 -3.2522 -3.6915
# 5 28.1223 7.2633 -7.8421 -3.2522 49.7867 2.6839
# 6 17.0822 1.3730 -0.9281 -3.6915 2.6839 77.8269
#
#
#
# Elastic Compliance Matrix: (Units=1/GPa)
#
#
# Indices 1 2 3 4 5 6 
#
# 1 0.005682 -0.002683 -0.000924 -0.000671 -0.002946 -0.001141
# 2 -0.002683 0.006388 -0.001430 0.002746 0.000507 0.000572
# 3 -0.000924 -0.001430 0.010318 0.001466 0.002433 0.000337
# 4 -0.000671 0.002746 0.001466 0.022099 0.001593 0.001110
# 5 -0.002946 0.000507 0.002433 0.001593 0.022164 -0.000022
# 6 -0.001141 0.000572 0.000337 0.001110 -0.000022 0.013147
#
#
# Mechanical properties :
#
#
# Convention : Reuss Voigt Hill
#
# Bulk Modulus (GPa) = 81.21000 107.72359 94.46680
# Shear Modulus (GPa) = 53.20436 61.83578 57.52007
#
# Velocity S-wave (km/s) = 4.37151 4.71279 4.54536
# Velocity P-wave (km/s) = 7.39253 8.26477 7.84079
#
# Compressibility (1/GPa) = 0.01231375
#
# Stress axis : x y z
#
# Youngs Moduli (GPa) = 175.98935 156.54454 96.91538
#
# Poissons Ratio (x) = 0.42007 0.08952
# Poissons Ratio (y) = 0.47225 0.13861
# Poissons Ratio (z) = 0.16255 0.22390
#
# Static dielectric constant tensor:
#      x y z
#    x 2.254740 0.160070 -0.095730 
#    y 0.160070 2.227230 -0.050320 
#    z -0.095730 -0.050320 2.197960 
# 
# From -- ./inp_files/15722.got.cif
#   From: 2010.05.17/outbox.cif.g08.bks.cpg/sg2_8_cif.got.tgz:15722.got - 2010.06.03 11:33:40.
