data_PCOD9068036
_publ_section_title
;
Structure prediction by ZEFSAII (Michael W. Deem and Ramdas Pophale) SiO2 
 PCOD9068036
Probable space group: P -1
;
_chemical_formula_sum "Si O2"
_cell_formula_units_Z 14
_cell_length_a 16.464525
_cell_length_b 9.822828
_cell_length_c 11.977930
_cell_angle_alpha 125.721797
_cell_angle_beta 50.120952
_cell_angle_gamma 154.462249
_cell_volume 640.791402
_symmetry_space_group_name_H-M "P -1"
_symmetry_group_IT_number 2
_symmetry_cell_setting 'triclinic'
loop_
_space_group_symop_operation_xyz
x,y,z
-x,-y,-z
loop_
_atom_site_type_symbol
_atom_site_label
_atom_site_fract_x
_atom_site_fract_y
_atom_site_fract_z
Si Si1 0.950612 0.745164 0.383115
Si Si2 0.415869 0.636209 0.164223
Si Si3 0.440537 0.545754 0.673725
Si Si4 0.091537 0.632330 0.606723
Si Si5 0.355039 0.227575 0.159676
Si Si6 0.507785 0.124347 0.387616
Si Si7 0.993141 0.108297 0.166240
O O1 0.961963 0.611857 0.400808
O O2 0.725367 0.448182 0.397884
O O3 0.000000 0.000000 0.500000
O O4 0.116750 0.918070 0.228640
O O5 0.434371 0.505536 0.168566
O O6 0.190828 0.343310 0.176597
O O7 0.466461 0.873222 0.295982
O O8 0.560485 0.801319 0.010232
O O9 0.500000 0.500000 0.500000
O O10 0.559520 0.674501 0.744282
O O11 0.495838 0.800469 0.696493
O O12 0.206900 0.208527 0.742466
O O13 0.018897 0.708557 0.762030
O O14 0.000000 0.500000 0.500000
O O15 0.330095 0.962944 0.539868
O O16 0.000000 0.000000 0.000000
#
# Coordination Sequence:
#
# PCOD9068036 Si02
#       7
#     2   2   2   2   2   2   2
#     4  12  28  45  71 105 146 194 249 308 372 434
#     4  11  26  48  73 106 146 197 247 300 378 444
#     4  12  25  44  73 107 144 190 243 302 365 431
#     4  12  26  46  75 108 147 193 251 307 366 449
#     4  11  26  47  72 103 150 192 246 309 364 443
#     4  12  26  44  73 105 146 189 249 303 370 439
#     4  12  26  47  76 110 149 196 243 304 378 443
#
# _framework density 21.847984
#
# number of rings (size 3 to 8) (size 9 to 14) (size 15 to 20)
#    0.000    0.286    4.286    3.857    4.000    2.286 
#    0.000    0.000    0.000    0.000    0.000    0.000 
#    0.000    0.000    0.000    0.000    0.000    0.000 
#
# Total GULP energy -78443.699013 kJ/mol
# GULP energy per Si atom -5603.121358 kJ/mol
# Density = 2.179826 g / cm^3
# Si number density = 21.847984 Si / 1000 Ang^3
#
#
#
# Elastic Constant Matrix: (Units=GPa)
#
#
# Indices 1 2 3 4 5 6 
#
# 1 110.7197 18.8451 37.1095 11.9747 2.9285 -13.1794
# 2 18.8451 85.8647 32.4899 -3.3649 -3.2743 10.9475
# 3 37.1095 32.4899 127.9926 -9.8969 -12.0277 5.5437
# 4 11.9747 -3.3649 -9.8969 48.9087 -1.5104 -6.4363
# 5 2.9285 -3.2743 -12.0277 -1.5104 33.3414 -3.4285
# 6 -13.1794 10.9475 5.5437 -6.4363 -3.4285 51.5071
#
#
#
# Elastic Compliance Matrix: (Units=1/GPa)
#
#
# Indices 1 2 3 4 5 6 
#
# 1 0.011249 -0.001785 -0.003400 -0.003229 -0.002220 0.003072
# 2 -0.001785 0.013470 -0.002720 0.000431 0.000214 -0.002959
# 3 -0.003400 -0.002720 0.010080 0.002695 0.003708 -0.000793
# 4 -0.003229 0.000431 0.002695 0.022115 0.002477 0.001720
# 5 -0.002220 0.000214 0.003708 0.002477 0.031804 0.001414
# 6 0.003072 -0.002959 -0.000793 0.001720 0.001414 0.021224
#
#
# Mechanical properties :
#
#
# Convention : Reuss Voigt Hill
#
# Bulk Modulus (GPa) = 52.66278 55.71845 54.19062
# Shear Modulus (GPa) = 37.85545 42.49360 40.17452
#
# Velocity S-wave (km/s) = 4.16706 4.41496 4.29280
# Velocity P-wave (km/s) = 6.87815 7.17965 7.03052
#
# Compressibility (1/GPa) = 0.01898874
#
# Stress axis : x y z
#
# Youngs Moduli (GPa) = 88.89820 74.24157 99.20336
#
# Poissons Ratio (x) = 0.13255 0.33725
# Poissons Ratio (y) = 0.15872 0.26983
# Poissons Ratio (z) = 0.30222 0.20193
#
# Static dielectric constant tensor:
#      x y z
#    x 1.808850 -0.020150 0.010120 
#    y -0.020150 1.762460 0.011040 
#    z 0.010120 0.011040 1.718370 
# 
# From -- ./inp_files/448015.got.cif
#   From: 2010.05.17/outbox.cif.g08.bks.cpg/sg2_225_cif.got.tgz:448015.got - 2010.06.03 11:33:40.
