data_PCOD9068444
_publ_section_title
;
Structure prediction by ZEFSAII (Michael W. Deem and Ramdas Pophale) SiO2 
 PCOD9068444
Probable space group: P -1
;
_chemical_formula_sum "Si O2"
_cell_formula_units_Z 10
_cell_length_a 11.710115
_cell_length_b 8.525672
_cell_length_c 7.077414
_cell_angle_alpha 105.078765
_cell_angle_beta 62.033609
_cell_angle_gamma 141.391301
_cell_volume 382.106881
_symmetry_space_group_name_H-M "P -1"
_symmetry_group_IT_number 2
_symmetry_cell_setting 'triclinic'
loop_
_space_group_symop_operation_xyz
x,y,z
-x,-y,-z
loop_
_atom_site_type_symbol
_atom_site_label
_atom_site_fract_x
_atom_site_fract_y
_atom_site_fract_z
Si Si1 0.714654 0.687525 0.297942
Si Si2 0.311209 0.120085 0.944560
Si Si3 0.146140 0.896019 0.425985
Si Si4 0.088377 0.428009 0.001954
Si Si5 0.723498 0.322410 0.667168
O O1 0.500000 0.500000 0.500000
O O2 0.782112 0.568758 0.220931
O O3 0.855940 0.942675 0.396078
O O4 0.679959 0.694585 0.102907
O O5 0.244741 0.035567 0.188460
O O6 0.511163 0.209122 0.769240
O O7 0.118830 0.869557 0.895469
O O8 0.275995 0.873349 0.413951
O O9 0.918956 0.595820 0.499448
O O10 0.219149 0.600774 0.133708
O O11 0.000000 0.500000 0.000000
#
# Coordination Sequence:
#
# PCOD9068444 Si02
#       5
#     2   2   2   2   2
#     4  12  30  50  79 119 156 205 263 318 390 460
#     4  12  27  50  82 109 162 202 255 325 386 454
#     4  11  26  50  78 118 158 200 265 316 385 466
#     4  12  27  53  78 113 160 206 258 322 386 467
#     4  11  26  50  80 120 152 208 260 314 394 463
#
# _framework density 26.17069
#
# number of rings (size 3 to 8) (size 9 to 14) (size 15 to 20)
#    0.000    0.400    4.000    2.400    5.600    4.800 
#    0.000    0.000    0.000    0.000    0.000    0.000 
#    0.000    0.000    0.000    0.000    0.000    0.000 
#
# Total GULP energy -55978.152956 kJ/mol
# GULP energy per Si atom -5597.815296 kJ/mol
# Density = 2.611112 g / cm^3
# Si number density = 26.170690 Si / 1000 Ang^3
#
#
#
# Elastic Constant Matrix: (Units=GPa)
#
#
# Indices 1 2 3 4 5 6 
#
# 1 87.8083 -10.3540 57.6191 10.9771 -6.6777 -9.3945
# 2 -10.3540 32.6497 31.7082 5.5373 -1.9725 -0.1493
# 3 57.6191 31.7082 158.6294 9.2799 -10.7338 -21.0977
# 4 10.9771 5.5373 9.2799 52.3659 -1.3245 -5.9859
# 5 -6.6777 -1.9725 -10.7338 -1.3245 64.3988 -10.5574
# 6 -9.3945 -0.1493 -21.0977 -5.9859 -10.5574 41.8400
#
#
#
# Elastic Compliance Matrix: (Units=1/GPa)
#
#
# Indices 1 2 3 4 5 6 
#
# 1 0.021628 0.018837 -0.011496 -0.004633 0.000580 -0.001390
# 2 0.018837 0.055616 -0.018370 -0.007275 -0.000540 -0.006012
# 3 -0.011496 -0.018370 0.014874 0.002402 0.001696 0.005625
# 4 -0.004633 -0.007275 0.002402 0.020804 0.000664 0.003289
# 5 0.000580 -0.000540 0.001696 0.000664 0.016737 0.005302
# 6 -0.001390 -0.006012 0.005625 0.003289 0.005302 0.028212
#
#
# Mechanical properties :
#
#
# Convention : Reuss Voigt Hill
#
# Bulk Modulus (GPa) = 14.27332 48.55933 31.41632
# Shear Modulus (GPa) = 24.59656 45.06186 34.82921
#
# Velocity S-wave (km/s) = 3.06903 4.15401 3.65204
# Velocity P-wave (km/s) = 4.24551 6.45003 5.46018
#
# Compressibility (1/GPa) = 0.07006079
#
# Stress axis : x y z
#
# Youngs Moduli (GPa) = 46.23712 17.98053 67.23208
#
# Poissons Ratio (x) = -0.33870 0.77288
# Poissons Ratio (y) = -0.87098 1.23504
# Poissons Ratio (z) = 0.53153 0.33030
#
# Static dielectric constant tensor:
#      x y z
#    x 4.680850 -2.470740 0.059170 
#    y -2.470740 4.173410 -0.169490 
#    z 0.059170 -0.169490 1.955830 
# 
# From -- ./inp_files/240165.got.cif
#   From: 2010.05.17/outbox.cif.g08.bks.cpg/sg2_121_cif.got.tgz:240165.got - 2010.06.03 11:33:40.
