data_PCOD9068417
_publ_section_title
;
Structure prediction by ZEFSAII (Michael W. Deem and Ramdas Pophale) SiO2 
 PCOD9068417
Probable space group: P -1
;
_chemical_formula_sum "Si O2"
_cell_formula_units_Z 14
_cell_length_a 8.439592
_cell_length_b 13.897193
_cell_length_c 7.754052
_cell_angle_alpha 122.989578
_cell_angle_beta 66.263717
_cell_angle_gamma 75.898955
_cell_volume 557.183495
_symmetry_space_group_name_H-M "P -1"
_symmetry_group_IT_number 2
_symmetry_cell_setting 'triclinic'
loop_
_space_group_symop_operation_xyz
x,y,z
-x,-y,-z
loop_
_atom_site_type_symbol
_atom_site_label
_atom_site_fract_x
_atom_site_fract_y
_atom_site_fract_z
Si Si1 0.621188 0.921745 0.052129
Si Si2 0.433874 0.374214 0.539837
Si Si3 0.502156 0.418178 0.183186
Si Si4 0.263296 0.218275 0.638994
Si Si5 0.911203 0.157580 0.243768
Si Si6 0.201179 0.371476 0.171733
Si Si7 0.922840 0.156229 0.636072
O O1 0.491570 0.054983 0.374430
O O2 0.634063 0.780721 0.945376
O O3 0.877969 0.846759 0.872788
O O4 0.500000 0.000000 0.000000
O O5 0.380538 0.447126 0.447162
O O6 0.406358 0.492073 0.794440
O O7 0.308785 0.309384 0.583629
O O8 0.693595 0.258087 0.329186
O O9 0.337358 0.432095 0.132372
O O10 0.715921 0.259179 0.941734
O O11 0.095988 0.188185 0.620618
O O12 0.176013 0.309274 0.944492
O O13 0.851817 0.186017 0.497894
O O14 0.000000 0.000000 0.000000
O O15 0.000000 0.500000 0.500000
O O16 0.000000 0.000000 0.500000
#
# Coordination Sequence:
#
# PCOD9068417 Si02
#       7
#     2   2   2   2   2   2   2
#     4  12  25  49  76 116 155 204 258 321 388 458
#     4  11  26  50  76 111 149 204 252 313 393 451
#     4  11  27  49  75 107 159 196 250 319 382 465
#     4  12  27  49  79 114 152 205 260 320 384 470
#     4  12  25  43  77 108 151 195 250 312 380 461
#     4  12  29  49  79 114 158 204 263 321 387 464
#     4  12  28  47  76 114 151 199 254 317 388 457
#
# _framework density 25.126374999999999
#
# number of rings (size 3 to 8) (size 9 to 14) (size 15 to 20)
#    0.000    0.286    2.857    4.714    8.000    4.000 
#    0.000    0.000    0.000    0.000    0.000    0.000 
#    0.000    0.000    0.000    0.000    0.000    0.000 
#
# Total GULP energy -78233.328282 kJ/mol
# GULP energy per Si atom -5588.094877 kJ/mol
# Density = 2.506919 g / cm^3
# Si number density = 25.126375 Si / 1000 Ang^3
#
#
#
# Elastic Constant Matrix: (Units=GPa)
#
#
# Indices 1 2 3 4 5 6 
#
# 1 130.8930 47.5180 22.2417 -11.5821 9.8137 29.4589
# 2 47.5180 109.2764 51.9534 -9.1138 16.4246 22.5344
# 3 22.2417 51.9534 141.3025 9.7998 16.3279 1.0409
# 4 -11.5821 -9.1138 9.7998 51.5464 -1.2133 8.3610
# 5 9.8137 16.4246 16.3279 -1.2133 46.3126 -0.2208
# 6 29.4589 22.5344 1.0409 8.3610 -0.2208 48.8975
#
#
#
# Elastic Compliance Matrix: (Units=1/GPa)
#
#
# Indices 1 2 3 4 5 6 
#
# 1 0.010259 -0.002630 -0.000695 0.002833 -0.000948 -0.005443
# 2 -0.002630 0.014471 -0.004799 0.003728 -0.002812 -0.005633
# 3 -0.000695 -0.004799 0.009332 -0.003299 -0.001513 0.002989
# 4 0.002833 0.003728 -0.003299 0.022486 -0.000204 -0.007200
# 5 -0.000948 -0.002812 -0.001513 -0.000204 0.023329 0.002040
# 6 -0.005443 -0.005633 0.002989 -0.007200 0.002040 0.027503
#
#
# Mechanical properties :
#
#
# Convention : Reuss Voigt Hill
#
# Bulk Modulus (GPa) = 56.12835 69.43310 62.78072
# Shear Modulus (GPa) = 38.59054 46.66854 42.62954
#
# Velocity S-wave (km/s) = 3.92325 4.31438 4.12346
# Velocity P-wave (km/s) = 6.55053 7.24652 6.90730
#
# Compressibility (1/GPa) = 0.01781631
#
# Stress axis : x y z
#
# Youngs Moduli (GPa) = 97.47299 69.10252 107.15283
#
# Poissons Ratio (x) = 0.18172 0.07445
# Poissons Ratio (y) = 0.25632 0.51421
# Poissons Ratio (z) = 0.06773 0.33161
#
# Static dielectric constant tensor:
#      x y z
#    x 1.960360 0.055680 0.107330 
#    y 0.055680 2.002650 -0.044010 
#    z 0.107330 -0.044010 1.936500 
# 
# From -- ./inp_files/204024.got.cif
#   From: 2010.05.17/outbox.cif.g08.bks.cpg/sg2_103_cif.got.tgz:204024.got - 2010.06.03 11:33:40.
