data_PCOD9068229
_publ_section_title
;
Structure prediction by ZEFSAII (Michael W. Deem and Ramdas Pophale) SiO2 
 PCOD9068229
Probable space group: P -1
;
_chemical_formula_sum "Si O2"
_cell_formula_units_Z 14
_cell_length_a 9.105335
_cell_length_b 8.344151
_cell_length_c 8.763984
_cell_angle_alpha 101.999503
_cell_angle_beta 111.702952
_cell_angle_gamma 83.082885
_cell_volume 604.441650
_symmetry_space_group_name_H-M "P -1"
_symmetry_group_IT_number 2
_symmetry_cell_setting 'triclinic'
loop_
_space_group_symop_operation_xyz
x,y,z
-x,-y,-z
loop_
_atom_site_type_symbol
_atom_site_label
_atom_site_fract_x
_atom_site_fract_y
_atom_site_fract_z
Si Si1 0.772327 0.169604 0.264105
Si Si2 0.513064 0.808874 0.633461
Si Si3 0.214410 0.406729 0.174172
Si Si4 0.030264 0.624350 0.398749
Si Si5 0.346628 0.614101 0.000591
Si Si6 0.315281 0.867510 0.280709
Si Si7 0.062568 0.160980 0.851118
O O1 0.605149 0.128838 0.266139
O O2 0.879636 0.230390 0.454943
O O3 0.851620 0.015587 0.176208
O O4 0.742611 0.324688 0.172391
O O5 0.617206 0.656194 0.706395
O O6 0.404327 0.777890 0.439278
O O7 0.633167 0.946533 0.659869
O O8 0.124129 0.510890 0.289140
O O9 0.240512 0.520791 0.061198
O O10 0.123450 0.252961 0.042291
O O11 0.000000 0.500000 0.500000
O O12 0.904259 0.725955 0.263023
O O13 0.382684 0.779896 0.137428
O O14 0.500000 0.500000 0.000000
O O15 0.126301 0.858110 0.214366
#
# Coordination Sequence:
#
# PCOD9068229 Si02
#       7
#     2   2   2   2   2   2   2
#     4  12  27  47  77 111 148 196 254 300 368 445
#     4  11  26  48  76 107 147 199 245 307 364 448
#     4  12  27  49  76 108 153 192 248 308 376 431
#     4  12  28  48  77 111 148 194 248 309 371 438
#     4  12  26  45  75 110 151 194 246 310 369 439
#     4  11  27  48  74 107 152 196 246 299 380 436
#     4  12  27  50  76 110 153 195 245 307 369 449
#
# _framework density 23.161871999999999
#
# number of rings (size 3 to 8) (size 9 to 14) (size 15 to 20)
#    0.000    0.286    4.286    2.571    8.000    4.571 
#    0.000    0.000    0.000    0.000    0.000    0.000 
#    0.000    0.000    0.000    0.000    0.000    0.000 
#
# Total GULP energy -78384.913224 kJ/mol
# GULP energy per Si atom -5598.922373 kJ/mol
# Density = 2.310915 g / cm^3
# Si number density = 23.161872 Si / 1000 Ang^3
#
#
#
# Elastic Constant Matrix: (Units=GPa)
#
#
# Indices 1 2 3 4 5 6 
#
# 1 88.1129 27.7365 29.1381 -0.2552 -10.0571 -10.0730
# 2 27.7365 90.1009 29.2954 -2.9407 1.5261 -23.3983
# 3 29.1381 29.2954 114.2428 -4.5170 -8.2963 -16.9609
# 4 -0.2552 -2.9407 -4.5170 49.9045 -2.5310 -3.4599
# 5 -10.0571 1.5261 -8.2963 -2.5310 32.4007 -1.8777
# 6 -10.0730 -23.3983 -16.9609 -3.4599 -1.8777 46.9977
#
#
#
# Elastic Compliance Matrix: (Units=1/GPa)
#
#
# Indices 1 2 3 4 5 6 
#
# 1 0.013668 -0.003394 -0.002255 -0.000099 0.003850 0.000572
# 2 -0.003394 0.014350 -0.002071 0.000939 -0.001858 0.005664
# 3 -0.002255 -0.002071 0.010429 0.001095 0.002294 0.002422
# 4 -0.000099 0.000939 0.001095 0.020459 0.001944 0.002425
# 5 0.003850 -0.001858 0.002294 0.001944 0.033012 0.002190
# 6 0.000572 0.005664 0.002422 0.002425 0.002190 0.025360
#
#
# Mechanical properties :
#
#
# Convention : Reuss Voigt Hill
#
# Bulk Modulus (GPa) = 43.46598 51.64406 47.55502
# Shear Modulus (GPa) = 35.61581 39.61301 37.61441
#
# Velocity S-wave (km/s) = 3.92559 4.14003 4.03424
# Velocity P-wave (km/s) = 6.27328 6.72298 6.50202
#
# Compressibility (1/GPa) = 0.02300650
#
# Stress axis : x y z
#
# Youngs Moduli (GPa) = 73.16458 69.68665 95.88782
#
# Poissons Ratio (x) = 0.23652 0.21623
# Poissons Ratio (y) = 0.24833 0.19858
# Poissons Ratio (z) = 0.16499 0.14432
#
# Static dielectric constant tensor:
#      x y z
#    x 1.859780 0.064270 0.016350 
#    y 0.064270 1.874690 0.000640 
#    z 0.016350 0.000640 1.870960 
# 
# From -- ./inp_files/159397.got.cif
#   From: 2010.05.17/outbox.cif.g08.bks.cpg/sg2_80_cif.got.tgz:159397.got - 2010.06.03 11:33:40.
