data_PCOD9068016
_publ_section_title
;
Structure prediction by ZEFSAII (Michael W. Deem and Ramdas Pophale) SiO2 
 PCOD9068016
Probable space group: P -1
;
_chemical_formula_sum "Si O2"
_cell_formula_units_Z 16
_cell_length_a 16.698802
_cell_length_b 14.613991
_cell_length_c 11.792569
_cell_angle_alpha 29.448238
_cell_angle_beta 48.781443
_cell_angle_gamma 31.394091
_cell_volume 695.862517
_symmetry_space_group_name_H-M "P -1"
_symmetry_group_IT_number 2
_symmetry_cell_setting 'triclinic'
loop_
_space_group_symop_operation_xyz
x,y,z
-x,-y,-z
loop_
_atom_site_type_symbol
_atom_site_label
_atom_site_fract_x
_atom_site_fract_y
_atom_site_fract_z
Si Si1 0.042255 0.732648 0.224118
Si Si2 0.397664 0.326406 0.249969
Si Si3 0.848903 0.088807 0.596156
Si Si4 0.875307 0.537219 0.317207
Si Si5 0.788115 0.022220 0.957413
Si Si6 0.520387 0.422114 0.239245
Si Si7 0.331572 0.326837 0.833566
Si Si8 0.191965 0.175807 0.261935
O O1 0.211832 0.507351 0.241913
O O2 0.063306 0.617817 0.452289
O O3 0.000000 0.000000 0.000000
O O4 0.897822 0.849181 0.153756
O O5 0.449240 0.383268 0.248846
O O6 0.500000 0.000000 0.500000
O O7 0.424840 0.444759 0.998731
O O8 0.881769 0.999903 0.792739
O O9 0.688196 0.433965 0.365413
O O10 0.831682 0.923597 0.718711
O O11 0.000000 0.000000 0.500000
O O12 0.775142 0.536137 0.329945
O O13 0.032045 0.391812 0.255558
O O14 0.754173 0.865069 0.107523
O O15 0.626957 0.345479 0.789103
O O16 0.667882 0.113582 0.487147
O O17 0.500000 0.000000 0.000000
O O18 0.245504 0.306934 0.027462
#
# Coordination Sequence:
#
# PCOD9068016 Si02
#       8
#     2   2   2   2   2   2   2   2
#     4  12  25  45  73 102 140 187 232 291 353 422
#     4  11  26  47  70 103 146 184 236 286 351 423
#     4  12  26  47  75 103 142 190 239 289 355 420
#     4  12  26  47  72 105 143 184 239 290 354 425
#     4  12  26  47  72 103 143 185 237 291 354 418
#     4  11  27  46  71 105 145 184 232 292 353 417
#     4  12  27  46  72 104 143 187 239 292 351 420
#     4  12  27  48  73 105 146 188 236 296 351 421
#
# _framework density 22.993047000000001
#
# number of rings (size 3 to 8) (size 9 to 14) (size 15 to 20)
#    0.000    0.250    3.750    4.500    8.750    2.000 
#    0.000    0.000    0.000    0.000    0.000    0.000 
#    0.000    0.000    0.000    0.000    0.000    0.000 
#
# Total GULP energy -89564.478651 kJ/mol
# GULP energy per Si atom -5597.779916 kJ/mol
# Density = 2.294071 g / cm^3
# Si number density = 22.993047 Si / 1000 Ang^3
#
#
#
# Elastic Constant Matrix: (Units=GPa)
#
#
# Indices 1 2 3 4 5 6 
#
# 1 24.6649 -1.7959 2.4670 6.0257 -3.2038 3.9325
# 2 -1.7959 103.1530 15.3258 -5.9341 -2.2393 8.6549
# 3 2.4670 15.3258 104.4562 -2.3766 -14.0971 13.7274
# 4 6.0257 -5.9341 -2.3766 51.2349 7.7197 5.6788
# 5 -3.2038 -2.2393 -14.0971 7.7197 41.9312 -8.9730
# 6 3.9325 8.6549 13.7274 5.6788 -8.9730 24.9902
#
#
#
# Elastic Compliance Matrix: (Units=1/GPa)
#
#
# Indices 1 2 3 4 5 6 
#
# 1 0.042998 0.000965 -0.000221 -0.004906 0.003153 -0.004732
# 2 0.000965 0.010263 -0.001114 0.001567 -0.000844 -0.003754
# 3 -0.000221 -0.001114 0.010700 0.000553 0.002409 -0.004718
# 4 -0.004906 0.001567 0.000553 0.021942 -0.005663 -0.007094
# 5 0.003153 -0.000844 0.002409 -0.005663 0.027997 0.009812
# 6 -0.004732 -0.003754 -0.004718 -0.007094 0.009812 0.049787
#
#
# Mechanical properties :
#
#
# Convention : Reuss Voigt Hill
#
# Bulk Modulus (GPa) = 15.81751 29.36311 22.59031
# Shear Modulus (GPa) = 26.95405 38.04972 32.50188
#
# Velocity S-wave (km/s) = 3.42756 4.07238 3.76380
# Velocity P-wave (km/s) = 4.74957 5.90851 5.36045
#
# Compressibility (1/GPa) = 0.06322109
#
# Stress axis : x y z
#
# Youngs Moduli (GPa) = 23.25670 97.43393 93.46024
#
# Poissons Ratio (x) = -0.09399 0.02068
# Poissons Ratio (y) = -0.02244 0.10408
# Poissons Ratio (z) = 0.00515 0.10850
#
# Static dielectric constant tensor:
#      x y z
#    x 1.874040 0.015410 0.002050 
#    y 0.015410 1.831820 0.006760 
#    z 0.002050 0.006760 1.878670 
# 
# From -- ./inp_files/398139.got.cif
#   From: 2010.05.17/outbox.cif.g08.bks.cpg/sg2_200_cif.got.tgz:398139.got - 2010.06.03 11:33:40.
