data_PCOD9068873
_publ_section_title
;
Structure prediction by ZEFSAII (Michael W. Deem and Ramdas Pophale) SiO2 
 PCOD9068873
Probable space group: P -1
;
_chemical_formula_sum "Si O2"
_cell_formula_units_Z 14
_cell_length_a 10.477457
_cell_length_b 15.905978
_cell_length_c 5.195607
_cell_angle_alpha 71.790532
_cell_angle_beta 89.763718
_cell_angle_gamma 124.045963
_cell_volume 663.647275
_symmetry_space_group_name_H-M "P -1"
_symmetry_group_IT_number 2
_symmetry_cell_setting 'triclinic'
loop_
_space_group_symop_operation_xyz
x,y,z
-x,-y,-z
loop_
_atom_site_type_symbol
_atom_site_label
_atom_site_fract_x
_atom_site_fract_y
_atom_site_fract_z
Si Si1 0.379518 0.278130 0.001408
Si Si2 0.896764 0.977089 0.772760
Si Si3 0.092121 0.813878 0.448581
Si Si4 0.102727 0.518851 0.731772
Si Si5 0.551558 0.077898 0.675555
Si Si6 0.883412 0.684104 0.075407
Si Si7 0.454948 0.720503 0.499061
O O1 0.251602 0.147401 0.106518
O O2 0.462768 0.300212 0.252922
O O3 0.278567 0.326457 0.928320
O O4 0.500290 0.307914 0.741881
O O5 0.856618 0.063153 0.684319
O O6 0.000000 0.000000 0.500000
O O7 0.000000 0.000000 0.000000
O O8 0.258729 0.832894 0.415898
O O9 0.978466 0.746739 0.274210
O O10 0.994643 0.755939 0.764534
O O11 0.142106 0.430929 0.818823
O O12 0.267380 0.638032 0.615605
O O13 0.000000 0.500000 0.500000
O O14 0.000000 0.500000 0.000000
O O15 0.488066 0.153176 0.612390
O O16 0.500000 0.000000 0.500000
O O17 0.500000 0.000000 0.000000
#
# Coordination Sequence:
#
# PCOD9068873 Si02
#       7
#     2   2   2   2   2   2   2
#     4  12  25  43  67 103 140 174 223 269 347 407
#     4  12  21  39  63  99 138 177 216 263 327 395
#     4  12  23  42  68 100 135 175 228 279 330 397
#     4  12  27  50  74  99 130 176 235 284 339 400
#     4  12  25  43  65  96 135 177 224 273 336 404
#     4  12  25  44  70 100 131 177 227 279 334 402
#     4  12  26  45  69  99 139 178 217 287 339 395
#
# _framework density 21.095542999999999
#
# number of rings (size 3 to 8) (size 9 to 14) (size 15 to 20)
#    0.000    0.000    2.857    8.571    0.000    1.143 
#    0.000    0.000    0.000    0.000    0.000    0.000 
#    0.000    0.000    0.000    0.000    0.000    0.000 
#
# Total GULP energy -78419.008645 kJ/mol
# GULP energy per Si atom -5601.357760 kJ/mol
# Density = 2.104753 g / cm^3
# Si number density = 21.095543 Si / 1000 Ang^3
#
#
#
# Elastic Constant Matrix: (Units=GPa)
#
#
# Indices 1 2 3 4 5 6 
#
# 1 107.2491 21.1438 25.0224 -17.4588 10.4982 -22.4394
# 2 21.1438 75.7866 17.5369 -20.8623 18.6623 -18.0349
# 3 25.0224 17.5369 121.1589 6.4732 -4.5011 -5.0987
# 4 -17.4588 -20.8623 6.4732 35.2906 3.0426 6.6936
# 5 10.4982 18.6623 -4.5011 3.0426 45.2807 -5.3621
# 6 -22.4394 -18.0349 -5.0987 6.6936 -5.3621 54.8669
#
#
#
# Elastic Compliance Matrix: (Units=1/GPa)
#
#
# Indices 1 2 3 4 5 6 
#
# 1 0.012040 0.000888 -0.002935 0.006595 -0.003442 0.003802
# 2 0.000888 0.021092 -0.004149 0.013694 -0.009723 0.004290
# 3 -0.002935 -0.004149 0.009891 -0.005933 0.003706 -0.000559
# 4 0.006595 0.013694 -0.005933 0.041583 -0.010492 0.000549
# 5 -0.003442 -0.009723 0.003706 -0.010492 0.027934 -0.000250
# 6 0.003802 0.004290 -0.000559 0.000549 -0.000250 0.021048
#
#
# Mechanical properties :
#
#
# Convention : Reuss Voigt Hill
#
# Bulk Modulus (GPa) = 32.64590 47.95565 40.30077
# Shear Modulus (GPa) = 32.01231 43.12040 37.56635
#
# Velocity S-wave (km/s) = 3.89973 4.52602 4.22450
# Velocity P-wave (km/s) = 5.98214 7.07779 6.55291
#
# Compressibility (1/GPa) = 0.03063172
#
# Stress axis : x y z
#
# Youngs Moduli (GPa) = 83.05663 47.41158 101.09727
#
# Poissons Ratio (x) = -0.04211 0.29676
# Poissons Ratio (y) = -0.07377 0.41942
# Poissons Ratio (z) = 0.24380 0.19670
#
# Static dielectric constant tensor:
#      x y z
#    x 1.755250 -0.059890 -0.068450 
#    y -0.059890 1.663540 -0.197270 
#    z -0.068450 -0.197270 1.147570 
# 
# From -- ./inp_files/37500.got.cif
#   From: 2010.05.17/outbox.cif.g08.bks.cpg/sg2_19_cif.got.tgz:37500.got - 2010.06.03 11:33:40.
