data_PCOD9068408
_publ_section_title
;
Structure prediction by ZEFSAII (Michael W. Deem and Ramdas Pophale) SiO2 
 PCOD9068408
Probable space group: P -1
;
_chemical_formula_sum "Si O2"
_cell_formula_units_Z 15
_cell_length_a 11.897693
_cell_length_b 11.390319
_cell_length_c 6.155568
_cell_angle_alpha 78.517938
_cell_angle_beta 66.611169
_cell_angle_gamma 58.353015
_cell_volume 651.749662
_symmetry_space_group_name_H-M "P -1"
_symmetry_group_IT_number 2
_symmetry_cell_setting 'triclinic'
loop_
_space_group_symop_operation_xyz
x,y,z
-x,-y,-z
loop_
_atom_site_type_symbol
_atom_site_label
_atom_site_fract_x
_atom_site_fract_y
_atom_site_fract_z
Si Si1 0.277103 0.649906 0.021591
Si Si2 0.441695 0.790813 0.053569
Si Si3 0.578839 0.579547 0.341111
Si Si4 0.234515 0.297264 0.198589
Si Si5 0.000000 0.500000 0.000000
Si Si6 0.174866 0.526882 0.490309
Si Si7 0.820887 0.950062 0.682718
Si Si8 0.915569 0.101448 0.222705
O O1 0.344645 0.500608 0.911309
O O2 0.186572 0.753681 0.863145
O O3 0.385072 0.699076 0.005396
O O4 0.183353 0.643546 0.295400
O O5 0.471727 0.733544 0.298627
O O6 0.311056 0.945196 0.104268
O O7 0.595358 0.768473 0.883985
O O8 0.500000 0.500000 0.500000
O O9 0.675945 0.558918 0.475898
O O10 0.159757 0.422814 0.378831
O O11 0.201578 0.175561 0.320009
O O12 0.164082 0.372689 0.994814
O O13 0.064797 0.564582 0.754037
O O14 0.967249 0.893897 0.719147
O O15 0.836100 0.037699 0.443251
O O16 0.000000 0.000000 0.000000
#
# Coordination Sequence:
#
# PCOD9068408 Si02
#       8
#     2   2   2   2   1   2   2   2
#     4  12  25  45  80 111 144 189 256 311 366 434
#     4  12  23  49  70 112 148 193 246 302 368 441
#     4  12  23  42  74 109 148 186 240 314 366 430
#     4  12  28  48  74 107 151 196 244 300 378 443
#     4  12  28  48  70 104 148 194 246 304 368 436
#     4  12  26  47  73 111 145 195 246 309 371 439
#     4  11  28  48  76 105 153 195 245 301 364 450
#     4  11  26  50  74 109 141 198 250 305 362 433
#
# _framework density 23.014973000000001
#
# number of rings (size 3 to 8) (size 9 to 14) (size 15 to 20)
#    0.000    0.267    5.333    2.800    5.600    1.067 
#    0.000    1.333    0.000    0.000    0.000    0.000 
#    0.000    0.000    0.000    0.000    0.000    0.000 
#
# Total GULP energy -83616.295390 kJ/mol
# GULP energy per Si atom -5574.419693 kJ/mol
# Density = 2.296259 g / cm^3
# Si number density = 23.014973 Si / 1000 Ang^3
#
#
#
# Elastic Constant Matrix: (Units=GPa)
#
#
# Indices 1 2 3 4 5 6 
#
# 1 149.2662 67.0541 53.0841 -23.2854 -20.3665 4.5639
# 2 67.0541 93.6104 22.3657 -19.4403 -6.7248 -8.1639
# 3 53.0841 22.3657 102.3790 -26.0923 -26.1005 -3.4841
# 4 -23.2854 -19.4403 -26.0923 39.8742 -3.6879 3.2426
# 5 -20.3665 -6.7248 -26.1005 -3.6879 42.1477 -7.8050
# 6 4.5639 -8.1639 -3.4841 3.2426 -7.8050 44.0015
#
#
#
# Elastic Compliance Matrix: (Units=1/GPa)
#
#
# Indices 1 2 3 4 5 6 
#
# 1 0.011968 -0.007509 -0.003917 0.001148 0.001756 -0.002718
# 2 -0.007509 0.017097 0.001963 0.005048 0.001497 0.004000
# 3 -0.003917 0.001963 0.016718 0.010302 0.010259 0.003155
# 4 0.001148 0.005048 0.010302 0.035897 0.011056 0.000949
# 5 0.001756 0.001497 0.010259 0.011056 0.033243 0.005990
# 6 -0.002718 0.004000 0.003155 0.000949 0.005990 0.024993
#
#
# Mechanical properties :
#
#
# Convention : Reuss Voigt Hill
#
# Bulk Modulus (GPa) = 37.23493 70.02925 53.63209
# Shear Modulus (GPa) = 29.79846 38.72147 34.25997
#
# Velocity S-wave (km/s) = 3.60216 4.10621 3.86242
# Velocity P-wave (km/s) = 5.78916 7.27840 6.57607
#
# Compressibility (1/GPa) = 0.02685650
#
# Stress axis : x y z
#
# Youngs Moduli (GPa) = 83.55953 58.48922 59.81595
#
# Poissons Ratio (x) = 0.43920 0.23429
# Poissons Ratio (y) = 0.62745 -0.11741
# Poissons Ratio (z) = 0.32729 -0.11481
#
# Static dielectric constant tensor:
#      x y z
#    x 1.927560 -0.006550 -0.008000 
#    y -0.006550 1.840770 0.050850 
#    z -0.008000 0.050850 1.965250 
# 
# From -- ./inp_files/66161.got.cif
#   From: 2010.05.17/outbox.cif.g08.bks.cpg/sg2_34_cif.got.tgz:66161.got - 2010.06.03 11:33:40.
