data_PCOD9068403
_publ_section_title
;
Structure prediction by ZEFSAII (Michael W. Deem and Ramdas Pophale) SiO2 
 PCOD9068403
Probable space group: P -1
;
_chemical_formula_sum "Si O2"
_cell_formula_units_Z 14
_cell_length_a 14.758731
_cell_length_b 15.335425
_cell_length_c 6.794395
_cell_angle_alpha 104.648676
_cell_angle_beta 67.250906
_cell_angle_gamma 151.513106
_cell_volume 663.041757
_symmetry_space_group_name_H-M "P -1"
_symmetry_group_IT_number 2
_symmetry_cell_setting 'triclinic'
loop_
_space_group_symop_operation_xyz
x,y,z
-x,-y,-z
loop_
_atom_site_type_symbol
_atom_site_label
_atom_site_fract_x
_atom_site_fract_y
_atom_site_fract_z
Si Si1 0.432623 0.388474 0.181384
Si Si2 0.903536 0.457669 0.851785
Si Si3 0.651014 0.410677 0.230366
Si Si4 0.244645 0.007848 0.541456
Si Si5 0.869941 0.727227 0.414498
Si Si6 0.111514 0.008730 0.024653
Si Si7 0.278446 0.823594 0.473887
O O1 0.600128 0.461153 0.183840
O O2 0.319748 0.365129 0.410628
O O3 0.274030 0.187607 0.125888
O O4 0.500000 0.500000 0.000000
O O5 0.767502 0.277227 0.735921
O O6 0.097566 0.647455 0.671755
O O7 0.758113 0.423845 0.011803
O O8 0.000000 0.500000 0.000000
O O9 0.803089 0.569624 0.360974
O O10 0.447325 0.208453 0.383369
O O11 0.251330 0.905668 0.484078
O O12 0.046605 0.879078 0.513385
O O13 0.218087 0.028378 0.791573
O O14 0.962835 0.836932 0.195868
O O15 0.000000 0.000000 0.000000
O O16 0.500000 0.000000 0.500000
#
# Coordination Sequence:
#
# PCOD9068403 Si02
#       7
#     2   2   2   2   2   2   2
#     4  12  25  43  68 103 143 186 235 286 344 417
#     4  11  26  50  73 106 145 181 239 299 361 425
#     4  12  26  44  72 102 141 186 232 288 353 417
#     4  12  26  45  71 104 140 186 236 287 356 419
#     4  12  25  46  68 100 145 185 235 286 346 416
#     4  12  23  43  70  98 141 187 233 288 344 413
#     4  11  27  47  76 105 140 186 239 300 357 427
#
# _framework density 21.114811
#
# number of rings (size 3 to 8) (size 9 to 14) (size 15 to 20)
#    0.000    0.286    2.857    6.000    4.000    4.571 
#    0.000    0.000    0.000    0.000    0.000    0.000 
#    0.000    0.000    0.000    0.000    0.000    0.000 
#
# Total GULP energy -78315.382064 kJ/mol
# GULP energy per Si atom -5593.955862 kJ/mol
# Density = 2.106675 g / cm^3
# Si number density = 21.114811 Si / 1000 Ang^3
#
#
#
# Elastic Constant Matrix: (Units=GPa)
#
#
# Indices 1 2 3 4 5 6 
#
# 1 99.1124 35.3245 61.4264 -4.4651 -13.6414 -11.1460
# 2 35.3245 145.1758 50.2569 11.3136 -9.2792 -15.3488
# 3 61.4264 50.2569 139.2953 6.8754 -26.4103 -16.7188
# 4 -4.4651 11.3136 6.8754 41.2859 -10.2650 -0.6504
# 5 -13.6414 -9.2792 -26.4103 -10.2650 42.7730 4.9350
# 6 -11.1460 -15.3488 -16.7188 -0.6504 4.9350 36.4435
#
#
#
# Elastic Compliance Matrix: (Units=1/GPa)
#
#
# Indices 1 2 3 4 5 6 
#
# 1 0.014640 -0.001677 -0.005599 0.003374 0.001536 0.001055
# 2 -0.001677 0.008362 -0.002058 -0.002292 -0.000787 0.002131
# 3 -0.005599 -0.002058 0.011525 -0.000823 0.004445 0.002091
# 4 0.003374 -0.002292 -0.000823 0.026989 0.006632 -0.000727
# 5 0.001536 -0.000787 0.004445 0.006632 0.028210 -0.001524
# 6 0.001055 0.002131 0.002091 -0.000727 -0.001524 0.029812
#
#
# Mechanical properties :
#
#
# Convention : Reuss Voigt Hill
#
# Bulk Modulus (GPa) = 63.05898 75.28879 69.17388
# Shear Modulus (GPa) = 34.84482 39.87221 37.35852
#
# Velocity S-wave (km/s) = 4.06674 4.35023 4.21087
# Velocity P-wave (km/s) = 7.20977 7.80813 7.51491
#
# Compressibility (1/GPa) = 0.01585817
#
# Stress axis : x y z
#
# Youngs Moduli (GPa) = 68.30803 119.58516 86.76650
#
# Poissons Ratio (x) = 0.20054 0.48585
# Poissons Ratio (y) = 0.11455 0.17856
# Poissons Ratio (z) = 0.38249 0.24610
#
# Static dielectric constant tensor:
#      x y z
#    x 1.838110 0.105150 0.065730 
#    y 0.105150 1.863920 0.062550 
#    z 0.065730 0.062550 1.760390 
# 
# From -- ./inp_files/46139.got.cif
#   From: 2010.05.17/outbox.cif.g08.bks.cpg/sg2_24_cif.got.tgz:46139.got - 2010.06.03 11:33:40.
