data_PCOD9068663
_publ_section_title
;
Structure prediction by ZEFSAII (Michael W. Deem and Ramdas Pophale) SiO2 
 PCOD9068663
Probable space group: P -1
;
_chemical_formula_sum "Si O2"
_cell_formula_units_Z 14
_cell_length_a 5.666824
_cell_length_b 8.486364
_cell_length_c 13.811595
_cell_angle_alpha 66.588744
_cell_angle_beta 71.831605
_cell_angle_gamma 55.935636
_cell_volume 501.447290
_symmetry_space_group_name_H-M "P -1"
_symmetry_group_IT_number 2
_symmetry_cell_setting 'triclinic'
loop_
_space_group_symop_operation_xyz
x,y,z
-x,-y,-z
loop_
_atom_site_type_symbol
_atom_site_label
_atom_site_fract_x
_atom_site_fract_y
_atom_site_fract_z
Si Si1 0.699016 0.943142 0.123013
Si Si2 0.723229 0.703381 0.528591
Si Si3 0.832589 0.154782 0.574963
Si Si4 0.526741 0.332451 0.756483
Si Si5 0.697210 0.321784 0.949010
Si Si6 0.998718 0.270251 0.253603
Si Si7 0.426720 0.803849 0.757492
O O1 0.472072 0.871025 0.174271
O O2 0.962820 0.768293 0.073281
O O3 0.742069 0.976005 0.224263
O O4 0.651700 0.138033 0.027090
O O5 0.449892 0.764041 0.477461
O O6 0.571181 0.737665 0.647436
O O7 0.000000 0.500000 0.500000
O O8 0.876907 0.837896 0.484989
O O9 0.717842 0.292545 0.649859
O O10 0.925656 0.928599 0.647722
O O11 0.625255 0.378432 0.832490
O O12 0.219081 0.519060 0.722715
O O13 0.500000 0.500000 0.000000
O O14 0.821143 0.252293 0.192008
O O15 0.285534 0.275099 0.196826
#
# Coordination Sequence:
#
# PCOD9068663 Si02
#       7
#     2   2   2   2   2   2   2
#     4  11  27  50  80 118 159 208 269 337 408 480
#     4  12  27  50  82 120 163 216 274 329 395 474
#     4  12  27  49  80 117 164 210 266 333 390 477
#     4  12  27  48  80 112 163 211 264 333 404 487
#     4  11  27  51  83 117 157 205 273 335 412 486
#     4  12  27  46  77 113 157 214 266 318 398 471
#     4  12  26  52  79 116 165 212 270 329 402 470
#
# _framework density 27.919184999999999
#
# number of rings (size 3 to 8) (size 9 to 14) (size 15 to 20)
#    0.000    0.286    1.429    6.000    6.000    5.143 
#    0.000    0.000    0.000    0.000    0.000    0.000 
#    0.000    0.000    0.000    0.000    0.000    0.000 
#
# Total GULP energy -78224.293690 kJ/mol
# GULP energy per Si atom -5587.449549 kJ/mol
# Density = 2.785564 g / cm^3
# Si number density = 27.919185 Si / 1000 Ang^3
#
#
#
# Elastic Constant Matrix: (Units=GPa)
#
#
# Indices 1 2 3 4 5 6 
#
# 1 201.5721 31.0675 63.5724 3.1971 -10.8169 -1.2885
# 2 31.0675 154.6460 51.2517 27.5402 1.6961 -14.9247
# 3 63.5724 51.2517 145.7228 27.9393 -13.6034 -7.3465
# 4 3.1971 27.5402 27.9393 72.8439 6.3364 -3.0755
# 5 -10.8169 1.6961 -13.6034 6.3364 44.0161 4.0112
# 6 -1.2885 -14.9247 -7.3465 -3.0755 4.0112 48.8937
#
#
#
# Elastic Compliance Matrix: (Units=1/GPa)
#
#
# Indices 1 2 3 4 5 6 
#
# 1 0.005844 -0.000544 -0.002480 0.000832 0.000606 -0.000382
# 2 -0.000544 0.007836 -0.002137 -0.001947 -0.001000 0.002016
# 3 -0.002480 -0.002137 0.009546 -0.002977 0.002824 0.000298
# 4 0.000832 -0.001947 -0.002977 0.015835 -0.002940 0.000217
# 5 0.000606 -0.001000 0.002824 -0.002940 0.024389 -0.002051
# 6 -0.000382 0.002016 0.000298 0.000217 -0.002051 0.021284
#
#
# Mechanical properties :
#
#
# Convention : Reuss Voigt Hill
#
# Bulk Modulus (GPa) = 77.50010 88.19156 82.84583
# Shear Modulus (GPa) = 50.32324 56.88737 53.60530
#
# Velocity S-wave (km/s) = 4.25015 4.51885 4.38655
# Velocity P-wave (km/s) = 7.20444 7.67355 7.44269
#
# Compressibility (1/GPa) = 0.01290321
#
# Stress axis : x y z
#
# Youngs Moduli (GPa) = 171.11762 127.61366 104.75943
#
# Poissons Ratio (x) = 0.06937 0.25985
# Poissons Ratio (y) = 0.09301 0.22390
# Poissons Ratio (z) = 0.42445 0.27275
#
# Static dielectric constant tensor:
#      x y z
#    x 2.104450 -0.022860 0.045060 
#    y -0.022860 2.325230 -0.060430 
#    z 0.045060 -0.060430 2.252570 
# 
# From -- ./inp_files/480271.got.cif
#   From: 2010.05.17/outbox.cif.g08.bks.cpg/sg2_241_cif.got.tgz:480271.got - 2010.06.03 11:33:40.
