data_PCOD9068602
_publ_section_title
;
Structure prediction by ZEFSAII (Michael W. Deem and Ramdas Pophale) SiO2 
 PCOD9068602
Probable space group: P -1
;
_chemical_formula_sum "Si O2"
_cell_formula_units_Z 14
_cell_length_a 8.469452
_cell_length_b 8.078093
_cell_length_c 9.463800
_cell_angle_alpha 109.913729
_cell_angle_beta 61.891790
_cell_angle_gamma 98.358733
_cell_volume 536.881923
_symmetry_space_group_name_H-M "P -1"
_symmetry_group_IT_number 2
_symmetry_cell_setting 'triclinic'
loop_
_space_group_symop_operation_xyz
x,y,z
-x,-y,-z
loop_
_atom_site_type_symbol
_atom_site_label
_atom_site_fract_x
_atom_site_fract_y
_atom_site_fract_z
Si Si1 0.000000 0.500000 0.000000
Si Si2 0.924154 0.696060 0.593296
Si Si3 0.327064 0.339494 0.077835
Si Si4 0.166906 0.860786 0.905898
Si Si5 0.514911 0.640640 0.253359
Si Si6 0.767560 0.683139 0.371302
Si Si7 0.500000 0.000000 0.000000
Si Si8 0.749994 0.090225 0.435747
O O1 0.904776 0.315065 0.041934
O O2 0.944919 0.593956 0.206203
O O3 0.843227 0.728340 0.789662
O O4 0.770874 0.703449 0.543036
O O5 0.000000 0.500000 0.500000
O O6 0.072663 0.837438 0.543398
O O7 0.384060 0.513860 0.188004
O O8 0.308965 0.363689 0.925178
O O9 0.484056 0.197804 0.995402
O O10 0.329024 0.938744 0.952881
O O11 0.243740 0.837684 0.706175
O O12 0.000000 0.000000 0.000000
O O13 0.599144 0.582397 0.348539
O O14 0.411916 0.822219 0.382053
O O15 0.751832 0.881604 0.376993
#
# Coordination Sequence:
#
# PCOD9068602 Si02
#       8
#     1   2   2   2   2   2   1   2
#     4  12  28  50  82 122 170 224 274 350 432 512
#     4  12  27  49  77 112 160 208 275 339 412 496
#     4  11  27  48  77 113 160 210 269 340 418 502
#     4  12  27  55  83 124 175 222 283 354 426 510
#     4  11  27  51  76 110 161 208 268 341 416 500
#     4  12  28  45  81 115 155 211 273 333 422 500
#     4  12  28  48  84 122 160 224 280 346 422 514
#     4  12  26  51  79 112 161 210 270 345 412 497
#
# _framework density 26.076497
#
# number of rings (size 3 to 8) (size 9 to 14) (size 15 to 20)
#    0.000    0.286    2.857    4.286    8.000    1.714 
#    0.000    0.000    0.000    0.000    0.000    0.000 
#    0.000    0.000    0.000    0.000    0.000    0.000 
#
# Total GULP energy -77951.537677 kJ/mol
# GULP energy per Si atom -5567.966977 kJ/mol
# Density = 2.601715 g / cm^3
# Si number density = 26.076497 Si / 1000 Ang^3
#
#
#
# Elastic Constant Matrix: (Units=GPa)
#
#
# Indices 1 2 3 4 5 6 
#
# 1 111.0952 23.2559 40.9310 1.8705 38.5517 22.6321
# 2 23.2559 130.6524 50.9434 11.2562 12.5693 5.3720
# 3 40.9310 50.9434 135.5441 2.6706 -3.5810 9.2190
# 4 1.8705 11.2562 2.6706 40.8599 3.0061 11.4018
# 5 38.5517 12.5693 -3.5810 3.0061 41.8343 -0.3060
# 6 22.6321 5.3720 9.2190 11.4018 -0.3060 28.5382
#
#
#
# Elastic Compliance Matrix: (Units=1/GPa)
#
#
# Indices 1 2 3 4 5 6 
#
# 1 0.022717 0.000955 -0.006657 0.005989 -0.022358 -0.018677
# 2 0.000955 0.009586 -0.003920 -0.001985 -0.003957 -0.000545
# 3 -0.006657 -0.003920 0.010900 -0.000744 0.008320 0.002883
# 4 0.005989 -0.001985 -0.000744 0.029830 -0.007247 -0.016131
# 5 -0.022358 -0.003957 0.008320 -0.007247 0.047070 0.019188
# 6 -0.018677 -0.000545 0.002883 -0.016131 0.019188 0.055674
#
#
# Mechanical properties :
#
#
# Convention : Reuss Voigt Hill
#
# Bulk Modulus (GPa) = 41.73813 67.50579 54.62196
# Shear Modulus (GPa) = 24.62982 39.72392 32.17687
#
# Velocity S-wave (km/s) = 3.07664 3.90726 3.51656
# Velocity P-wave (km/s) = 5.35367 6.80436 6.12214
#
# Compressibility (1/GPa) = 0.02395891
#
# Stress axis : x y z
#
# Youngs Moduli (GPa) = 44.02070 104.31415 91.74639
#
# Poissons Ratio (x) = -0.09963 0.61077
# Poissons Ratio (y) = -0.04205 0.35963
# Poissons Ratio (z) = 0.29305 0.40889
#
# Static dielectric constant tensor:
#      x y z
#    x 0.798430 1.098750 0.266640 
#    y 1.098750 1.071110 -0.286490 
#    z 0.266640 -0.286490 1.992520 
# 
# From -- ./inp_files/159578.got.cif
#   From: 2010.05.17/outbox.cif.g08.bks.cpg/sg2_80_cif.got.tgz:159578.got - 2010.06.03 11:33:40.
