data_PCOD9068561
_publ_section_title
;
Structure prediction by ZEFSAII (Michael W. Deem and Ramdas Pophale) SiO2 
 PCOD9068561
Probable space group: P -1
;
_chemical_formula_sum "Si O2"
_cell_formula_units_Z 12
_cell_length_a 5.195726
_cell_length_b 11.533012
_cell_length_c 9.075534
_cell_angle_alpha 68.834917
_cell_angle_beta 87.248944
_cell_angle_gamma 68.656140
_cell_volume 470.176303
_symmetry_space_group_name_H-M "P -1"
_symmetry_group_IT_number 2
_symmetry_cell_setting 'triclinic'
loop_
_space_group_symop_operation_xyz
x,y,z
-x,-y,-z
loop_
_atom_site_type_symbol
_atom_site_label
_atom_site_fract_x
_atom_site_fract_y
_atom_site_fract_z
Si Si1 0.696271 0.580192 0.916080
Si Si2 0.563368 0.150811 0.246271
Si Si3 0.768813 0.299300 0.645397
Si Si4 0.204349 0.061675 0.894246
Si Si5 0.032307 0.145395 0.423259
Si Si6 0.726124 0.577835 0.568679
O O1 0.589852 0.730206 0.918793
O O2 0.734685 0.605976 0.728337
O O3 0.500000 0.500000 0.000000
O O4 0.000000 0.500000 0.000000
O O5 0.788352 0.205808 0.282477
O O6 0.330820 0.128791 0.363128
O O7 0.718952 0.008456 0.233753
O O8 0.952987 0.248259 0.515002
O O9 0.633147 0.449312 0.641933
O O10 0.481564 0.297394 0.579090
O O11 0.988542 0.212970 0.801056
O O12 0.500000 0.000000 0.000000
O O13 0.000000 0.000000 0.000000
O O14 0.000000 0.000000 0.500000
O O15 0.000000 0.500000 0.500000
#
# Coordination Sequence:
#
# PCOD9068561 Si02
#       6
#     2   2   2   2   2   2
#     4  12  29  48  76 110 156 201 256 322 387 458
#     4  12  26  47  73 106 148 195 250 305 386 456
#     4  11  27  46  76 106 152 193 264 312 382 456
#     4  12  30  47  73 111 155 200 250 314 391 464
#     4  12  24  45  76 110 141 187 252 313 374 446
#     4  11  27  48  80 110 151 208 263 319 386 463
#
# _framework density 25.522341999999998
#
# number of rings (size 3 to 8) (size 9 to 14) (size 15 to 20)
#    0.000    0.333    3.333    3.500   11.667    0.000 
#    0.000    0.000    0.000    0.000    0.000    0.000 
#    0.000    0.000    0.000    0.000    0.000    0.000 
#
# Total GULP energy -66803.605750 kJ/mol
# GULP energy per Si atom -5566.967146 kJ/mol
# Density = 2.546425 g / cm^3
# Si number density = 25.522342 Si / 1000 Ang^3
#
#
#
# Elastic Constant Matrix: (Units=GPa)
#
#
# Indices 1 2 3 4 5 6 
#
# 1 159.0529 4.1966 47.6876 -0.8765 6.9754 -27.3258
# 2 4.1966 95.7355 10.6444 -15.9561 2.8801 -11.5610
# 3 47.6876 10.6444 82.1200 -17.9733 28.3053 -9.4293
# 4 -0.8765 -15.9561 -17.9733 56.9022 -14.2094 7.7280
# 5 6.9754 2.8801 28.3053 -14.2094 63.0498 -5.0559
# 6 -27.3258 -11.5610 -9.4293 7.7280 -5.0559 47.8837
#
#
#
# Elastic Compliance Matrix: (Units=1/GPa)
#
#
# Indices 1 2 3 4 5 6 
#
# 1 0.008568 0.000425 -0.005390 -0.001688 0.001421 0.004353
# 2 0.000425 0.011261 -0.001097 0.002674 0.000725 0.002391
# 3 -0.005390 -0.001097 0.018557 0.003892 -0.006891 -0.001042
# 4 -0.001688 0.002674 0.003892 0.020563 0.002745 -0.002580
# 5 0.001421 0.000725 -0.006891 0.002745 0.019482 0.001243
# 6 0.004353 0.002391 -0.001042 -0.002580 0.001243 0.024288
#
#
# Mechanical properties :
#
#
# Convention : Reuss Voigt Hill
#
# Bulk Modulus (GPa) = 38.07623 51.32951 44.70287
# Shear Modulus (GPa) = 40.45391 51.85912 46.15652
#
# Velocity S-wave (km/s) = 3.98557 4.51256 4.25723
# Velocity P-wave (km/s) = 6.01090 6.87795 6.45899
#
# Compressibility (1/GPa) = 0.02626310
#
# Stress axis : x y z
#
# Youngs Moduli (GPa) = 116.70778 88.79922 53.88834
#
# Poissons Ratio (x) = -0.03778 0.29047
# Poissons Ratio (y) = -0.04965 0.05911
# Poissons Ratio (z) = 0.62908 0.09741
#
# Static dielectric constant tensor:
#      x y z
#    x 2.082520 0.363920 -0.279340 
#    y 0.363920 2.003760 0.418060 
#    z -0.279340 0.418060 1.279630 
# 
# From -- ./inp_files/45748.got.cif
#   From: 2010.05.17/outbox.cif.g08.bks.cpg/sg2_23_cif.got.tgz:45748.got - 2010.06.03 11:33:40.
