data_PCOD9068578
_publ_section_title
;
Structure prediction by ZEFSAII (Michael W. Deem and Ramdas Pophale) SiO2 
 PCOD9068578
Probable space group: P -1
;
_chemical_formula_sum "Si O2"
_cell_formula_units_Z 14
_cell_length_a 22.829160
_cell_length_b 5.518326
_cell_length_c 8.446769
_cell_angle_alpha 59.049771
_cell_angle_beta 134.349441
_cell_angle_gamma 136.740684
_cell_volume 521.441399
_symmetry_space_group_name_H-M "P -1"
_symmetry_group_IT_number 2
_symmetry_cell_setting 'triclinic'
loop_
_space_group_symop_operation_xyz
x,y,z
-x,-y,-z
loop_
_atom_site_type_symbol
_atom_site_label
_atom_site_fract_x
_atom_site_fract_y
_atom_site_fract_z
Si Si1 0.777837 0.809580 0.316401
Si Si2 0.392143 0.674503 0.086803
Si Si3 0.737886 0.999192 0.739439
Si Si4 0.040580 0.972384 0.251266
Si Si5 0.065066 0.796819 0.798486
Si Si6 0.666147 0.887538 0.289531
Si Si7 0.578408 0.097769 0.473111
O O1 0.858022 0.956142 0.277818
O O2 0.760146 0.069891 0.281685
O O3 0.837246 0.758630 0.581665
O O4 0.670106 0.536950 0.116809
O O5 0.318531 0.413142 0.177781
O O6 0.505004 0.799254 0.301247
O O7 0.406040 0.034815 0.955374
O O8 0.672306 0.084639 0.692700
O O9 0.712198 0.035374 0.500130
O O10 0.857299 0.203482 0.933103
O O11 0.010379 0.579482 0.305073
O O12 0.985862 0.049505 0.256358
O O13 0.000000 0.000000 0.000000
O O14 0.621158 0.481590 0.361379
O O15 0.500000 0.000000 0.500000
#
# Coordination Sequence:
#
# PCOD9068578 Si02
#       7
#     2   2   2   2   2   2   2
#     4  11  28  46  76 111 155 199 262 324 395 475
#     4  11  27  47  75 109 152 200 263 318 401 460
#     4  11  27  48  76 110 156 203 263 330 394 476
#     4  12  27  49  81 116 155 208 262 326 398 480
#     4  11  28  48  82 110 160 208 264 325 403 467
#     4  12  27  46  78 110 159 199 267 322 399 470
#     4  12  27  49  78 109 155 208 263 329 398 475
#
# _framework density 26.848654
#
# number of rings (size 3 to 8) (size 9 to 14) (size 15 to 20)
#    0.000    0.571    1.429    3.857   16.000    2.286 
#    0.000    0.000    0.000    0.000    0.000    0.000 
#    0.000    0.000    0.000    0.000    0.000    0.000 
#
# Total GULP energy -78266.366181 kJ/mol
# GULP energy per Si atom -5590.454727 kJ/mol
# Density = 2.678754 g / cm^3
# Si number density = 26.848654 Si / 1000 Ang^3
#
#
#
# Elastic Constant Matrix: (Units=GPa)
#
#
# Indices 1 2 3 4 5 6 
#
# 1 146.2839 19.9582 25.0378 15.6992 -6.8309 -16.4374
# 2 19.9582 118.1970 17.0783 22.7391 4.4292 -12.2978
# 3 25.0378 17.0783 143.6226 17.8555 17.8990 -9.6924
# 4 15.6992 22.7391 17.8555 53.6743 7.1911 3.6537
# 5 -6.8309 4.4292 17.8990 7.1911 43.3409 1.1550
# 6 -16.4374 -12.2978 -9.6924 3.6537 1.1550 20.1433
#
#
#
# Elastic Compliance Matrix: (Units=1/GPa)
#
#
# Indices 1 2 3 4 5 6 
#
# 1 0.008116 -0.000111 -0.000860 -0.002743 0.001927 0.006528
# 2 -0.000111 0.010119 -0.000087 -0.004638 -0.000430 0.006911
# 3 -0.000860 -0.000087 0.008044 -0.002213 -0.003180 0.003699
# 4 -0.002743 -0.004638 -0.002213 0.023179 -0.002619 -0.010189
# 5 0.001927 -0.000430 -0.003180 -0.002619 0.025200 -0.001190
# 6 0.006528 0.006911 0.003699 -0.010189 -0.001190 0.062887
#
#
# Mechanical properties :
#
#
# Convention : Reuss Voigt Hill
#
# Bulk Modulus (GPa) = 41.38712 59.13913 50.26313
# Shear Modulus (GPa) = 33.84830 46.50031 40.17430
#
# Velocity S-wave (km/s) = 3.55450 4.16618 3.87243
# Velocity P-wave (km/s) = 5.68281 6.72439 6.22542
#
# Compressibility (1/GPa) = 0.02416210
#
# Stress axis : x y z
#
# Youngs Moduli (GPa) = 123.20726 98.82029 124.31407
#
# Poissons Ratio (x) = 0.01101 0.10694
# Poissons Ratio (y) = 0.01373 0.01084
# Poissons Ratio (z) = 0.10599 0.00862
#
# Static dielectric constant tensor:
#      x y z
#    x 2.152390 -0.031120 -0.029840 
#    y -0.031120 2.218740 -0.035470 
#    z -0.029840 -0.035470 2.089090 
# 
# From -- ./inp_files/351003.got.cif
#   From: 2010.05.17/outbox.cif.g08.bks.cpg/sg2_176_cif.got.tgz:351003.got - 2010.06.03 11:33:40.
