data_PCOD9068592
_publ_section_title
;
Structure prediction by ZEFSAII (Michael W. Deem and Ramdas Pophale) SiO2 
 PCOD9068592
Probable space group: P -1
;
_chemical_formula_sum "Si O2"
_cell_formula_units_Z 12
_cell_length_a 5.072566
_cell_length_b 11.329866
_cell_length_c 9.481166
_cell_angle_alpha 106.649563
_cell_angle_beta 75.385655
_cell_angle_gamma 93.124421
_cell_volume 505.068573
_symmetry_space_group_name_H-M "P -1"
_symmetry_group_IT_number 2
_symmetry_cell_setting 'triclinic'
loop_
_space_group_symop_operation_xyz
x,y,z
-x,-y,-z
loop_
_atom_site_type_symbol
_atom_site_label
_atom_site_fract_x
_atom_site_fract_y
_atom_site_fract_z
Si Si1 0.310030 0.799878 0.472548
Si Si2 0.221277 0.570749 0.585621
Si Si3 0.139156 0.457756 0.110527
Si Si4 0.597560 0.284916 0.868089
Si Si5 0.790132 0.039796 0.917574
Si Si6 0.204559 0.089060 0.422578
O O1 0.309706 0.701033 0.561377
O O2 0.459418 0.785017 0.295820
O O3 0.490206 0.902905 0.562713
O O4 0.983326 0.791568 0.480552
O O5 0.500000 0.500000 0.500000
O O6 0.000000 0.500000 0.500000
O O7 0.091104 0.576487 0.759550
O O8 0.282440 0.587409 0.170146
O O9 0.348684 0.343829 0.013456
O O10 0.000000 0.500000 0.000000
O O11 0.763493 0.182470 0.907548
O O12 0.830623 0.952321 0.746624
O O13 0.500000 0.000000 0.000000
O O14 0.000000 0.000000 0.000000
O O15 0.000000 0.000000 0.500000
#
# Coordination Sequence:
#
# PCOD9068592 Si02
#       6
#     2   2   2   2   2   2
#     4  12  26  47  80 111 154 201 259 326 387 466
#     4  12  26  48  75 113 153 200 259 317 392 463
#     4  11  27  47  80 117 154 209 259 324 403 473
#     4  11  27  49  78 113 159 209 262 330 397 470
#     4  12  30  50  76 113 157 203 260 324 392 464
#     4  12  27  49  77 111 146 205 264 313 389 465
#
# _framework density 23.759150000000002
#
# number of rings (size 3 to 8) (size 9 to 14) (size 15 to 20)
#    0.000    0.333    3.333    3.500   11.667    1.333 
#    0.000    0.000    0.000    0.000    0.000    0.000 
#    0.000    0.000    0.000    0.000    0.000    0.000 
#
# Total GULP energy -66814.480277 kJ/mol
# GULP energy per Si atom -5567.873356 kJ/mol
# Density = 2.370507 g / cm^3
# Si number density = 23.759150 Si / 1000 Ang^3
#
#
#
# Elastic Constant Matrix: (Units=GPa)
#
#
# Indices 1 2 3 4 5 6 
#
# 1 145.8599 35.9742 52.8507 -8.0742 -2.9623 -4.6587
# 2 35.9742 123.3995 41.8589 -28.6871 -8.7588 -9.2742
# 3 52.8507 41.8589 171.8534 -25.8116 -5.4750 -5.6368
# 4 -8.0742 -28.6871 -25.8116 44.1899 5.4454 -2.1184
# 5 -2.9623 -8.7588 -5.4750 5.4454 51.5421 1.5924
# 6 -4.6587 -9.2742 -5.6368 -2.1184 1.5924 34.0171
#
#
#
# Elastic Compliance Matrix: (Units=1/GPa)
#
#
# Indices 1 2 3 4 5 6 
#
# 1 0.008043 -0.001820 -0.002170 -0.000973 0.000020 0.000184
# 2 -0.001820 0.010650 -0.001010 0.006019 0.000875 0.002821
# 3 -0.002170 -0.001010 0.007244 0.003205 0.000109 0.000822
# 4 -0.000973 0.006019 0.003205 0.028645 -0.001840 0.003909
# 5 0.000020 0.000875 0.000109 -0.001840 0.019782 -0.000781
# 6 0.000184 0.002821 0.000822 0.003909 -0.000781 0.030608
#
#
# Mechanical properties :
#
#
# Convention : Reuss Voigt Hill
#
# Bulk Modulus (GPa) = 62.74115 78.05339 70.39727
# Shear Modulus (GPa) = 41.56829 46.64511 44.10670
#
# Velocity S-wave (km/s) = 4.18732 4.43566 4.31328
# Velocity P-wave (km/s) = 7.05994 7.69134 7.38239
#
# Compressibility (1/GPa) = 0.01593850
#
# Stress axis : x y z
#
# Youngs Moduli (GPa) = 124.32657 93.89489 138.04411
#
# Poissons Ratio (x) = 0.17086 0.29952
# Poissons Ratio (y) = 0.22623 0.13944
# Poissons Ratio (z) = 0.26976 0.09484
#
# Static dielectric constant tensor:
#      x y z
#    x 1.690410 0.302520 0.020830 
#    y 0.302520 1.767040 0.124770 
#    z 0.020830 0.124770 1.899050 
# 
# From -- ./inp_files/131078.got.cif
#   From: 2010.05.17/outbox.cif.g08.bks.cpg/sg2_66_cif.got.tgz:131078.got - 2010.06.03 11:33:40.
