data_PCOD9068243
_publ_section_title
;
Structure prediction by ZEFSAII (Michael W. Deem and Ramdas Pophale) SiO2 
 PCOD9068243
Probable space group: P -1
;
_chemical_formula_sum "Si O2"
_cell_formula_units_Z 16
_cell_length_a 20.953253
_cell_length_b 18.774786
_cell_length_c 9.002247
_cell_angle_alpha 143.652781
_cell_angle_beta 144.084939
_cell_angle_gamma 18.548599
_cell_volume 647.250324
_symmetry_space_group_name_H-M "P -1"
_symmetry_group_IT_number 2
_symmetry_cell_setting 'triclinic'
loop_
_space_group_symop_operation_xyz
x,y,z
-x,-y,-z
loop_
_atom_site_type_symbol
_atom_site_label
_atom_site_fract_x
_atom_site_fract_y
_atom_site_fract_z
Si Si1 0.246563 0.062484 0.568489
Si Si2 0.279492 0.761917 0.060453
Si Si3 0.159874 0.280721 0.325762
Si Si4 0.402467 0.459838 0.279159
Si Si5 0.105254 0.844459 0.582588
Si Si6 0.465998 0.154634 0.498501
Si Si7 0.821424 0.371407 0.165173
Si Si8 0.802563 0.928397 0.192744
O O1 0.213641 0.134947 0.796030
O O2 0.028045 0.255025 0.392032
O O3 0.429187 0.960394 0.657486
O O4 0.306928 0.865112 0.358639
O O5 0.178116 0.869327 0.885335
O O6 0.170995 0.763435 0.962556
O O7 0.500000 0.500000 0.000000
O O8 0.286259 0.243758 0.383676
O O9 0.000000 0.500000 0.500000
O O10 0.336213 0.053644 0.375311
O O11 0.078622 0.251800 0.017938
O O12 0.500000 0.500000 0.500000
O O13 0.289574 0.588398 0.438118
O O14 0.578252 0.191704 0.164550
O O15 0.242043 0.583120 0.050334
O O16 0.940281 0.913924 0.464678
O O17 0.000000 0.000000 0.500000
O O18 0.371096 0.376028 0.701994
#
# Coordination Sequence:
#
# PCOD9068243 Si02
#       8
#     2   2   2   2   2   2   2   2
#     4  12  26  44  73 109 154 199 239 299 371 451
#     4  12  24  43  67 106 160 200 236 288 363 451
#     4  11  27  53  79 107 140 190 257 324 376 437
#     4  12  25  41  68 106 150 196 242 295 356 445
#     4  12  26  41  67 110 153 199 243 290 357 443
#     4  11  26  48  77 107 138 194 251 305 383 436
#     4  12  24  44  69 107 150 197 241 299 370 438
#     4  12  27  47  71 110 145 194 250 301 373 443
#
# _framework density 24.719956
#
# number of rings (size 3 to 8) (size 9 to 14) (size 15 to 20)
#    0.000    0.250    5.000    4.125    5.250    0.500 
#    0.000    2.500    0.000    0.000    0.000    0.000 
#    0.000    0.000    0.000    0.000    0.000    0.000 
#
# Total GULP energy -89536.663492 kJ/mol
# GULP energy per Si atom -5596.041468 kJ/mol
# Density = 2.466369 g / cm^3
# Si number density = 24.719956 Si / 1000 Ang^3
#
#
#
# Elastic Constant Matrix: (Units=GPa)
#
#
# Indices 1 2 3 4 5 6 
#
# 1 137.8955 24.9376 21.1531 -7.7673 -15.6403 -21.1285
# 2 24.9376 119.6687 35.4049 4.2233 -14.6204 -12.8849
# 3 21.1531 35.4049 83.1488 -2.0213 -33.0861 -6.0555
# 4 -7.7673 4.2233 -2.0213 28.3538 -6.3984 -8.2558
# 5 -15.6403 -14.6204 -33.0861 -6.3984 37.1406 5.6671
# 6 -21.1285 -12.8849 -6.0555 -8.2558 5.6671 38.9625
#
#
#
# Elastic Compliance Matrix: (Units=1/GPa)
#
#
# Indices 1 2 3 4 5 6 
#
# 1 0.008861 -0.001075 0.000042 0.004811 0.003415 0.004979
# 2 -0.001075 0.009984 -0.004237 -0.001753 -0.000876 0.001816
# 3 0.000042 -0.004237 0.021338 0.006498 0.018381 0.000642
# 4 0.004811 -0.001753 0.006498 0.043247 0.013002 0.010312
# 5 0.003415 -0.000876 0.018381 0.013002 0.046571 0.000400
# 6 0.004979 0.001816 0.000642 0.010312 0.000400 0.031193
#
#
# Mechanical properties :
#
#
# Convention : Reuss Voigt Hill
#
# Bulk Modulus (GPa) = 33.73400 55.96714 44.85057
# Shear Modulus (GPa) = 27.53058 38.17252 32.85155
#
# Velocity S-wave (km/s) = 3.34083 3.93389 3.64943
# Velocity P-wave (km/s) = 5.34393 6.58207 5.99505
#
# Compressibility (1/GPa) = 0.02964368
#
# Stress axis : x y z
#
# Youngs Moduli (GPa) = 112.85364 100.15672 46.86369
#
# Poissons Ratio (x) = 0.10772 -0.00196
# Poissons Ratio (y) = 0.12137 0.19854
# Poissons Ratio (z) = -0.00473 0.42432
#
# Static dielectric constant tensor:
#      x y z
#    x 2.013500 0.014050 0.012630 
#    y 0.014050 1.997390 0.001070 
#    z 0.012630 0.001070 1.968180 
# 
# From -- ./inp_files/348964.got.cif
#   From: 2010.05.17/outbox.cif.g08.bks.cpg/sg2_175_cif.got.tgz:348964.got - 2010.06.03 11:33:40.
