data_PCOD9068232
_publ_section_title
;
Structure prediction by ZEFSAII (Michael W. Deem and Ramdas Pophale) SiO2 
 PCOD9068232
Probable space group: P -1
;
_chemical_formula_sum "Si O2"
_cell_formula_units_Z 16
_cell_length_a 7.775220
_cell_length_b 18.254882
_cell_length_c 11.792064
_cell_angle_alpha 28.751106
_cell_angle_beta 128.828601
_cell_angle_gamma 128.340410
_cell_volume 615.922936
_symmetry_space_group_name_H-M "P -1"
_symmetry_group_IT_number 2
_symmetry_cell_setting 'triclinic'
loop_
_space_group_symop_operation_xyz
x,y,z
-x,-y,-z
loop_
_atom_site_type_symbol
_atom_site_label
_atom_site_fract_x
_atom_site_fract_y
_atom_site_fract_z
Si Si1 0.790272 0.436841 0.419021
Si Si2 0.642851 0.295372 0.778772
Si Si3 0.599620 0.226677 0.455025
Si Si4 0.158345 0.289928 0.305699
Si Si5 0.795526 0.457846 0.827185
Si Si6 0.421783 0.268839 0.084669
Si Si7 0.947450 0.054173 0.192862
Si Si8 0.249777 0.041220 0.998952
O O1 0.641210 0.331564 0.595490
O O2 0.813355 0.333078 0.459712
O O3 0.000000 0.500000 0.500000
O O4 0.688062 0.581361 0.139406
O O5 0.733021 0.447159 0.684247
O O6 0.821525 0.179926 0.029620
O O7 0.395823 0.211582 0.826896
O O8 0.390750 0.288899 0.338984
O O9 0.569672 0.231786 0.302222
O O10 0.604387 0.058292 0.733285
O O11 0.015640 0.387332 0.038923
O O12 0.051795 0.108311 0.523779
O O13 0.180718 0.383704 0.306862
O O14 0.593956 0.330539 0.972508
O O15 0.203935 0.133773 0.159924
O O16 0.790654 0.010620 0.077262
O O17 0.000000 0.000000 0.000000
#
# Coordination Sequence:
#
# PCOD9068232 Si02
#       8
#     2   2   2   2   2   2   2   2
#     4  12  25  46  76 113 154 205 259 311 380 466
#     4  12  25  48  81 109 154 207 262 312 387 469
#     4  12  25  49  79 109 153 208 258 319 387 468
#     4  11  26  48  76 109 157 202 262 317 391 457
#     4  11  28  47  73 118 152 205 255 328 384 449
#     4  12  27  46  76 115 157 201 259 320 383 460
#     4  12  25  50  77 113 152 208 259 316 389 467
#     4  12  27  48  77 118 153 199 260 330 392 449
#
# _framework density 25.977274999999999
#
# number of rings (size 3 to 8) (size 9 to 14) (size 15 to 20)
#    0.000    0.250    5.000    3.000    3.500    3.000 
#    2.250    0.000    0.000    0.000    0.000    0.000 
#    0.000    0.000    0.000    0.000    0.000    0.000 
#
# Total GULP energy -89660.386021 kJ/mol
# GULP energy per Si atom -5603.774126 kJ/mol
# Density = 2.591815 g / cm^3
# Si number density = 25.977275 Si / 1000 Ang^3
#
#
#
# Elastic Constant Matrix: (Units=GPa)
#
#
# Indices 1 2 3 4 5 6 
#
# 1 80.3893 12.2380 0.1168 -12.3695 9.3549 22.2557
# 2 12.2380 117.7431 19.1480 -2.6271 -9.4809 4.7097
# 3 0.1168 19.1480 114.7032 1.2478 10.2628 5.4603
# 4 -12.3695 -2.6271 1.2478 44.0389 3.7152 -10.5942
# 5 9.3549 -9.4809 10.2628 3.7152 37.9685 -1.9038
# 6 22.2557 4.7097 5.4603 -10.5942 -1.9038 47.5019
#
#
#
# Elastic Compliance Matrix: (Units=1/GPa)
#
#
# Indices 1 2 3 4 5 6 
#
# 1 0.015698 -0.001887 0.001061 0.003071 -0.005268 -0.006816
# 2 -0.001887 0.009241 -0.001848 -0.000137 0.003300 0.000282
# 3 0.001061 -0.001848 0.009400 -0.000175 -0.003325 -0.001567
# 4 0.003071 -0.000137 -0.000175 0.024780 -0.002968 0.004002
# 5 -0.005268 0.003300 -0.003325 -0.002968 0.029802 0.003056
# 6 -0.006816 0.000282 -0.001567 0.004002 0.003056 0.025412
#
#
# Mechanical properties :
#
#
# Convention : Reuss Voigt Hill
#
# Bulk Modulus (GPa) = 34.49337 41.76012 38.12674
# Shear Modulus (GPa) = 38.65667 44.65737 41.65702
#
# Velocity S-wave (km/s) = 3.86177 4.15069 4.00884
# Velocity P-wave (km/s) = 5.76120 6.25152 6.01136
#
# Compressibility (1/GPa) = 0.02899108
#
# Stress axis : x y z
#
# Youngs Moduli (GPa) = 63.70301 108.21230 106.38812
#
# Poissons Ratio (x) = 0.20423 -0.11293
# Poissons Ratio (y) = 0.12023 0.19659
# Poissons Ratio (z) = -0.06762 0.19997
#
# Static dielectric constant tensor:
#      x y z
#    x 2.111890 0.024850 -0.025870 
#    y 0.024850 2.074510 0.000110 
#    z -0.025870 0.000110 1.992420 
# 
# From -- ./inp_files/402743.got.cif
#   From: 2010.05.17/outbox.cif.g08.bks.cpg/sg2_202_cif.got.tgz:402743.got - 2010.06.03 11:33:40.
