data_PCOD9068860
_publ_section_title
;
Structure prediction by ZEFSAII (Michael W. Deem and Ramdas Pophale) SiO2 
 PCOD9068860
Probable space group: P -1
;
_chemical_formula_sum "Si O2"
_cell_formula_units_Z 16
_cell_length_a 14.300670
_cell_length_b 12.777482
_cell_length_c 9.112621
_cell_angle_alpha 74.846629
_cell_angle_beta 49.178696
_cell_angle_gamma 42.184625
_cell_volume 760.363683
_symmetry_space_group_name_H-M "P -1"
_symmetry_group_IT_number 2
_symmetry_cell_setting 'triclinic'
loop_
_space_group_symop_operation_xyz
x,y,z
-x,-y,-z
loop_
_atom_site_type_symbol
_atom_site_label
_atom_site_fract_x
_atom_site_fract_y
_atom_site_fract_z
Si Si1 0.960592 0.899253 0.083756
Si Si2 0.324597 0.534626 0.680648
Si Si3 0.111706 0.160131 0.510864
Si Si4 0.142763 0.570422 0.552048
Si Si5 0.313895 0.260451 0.287418
Si Si6 0.366896 0.004726 0.719766
Si Si7 0.154118 0.310740 0.972037
Si Si8 0.465770 0.231125 0.827816
O O1 0.965435 0.839575 0.260067
O O2 0.727124 0.039103 0.231257
O O3 0.132200 0.728428 0.869859
O O4 0.000000 0.000000 0.000000
O O5 0.500000 0.500000 0.500000
O O6 0.270494 0.519380 0.581346
O O7 0.403105 0.389499 0.767374
O O8 0.189037 0.233026 0.426546
O O9 0.927406 0.289912 0.540315
O O10 0.303167 0.959553 0.334510
O O11 0.226049 0.411066 0.433476
O O12 0.934607 0.676522 0.795553
O O13 0.526345 0.089482 0.202685
O O14 0.356861 0.280876 0.075871
O O15 0.500000 0.000000 0.500000
O O16 0.171257 0.208099 0.871374
O O17 0.364039 0.219340 0.820441
O O18 0.000000 0.500000 0.000000
#
# Coordination Sequence:
#
# PCOD9068860 Si02
#       8
#     2   2   2   2   2   2   2   2
#     4  12  27  48  74 100 143 191 241 290 358 426
#     4  12  29  51  70  98 140 196 244 288 349 429
#     4  12  25  45  70 110 143 182 230 296 359 424
#     4  12  26  42  71 102 144 178 233 291 355 416
#     4  12  25  39  72 109 148 175 231 294 364 415
#     4  12  23  41  69 107 142 182 237 295 354 424
#     4  12  21  37  67 103 137 181 224 284 356 418
#     4  12  24  44  71 104 149 178 227 297 354 420
#
# _framework density 21.042562
#
# number of rings (size 3 to 8) (size 9 to 14) (size 15 to 20)
#    0.000    0.000    6.250    3.750    5.250    0.000 
#    2.250    2.500    0.000    0.000    0.000    0.000 
#    0.000    0.000    0.000    0.000    0.000    0.000 
#
# Total GULP energy -89273.741435 kJ/mol
# GULP energy per Si atom -5579.608840 kJ/mol
# Density = 2.099467 g / cm^3
# Si number density = 21.042562 Si / 1000 Ang^3
#
#
#
# Elastic Constant Matrix: (Units=GPa)
#
#
# Indices 1 2 3 4 5 6 
#
# 1 102.5660 60.2620 62.9385 -22.8651 -10.1396 6.1673
# 2 60.2620 120.8313 44.9918 -12.0064 2.2309 6.1594
# 3 62.9385 44.9918 129.2855 -13.4597 -0.9914 18.7759
# 4 -22.8651 -12.0064 -13.4597 52.5269 1.2945 9.0438
# 5 -10.1396 2.2309 -0.9914 1.2945 37.4696 -2.2675
# 6 6.1673 6.1594 18.7759 9.0438 -2.2675 31.6824
#
#
#
# Elastic Compliance Matrix: (Units=1/GPa)
#
#
# Indices 1 2 3 4 5 6 
#
# 1 0.019437 -0.006870 -0.006567 0.005008 0.005346 0.000397
# 2 -0.006870 0.012057 -0.000806 -0.000266 -0.002628 -0.000641
# 3 -0.006567 -0.000806 0.012240 0.001223 -0.001829 -0.006299
# 4 0.005008 -0.000266 0.001223 0.022874 0.000119 -0.008169
# 5 0.005346 -0.002628 -0.001829 0.000119 0.028393 0.002552
# 6 0.000397 -0.000641 -0.006299 -0.008169 0.002552 0.037858
#
#
# Mechanical properties :
#
#
# Convention : Reuss Voigt Hill
#
# Bulk Modulus (GPa) = 65.57998 76.56305 71.07152
# Shear Modulus (GPa) = 30.04289 36.63512 33.33901
#
# Velocity S-wave (km/s) = 3.78262 4.17706 3.98472
# Velocity P-wave (km/s) = 7.09300 7.72836 7.41749
#
# Compressibility (1/GPa) = 0.01524856
#
# Stress axis : x y z
#
# Youngs Moduli (GPa) = 51.44871 82.93786 81.69711
#
# Poissons Ratio (x) = 0.56978 0.53648
# Poissons Ratio (y) = 0.35345 0.06587
# Poissons Ratio (z) = 0.33785 0.06687
#
# Static dielectric constant tensor:
#      x y z
#    x 1.844400 -0.015500 0.037960 
#    y -0.015500 1.786850 0.011730 
#    z 0.037960 0.011730 1.818480 
# 
# From -- ./inp_files/306912.got.cif
#   From: 2010.05.17/outbox.cif.g08.bks.cpg/sg2_154_cif.got.tgz:306912.got - 2010.06.03 11:33:40.
