data_PCOD9068650
_publ_section_title
;
Structure prediction by ZEFSAII (Michael W. Deem and Ramdas Pophale) SiO2 
 PCOD9068650
Probable space group: P -1
;
_chemical_formula_sum "Si O2"
_cell_formula_units_Z 16
_cell_length_a 5.128071
_cell_length_b 20.261744
_cell_length_c 9.115915
_cell_angle_alpha 142.786415
_cell_angle_beta 90.783368
_cell_angle_gamma 91.253051
_cell_volume 571.946768
_symmetry_space_group_name_H-M "P -1"
_symmetry_group_IT_number 2
_symmetry_cell_setting 'triclinic'
loop_
_space_group_symop_operation_xyz
x,y,z
-x,-y,-z
loop_
_atom_site_type_symbol
_atom_site_label
_atom_site_fract_x
_atom_site_fract_y
_atom_site_fract_z
Si Si1 0.231453 0.496842 0.113664
Si Si2 0.898434 0.123239 0.398051
Si Si3 0.686508 0.714925 0.353375
Si Si4 0.114839 0.571151 0.763955
Si Si5 0.589707 0.638688 0.517332
Si Si6 0.760923 0.075635 0.981014
Si Si7 0.273498 0.160986 0.963817
Si Si8 0.391777 0.805165 0.242337
O O1 0.300549 0.608732 0.399690
O O2 0.125166 0.421799 0.115765
O O3 0.416655 0.410755 0.887532
O O4 0.000000 0.500000 0.000000
O O5 0.022811 0.246056 0.617604
O O6 0.757059 0.106809 0.209368
O O7 0.797009 0.105673 0.533952
O O8 0.143257 0.046485 0.241162
O O9 0.697613 0.721016 0.538717
O O10 0.504385 0.774528 0.347871
O O11 0.303735 0.481695 0.677456
O O12 0.000000 0.500000 0.500000
O O13 0.248819 0.694112 0.974840
O O14 0.653641 0.708988 0.783577
O O15 0.479558 0.096657 0.949631
O O16 0.982622 0.136503 0.983340
O O17 0.376814 0.146525 0.773559
#
# Coordination Sequence:
#
# PCOD9068650 Si02
#       8
#     2   2   2   2   2   2   2   2
#     4  12  24  40  68 103 145 194 256 309 376 451
#     4  11  27  49  84 106 150 193 264 324 382 457
#     4  12  24  44  72 107 145 195 256 318 380 454
#     4  12  27  43  69 104 154 203 253 306 381 459
#     4  12  26  45  70 107 153 204 251 317 374 463
#     4  11  29  55  79 116 147 205 257 326 390 460
#     4  12  30  49  78 110 161 201 256 314 396 453
#     4  12  28  46  74 113 151 202 254 320 383 463
#
# _framework density 27.974632
#
# number of rings (size 3 to 8) (size 9 to 14) (size 15 to 20)
#    0.000    0.250    5.000    2.625   10.500    3.000 
#    0.000    0.000    0.000    0.000    0.000    0.000 
#    0.000    0.000    0.000    0.000    0.000    0.000 
#
# Total GULP energy -89305.645670 kJ/mol
# GULP energy per Si atom -5581.602854 kJ/mol
# Density = 2.791096 g / cm^3
# Si number density = 27.974632 Si / 1000 Ang^3
#
#
#
# Elastic Constant Matrix: (Units=GPa)
#
#
# Indices 1 2 3 4 5 6 
#
# 1 40.4100 -0.7437 5.2036 -7.2170 20.1876 1.2877
# 2 -0.7437 71.6665 21.2648 -12.3876 0.1489 10.4691
# 3 5.2036 21.2648 144.3492 -18.3196 8.1556 15.2216
# 4 -7.2170 -12.3876 -18.3196 37.0509 5.3263 -6.8740
# 5 20.1876 0.1489 8.1556 5.3263 41.7226 4.5633
# 6 1.2877 10.4691 15.2216 -6.8740 4.5633 56.8093
#
#
#
# Elastic Compliance Matrix: (Units=1/GPa)
#
#
# Indices 1 2 3 4 5 6 
#
# 1 0.036255 0.001893 0.000755 0.011122 -0.019283 0.001522
# 2 0.001893 0.015491 -0.001510 0.004611 -0.001062 -0.001850
# 3 0.000755 -0.001510 0.007835 0.003608 -0.002218 -0.001223
# 4 0.011122 0.004611 0.003608 0.034596 -0.010847 0.002989
# 5 -0.019283 -0.001062 -0.002218 -0.010847 0.035440 -0.002932
# 6 0.001522 -0.001850 -0.001223 0.002989 -0.002932 0.018834
#
#
# Mechanical properties :
#
#
# Convention : Reuss Voigt Hill
#
# Bulk Modulus (GPa) = 16.16683 34.20833 25.18758
# Shear Modulus (GPa) = 29.97701 42.49664 36.23682
#
# Velocity S-wave (km/s) = 3.27705 3.90181 3.60300
# Velocity P-wave (km/s) = 4.48446 5.70559 5.13148
#
# Compressibility (1/GPa) = 0.06185503
#
# Stress axis : x y z
#
# Youngs Moduli (GPa) = 27.58255 64.55540 127.63042
#
# Poissons Ratio (x) = -0.12217 -0.09633
# Poissons Ratio (y) = -0.05220 0.19272
# Poissons Ratio (z) = -0.02082 0.09748
#
# Static dielectric constant tensor:
#      x y z
#    x 2.599750 -0.074440 0.062290 
#    y -0.074440 2.321790 -0.038930 
#    z 0.062290 -0.038930 2.276790 
# 
# From -- ./inp_files/107225.got.cif
#   From: 2010.05.17/outbox.cif.g08.bks.cpg/sg2_54_cif.got.tgz:107225.got - 2010.06.03 11:33:40.
