data_PCOD9068962
_publ_section_title
;
Structure prediction by ZEFSAII (Michael W. Deem and Ramdas Pophale) SiO2 
 PCOD9068962
Probable space group: P -1
;
_chemical_formula_sum "Si O2"
_cell_formula_units_Z 16
_cell_length_a 10.963880
_cell_length_b 14.066488
_cell_length_c 9.545392
_cell_angle_alpha 99.624863
_cell_angle_beta 67.941652
_cell_angle_gamma 149.059080
_cell_volume 663.390323
_symmetry_space_group_name_H-M "P -1"
_symmetry_group_IT_number 2
_symmetry_cell_setting 'triclinic'
loop_
_space_group_symop_operation_xyz
x,y,z
-x,-y,-z
loop_
_atom_site_type_symbol
_atom_site_label
_atom_site_fract_x
_atom_site_fract_y
_atom_site_fract_z
Si Si1 0.689081 0.694231 0.549931
Si Si2 0.295589 0.232287 0.920757
Si Si3 0.018594 0.247838 0.056789
Si Si4 0.598204 0.366396 0.104430
Si Si5 0.452564 0.249277 0.569368
Si Si6 0.522431 0.121655 0.960891
Si Si7 0.876203 0.144077 0.417441
Si Si8 0.950708 0.382384 0.601544
O O1 0.500000 0.500000 0.500000
O O2 0.532932 0.660572 0.719150
O O3 0.766466 0.822273 0.429931
O O4 0.910815 0.776126 0.557170
O O5 0.448103 0.280927 0.738873
O O6 0.446924 0.305123 0.014756
O O7 0.248829 0.316216 0.941232
O O8 0.000000 0.000000 0.000000
O O9 0.985434 0.230881 0.234538
O O10 0.749664 0.038658 0.049503
O O11 0.103739 0.403929 0.992053
O O12 0.556939 0.225634 0.089453
O O13 0.751549 0.455703 0.437301
O O14 0.368653 0.085506 0.549201
O O15 0.764863 0.288639 0.788849
O O16 0.500000 0.000000 0.000000
O O17 0.821831 0.210062 0.532760
O O18 0.000000 0.500000 0.500000
#
# Coordination Sequence:
#
# PCOD9068962 Si02
#       8
#     2   2   2   2   2   2   2   2
#     4  12  26  47  74 117 156 192 247 320 401 452
#     4  12  21  45  80 116 152 187 249 320 388 458
#     4  12  25  45  80 113 148 195 257 310 379 462
#     4  12  26  48  80 109 151 202 248 317 388 454
#     4  12  26  45  77 113 153 195 249 317 387 450
#     4  12  31  52  75 111 155 208 262 312 372 457
#     4  12  25  46  77 113 147 199 245 317 389 452
#     4  12  28  51  75 105 157 202 264 306 366 460
#
# _framework density 24.118528999999999
#
# number of rings (size 3 to 8) (size 9 to 14) (size 15 to 20)
#    0.000    0.000    5.000    4.500    3.500    4.500 
#    0.000    0.000    0.000    0.000    0.000    0.000 
#    0.000    0.000    0.000    0.000    0.000    0.000 
#
# Total GULP energy -89712.640760 kJ/mol
# GULP energy per Si atom -5607.040047 kJ/mol
# Density = 2.406363 g / cm^3
# Si number density = 24.118529 Si / 1000 Ang^3
#
#
#
# Elastic Constant Matrix: (Units=GPa)
#
#
# Indices 1 2 3 4 5 6 
#
# 1 98.1744 12.3119 19.0270 7.8416 2.7861 -20.4939
# 2 12.3119 107.4135 31.1062 12.2247 -16.8106 -19.4091
# 3 19.0270 31.1062 88.5449 23.2665 -8.2265 -3.2018
# 4 7.8416 12.2247 23.2665 39.1959 -4.9135 -6.4873
# 5 2.7861 -16.8106 -8.2265 -4.9135 35.7634 2.1009
# 6 -20.4939 -19.4091 -3.2018 -6.4873 2.1009 50.8776
#
#
#
# Elastic Compliance Matrix: (Units=1/GPa)
#
#
# Indices 1 2 3 4 5 6 
#
# 1 0.011692 -0.000063 -0.002397 -0.000369 -0.001810 0.004562
# 2 -0.000063 0.011789 -0.003468 -0.000381 0.004460 0.004021
# 3 -0.002397 -0.003468 0.015048 -0.007623 0.001109 -0.002359
# 4 -0.000369 -0.000381 -0.007623 0.031015 0.002176 0.003091
# 5 -0.001810 0.004460 0.001109 0.002176 0.030750 0.000050
# 6 0.004562 0.004021 -0.002359 0.003091 0.000050 0.023270
#
#
# Mechanical properties :
#
#
# Convention : Reuss Voigt Hill
#
# Bulk Modulus (GPa) = 37.49106 46.55812 42.02459
# Shear Modulus (GPa) = 34.64751 40.61323 37.63037
#
# Velocity S-wave (km/s) = 3.79430 4.10799 3.95426
# Velocity P-wave (km/s) = 5.89694 6.46889 6.18952
#
# Compressibility (1/GPa) = 0.02667303
#
# Stress axis : x y z
#
# Youngs Moduli (GPa) = 85.53190 84.82197 66.45504
#
# Poissons Ratio (x) = 0.00535 0.15926
# Poissons Ratio (y) = 0.00539 0.23048
# Poissons Ratio (z) = 0.20498 0.29418
#
# Static dielectric constant tensor:
#      x y z
#    x 1.978140 -0.019520 0.025220 
#    y -0.019520 1.968410 0.010840 
#    z 0.025220 0.010840 1.903560 
# 
# From -- ./inp_files/273351.got.cif
#   From: 2010.05.17/outbox.cif.g08.bks.cpg/sg2_137_cif.got.tgz:273351.got - 2010.06.03 11:33:40.
