data_PCOD9068833
_publ_section_title
;
Structure prediction by ZEFSAII (Michael W. Deem and Ramdas Pophale) SiO2 
 PCOD9068833
Probable space group: P -1
;
_chemical_formula_sum "Si O2"
_cell_formula_units_Z 16
_cell_length_a 12.511494
_cell_length_b 16.888161
_cell_length_c 9.007196
_cell_angle_alpha 64.195461
_cell_angle_beta 102.206156
_cell_angle_gamma 46.433908
_cell_volume 770.648222
_symmetry_space_group_name_H-M "P -1"
_symmetry_group_IT_number 2
_symmetry_cell_setting 'triclinic'
loop_
_space_group_symop_operation_xyz
x,y,z
-x,-y,-z
loop_
_atom_site_type_symbol
_atom_site_label
_atom_site_fract_x
_atom_site_fract_y
_atom_site_fract_z
Si Si1 0.211994 0.911715 0.596228
Si Si2 0.362939 0.011033 0.119151
Si Si3 0.181336 0.333321 0.806701
Si Si4 0.424378 0.406420 0.248262
Si Si5 0.183843 0.397133 0.264835
Si Si6 0.267218 0.780240 0.216578
Si Si7 0.402846 0.845969 0.996183
Si Si8 0.965797 0.203522 0.046455
O O1 0.440562 0.692305 0.788664
O O2 0.238722 0.950534 0.719814
O O3 0.000000 0.000000 0.500000
O O4 0.136289 0.018927 0.341150
O O5 0.141958 0.136124 0.053476
O O6 0.618401 0.811436 0.438755
O O7 0.353457 0.955418 0.016519
O O8 0.319388 0.144804 0.964691
O O9 0.361184 0.286636 0.908352
O O10 0.000000 0.500000 0.500000
O O11 0.004722 0.438796 0.801904
O O12 0.340776 0.366770 0.284764
O O13 0.591185 0.317941 0.506846
O O14 0.189487 0.632105 0.014659
O O15 0.000000 0.500000 0.000000
O O16 0.389127 0.763935 0.152379
O O17 0.216833 0.723360 0.167416
O O18 0.000000 0.000000 0.000000
#
# Coordination Sequence:
#
# PCOD9068833 Si02
#       8
#     2   2   2   2   2   2   2   2
#     4  12  25  46  67 100 148 178 224 294 353 406
#     4  12  25  48  75 102 139 187 240 284 351 425
#     4  12  26  46  70 105 141 181 234 294 350 412
#     4  12  24  46  69 104 138 183 238 283 344 426
#     4  12  25  45  72 102 141 188 233 289 348 420
#     4  12  20  45  74  97 138 186 229 284 343 418
#     4  12  24  44  71 100 140 182 226 290 352 407
#     4  12  25  44  74 104 134 188 237 282 348 423
#
# _framework density 20.761744
#
# number of rings (size 3 to 8) (size 9 to 14) (size 15 to 20)
#    0.000    0.000    8.750    1.500    0.000    2.000 
#    2.250    0.000    0.000    0.000    0.000    0.000 
#    0.000    0.000    0.000    0.000    0.000    0.000 
#
# Total GULP energy -89247.231456 kJ/mol
# GULP energy per Si atom -5577.951966 kJ/mol
# Density = 2.071449 g / cm^3
# Si number density = 20.761744 Si / 1000 Ang^3
#
#
#
# Elastic Constant Matrix: (Units=GPa)
#
#
# Indices 1 2 3 4 5 6 
#
# 1 105.2180 18.2808 28.8521 -6.7537 15.1968 -12.7828
# 2 18.2808 108.0006 45.0690 -10.3819 0.2744 -9.7229
# 3 28.8521 45.0690 97.0361 7.4298 24.8668 27.9716
# 4 -6.7537 -10.3819 7.4298 44.3537 0.4625 5.5692
# 5 15.1968 0.2744 24.8668 0.4625 26.3580 -6.7030
# 6 -12.7828 -9.7229 27.9716 5.5692 -6.7030 35.7271
#
#
#
# Elastic Compliance Matrix: (Units=1/GPa)
#
#
# Indices 1 2 3 4 5 6 
#
# 1 0.015228 0.010831 -0.024477 0.004841 0.021980 0.030929
# 2 0.010831 0.045531 -0.070600 0.012637 0.081234 0.084811
# 3 -0.024477 -0.070600 0.139799 -0.021455 -0.158316 -0.163781
# 4 0.004841 0.012637 -0.021455 0.026839 0.022441 0.021995
# 5 0.021980 0.081234 -0.158316 0.022441 0.222244 0.192120
# 6 0.030929 0.084811 -0.163781 0.021995 0.192120 0.222981
#
#
# Mechanical properties :
#
#
# Convention : Reuss Voigt Hill
#
# Bulk Modulus (GPa) = 31.18670 54.96206 43.07438
# Shear Modulus (GPa) = 5.86991 35.82462 20.84726
#
# Velocity S-wave (km/s) = 1.68327 4.15843 3.17222
# Velocity P-wave (km/s) = 4.33955 7.04180 5.84888
#
# Compressibility (1/GPa) = 0.03206496
#
# Stress axis : x y z
#
# Youngs Moduli (GPa) = 65.66927 21.96301 7.15315
#
# Poissons Ratio (x) = -0.23788 0.17509
# Poissons Ratio (y) = -0.71125 0.50501
# Poissons Ratio (z) = 1.60739 1.55059
#
# Static dielectric constant tensor:
#      x y z
#    x 1.820790 -0.055640 -0.020500 
#    y -0.055640 1.578990 -0.452150 
#    z -0.020500 -0.452150 0.831410 
# 
# From -- ./inp_files/272592.got.cif
#   From: 2010.05.17/outbox.cif.g08.bks.cpg/sg2_137_cif.got.tgz:272592.got - 2010.06.03 11:33:40.
