data_PCOD9068378
_publ_section_title
;
Structure prediction by ZEFSAII (Michael W. Deem and Ramdas Pophale) SiO2 
 PCOD9068378
Probable space group: P -1
;
_chemical_formula_sum "Si O2"
_cell_formula_units_Z 14
_cell_length_a 8.749428
_cell_length_b 17.231823
_cell_length_c 23.606174
_cell_angle_alpha 19.270197
_cell_angle_beta 29.739501
_cell_angle_gamma 30.414960
_cell_volume 562.450896
_symmetry_space_group_name_H-M "P -1"
_symmetry_group_IT_number 2
_symmetry_cell_setting 'triclinic'
loop_
_space_group_symop_operation_xyz
x,y,z
-x,-y,-z
loop_
_atom_site_type_symbol
_atom_site_label
_atom_site_fract_x
_atom_site_fract_y
_atom_site_fract_z
Si Si1 0.404641 0.668113 0.747799
Si Si2 0.256328 0.547036 0.097830
Si Si3 0.188652 0.355272 0.462909
Si Si4 0.141831 0.019617 0.119695
Si Si5 0.748238 0.817997 0.908239
Si Si6 0.767006 0.237039 0.442555
Si Si7 0.399136 0.286757 0.643226
O O1 0.580985 0.570917 0.816075
O O2 0.619249 0.784293 0.557411
O O3 0.046291 0.819750 0.770402
O O4 0.358721 0.425622 0.899007
O O5 0.977053 0.422607 0.259009
O O6 0.500000 0.500000 0.000000
O O7 0.100297 0.836849 0.948617
O O8 0.469643 0.354885 0.416314
O O9 0.958235 0.598789 0.343319
O O10 0.957224 0.218022 0.663676
O O11 0.111662 0.177314 0.077891
O O12 0.500000 0.000000 0.000000
O O13 0.465980 0.055578 0.822258
O O14 0.613158 0.203312 0.575816
O O15 0.000000 0.000000 0.500000
O O16 0.500000 0.500000 0.500000
#
# Coordination Sequence:
#
# PCOD9068378 Si02
#       7
#     2   2   2   2   2   2   2
#     4  11  27  50  79 116 152 205 271 323 397 469
#     4  12  26  48  76 113 153 204 262 327 390 460
#     4  12  27  49  76 117 156 207 259 326 398 472
#     4  12  27  48  77 110 157 201 254 320 396 471
#     4  11  26  49  79 110 161 202 262 328 395 470
#     4  12  28  48  78 114 160 209 269 324 395 472
#     4  12  26  48  77 117 157 207 262 329 400 469
#
# _framework density 24.89106
#
# number of rings (size 3 to 8) (size 9 to 14) (size 15 to 20)
#    0.000    0.286    2.857    4.714    8.000    2.286 
#    0.000    0.000    0.000    0.000    0.000    0.000 
#    0.000    0.000    0.000    0.000    0.000    0.000 
#
# Total GULP energy -78464.515834 kJ/mol
# GULP energy per Si atom -5604.608274 kJ/mol
# Density = 2.483441 g / cm^3
# Si number density = 24.891060 Si / 1000 Ang^3
#
#
#
# Elastic Constant Matrix: (Units=GPa)
#
#
# Indices 1 2 3 4 5 6 
#
# 1 150.4753 36.0758 25.6228 -7.8014 12.5018 -23.6820
# 2 36.0758 126.3262 23.8615 18.0890 7.8864 -13.8216
# 3 25.6228 23.8615 66.5290 16.2435 1.7854 -13.8435
# 4 -7.8014 18.0890 16.2435 52.8256 2.2173 8.9007
# 5 12.5018 7.8864 1.7854 2.2173 42.3956 -2.5358
# 6 -23.6820 -13.8216 -13.8435 8.9007 -2.5358 54.1269
#
#
#
# Elastic Compliance Matrix: (Units=1/GPa)
#
#
# Indices 1 2 3 4 5 6 
#
# 1 0.008118 -0.001835 -0.002594 0.002381 -0.001952 0.001937
# 2 -0.001835 0.009438 -0.001490 -0.003299 -0.000876 0.001727
# 3 -0.002594 -0.001490 0.019066 -0.006525 0.000848 0.004474
# 4 0.002381 -0.003299 -0.006525 0.023381 -0.001358 -0.005378
# 5 -0.001952 -0.000876 0.000848 -0.001358 0.024391 0.000505
# 6 0.001937 0.001727 0.004474 -0.005378 0.000505 0.021816
#
#
# Mechanical properties :
#
#
# Convention : Reuss Voigt Hill
#
# Bulk Modulus (GPa) = 40.35053 57.16119 48.75586
# Shear Modulus (GPa) = 39.58576 47.05429 43.32003
#
# Velocity S-wave (km/s) = 3.99226 4.35260 4.17632
# Velocity P-wave (km/s) = 6.12347 6.94799 6.54872
#
# Compressibility (1/GPa) = 0.02478282
#
# Stress axis : x y z
#
# Youngs Moduli (GPa) = 123.18730 105.95915 52.45057
#
# Poissons Ratio (x) = 0.19448 0.13606
# Poissons Ratio (y) = 0.22610 0.07813
# Poissons Ratio (z) = 0.31955 0.15784
#
# Static dielectric constant tensor:
#      x y z
#    x 1.902100 0.002110 0.016220 
#    y 0.002110 1.951390 -0.002140 
#    z 0.016220 -0.002140 2.019680 
# 
# From -- ./inp_files/242602.got.cif
#   From: 2010.05.17/outbox.cif.g08.bks.cpg/sg2_122_cif.got.tgz:242602.got - 2010.06.03 11:33:40.
