data_PCOD9068175
_publ_section_title
;
Structure prediction by ZEFSAII (Michael W. Deem and Ramdas Pophale) SiO2 
 PCOD9068175
Probable space group: P -1
;
_chemical_formula_sum "Si O2"
_cell_formula_units_Z 15
_cell_length_a 8.705047
_cell_length_b 9.291500
_cell_length_c 20.675506
_cell_angle_alpha 142.392848
_cell_angle_beta 136.813222
_cell_angle_gamma 48.180360
_cell_volume 682.311813
_symmetry_space_group_name_H-M "P -1"
_symmetry_group_IT_number 2
_symmetry_cell_setting 'triclinic'
loop_
_space_group_symop_operation_xyz
x,y,z
-x,-y,-z
loop_
_atom_site_type_symbol
_atom_site_label
_atom_site_fract_x
_atom_site_fract_y
_atom_site_fract_z
Si Si1 0.279389 0.384590 0.384849
Si Si2 0.768483 0.125665 0.011762
Si Si3 0.080921 0.383977 0.734154
Si Si4 0.253779 0.543967 0.101760
Si Si5 0.500000 0.000000 0.000000
Si Si6 0.715741 0.262426 0.676080
Si Si7 0.444462 0.897885 0.192467
Si Si8 0.778231 0.708416 0.519982
O O1 0.500000 0.500000 0.500000
O O2 0.240387 0.272104 0.401502
O O3 0.057313 0.578115 0.361939
O O4 0.327823 0.171490 0.271412
O O5 0.569921 0.148364 0.904566
O O6 0.706921 0.970450 0.997213
O O7 0.812078 0.383688 0.138012
O O8 0.000000 0.000000 0.000000
O O9 0.293492 0.158459 0.722652
O O10 0.895507 0.367155 0.726159
O O11 0.277785 0.662750 0.220991
O O12 0.314534 0.721125 0.128586
O O13 0.000000 0.500000 0.000000
O O14 0.424100 0.284414 0.058614
O O15 0.457345 0.349676 0.600672
O O16 0.785872 0.971318 0.588418
O O17 0.000000 0.500000 0.500000
#
# Coordination Sequence:
#
# PCOD9068175 Si02
#       8
#     2   2   2   2   1   2   2   2
#     4  12  27  49  71 106 142 191 248 302 374 433
#     4  12  25  50  74 112 151 195 245 302 371 451
#     4  12  26  45  75 104 146 191 239 306 369 448
#     4  12  27  46  72 109 150 192 240 303 366 446
#     4  12  28  44  76 110 150 196 248 290 370 450
#     4  11  26  48  71 110 146 188 248 311 368 439
#     4  12  27  48  74 106 149 192 240 303 374 444
#     4  11  27  48  75 102 142 193 251 311 370 441
#
# _framework density 21.984085
#
# number of rings (size 3 to 8) (size 9 to 14) (size 15 to 20)
#    0.000    0.267    5.333    2.800    5.600    1.600 
#    0.000    0.000    0.000    0.000    0.000    0.000 
#    0.000    0.000    0.000    0.000    0.000    0.000 
#
# Total GULP energy -83751.503626 kJ/mol
# GULP energy per Si atom -5583.433575 kJ/mol
# Density = 2.193405 g / cm^3
# Si number density = 21.984085 Si / 1000 Ang^3
#
#
#
# Elastic Constant Matrix: (Units=GPa)
#
#
# Indices 1 2 3 4 5 6 
#
# 1 108.7683 30.0504 24.1582 -0.6704 23.0230 14.2898
# 2 30.0504 101.4329 25.9129 -10.5066 19.3969 -13.1242
# 3 24.1582 25.9129 82.6676 -17.3731 8.8298 -2.0161
# 4 -0.6704 -10.5066 -17.3731 39.7670 3.0803 4.8046
# 5 23.0230 19.3969 8.8298 3.0803 29.4230 0.5934
# 6 14.2898 -13.1242 -2.0161 4.8046 0.5934 49.9133
#
#
#
# Elastic Compliance Matrix: (Units=1/GPa)
#
#
# Indices 1 2 3 4 5 6 
#
# 1 0.012441 -0.002238 -0.002305 -0.000313 -0.007452 -0.004125
# 2 -0.002238 0.013079 -0.002116 0.002541 -0.006579 0.003828
# 3 -0.002305 -0.002116 0.014912 0.006047 -0.001913 0.000146
# 4 -0.000313 0.002541 0.006047 0.029148 -0.006262 -0.001729
# 5 -0.007452 -0.006579 -0.001913 -0.006262 0.045377 0.000390
# 6 -0.004125 0.003828 0.000146 -0.001729 0.000390 0.022390
#
#
# Mechanical properties :
#
#
# Convention : Reuss Voigt Hill
#
# Bulk Modulus (GPa) = 36.87908 50.34574 43.61241
# Shear Modulus (GPa) = 31.30811 38.00385 34.65598
#
# Velocity S-wave (km/s) = 3.77785 4.16227 3.97471
# Velocity P-wave (km/s) = 5.98676 6.78602 6.39888
#
# Compressibility (1/GPa) = 0.02711565
#
# Stress axis : x y z
#
# Youngs Moduli (GPa) = 80.37641 76.45940 67.05982
#
# Poissons Ratio (x) = 0.17113 0.15455
# Poissons Ratio (y) = 0.17989 0.14187
# Poissons Ratio (z) = 0.18523 0.16176
#
# Static dielectric constant tensor:
#      x y z
#    x 1.812700 -0.005460 -0.017820 
#    y -0.005460 1.817750 -0.027110 
#    z -0.017820 -0.027110 1.790180 
# 
# From -- ./inp_files/208138.got.cif
#   From: 2010.05.17/outbox.cif.g08.bks.cpg/sg2_105_cif.got.tgz:208138.got - 2010.06.03 11:33:40.
