data_PCOD9068008
_publ_section_title
;
Structure prediction by ZEFSAII (Michael W. Deem and Ramdas Pophale) SiO2 
 PCOD9068008
Probable space group: P -1
;
_chemical_formula_sum "Si O2"
_cell_formula_units_Z 15
_cell_length_a 15.625470
_cell_length_b 11.421485
_cell_length_c 5.046870
_cell_angle_alpha 75.392453
_cell_angle_beta 99.703062
_cell_angle_gamma 136.978977
_cell_volume 594.479460
_symmetry_space_group_name_H-M "P -1"
_symmetry_group_IT_number 2
_symmetry_cell_setting 'triclinic'
loop_
_space_group_symop_operation_xyz
x,y,z
-x,-y,-z
loop_
_atom_site_type_symbol
_atom_site_label
_atom_site_fract_x
_atom_site_fract_y
_atom_site_fract_z
Si Si1 0.786916 0.985434 0.655759
Si Si2 0.868980 0.813061 0.940222
Si Si3 0.653491 0.871736 0.153435
Si Si4 0.418910 0.952082 0.734538
Si Si5 0.048304 0.651043 0.240842
Si Si6 0.500000 0.500000 0.500000
Si Si7 0.802068 0.391810 0.940499
Si Si8 0.244513 0.412032 0.483673
O O1 0.906565 0.185506 0.676501
O O2 0.775404 0.963428 0.346036
O O3 0.785269 0.848818 0.845407
O O4 0.679880 0.931400 0.830202
O O5 0.807496 0.660309 0.206794
O O6 0.860068 0.747126 0.682334
O O7 0.000000 0.000000 0.000000
O O8 0.607730 0.935377 0.278158
O O9 0.563854 0.667323 0.251149
O O10 0.500000 0.000000 0.500000
O O11 0.293368 0.744869 0.802594
O O12 0.500000 0.000000 0.000000
O O13 0.000000 0.500000 0.500000
O O14 0.936661 0.566081 0.028591
O O15 0.164749 0.701817 0.131340
O O16 0.372872 0.464063 0.493053
O O17 0.745985 0.439196 0.695468
#
# Coordination Sequence:
#
# PCOD9068008 Si02
#       8
#     2   2   2   2   2   1   2   2
#     4  12  24  48  74 106 150 190 246 307 377 446
#     4  12  26  48  73 110 148 198 254 312 382 449
#     4  12  26  47  74 105 147 194 247 311 367 454
#     4  12  27  49  74 108 150 198 250 310 374 453
#     4  11  26  46  81 111 154 198 250 321 384 460
#     4  12  26  52  74 110 148 198 258 304 382 436
#     4  11  27  48  74 117 151 201 254 315 388 453
#     4  12  28  47  76 109 154 197 254 316 375 454
#
# _framework density 25.232154999999999
#
# number of rings (size 3 to 8) (size 9 to 14) (size 15 to 20)
#    0.000    0.267    4.000    3.600    7.467    3.200 
#    0.000    0.000    0.000    0.000    0.000    0.000 
#    0.000    0.000    0.000    0.000    0.000    0.000 
#
# Total GULP energy -83665.541311 kJ/mol
# GULP energy per Si atom -5577.702754 kJ/mol
# Density = 2.517473 g / cm^3
# Si number density = 25.232155 Si / 1000 Ang^3
#
#
#
# Elastic Constant Matrix: (Units=GPa)
#
#
# Indices 1 2 3 4 5 6 
#
# 1 107.8480 -2.7339 34.2456 -13.8854 13.2435 0.7215
# 2 -2.7339 46.9636 4.3672 -16.1297 -0.6167 -5.9634
# 3 34.2456 4.3672 127.4298 0.2131 0.4645 -3.4189
# 4 -13.8854 -16.1297 0.2131 42.0597 -4.5432 0.9167
# 5 13.2435 -0.6167 0.4645 -4.5432 35.5559 -4.0111
# 6 0.7215 -5.9634 -3.4189 0.9167 -4.0111 30.1053
#
#
#
# Elastic Compliance Matrix: (Units=1/GPa)
#
#
# Indices 1 2 3 4 5 6 
#
# 1 0.011330 0.002258 -0.003137 0.004241 -0.003688 -0.000801
# 2 0.002258 0.025869 -0.001388 0.010735 0.001538 0.004791
# 3 -0.003137 -0.001388 0.008763 -0.001532 0.000943 0.000968
# 4 0.004241 0.010735 -0.001532 0.029547 0.002548 0.001291
# 5 -0.003688 0.001538 0.000943 0.002548 0.030342 0.004465
# 6 -0.000801 0.004791 0.000968 0.001291 0.004465 0.034850
#
#
# Mechanical properties :
#
#
# Convention : Reuss Voigt Hill
#
# Bulk Modulus (GPa) = 24.13915 39.33324 31.73619
# Shear Modulus (GPa) = 31.43721 37.96832 34.70277
#
# Velocity S-wave (km/s) = 3.53359 3.88333 3.71258
# Velocity P-wave (km/s) = 5.12210 5.97741 5.56621
#
# Compressibility (1/GPa) = 0.04142648
#
# Stress axis : x y z
#
# Youngs Moduli (GPa) = 88.26020 38.65639 114.11264
#
# Poissons Ratio (x) = -0.08728 0.35802
# Poissons Ratio (y) = -0.19927 0.15843
# Poissons Ratio (z) = 0.27691 0.05367
#
# Static dielectric constant tensor:
#      x y z
#    x 1.914500 0.030590 -0.237600 
#    y 0.030590 2.037460 0.046100 
#    z -0.237600 0.046100 1.671520 
# 
# From -- ./inp_files/94672.got.cif
#   From: 2010.05.17/outbox.cif.g08.bks.cpg/sg2_48_cif.got.tgz:94672.got - 2010.06.03 11:33:40.
