data_PCOD9068187
_publ_section_title
;
Structure prediction by ZEFSAII (Michael W. Deem and Ramdas Pophale) SiO2 
 PCOD9068187
Probable space group: P -1
;
_chemical_formula_sum "Si O2"
_cell_formula_units_Z 13
_cell_length_a 6.265820
_cell_length_b 14.824864
_cell_length_c 9.738268
_cell_angle_alpha 73.466467
_cell_angle_beta 47.192136
_cell_angle_gamma 96.587930
_cell_volume 571.899265
_symmetry_space_group_name_H-M "P -1"
_symmetry_group_IT_number 2
_symmetry_cell_setting 'triclinic'
loop_
_space_group_symop_operation_xyz
x,y,z
-x,-y,-z
loop_
_atom_site_type_symbol
_atom_site_label
_atom_site_fract_x
_atom_site_fract_y
_atom_site_fract_z
Si Si1 0.000000 0.000000 0.000000
Si Si2 0.353628 0.234605 0.331814
Si Si3 0.313578 0.576855 0.412110
Si Si4 0.171472 0.892616 0.184328
Si Si5 0.565203 0.769308 0.015335
Si Si6 0.705369 0.442462 0.258934
Si Si7 0.717837 0.091646 0.267304
O O1 0.091739 0.085926 0.796399
O O2 0.279563 0.963695 0.851863
O O3 0.462850 0.336994 0.333957
O O4 0.597671 0.181099 0.270019
O O5 0.001935 0.151058 0.573938
O O6 0.375047 0.262490 0.149063
O O7 0.470460 0.683424 0.212210
O O8 0.556473 0.523504 0.318814
O O9 0.226765 0.586860 0.604208
O O10 0.000000 0.500000 0.500000
O O11 0.282852 0.806752 0.118018
O O12 0.500000 0.000000 0.000000
O O13 0.903750 0.862567 0.875922
O O14 0.000000 0.500000 0.000000
O O15 0.500000 0.000000 0.500000
#
# Coordination Sequence:
#
# PCOD9068187 Si02
#       7
#     1   2   2   2   2   2   2
#     4  12  24  44  68  92 144 182 232 276 336 392
#     4  12  27  43  70 103 137 180 231 280 342 406
#     4  11  26  48  73 102 137 177 226 284 344 408
#     4  12  26  43  68  99 139 185 230 278 334 401
#     4  12  27  43  70 103 137 180 231 280 342 406
#     4  11  26  48  73 102 137 177 226 284 344 408
#     4  12  26  43  68  99 139 185 230 278 334 401
#
# _framework density 22.731273000000002
#
# number of rings (size 3 to 8) (size 9 to 14) (size 15 to 20)
#    0.000    0.308    4.615    2.769    4.308    9.846 
#    0.000    0.000    0.000    0.000    0.000    0.000 
#    0.000    0.000    0.000    0.000    0.000    0.000 
#
# Total GULP energy -72430.412040 kJ/mol
# GULP energy per Si atom -5571.570157 kJ/mol
# Density = 2.267954 g / cm^3
# Si number density = 22.731273 Si / 1000 Ang^3
#
#
#
# Elastic Constant Matrix: (Units=GPa)
#
#
# Indices 1 2 3 4 5 6 
#
# 1 81.9168 17.8607 47.8355 -8.2234 20.9305 3.8112
# 2 17.8607 93.9714 51.7756 -6.8400 10.8545 -18.9999
# 3 47.8355 51.7756 191.5039 2.3946 25.1632 12.8866
# 4 -8.2234 -6.8400 2.3946 44.8026 -2.0197 0.8176
# 5 20.9305 10.8545 25.1632 -2.0197 47.8601 0.5406
# 6 3.8112 -18.9999 12.8866 0.8176 0.5406 24.1443
#
#
#
# Elastic Compliance Matrix: (Units=1/GPa)
#
#
# Indices 1 2 3 4 5 6 
#
# 1 0.015758 -0.000916 -0.002958 0.002715 -0.004996 -0.001610
# 2 -0.000916 0.017580 -0.005596 0.002474 -0.000731 0.016898
# 3 -0.002958 -0.005596 0.008285 -0.001769 -0.001775 -0.008259
# 4 0.002715 0.002474 -0.001769 0.023267 0.000145 0.001671
# 5 -0.004996 -0.000731 -0.001775 0.000145 0.024177 0.000615
# 6 -0.001610 0.016898 -0.008259 0.001671 0.000615 0.059308
#
#
# Mechanical properties :
#
#
# Convention : Reuss Voigt Hill
#
# Bulk Modulus (GPa) = 44.08639 66.92619 55.50629
# Shear Modulus (GPa) = 28.59173 40.02274 34.30723
#
# Velocity S-wave (km/s) = 3.55042 4.20061 3.88912
# Velocity P-wave (km/s) = 6.02030 7.28238 6.68121
#
# Compressibility (1/GPa) = 0.02268274
#
# Stress axis : x y z
#
# Youngs Moduli (GPa) = 63.45830 56.88236 120.70497
#
# Poissons Ratio (x) = 0.05213 0.35700
# Poissons Ratio (y) = 0.05815 0.67549
# Poissons Ratio (z) = 0.18769 0.31832
#
# Static dielectric constant tensor:
#      x y z
#    x 1.196530 0.018500 -0.144870 
#    y 0.018500 1.865080 0.031360 
#    z -0.144870 0.031360 1.851350 
# 
# From -- ./inp_files/86899.got.cif
#   From: 2010.05.17/outbox.cif.g08.bks.cpg/sg2_44_cif.got.tgz:86899.got - 2010.06.03 11:33:40.
