data_PCOD9068188
_publ_section_title
;
Structure prediction by ZEFSAII (Michael W. Deem and Ramdas Pophale) SiO2 
 PCOD9068188
Probable space group: P -1
;
_chemical_formula_sum "Si O2"
_cell_formula_units_Z 13
_cell_length_a 17.445045
_cell_length_b 9.721616
_cell_length_c 7.168239
_cell_angle_alpha 39.991069
_cell_angle_beta 47.266009
_cell_angle_gamma 56.326769
_cell_volume 572.324323
_symmetry_space_group_name_H-M "P -1"
_symmetry_group_IT_number 2
_symmetry_cell_setting 'triclinic'
loop_
_space_group_symop_operation_xyz
x,y,z
-x,-y,-z
loop_
_atom_site_type_symbol
_atom_site_label
_atom_site_fract_x
_atom_site_fract_y
_atom_site_fract_z
Si Si1 0.728484 0.082364 0.125518
Si Si2 0.595398 0.453332 0.754934
Si Si3 0.608021 0.087338 0.661686
Si Si4 0.257764 0.179709 0.987196
Si Si5 0.944449 0.527270 0.862964
Si Si6 0.500000 0.500000 0.500000
Si Si7 0.922223 0.210978 0.909438
O O1 0.642504 0.992922 0.498843
O O2 0.769089 0.918832 0.066687
O O3 0.679963 0.287735 0.880069
O O4 0.815593 0.151243 0.052994
O O5 0.651196 0.659597 0.370835
O O6 0.544286 0.365189 0.746426
O O7 0.500000 0.500000 0.000000
O O8 0.583454 0.341313 0.402902
O O9 0.500000 0.000000 0.000000
O O10 0.695130 0.997304 0.760106
O O11 0.158920 0.314338 0.099926
O O12 0.913096 0.316436 0.020887
O O13 0.026510 0.627599 0.485251
O O14 0.000000 0.500000 0.000000
O O15 0.000000 0.000000 0.000000
#
# Coordination Sequence:
#
# PCOD9068188 Si02
#       7
#     2   2   2   2   2   1   2
#     4  12  27  43  70 103 137 183 231 284 344 410
#     4  12  26  43  68  99 141 184 233 280 337 407
#     4  12  26  43  68  99 141 184 233 280 337 407
#     4  12  27  43  70 103 137 183 231 284 344 410
#     4  11  26  48  73 103 138 178 228 287 346 412
#     4  12  24  44  68  96 140 192 224 288 340 392
#     4  11  26  48  73 103 138 178 228 287 346 412
#
# _framework density 22.714393000000001
#
# number of rings (size 3 to 8) (size 9 to 14) (size 15 to 20)
#    0.000    0.308    4.615    2.769    4.308    9.846 
#    0.000    0.000    0.000    0.000    0.000    0.000 
#    0.000    0.000    0.000    0.000    0.000    0.000 
#
# Total GULP energy -72443.362018 kJ/mol
# GULP energy per Si atom -5572.566309 kJ/mol
# Density = 2.266269 g / cm^3
# Si number density = 22.714393 Si / 1000 Ang^3
#
#
#
# Elastic Constant Matrix: (Units=GPa)
#
#
# Indices 1 2 3 4 5 6 
#
# 1 129.6895 78.0645 40.6834 -1.1712 35.0296 -9.9110
# 2 78.0645 158.8109 15.1473 11.7171 15.1155 3.6106
# 3 40.6834 15.1473 85.4929 8.7129 14.4316 5.4652
# 4 -1.1712 11.7171 8.7129 39.0627 1.5852 11.2829
# 5 35.0296 15.1155 14.4316 1.5852 46.8829 3.4109
# 6 -9.9110 3.6106 5.4652 11.2829 3.4109 46.4274
#
#
#
# Elastic Compliance Matrix: (Units=1/GPa)
#
#
# Indices 1 2 3 4 5 6 
#
# 1 0.016487 -0.007048 -0.005717 0.002886 -0.008724 0.004680
# 2 -0.007048 0.009685 0.001756 -0.003046 0.001841 -0.001860
# 3 -0.005717 0.001756 0.014677 -0.003302 -0.000537 -0.002243
# 4 0.002886 -0.003046 -0.003302 0.029030 -0.000720 -0.005760
# 5 -0.008724 0.001841 -0.000537 -0.000720 0.027721 -0.003804
# 6 0.004680 -0.001860 -0.002243 -0.005760 -0.003804 0.024626
#
#
# Mechanical properties :
#
#
# Convention : Reuss Voigt Hill
#
# Bulk Modulus (GPa) = 53.10235 71.30929 62.20582
# Shear Modulus (GPa) = 33.21790 42.48114 37.84952
#
# Velocity S-wave (km/s) = 3.82830 4.32931 4.08649
# Velocity P-wave (km/s) = 6.55517 7.51349 7.05063
#
# Compressibility (1/GPa) = 0.01883156
#
# Stress axis : x y z
#
# Youngs Moduli (GPa) = 60.65474 103.24764 68.13340
#
# Poissons Ratio (x) = 0.72767 0.38955
# Poissons Ratio (y) = 0.42748 -0.11966
# Poissons Ratio (z) = 0.34679 -0.18134
#
# Static dielectric constant tensor:
#      x y z
#    x 1.962170 0.373410 -0.036720 
#    y 0.373410 2.911290 -0.049150 
#    z -0.036720 -0.049150 1.833940 
# 
# From -- ./inp_files/89574.got.cif
#   From: 2010.05.17/outbox.cif.g08.bks.cpg/sg2_45_cif.got.tgz:89574.got - 2010.06.03 11:33:40.
