data_PCOD9068529
_publ_section_title
;
Structure prediction by ZEFSAII (Michael W. Deem and Ramdas Pophale) SiO2 
 PCOD9068529
Probable space group: P -1
;
_chemical_formula_sum "Si O2"
_cell_formula_units_Z 14
_cell_length_a 13.870688
_cell_length_b 7.538896
_cell_length_c 7.163684
_cell_angle_alpha 78.939671
_cell_angle_beta 96.246598
_cell_angle_gamma 138.959553
_cell_volume 481.970413
_symmetry_space_group_name_H-M "P -1"
_symmetry_group_IT_number 2
_symmetry_cell_setting 'triclinic'
loop_
_space_group_symop_operation_xyz
x,y,z
-x,-y,-z
loop_
_atom_site_type_symbol
_atom_site_label
_atom_site_fract_x
_atom_site_fract_y
_atom_site_fract_z
Si Si1 0.650473 0.165187 0.386546
Si Si2 0.064881 0.666119 0.285153
Si Si3 0.622419 0.764415 0.816314
Si Si4 0.010485 0.774113 0.891166
Si Si5 0.320948 0.212517 0.662523
Si Si6 0.596816 0.338635 0.995679
Si Si7 0.767885 0.567350 0.640000
O O1 0.655022 0.289834 0.174890
O O2 0.768827 0.426725 0.497860
O O3 0.500000 0.000000 0.500000
O O4 0.657463 0.965200 0.364507
O O5 0.060887 0.499579 0.168820
O O6 0.000000 0.500000 0.500000
O O7 0.232789 0.952330 0.296159
O O8 0.997955 0.730934 0.121254
O O9 0.523512 0.488581 0.285548
O O10 0.566457 0.829857 0.945110
O O11 0.666064 0.634561 0.939244
O O12 0.913501 0.785399 0.755363
O O13 0.178195 0.009458 0.807867
O O14 0.274495 0.299227 0.483580
O O15 0.638434 0.325830 0.804560
#
# Coordination Sequence:
#
# PCOD9068529 Si02
#       7
#     2   2   2   2   2   2   2
#     4  12  31  52  86 136 187 241 310 383 469 544
#     4  11  29  55  91 131 183 243 302 387 465 550
#     4  11  26  57  93 130 184 242 307 389 468 543
#     4  11  29  55  86 133 185 243 312 375 465 556
#     4  12  29  59  93 136 186 242 313 384 459 561
#     4  11  27  51  86 133 181 238 307 386 452 553
#     4  12  30  53  85 136 186 247 302 377 465 553
#
# _framework density 29.047422000000001
#
# number of rings (size 3 to 8) (size 9 to 14) (size 15 to 20)
#    0.000    0.571    1.429    3.000   14.000    3.429 
#    5.143    1.429    0.000    0.000    0.000    0.000 
#    0.000    0.143    0.000    0.000    0.000    0.000 
#
# Total GULP energy -78415.892173 kJ/mol
# GULP energy per Si atom -5601.135155 kJ/mol
# Density = 2.898131 g / cm^3
# Si number density = 29.047422 Si / 1000 Ang^3
#
#
#
# Elastic Constant Matrix: (Units=GPa)
#
#
# Indices 1 2 3 4 5 6 
#
# 1 197.2551 103.4028 106.5768 -2.3493 5.8051 9.2921
# 2 103.4028 205.4895 111.9145 -2.3711 2.9140 4.2705
# 3 106.5768 111.9145 296.3883 -12.1745 19.5522 0.4925
# 4 -2.3493 -2.3711 -12.1745 63.6583 1.7617 -2.3784
# 5 5.8051 2.9140 19.5522 1.7617 48.7320 -3.7466
# 6 9.2921 4.2705 0.4925 -2.3784 -3.7466 64.6501
#
#
#
# Elastic Compliance Matrix: (Units=1/GPa)
#
#
# Indices 1 2 3 4 5 6 
#
# 1 0.007487 -0.002876 -0.001602 -0.000167 -0.000139 -0.000888
# 2 -0.002876 0.007259 -0.001755 -0.000189 0.000618 -0.000024
# 3 -0.001602 -0.001755 0.004754 0.000839 -0.001623 0.000247
# 4 -0.000167 -0.000189 0.000839 0.015900 -0.000837 0.000567
# 5 -0.000139 0.000618 -0.001623 -0.000837 0.021273 0.001194
# 6 -0.000888 -0.000024 0.000247 0.000567 0.001194 0.015685
#
#
# Mechanical properties :
#
#
# Convention : Reuss Voigt Hill
#
# Bulk Modulus (GPa) = 142.19688 149.21345 145.70516
# Shear Modulus (GPa) = 57.35829 60.55733 58.95781
#
# Velocity S-wave (km/s) = 4.44852 4.57089 4.51012
# Velocity P-wave (km/s) = 8.68593 8.90718 8.79725
#
# Compressibility (1/GPa) = 0.00703250
#
# Stress axis : x y z
#
# Youngs Moduli (GPa) = 133.56375 137.75376 210.34824
#
# Poissons Ratio (x) = 0.39623 0.33705
# Poissons Ratio (y) = 0.38417 0.36922
# Poissons Ratio (z) = 0.21401 0.24180
#
# Static dielectric constant tensor:
#      x y z
#    x 2.405400 0.009930 0.061050 
#    y 0.009930 2.262670 0.041600 
#    z 0.061050 0.041600 2.445140 
# 
# From -- ./inp_files/104671.got.cif
#   From: 2010.05.17/outbox.cif.g08.bks.cpg/sg2_53_cif.got.tgz:104671.got - 2010.06.03 11:33:40.
