data_PCOD9068488
_publ_section_title
;
Structure prediction by ZEFSAII (Michael W. Deem and Ramdas Pophale) SiO2 
 PCOD9068488
Probable space group: P -1
;
_chemical_formula_sum "Si O2"
_cell_formula_units_Z 12
_cell_length_a 7.984805
_cell_length_b 5.414205
_cell_length_c 10.912332
_cell_angle_alpha 80.723166
_cell_angle_beta 80.974570
_cell_angle_gamma 71.027325
_cell_volume 437.524868
_symmetry_space_group_name_H-M "P -1"
_symmetry_group_IT_number 2
_symmetry_cell_setting 'triclinic'
loop_
_space_group_symop_operation_xyz
x,y,z
-x,-y,-z
loop_
_atom_site_type_symbol
_atom_site_label
_atom_site_fract_x
_atom_site_fract_y
_atom_site_fract_z
Si Si1 0.699536 0.773160 0.486966
Si Si2 0.034240 0.571378 0.314300
Si Si3 0.602704 0.603309 0.276367
Si Si4 0.703668 0.177659 0.847297
Si Si5 0.999885 0.704850 0.880826
Si Si6 0.674161 0.125391 0.122797
O O1 0.813451 0.626790 0.602596
O O2 0.652199 0.570785 0.414662
O O3 0.877942 0.795411 0.387156
O O4 0.500000 0.000000 0.500000
O O5 0.143595 0.687318 0.196868
O O6 0.933363 0.416941 0.250075
O O7 0.393076 0.763521 0.275528
O O8 0.600323 0.349309 0.216520
O O9 0.661794 0.839138 0.181273
O O10 0.798910 0.870157 0.868237
O O11 0.605905 0.224348 0.986231
O O12 0.122886 0.873286 0.898929
O O13 0.000000 0.500000 0.000000
#
# Coordination Sequence:
#
# PCOD9068488 Si02
#       6
#     2   2   2   2   2   2
#     4  11  26  53  81 113 160 216 273 335 400 477
#     4  11  26  51  79 120 156 211 274 333 401 487
#     4  12  28  50  78 118 163 211 267 333 404 483
#     4  12  27  45  79 117 160 207 265 331 411 487
#     4  12  24  46  77 114 161 204 265 327 409 484
#     4  12  26  48  78 118 162 208 260 330 411 485
#
# _framework density 27.427014
#
# number of rings (size 3 to 8) (size 9 to 14) (size 15 to 20)
#    0.000    0.333    3.333    4.500    4.667    0.667 
#    3.000    5.000    0.000    0.000    0.000    0.000 
#    0.000    0.000    0.000    0.000    0.000    0.000 
#
# Total GULP energy -66854.432649 kJ/mol
# GULP energy per Si atom -5571.202721 kJ/mol
# Density = 2.736459 g / cm^3
# Si number density = 27.427014 Si / 1000 Ang^3
#
#
#
# Elastic Constant Matrix: (Units=GPa)
#
#
# Indices 1 2 3 4 5 6 
#
# 1 55.9237 12.3432 25.0604 1.0771 -8.2631 20.3240
# 2 12.3432 109.2326 39.7498 10.0668 -13.2714 -19.6962
# 3 25.0604 39.7498 120.1252 2.7887 17.7522 10.9220
# 4 1.0771 10.0668 2.7887 41.2607 -2.7589 -9.5329
# 5 -8.2631 -13.2714 17.7522 -2.7589 56.2902 -1.7488
# 6 20.3240 -19.6962 10.9220 -9.5329 -1.7488 52.8124
#
#
#
# Elastic Compliance Matrix: (Units=1/GPa)
#
#
# Indices 1 2 3 4 5 6 
#
# 1 0.024268 -0.002427 -0.003912 -0.001744 0.003840 -0.009623
# 2 -0.002427 0.013173 -0.005129 -0.000908 0.004537 0.006894
# 3 -0.003912 -0.005129 0.011981 -0.000570 -0.005688 -0.003177
# 4 -0.001744 -0.000908 -0.000570 0.025807 0.001135 0.005146
# 5 0.003840 0.004537 -0.005688 0.001135 0.021319 0.002302
# 6 -0.009623 0.006894 -0.003177 0.005146 0.002302 0.026871
#
#
# Mechanical properties :
#
#
# Convention : Reuss Voigt Hill
#
# Bulk Modulus (GPa) = 37.75428 48.84313 43.29870
# Shear Modulus (GPa) = 32.21989 43.94786 38.08388
#
# Velocity S-wave (km/s) = 3.43118 4.00729 3.73037
# Velocity P-wave (km/s) = 5.43071 6.26564 5.86305
#
# Compressibility (1/GPa) = 0.02648706
#
# Stress axis : x y z
#
# Youngs Moduli (GPa) = 41.20631 75.91038 83.46787
#
# Poissons Ratio (x) = 0.18421 0.32651
# Poissons Ratio (y) = 0.10000 0.42811
# Poissons Ratio (z) = 0.16119 0.38935
#
# Static dielectric constant tensor:
#      x y z
#    x 2.498730 -0.225760 -0.229620 
#    y -0.225760 2.343440 0.171390 
#    z -0.229620 0.171390 2.255300 
# 
# From -- ./inp_files/372474.got.cif
#   From: 2010.05.17/outbox.cif.g08.bks.cpg/sg2_187_cif.got.tgz:372474.got - 2010.06.03 11:33:40.
