data_PCOD9068183
_publ_section_title
;
Structure prediction by ZEFSAII (Michael W. Deem and Ramdas Pophale) SiO2 
 PCOD9068183
Probable space group: P -1
;
_chemical_formula_sum "Si O2"
_cell_formula_units_Z 11
_cell_length_a 8.756161
_cell_length_b 12.021854
_cell_length_c 9.498782
_cell_angle_alpha 137.504434
_cell_angle_beta 136.316483
_cell_angle_gamma 50.558071
_cell_volume 455.219556
_symmetry_space_group_name_H-M "P -1"
_symmetry_group_IT_number 2
_symmetry_cell_setting 'triclinic'
loop_
_space_group_symop_operation_xyz
x,y,z
-x,-y,-z
loop_
_atom_site_type_symbol
_atom_site_label
_atom_site_fract_x
_atom_site_fract_y
_atom_site_fract_z
Si Si1 0.813500 0.603528 0.783970
Si Si2 0.463259 0.259473 0.629443
Si Si3 0.000000 0.500000 0.500000
Si Si4 0.270828 0.934719 0.114128
Si Si5 0.372322 0.850257 0.790595
Si Si6 0.146788 0.717525 0.295976
O O1 0.551486 0.682500 0.709408
O O2 0.876881 0.431128 0.751946
O O3 0.884716 0.571664 0.641130
O O4 0.943382 0.734975 0.066521
O O5 0.235968 0.396450 0.640363
O O6 0.614564 0.191298 0.804225
O O7 0.631759 0.321734 0.692187
O O8 0.385766 0.095935 0.357263
O O9 0.309114 0.843009 0.903955
O O10 0.000000 0.000000 0.000000
O O11 0.171545 0.863848 0.557640
O O12 0.500000 0.000000 0.000000
#
# Coordination Sequence:
#
# PCOD9068183 Si02
#       6
#     2   2   1   2   2   2
#     4  11  28  46  74 112 151 198 249 311 379 448
#     4  11  27  48  75 113 148 199 254 311 376 450
#     4  12  26  50  76 108 152 196 252 310 376 446
#     4  11  28  49  76 111 150 198 253 315 376 445
#     4  12  25  49  74 107 150 197 252 313 376 450
#     4  11  26  48  72 109 150 196 249 308 378 444
#
# _framework density 24.164164
#
# number of rings (size 3 to 8) (size 9 to 14) (size 15 to 20)
#    0.000    0.727    3.636    0.545   12.727    2.909 
#    0.000    0.000    0.000    0.000    0.000    0.000 
#    0.000    0.000    0.000    0.000    0.000    0.000 
#
# Total GULP energy -61337.698839 kJ/mol
# GULP energy per Si atom -5576.154440 kJ/mol
# Density = 2.410917 g / cm^3
# Si number density = 24.164164 Si / 1000 Ang^3
#
#
#
# Elastic Constant Matrix: (Units=GPa)
#
#
# Indices 1 2 3 4 5 6 
#
# 1 118.4053 55.4648 81.9185 -27.2942 -51.4246 -7.8805
# 2 55.4648 120.1257 41.2304 -33.2624 -20.3333 -21.3817
# 3 81.9185 41.2304 152.6633 -27.0245 -19.1804 -7.5825
# 4 -27.2942 -33.2624 -27.0245 40.6383 5.9015 9.2568
# 5 -51.4246 -20.3333 -19.1804 5.9015 55.2265 -0.4907
# 6 -7.8805 -21.3817 -7.5825 9.2568 -0.4907 29.2382
#
#
#
# Elastic Compliance Matrix: (Units=1/GPa)
#
#
# Indices 1 2 3 4 5 6 
#
# 1 0.027097 -0.004287 -0.009993 0.005129 0.019637 0.000282
# 2 -0.004287 0.013265 0.000254 0.006613 0.000332 0.006523
# 3 -0.009993 0.000254 0.011502 0.001990 -0.005432 -0.000246
# 4 0.005129 0.006613 0.001990 0.035180 0.004104 -0.004334
# 5 0.019637 0.000332 -0.005432 0.004104 0.034220 0.003401
# 6 0.000282 0.006523 -0.000246 -0.004334 0.003401 0.040414
#
#
# Mechanical properties :
#
#
# Convention : Reuss Voigt Hill
#
# Bulk Modulus (GPa) = 41.99621 83.15798 62.57710
# Shear Modulus (GPa) = 25.29504 39.19263 32.24384
#
# Velocity S-wave (km/s) = 3.23894 4.03169 3.65686
# Velocity P-wave (km/s) = 5.60401 7.49408 6.61688
#
# Compressibility (1/GPa) = 0.02381167
#
# Stress axis : x y z
#
# Youngs Moduli (GPa) = 36.90382 75.38536 86.94422
#
# Poissons Ratio (x) = 0.32318 0.86887
# Poissons Ratio (y) = 0.15821 -0.02210
# Poissons Ratio (z) = 0.36879 -0.01916
#
# Static dielectric constant tensor:
#      x y z
#    x 1.886510 0.039770 0.050470 
#    y 0.039770 1.952060 -0.017520 
#    z 0.050470 -0.017520 2.032050 
# 
# From -- ./inp_files/183646.got.cif
#   From: 2010.05.17/outbox.cif.g08.bks.cpg/sg2_92_cif.got.tgz:183646.got - 2010.06.03 11:33:40.
