data_PCOD9068693
_publ_section_title
;
Structure prediction by ZEFSAII (Michael W. Deem and Ramdas Pophale) SiO2 
 PCOD9068693
Probable space group: P -1
;
_chemical_formula_sum "Si O2"
_cell_formula_units_Z 10
_cell_length_a 7.299102
_cell_length_b 11.915571
_cell_length_c 5.071469
_cell_angle_alpha 111.269391
_cell_angle_beta 115.341894
_cell_angle_gamma 72.610597
_cell_volume 366.042909
_symmetry_space_group_name_H-M "P -1"
_symmetry_group_IT_number 2
_symmetry_cell_setting 'triclinic'
loop_
_space_group_symop_operation_xyz
x,y,z
-x,-y,-z
loop_
_atom_site_type_symbol
_atom_site_label
_atom_site_fract_x
_atom_site_fract_y
_atom_site_fract_z
Si Si1 0.909415 0.700354 0.566272
Si Si2 0.439503 0.428026 0.651928
Si Si3 0.263565 0.778427 0.582829
Si Si4 0.566366 0.895839 0.226995
Si Si5 0.062647 0.083189 0.866600
O O1 0.795204 0.591358 0.485329
O O2 0.739816 0.792503 0.374954
O O3 0.957371 0.779875 0.910572
O O4 0.108006 0.890615 0.449061
O O5 0.118530 0.685782 0.518589
O O6 0.574824 0.293121 0.581416
O O7 0.500000 0.500000 0.000000
O O8 0.500000 0.500000 0.500000
O O9 0.391371 0.827501 0.938631
O O10 0.500000 0.000000 0.500000
O O11 0.299309 0.061078 0.894525
O O12 0.000000 0.000000 0.000000
#
# Coordination Sequence:
#
# PCOD9068693 Si02
#       5
#     2   2   2   2   2
#     4  11  28  50  81 120 166 211 285 338 415 512
#     4  12  29  55  87 121 160 220 289 356 428 489
#     4  11  28  54  85 115 175 216 273 354 413 497
#     4  11  27  53  80 121 172 227 275 334 418 512
#     4  11  28  51  80 126 170 221 276 331 424 515
#
# _framework density 27.319199000000001
#
# number of rings (size 3 to 8) (size 9 to 14) (size 15 to 20)
#    0.000    0.800    2.000    1.200   11.200   10.400 
#    0.000    0.000    0.000    0.000    0.000    0.000 
#    0.000    0.000    0.000    0.000    0.000    0.000 
#
# Total GULP energy -56111.763761 kJ/mol
# GULP energy per Si atom -5611.176376 kJ/mol
# Density = 2.725702 g / cm^3
# Si number density = 27.319199 Si / 1000 Ang^3
#
#
#
# Elastic Constant Matrix: (Units=GPa)
#
#
# Indices 1 2 3 4 5 6 
#
# 1 243.2065 67.0990 94.7588 4.5952 -0.2659 32.2092
# 2 67.0990 124.3773 50.4342 -2.0436 9.6845 38.2371
# 3 94.7588 50.4342 174.4629 -8.7331 15.8493 28.4082
# 4 4.5952 -2.0436 -8.7331 43.9641 8.1352 3.5544
# 5 -0.2659 9.6845 15.8493 8.1352 63.6982 5.0113
# 6 32.2092 38.2371 28.4082 3.5544 5.0113 80.3847
#
#
#
# Elastic Compliance Matrix: (Units=1/GPa)
#
#
# Indices 1 2 3 4 5 6 
#
# 1 0.005799 -0.002031 -0.002675 -0.001422 0.001214 -0.000425
# 2 -0.002031 0.010966 -0.001270 0.001005 -0.001179 -0.003924
# 3 -0.002675 -0.001270 0.008035 0.002282 -0.002019 -0.001139
# 4 -0.001422 0.001005 0.002282 0.024204 -0.003696 -0.001555
# 5 0.001214 -0.001179 -0.002019 -0.003696 0.016866 -0.000100
# 6 -0.000425 -0.003924 -0.001139 -0.001555 -0.000100 0.014954
#
#
# Mechanical properties :
#
#
# Convention : Reuss Voigt Hill
#
# Bulk Modulus (GPa) = 77.83801 107.40338 92.62069
# Shear Modulus (GPa) = 51.51578 59.59305 55.55441
#
# Velocity S-wave (km/s) = 4.34717 4.67557 4.51436
# Velocity P-wave (km/s) = 7.33152 8.27935 7.81980
#
# Compressibility (1/GPa) = 0.01284719
#
# Stress axis : x y z
#
# Youngs Moduli (GPa) = 172.45528 91.19418 124.45662
#
# Poissons Ratio (x) = 0.18521 0.33287
# Poissons Ratio (y) = 0.35024 0.15812
# Poissons Ratio (z) = 0.46125 0.11586
#
# Static dielectric constant tensor:
#      x y z
#    x 2.114500 -0.049320 -0.057340 
#    y -0.049320 2.227420 -0.007770 
#    z -0.057340 -0.007770 2.305850 
# 
# From -- ./inp_files/25840.got.cif
#   From: 2010.05.17/outbox.cif.g08.bks.cpg/sg2_13_cif.got.tgz:25840.got - 2010.06.03 11:33:40.
