data_PCOD9068657
_publ_section_title
;
Structure prediction by ZEFSAII (Michael W. Deem and Ramdas Pophale) SiO2 
 PCOD9068657
Probable space group: P -1
;
_chemical_formula_sum "Si O2"
_cell_formula_units_Z 14
_cell_length_a 5.303447
_cell_length_b 12.138887
_cell_length_c 12.919913
_cell_angle_alpha 50.693761
_cell_angle_beta 73.224764
_cell_angle_gamma 90.815661
_cell_volume 594.001533
_symmetry_space_group_name_H-M "P -1"
_symmetry_group_IT_number 2
_symmetry_cell_setting 'triclinic'
loop_
_space_group_symop_operation_xyz
x,y,z
-x,-y,-z
loop_
_atom_site_type_symbol
_atom_site_label
_atom_site_fract_x
_atom_site_fract_y
_atom_site_fract_z
Si Si1 0.997947 0.577897 0.793033
Si Si2 0.314507 0.651478 0.170915
Si Si3 0.807565 0.678475 0.956732
Si Si4 0.175434 0.919257 0.093864
Si Si5 0.661887 0.169561 0.528917
Si Si6 0.970376 0.983054 0.301783
Si Si7 0.308821 0.598384 0.428003
O O1 0.844464 0.512206 0.745540
O O2 0.797552 0.615854 0.879261
O O3 0.219872 0.725396 0.645005
O O4 0.105978 0.444778 0.909250
O O5 0.125352 0.760268 0.141113
O O6 0.433753 0.661369 0.265334
O O7 0.532963 0.700348 0.025785
O O8 0.998306 0.844262 0.827510
O O9 0.070377 0.917636 0.224177
O O10 0.500000 0.000000 0.000000
O O11 0.000000 0.000000 0.000000
O O12 0.681591 0.277947 0.561176
O O13 0.654331 0.908630 0.404449
O O14 0.839544 0.055996 0.606833
O O15 0.500000 0.500000 0.500000
O O16 0.000000 0.500000 0.500000
#
# Coordination Sequence:
#
# PCOD9068657 Si02
#       7
#     2   2   2   2   2   2   2
#     4  11  27  50  77 107 148 206 261 313 370 447
#     4  12  25  44  76 110 147 196 256 312 374 450
#     4  11  27  50  77 107 148 206 261 313 370 447
#     4  12  25  43  71 108 150 194 241 303 380 449
#     4  12  27  48  75 114 152 196 249 312 382 449
#     4  12  27  48  75 114 152 196 249 312 382 449
#     4  12  25  43  71 108 150 194 241 303 380 449
#
# _framework density 23.568961999999999
#
# number of rings (size 3 to 8) (size 9 to 14) (size 15 to 20)
#    0.000    0.286    4.286    3.857    4.000    1.143 
#    0.000    0.000    0.000    0.000    0.000    0.000 
#    0.000    0.000    0.000    0.000    0.000    0.000 
#
# Total GULP energy -78378.456958 kJ/mol
# GULP energy per Si atom -5598.461211 kJ/mol
# Density = 2.351532 g / cm^3
# Si number density = 23.568962 Si / 1000 Ang^3
#
#
#
# Elastic Constant Matrix: (Units=GPa)
#
#
# Indices 1 2 3 4 5 6 
#
# 1 124.5603 8.8715 49.9540 -13.8687 -13.7406 -16.9843
# 2 8.8715 78.8717 47.7140 13.3434 -0.1180 -19.9111
# 3 49.9540 47.7140 146.1984 -9.4687 -11.0966 -19.8042
# 4 -13.8687 13.3434 -9.4687 40.7174 2.4442 1.2594
# 5 -13.7406 -0.1180 -11.0966 2.4442 44.8147 -18.6665
# 6 -16.9843 -19.9111 -19.8042 1.2594 -18.6665 24.2646
#
#
#
# Elastic Compliance Matrix: (Units=1/GPa)
#
#
# Indices 1 2 3 4 5 6 
#
# 1 0.012667 0.004811 -0.002291 0.000903 0.011506 0.019749
# 2 0.004811 0.024353 -0.005166 -0.009252 0.013148 0.029730
# 3 -0.002291 -0.005166 0.010622 0.002946 0.004218 0.005918
# 4 0.000903 -0.009252 0.002946 0.029159 -0.004614 -0.009618
# 5 0.011506 0.013148 0.004218 -0.004614 0.053792 0.063907
# 6 0.019749 0.029730 0.005918 -0.009618 0.063907 0.133925
#
#
# Mechanical properties :
#
#
# Convention : Reuss Voigt Hill
#
# Bulk Modulus (GPa) = 23.61265 62.52326 43.06796
# Shear Modulus (GPa) = 17.61023 38.16540 27.88781
#
# Velocity S-wave (km/s) = 2.73642 4.02843 3.44356
# Velocity P-wave (km/s) = 4.47485 6.94428 5.84155
#
# Compressibility (1/GPa) = 0.04235018
#
# Stress axis : x y z
#
# Youngs Moduli (GPa) = 78.94369 41.06243 94.14743
#
# Poissons Ratio (x) = -0.19757 0.21574
# Poissons Ratio (y) = -0.37983 0.48636
# Poissons Ratio (z) = 0.18090 0.21213
#
# Static dielectric constant tensor:
#      x y z
#    x 1.820120 0.124660 -0.075080 
#    y 0.124660 1.757170 0.054390 
#    z -0.075080 0.054390 1.847960 
# 
# From -- ./inp_files/118205.got.cif
#   From: 2010.05.17/outbox.cif.g08.bks.cpg/sg2_60_cif.got.tgz:118205.got - 2010.06.03 11:33:40.
