data_PCOD9068066
_publ_section_title
;
Structure prediction by ZEFSAII (Michael W. Deem and Ramdas Pophale) SiO2 
 PCOD9068066
Probable space group: P -1
;
_chemical_formula_sum "Si O2"
_cell_formula_units_Z 16
_cell_length_a 15.444039
_cell_length_b 7.877165
_cell_length_c 11.595539
_cell_angle_alpha 73.606087
_cell_angle_beta 138.802913
_cell_angle_gamma 77.187450
_cell_volume 647.663077
_symmetry_space_group_name_H-M "P -1"
_symmetry_group_IT_number 2
_symmetry_cell_setting 'triclinic'
loop_
_space_group_symop_operation_xyz
x,y,z
-x,-y,-z
loop_
_atom_site_type_symbol
_atom_site_label
_atom_site_fract_x
_atom_site_fract_y
_atom_site_fract_z
Si Si1 0.675484 0.584655 0.887426
Si Si2 0.437335 0.258827 0.892060
Si Si3 0.261398 0.469917 0.444990
Si Si4 0.190607 0.993985 0.581797
Si Si5 0.714386 0.301964 0.770236
Si Si6 0.124951 0.674739 0.642668
Si Si7 0.277127 0.092784 0.414247
Si Si8 0.862536 0.781951 0.004185
O O1 0.747569 0.412898 0.882381
O O2 0.759575 0.703247 0.958114
O O3 0.460637 0.815140 0.624907
O O4 0.745080 0.413915 0.099829
O O5 0.402324 0.366993 0.708626
O O6 0.246995 0.436277 0.733690
O O7 0.599773 0.204427 0.132406
O O8 0.500000 0.000000 0.000000
O O9 0.215625 0.684257 0.283040
O O10 0.325474 0.249948 0.468673
O O11 0.071329 0.582252 0.284418
O O12 0.112529 0.868459 0.522756
O O13 0.183924 0.093715 0.432509
O O14 0.066892 0.197824 0.518233
O O15 0.500000 0.500000 0.500000
O O16 0.781451 0.043582 0.913150
O O17 0.158055 0.202958 0.158917
#
# Coordination Sequence:
#
# PCOD9068066 Si02
#       8
#     2   2   2   2   2   2   2   2
#     4  12  25  48  76 108 152 195 254 309 382 449
#     4  12  26  49  73 108 147 195 252 303 377 447
#     4  12  27  47  71 110 151 196 251 312 377 450
#     4  11  26  47  74 107 144 202 251 308 374 443
#     4  12  27  45  72 113 146 198 249 306 379 450
#     4  11  27  48  74 109 146 200 250 313 375 444
#     4  12  23  48  74 103 150 202 244 306 383 444
#     4  12  27  47  74 111 152 199 249 315 373 450
#
# _framework density 24.704204000000001
#
# number of rings (size 3 to 8) (size 9 to 14) (size 15 to 20)
#    0.000    0.250    5.000    3.000    5.250    2.500 
#    2.250    0.000    0.000    0.000    0.000    0.000 
#    0.000    0.000    0.000    0.000    0.000    0.000 
#
# Total GULP energy -89657.114734 kJ/mol
# GULP energy per Si atom -5603.569671 kJ/mol
# Density = 2.464798 g / cm^3
# Si number density = 24.704204 Si / 1000 Ang^3
#
#
#
# Elastic Constant Matrix: (Units=GPa)
#
#
# Indices 1 2 3 4 5 6 
#
# 1 98.6496 14.7926 -2.6435 -8.8563 3.9219 5.6846
# 2 14.7926 80.3812 15.3762 -35.8959 7.3507 -6.1548
# 3 -2.6435 15.3762 83.7323 -4.4927 8.9915 -11.5739
# 4 -8.8563 -35.8959 -4.4927 44.9311 -6.7499 -4.4228
# 5 3.9219 7.3507 8.9915 -6.7499 42.2541 -2.6386
# 6 5.6846 -6.1548 -11.5739 -4.4228 -2.6386 32.7214
#
#
#
# Elastic Compliance Matrix: (Units=1/GPa)
#
#
# Indices 1 2 3 4 5 6 
#
# 1 0.010630 -0.002067 0.000525 0.000163 -0.000844 -0.002096
# 2 -0.002067 0.021259 -0.002256 0.016933 0.000044 0.005852
# 3 0.000525 -0.002256 0.013138 -0.000341 -0.002263 0.003903
# 4 0.000163 0.016933 -0.000341 0.037140 0.003566 0.008344
# 5 -0.000844 0.000044 -0.002263 0.003566 0.024903 0.001845
# 6 -0.002096 0.005852 0.003903 0.008344 0.001845 0.034683
#
#
# Mechanical properties :
#
#
# Convention : Reuss Voigt Hill
#
# Bulk Modulus (GPa) = 26.71702 35.31265 31.01483
# Shear Modulus (GPa) = 30.89742 39.66385 35.28064
#
# Velocity S-wave (km/s) = 3.54035 4.01128 3.78315
# Velocity P-wave (km/s) = 5.24885 5.98156 5.62714
#
# Compressibility (1/GPa) = 0.03742933
#
# Stress axis : x y z
#
# Youngs Moduli (GPa) = 94.07450 47.03943 76.11584
#
# Poissons Ratio (x) = 0.09723 -0.03995
# Poissons Ratio (y) = 0.19445 0.17175
# Poissons Ratio (z) = -0.04937 0.10614
#
# Static dielectric constant tensor:
#      x y z
#    x 2.404230 0.081180 0.269890 
#    y 0.081180 2.001330 0.039650 
#    z 0.269890 0.039650 2.061980 
# 
# From -- ./inp_files/447216.got.cif
#   From: 2010.05.17/outbox.cif.g08.bks.cpg/sg2_224_cif.got.tgz:447216.got - 2010.06.03 11:33:40.
