data_PCOD9068491
_publ_section_title
;
Structure prediction by ZEFSAII (Michael W. Deem and Ramdas Pophale) SiO2 
 PCOD9068491
Probable space group: P -1
;
_chemical_formula_sum "Si O2"
_cell_formula_units_Z 11
_cell_length_a 15.735174
_cell_length_b 9.148537
_cell_length_c 9.699571
_cell_angle_alpha 131.404189
_cell_angle_beta 157.756726
_cell_angle_gamma 47.022684
_cell_volume 384.366143
_symmetry_space_group_name_H-M "P -1"
_symmetry_group_IT_number 2
_symmetry_cell_setting 'triclinic'
loop_
_space_group_symop_operation_xyz
x,y,z
-x,-y,-z
loop_
_atom_site_type_symbol
_atom_site_label
_atom_site_fract_x
_atom_site_fract_y
_atom_site_fract_z
Si Si1 0.307447 0.909703 0.857118
Si Si2 0.306202 0.438942 0.803108
Si Si3 0.000000 0.000000 0.000000
Si Si4 0.141364 0.636087 0.213107
Si Si5 0.671325 0.147516 0.855174
Si Si6 0.204119 0.366069 0.917628
O O1 0.238923 0.760613 0.552383
O O2 0.291462 0.128409 0.914461
O O3 0.576336 0.787811 0.208670
O O4 0.187480 0.929214 0.839032
O O5 0.252897 0.412277 0.864901
O O6 0.074409 0.541713 0.436099
O O7 0.439216 0.618487 0.123222
O O8 0.046597 0.809208 0.062978
O O9 0.173539 0.864762 0.055916
O O10 0.304300 0.465112 0.257205
O O11 0.000000 0.500000 0.000000
O O12 0.500000 0.000000 0.500000
#
# Coordination Sequence:
#
# PCOD9068491 Si02
#       6
#     2   2   1   2   2   2
#     4  12  29  51  83 129 169 225 302 362 438 541
#     4  11  26  51  83 123 172 226 291 367 438 527
#     4  12  28  54  88 124 178 236 290 366 454 520
#     4  12  28  51  87 123 175 236 291 363 451 531
#     4  12  29  51  87 128 175 230 295 367 447 533
#     4  11  26  52  81 123 171 230 291 357 453 526
#
# _framework density 28.618545999999998
#
# number of rings (size 3 to 8) (size 9 to 14) (size 15 to 20)
#    0.000    0.364    1.818    4.364   10.182    4.364 
#    0.000    0.000    0.000    0.000    0.000    0.000 
#    0.000    0.000    0.000    0.000    0.000    0.000 
#
# Total GULP energy -61360.368406 kJ/mol
# GULP energy per Si atom -5578.215310 kJ/mol
# Density = 2.855341 g / cm^3
# Si number density = 28.618546 Si / 1000 Ang^3
#
#
#
# Elastic Constant Matrix: (Units=GPa)
#
#
# Indices 1 2 3 4 5 6 
#
# 1 190.5675 28.5336 52.8149 -6.6555 -38.2082 29.2340
# 2 28.5336 239.6004 54.3850 18.0754 -8.1782 16.4748
# 3 52.8149 54.3850 105.3447 5.5023 -40.6911 -3.9142
# 4 -6.6555 18.0754 5.5023 30.1631 -13.9035 -11.6376
# 5 -38.2082 -8.1782 -40.6911 -13.9035 42.9353 -4.5891
# 6 29.2340 16.4748 -3.9142 -11.6376 -4.5891 73.1405
#
#
#
# Elastic Compliance Matrix: (Units=1/GPa)
#
#
# Indices 1 2 3 4 5 6 
#
# 1 0.007435 -0.000649 -0.001064 0.004714 0.006828 -0.001704
# 2 -0.000649 0.005913 -0.005139 -0.007059 -0.006918 -0.002905
# 3 -0.001064 -0.005139 0.020894 0.011588 0.022264 0.005942
# 4 0.004714 -0.007059 0.011588 0.055959 0.033162 0.011311
# 5 0.006828 -0.006918 0.022264 0.033162 0.060862 0.009116
# 6 -0.001704 -0.002905 0.005942 0.011311 0.009116 0.017697
#
#
# Mechanical properties :
#
#
# Convention : Reuss Voigt Hill
#
# Bulk Modulus (GPa) = 48.69008 89.66442 69.17725
# Shear Modulus (GPa) = 26.41153 55.89973 41.15563
#
# Velocity S-wave (km/s) = 3.04119 4.42438 3.79631
# Velocity P-wave (km/s) = 5.42054 7.58281 6.59095
#
# Compressibility (1/GPa) = 0.02053806
#
# Stress axis : x y z
#
# Youngs Moduli (GPa) = 134.50507 169.10628 47.85969
#
# Poissons Ratio (x) = 0.10978 0.05094
# Poissons Ratio (y) = 0.08731 0.24594
# Poissons Ratio (z) = 0.14316 0.86899
#
# Static dielectric constant tensor:
#      x y z
#    x 2.234600 -0.034700 0.088900 
#    y -0.034700 2.210730 -0.080140 
#    z 0.088900 -0.080140 2.511780 
# 
# From -- ./inp_files/297057.got.cif
#   From: 2010.05.17/outbox.cif.g08.bks.cpg/sg2_149_cif.got.tgz:297057.got - 2010.06.03 11:33:40.
