data_PCOD9068701
_publ_section_title
;
Structure prediction by ZEFSAII (Michael W. Deem and Ramdas Pophale) SiO2 
 PCOD9068701
Probable space group: P -1
;
_chemical_formula_sum "Si O2"
_cell_formula_units_Z 10
_cell_length_a 11.625588
_cell_length_b 4.785165
_cell_length_c 16.103409
_cell_angle_alpha 123.581909
_cell_angle_beta 28.436099
_cell_angle_gamma 113.453620
_cell_volume 346.448083
_symmetry_space_group_name_H-M "P -1"
_symmetry_group_IT_number 2
_symmetry_cell_setting 'triclinic'
loop_
_space_group_symop_operation_xyz
x,y,z
-x,-y,-z
loop_
_atom_site_type_symbol
_atom_site_label
_atom_site_fract_x
_atom_site_fract_y
_atom_site_fract_z
Si Si1 0.146301 0.475908 0.491286
Si Si2 0.716130 0.139858 0.026500
Si Si3 0.842635 0.077362 0.193000
Si Si4 0.659445 0.891198 0.465542
Si Si5 0.761403 0.391589 0.861229
O O1 0.435907 0.295182 0.260972
O O2 0.178423 0.842354 0.567568
O O3 0.000000 0.500000 0.500000
O O4 0.981446 0.319600 0.639156
O O5 0.716554 0.162722 0.930145
O O6 0.773349 0.748140 0.955241
O O7 0.988451 0.195000 0.893608
O O8 0.583584 0.017621 0.308931
O O9 0.764059 0.482614 0.336315
O O10 0.000000 0.000000 0.000000
O O11 0.500000 0.000000 0.500000
O O12 0.500000 0.500000 0.000000
#
# Coordination Sequence:
#
# PCOD9068701 Si02
#       5
#     2   2   2   2   2
#     4  12  29  54  92 131 180 238 303 368 456 541
#     4  12  30  53  86 128 176 238 300 370 453 531
#     4  11  28  52  90 127 175 235 301 371 451 534
#     4  11  27  55  85 129 178 229 297 372 447 542
#     4  12  29  54  83 124 182 235 298 372 447 538
#
# _framework density 28.864353999999999
#
# number of rings (size 3 to 8) (size 9 to 14) (size 15 to 20)
#    0.000    0.400    2.000    3.000    8.400    5.600 
#    0.000    0.000    0.000    0.000    0.000    0.000 
#    0.000    0.000    0.000    0.000    0.000    0.000 
#
# Total GULP energy -55805.214414 kJ/mol
# GULP energy per Si atom -5580.521441 kJ/mol
# Density = 2.879866 g / cm^3
# Si number density = 28.864354 Si / 1000 Ang^3
#
#
#
# Elastic Constant Matrix: (Units=GPa)
#
#
# Indices 1 2 3 4 5 6 
#
# 1 207.2582 62.0213 83.9324 2.1815 -16.3126 -37.5752
# 2 62.0213 96.5437 55.5500 -16.3158 -14.6302 -9.0430
# 3 83.9324 55.5500 291.7764 5.0165 -38.6765 -26.6505
# 4 2.1815 -16.3158 5.0165 33.5516 -11.1705 -9.7572
# 5 -16.3126 -14.6302 -38.6765 -11.1705 70.5479 3.2536
# 6 -37.5752 -9.0430 -26.6505 -9.7572 3.2536 51.7139
#
#
#
# Elastic Compliance Matrix: (Units=1/GPa)
#
#
# Indices 1 2 3 4 5 6 
#
# 1 0.007038 -0.003817 -0.000939 -0.001088 -0.000025 0.003759
# 2 -0.003817 0.015852 -0.001619 0.009407 0.002972 0.000752
# 3 -0.000939 -0.001619 0.004337 -0.000499 0.001696 0.001068
# 4 -0.001088 0.009407 -0.000499 0.039135 0.007275 0.007523
# 5 -0.000025 0.002972 0.001696 0.007275 0.016789 0.001692
# 6 0.003759 0.000752 0.001068 0.007523 0.001692 0.024063
#
#
# Mechanical properties :
#
#
# Convention : Reuss Voigt Hill
#
# Bulk Modulus (GPa) = 69.07450 110.95396 90.01423
# Shear Modulus (GPa) = 40.06695 57.43430 48.75063
#
# Velocity S-wave (km/s) = 3.72978 4.46556 4.11415
# Velocity P-wave (km/s) = 6.52158 8.06917 7.33630
#
# Compressibility (1/GPa) = 0.01447712
#
# Stress axis : x y z
#
# Youngs Moduli (GPa) = 142.07811 63.08232 230.58736
#
# Poissons Ratio (x) = 0.24077 0.21658
# Poissons Ratio (y) = 0.54227 0.37336
# Poissons Ratio (z) = 0.13345 0.10214
#
# Static dielectric constant tensor:
#      x y z
#    x 2.586030 0.146230 -0.182360 
#    y 0.146230 2.543200 -0.352480 
#    z -0.182360 -0.352480 2.799180 
# 
# From -- ./inp_files/509885.got.cif
#   From: 2010.05.17/outbox.cif.g08.bks.cpg/sg2_255_cif.got.tgz:509885.got - 2010.06.03 11:33:40.
