data_PCOD9068947
_publ_section_title
;
Structure prediction by ZEFSAII (Michael W. Deem and Ramdas Pophale) SiO2 
 PCOD9068947
Probable space group: P -1
;
_chemical_formula_sum "Si O2"
_cell_formula_units_Z 15
_cell_length_a 15.594917
_cell_length_b 9.298520
_cell_length_c 9.175662
_cell_angle_alpha 70.388012
_cell_angle_beta 143.717777
_cell_angle_gamma 109.742016
_cell_volume 736.286472
_symmetry_space_group_name_H-M "P -1"
_symmetry_group_IT_number 2
_symmetry_cell_setting 'triclinic'
loop_
_space_group_symop_operation_xyz
x,y,z
-x,-y,-z
loop_
_atom_site_type_symbol
_atom_site_label
_atom_site_fract_x
_atom_site_fract_y
_atom_site_fract_z
Si Si1 0.378014 0.047742 0.427865
Si Si2 0.535819 0.548912 0.869566
Si Si3 0.738084 0.277829 0.564420
Si Si4 0.819404 0.781125 0.096710
Si Si5 0.020078 0.558207 0.341274
Si Si6 0.547926 0.346477 0.694567
Si Si7 0.000000 0.000000 0.500000
Si Si8 0.132448 0.722079 0.944755
O O1 0.439884 0.196885 0.553258
O O2 0.500000 0.000000 0.500000
O O3 0.322486 0.897548 0.495444
O O4 0.250445 0.093814 0.135840
O O5 0.399932 0.637906 0.604206
O O6 0.544417 0.396180 0.839979
O O7 0.500000 0.500000 0.000000
O O8 0.684336 0.663577 0.013502
O O9 0.820865 0.364060 0.513402
O O10 0.846527 0.275753 0.852284
O O11 0.911021 0.687295 0.144234
O O12 0.920249 0.858229 0.336614
O O13 0.974785 0.422837 0.211530
O O14 0.000000 0.500000 0.500000
O O15 0.500000 0.500000 0.500000
O O16 0.708340 0.307483 0.887282
O O17 0.079090 0.874102 0.751349
#
# Coordination Sequence:
#
# PCOD9068947 Si02
#       8
#     2   2   2   2   2   2   1   2
#     4  12  21  44  74 104 142 182 239 300 354 419
#     4  12  26  45  73 105 138 184 248 300 351 421
#     4  12  26  45  72 107 139 186 243 295 357 431
#     4  12  23  46  69  96 146 188 226 292 356 418
#     4  12  26  46  69  99 144 188 236 294 354 423
#     4  12  21  44  78 106 135 191 242 296 359 424
#     4  12  26  40  70 104 144 192 222 282 370 428
#     4  12  23  45  71 102 144 190 237 282 363 432
#
# _framework density 20.372505
#
# number of rings (size 3 to 8) (size 9 to 14) (size 15 to 20)
#    0.000    0.000    9.333    1.200    0.000    0.533 
#    2.400    0.667    0.000    0.000    0.000    0.000 
#    0.000    0.000    0.000    0.000    0.000    0.000 
#
# Total GULP energy -83595.889038 kJ/mol
# GULP energy per Si atom -5573.059269 kJ/mol
# Density = 2.032614 g / cm^3
# Si number density = 20.372505 Si / 1000 Ang^3
#
#
#
# Elastic Constant Matrix: (Units=GPa)
#
#
# Indices 1 2 3 4 5 6 
#
# 1 86.0981 42.0822 8.3294 8.6703 -3.5288 3.1259
# 2 42.0822 157.3540 39.1351 23.4544 -4.5424 -2.1206
# 3 8.3294 39.1351 68.1230 -9.3558 -4.5348 -3.9117
# 4 8.6703 23.4544 -9.3558 41.5135 -9.3127 8.3834
# 5 -3.5288 -4.5424 -4.5348 -9.3127 31.9166 3.7127
# 6 3.1259 -2.1206 -3.9117 8.3834 3.7127 23.7763
#
#
#
# Elastic Compliance Matrix: (Units=1/GPa)
#
#
# Indices 1 2 3 4 5 6 
#
# 1 0.013525 -0.003756 0.000485 0.000175 0.001349 -0.002306
# 2 -0.003756 0.010027 -0.006307 -0.007545 -0.002481 0.003398
# 3 0.000485 -0.006307 0.019760 0.009284 0.004836 -0.001404
# 4 0.000175 -0.007545 0.009284 0.035962 0.012361 -0.013779
# 5 0.001349 -0.002481 0.004836 0.012361 0.036546 -0.009668
# 6 -0.002306 0.003398 -0.001404 -0.013779 -0.009668 0.048802
#
#
# Mechanical properties :
#
#
# Convention : Reuss Voigt Hill
#
# Bulk Modulus (GPa) = 41.39769 54.51875 47.95822
# Shear Modulus (GPa) = 26.06483 34.24318 30.15400
#
# Velocity S-wave (km/s) = 3.58077 4.10427 3.85142
# Velocity P-wave (km/s) = 6.12049 7.01990 6.58557
#
# Compressibility (1/GPa) = 0.02415594
#
# Stress axis : x y z
#
# Youngs Moduli (GPa) = 73.93772 99.73028 50.60824
#
# Poissons Ratio (x) = 0.37459 -0.02457
# Poissons Ratio (y) = 0.27771 0.31920
# Poissons Ratio (z) = -0.03590 0.62903
#
# Static dielectric constant tensor:
#      x y z
#    x 1.733310 0.018740 0.011420 
#    y 0.018740 1.751030 -0.000070 
#    z 0.011420 -0.000070 1.786450 
# 
# From -- ./inp_files/157376.got.cif
#   From: 2010.05.17/outbox.cif.g08.bks.cpg/sg2_79_cif.got.tgz:157376.got - 2010.06.03 11:33:40.
