data_PCOD9068903
_publ_section_title
;
Structure prediction by ZEFSAII (Michael W. Deem and Ramdas Pophale) SiO2 
 PCOD9068903
Probable space group: P -1
;
_chemical_formula_sum "Si O2"
_cell_formula_units_Z 16
_cell_length_a 8.292943
_cell_length_b 9.476372
_cell_length_c 18.624056
_cell_angle_alpha 146.816971
_cell_angle_beta 75.853449
_cell_angle_gamma 108.981933
_cell_volume 756.399717
_symmetry_space_group_name_H-M "P -1"
_symmetry_group_IT_number 2
_symmetry_cell_setting 'triclinic'
loop_
_space_group_symop_operation_xyz
x,y,z
-x,-y,-z
loop_
_atom_site_type_symbol
_atom_site_label
_atom_site_fract_x
_atom_site_fract_y
_atom_site_fract_z
Si Si1 0.172151 0.924620 0.228663
Si Si2 0.189251 0.347756 0.779482
Si Si3 0.339728 0.890412 0.520744
Si Si4 0.491469 0.803440 0.622574
Si Si5 0.700410 0.050072 0.016585
Si Si6 0.230291 0.953193 0.827753
Si Si7 0.859042 0.700389 0.737549
Si Si8 0.676981 0.534210 0.037672
O O1 0.316160 0.025220 0.315869
O O2 0.153732 0.166249 0.282317
O O3 0.216587 0.129531 0.122424
O O4 0.248205 0.722784 0.085879
O O5 0.209779 0.637955 0.867674
O O6 0.329762 0.395533 0.848720
O O7 0.229542 0.113605 0.627608
O O8 0.004998 0.232533 0.785606
O O9 0.404150 0.851567 0.578033
O O10 0.239126 0.603237 0.383022
O O11 0.500000 0.000000 0.500000
O O12 0.500000 0.500000 0.500000
O O13 0.379137 0.877147 0.731900
O O14 0.718361 0.982092 0.068755
O O15 0.500000 0.000000 0.000000
O O16 0.057946 0.731096 0.746008
O O17 0.196343 0.218961 0.908714
O O18 0.500000 0.500000 0.000000
#
# Coordination Sequence:
#
# PCOD9068903 Si02
#       8
#     2   2   2   2   2   2   2   2
#     4  12  23  43  74 104 139 183 238 289 345 416
#     4  12  25  44  70 104 138 183 234 289 346 412
#     4  12  28  48  70 103 144 184 232 287 354 421
#     4  12  26  44  71 101 137 188 232 283 348 424
#     4  12  26  46  73 103 144 185 232 290 354 409
#     4  12  26  45  72 104 139 182 239 286 347 421
#     4  12  25  46  73 103 142 187 229 292 353 414
#     4  12  21  41  69 103 135 176 234 285 337 408
#
# _framework density 21.152836000000001
#
# number of rings (size 3 to 8) (size 9 to 14) (size 15 to 20)
#    0.000    0.000    6.250    3.750    3.500    3.000 
#    0.000    1.250    0.000    0.000    0.000    0.000 
#    0.000    0.000    0.000    0.000    0.000    0.000 
#
# Total GULP energy -89555.101003 kJ/mol
# GULP energy per Si atom -5597.193813 kJ/mol
# Density = 2.110469 g / cm^3
# Si number density = 21.152836 Si / 1000 Ang^3
#
#
#
# Elastic Constant Matrix: (Units=GPa)
#
#
# Indices 1 2 3 4 5 6 
#
# 1 79.6256 -3.1026 26.5139 -0.8025 6.9663 26.2123
# 2 -3.1026 67.3452 35.9582 4.9362 -0.0801 14.1051
# 3 26.5139 35.9582 121.5297 26.0454 -8.0969 9.3895
# 4 -0.8025 4.9362 26.0454 41.5057 0.5875 6.7948
# 5 6.9663 -0.0801 -8.0969 0.5875 38.0442 0.3464
# 6 26.2123 14.1051 9.3895 6.7948 0.3464 35.2017
#
#
#
# Elastic Compliance Matrix: (Units=1/GPa)
#
#
# Indices 1 2 3 4 5 6 
#
# 1 0.022716 0.008955 -0.008136 0.007801 -0.005813 -0.019782
# 2 0.008955 0.022646 -0.008952 0.005501 -0.003451 -0.014383
# 3 -0.008136 -0.008952 0.014395 -0.009432 0.004611 0.007581
# 4 0.007801 0.005501 -0.009432 0.031450 -0.003805 -0.011530
# 5 -0.005813 -0.003451 0.004611 -0.003805 0.028338 0.004937
# 6 -0.019782 -0.014383 0.007581 -0.011530 0.004937 0.049056
#
#
# Mechanical properties :
#
#
# Convention : Reuss Voigt Hill
#
# Bulk Modulus (GPa) = 22.99281 43.02660 33.00970
# Shear Modulus (GPa) = 25.07973 36.89239 30.98606
#
# Velocity S-wave (km/s) = 3.44705 4.18076 3.83151
# Velocity P-wave (km/s) = 5.17072 6.60984 5.93407
#
# Compressibility (1/GPa) = 0.04349186
#
# Stress axis : x y z
#
# Youngs Moduli (GPa) = 44.02141 44.15725 69.46771
#
# Poissons Ratio (x) = -0.39544 0.56521
# Poissons Ratio (y) = -0.39423 0.62187
# Poissons Ratio (z) = 0.35817 0.39529
#
# Static dielectric constant tensor:
#      x y z
#    x 1.760830 0.005640 0.013890 
#    y 0.005640 1.757250 0.019310 
#    z 0.013890 0.019310 1.782890 
# 
# From -- ./inp_files/557656.got.cif
#   From: 2010.05.17/outbox.cif.g08.bks.cpg/sg2_279_cif.got.tgz:557656.got - 2010.06.03 11:33:40.
