data_PCOD9068452
_publ_section_title
;
Structure prediction by ZEFSAII (Michael W. Deem and Ramdas Pophale) SiO2 
 PCOD9068452
Probable space group: P -1
;
_chemical_formula_sum "Si O2"
_cell_formula_units_Z 14
_cell_length_a 15.845036
_cell_length_b 15.362387
_cell_length_c 14.887776
_cell_angle_alpha 27.224826
_cell_angle_beta 156.884119
_cell_angle_gamma 154.110160
_cell_volume 579.433115
_symmetry_space_group_name_H-M "P -1"
_symmetry_group_IT_number 2
_symmetry_cell_setting 'triclinic'
loop_
_space_group_symop_operation_xyz
x,y,z
-x,-y,-z
loop_
_atom_site_type_symbol
_atom_site_label
_atom_site_fract_x
_atom_site_fract_y
_atom_site_fract_z
Si Si1 0.205464 0.923396 0.269291
Si Si2 0.849516 0.295713 0.404807
Si Si3 0.249439 0.397709 0.289642
Si Si4 0.635362 0.615396 0.936907
Si Si5 0.770557 0.167324 0.145495
Si Si6 0.352328 0.096979 0.555198
Si Si7 0.263086 0.679611 0.386935
O O1 0.092028 0.736690 0.405322
O O2 0.177139 0.822517 0.233579
O O3 0.500000 0.000000 0.500000
O O4 0.188532 0.142445 0.077967
O O5 0.066552 0.436481 0.422784
O O6 0.726339 0.058068 0.464633
O O7 0.708483 0.437583 0.135830
O O8 0.500000 0.500000 0.500000
O O9 0.279478 0.282014 0.336429
O O10 0.013197 0.226808 0.269767
O O11 0.217294 0.601917 0.044153
O O12 0.478284 0.658650 0.669303
O O13 0.500000 0.500000 0.000000
O O14 0.762876 0.060650 0.330530
O O15 0.500000 0.000000 0.000000
O O16 0.642251 0.221105 0.708953
#
# Coordination Sequence:
#
# PCOD9068452 Si02
#       7
#     2   2   2   2   2   2   2
#     4  12  23  47  70  97 145 200 244 299 366 428
#     4  12  27  46  67 105 146 190 245 303 364 428
#     4  11  26  51  79 110 144 194 247 297 375 467
#     4  12  23  44  71  94 140 194 249 296 357 434
#     4  11  26  50  80 108 147 194 240 298 383 458
#     4  12  28  46  73 112 146 184 242 309 367 432
#     4  12  26  46  69 106 144 192 248 305 361 426
#
# _framework density 24.161546999999999
#
# number of rings (size 3 to 8) (size 9 to 14) (size 15 to 20)
#    0.000    0.286    5.714    3.000    4.000    0.000 
#    2.571    0.000    0.000    0.000    0.000    0.000 
#    0.000    0.000    0.000    0.000    0.000    0.000 
#
# Total GULP energy -78099.709882 kJ/mol
# GULP energy per Si atom -5578.550706 kJ/mol
# Density = 2.410655 g / cm^3
# Si number density = 24.161547 Si / 1000 Ang^3
#
#
#
# Elastic Constant Matrix: (Units=GPa)
#
#
# Indices 1 2 3 4 5 6 
#
# 1 136.3974 54.4862 40.2899 -24.3184 34.8689 22.0902
# 2 54.4862 145.1533 23.6279 -25.4681 17.8124 15.9928
# 3 40.2899 23.6279 96.9784 -38.8962 27.7161 -15.6926
# 4 -24.3184 -25.4681 -38.8962 39.0202 -4.4544 -1.1145
# 5 34.8689 17.8124 27.7161 -4.4544 29.2185 -14.8081
# 6 22.0902 15.9928 -15.6926 -1.1145 -14.8081 51.2000
#
#
#
# Elastic Compliance Matrix: (Units=1/GPa)
#
#
# Indices 1 2 3 4 5 6 
#
# 1 0.019587 -0.000007 0.002948 0.010886 -0.033057 -0.016869
# 2 -0.000007 0.009500 0.002777 0.007729 -0.009637 -0.004732
# 3 0.002948 0.002777 0.027011 0.027434 -0.027228 -0.001138
# 4 0.010886 0.007729 0.027434 0.060110 -0.038952 -0.008660
# 5 -0.033057 -0.009637 -0.027228 -0.038952 0.121316 0.043166
# 6 -0.016869 -0.004732 -0.001138 -0.008660 0.043166 0.040234
#
#
# Mechanical properties :
#
#
# Convention : Reuss Voigt Hill
#
# Bulk Modulus (GPa) = 14.80739 68.37080 41.58909
# Shear Modulus (GPa) = 17.31098 41.22941 29.27019
#
# Velocity S-wave (km/s) = 2.67960 4.13535 3.48435
# Velocity P-wave (km/s) = 3.96427 7.15264 5.78255
#
# Compressibility (1/GPa) = 0.06753386
#
# Stress axis : x y z
#
# Youngs Moduli (GPa) = 51.05430 105.26313 37.02192
#
# Poissons Ratio (x) = 0.00075 -0.10916
# Poissons Ratio (y) = 0.00037 -0.10280
# Poissons Ratio (z) = -0.15053 -0.29228
#
# Static dielectric constant tensor:
#      x y z
#    x 2.043320 0.112000 0.140160 
#    y 0.112000 2.168140 0.263050 
#    z 0.140160 0.263050 2.207610 
# 
# From -- ./inp_files/534181.got.cif
#   From: 2010.05.17/outbox.cif.g08.bks.cpg/sg2_268_cif.got.tgz:534181.got - 2010.06.03 11:33:40.
