data_PCOD9068875
_publ_section_title
;
Structure prediction by ZEFSAII (Michael W. Deem and Ramdas Pophale) SiO2 
 PCOD9068875
Probable space group: P -1
;
_chemical_formula_sum "Si O2"
_cell_formula_units_Z 16
_cell_length_a 15.815703
_cell_length_b 15.900272
_cell_length_c 9.765451
_cell_angle_alpha 121.616732
_cell_angle_beta 37.990169
_cell_angle_gamma 141.851580
_cell_volume 903.740143
_symmetry_space_group_name_H-M "P -1"
_symmetry_group_IT_number 2
_symmetry_cell_setting 'triclinic'
loop_
_space_group_symop_operation_xyz
x,y,z
-x,-y,-z
loop_
_atom_site_type_symbol
_atom_site_label
_atom_site_fract_x
_atom_site_fract_y
_atom_site_fract_z
Si Si1 0.202597 0.648617 0.586688
Si Si2 0.830375 0.958788 0.775257
Si Si3 0.111412 0.674631 0.294113
Si Si4 0.662224 0.074279 0.971656
Si Si5 0.926216 0.659882 0.800027
Si Si6 0.938627 0.063720 0.045221
Si Si7 0.393932 0.669349 0.083775
Si Si8 0.479766 0.068004 0.461810
O O1 0.327876 0.677237 0.321561
O O2 0.356297 0.763895 0.597573
O O3 0.059225 0.487535 0.668915
O O4 0.070552 0.672882 0.727048
O O5 0.629206 0.790743 0.885774
O O6 0.000000 0.000000 0.500000
O O7 0.762316 0.023990 0.843085
O O8 0.904908 0.020674 0.889272
O O9 0.291095 0.696366 0.135373
O O10 0.025670 0.693333 0.550311
O O11 0.172417 0.769940 0.168146
O O12 0.532736 0.036809 0.234039
O O13 0.500000 0.000000 0.000000
O O14 0.721066 0.494038 0.924159
O O15 0.923572 0.770986 0.952305
O O16 0.730701 0.992912 0.308631
O O17 0.000000 0.000000 0.000000
O O18 0.500000 0.000000 0.500000
#
# Coordination Sequence:
#
# PCOD9068875 Si02
#       8
#     2   2   2   2   2   2   2   2
#     4   9  16  34  62  93 120 156 202 259 306 361
#     4  12  26  42  60  91 132 164 204 258 313 363
#     4   9  19  32  61  99 124 150 201 257 316 361
#     4  12  23  37  63  93 124 159 205 257 312 361
#     4   9  18  36  65  88 123 160 207 252 304 368
#     4  12  26  41  61  92 123 166 215 253 302 367
#     4   9  17  38  62  91 121 164 200 250 310 370
#     4  12  21  39  65  88 121 163 212 258 302 362
#
# _framework density 17.704203
#
# number of rings (size 3 to 8) (size 9 to 14) (size 15 to 20)
#    0.000    1.500    5.000    2.250    3.500    0.500 
#    0.000    2.500    0.000    0.000    0.000    0.000 
#    0.000    0.000    0.000    0.000    0.000    0.000 
#
# Total GULP energy -89144.430957 kJ/mol
# GULP energy per Si atom -5571.526935 kJ/mol
# Density = 1.766391 g / cm^3
# Si number density = 17.704203 Si / 1000 Ang^3
#
#
#
# Elastic Constant Matrix: (Units=GPa)
#
#
# Indices 1 2 3 4 5 6 
#
# 1 101.8250 54.4148 61.2471 5.1785 -0.7609 -10.7061
# 2 54.4148 110.5459 62.9011 4.3010 -4.2754 -0.5137
# 3 61.2471 62.9011 125.1984 -1.8080 -4.6815 -6.9677
# 4 5.1785 4.3010 -1.8080 28.3266 -0.8902 1.4933
# 5 -0.7609 -4.2754 -4.6815 -0.8902 27.6229 -2.2682
# 6 -10.7061 -0.5137 -6.9677 1.4933 -2.2682 24.9823
#
#
#
# Elastic Compliance Matrix: (Units=1/GPa)
#
#
# Indices 1 2 3 4 5 6 
#
# 1 0.016365 -0.004940 -0.005290 -0.002898 -0.000849 0.005532
# 2 -0.004940 0.014378 -0.004960 -0.001407 0.000954 -0.003034
# 3 -0.005290 -0.004960 0.013233 0.002544 0.001519 0.001308
# 4 -0.002898 -0.001407 0.002544 0.036381 0.001089 -0.002637
# 5 -0.000849 0.000954 0.001519 0.001089 0.036895 0.003364
# 6 0.005532 -0.003034 0.001308 -0.002637 0.003364 0.043165
#
#
# Mechanical properties :
#
#
# Convention : Reuss Voigt Hill
#
# Bulk Modulus (GPa) = 73.54983 77.18837 75.36910
# Shear Modulus (GPa) = 25.59783 26.78678 26.19230
#
# Velocity S-wave (km/s) = 3.80657 3.89397 3.85052
# Velocity P-wave (km/s) = 7.80730 7.99443 7.90142
#
# Compressibility (1/GPa) = 0.01359623
#
# Stress axis : x y z
#
# Youngs Moduli (GPa) = 61.10569 69.55219 75.56640
#
# Poissons Ratio (x) = 0.34360 0.39971
# Poissons Ratio (y) = 0.30187 0.37483
# Poissons Ratio (z) = 0.32322 0.34500
#
# Static dielectric constant tensor:
#      x y z
#    x 1.583690 0.026390 0.027160 
#    y 0.026390 1.682990 -0.035070 
#    z 0.027160 -0.035070 1.563460 
# 
# From -- ./inp_files/256502.got.cif
#   From: 2010.05.17/outbox.cif.g08.bks.cpg/sg2_129_cif.got.tgz:256502.got - 2010.06.03 11:33:40.
