data_PCOD9068051
_publ_section_title
;
Structure prediction by ZEFSAII (Michael W. Deem and Ramdas Pophale) SiO2 
 PCOD9068051
Probable space group: P -1
;
_chemical_formula_sum "Si O2"
_cell_formula_units_Z 15
_cell_length_a 15.430703
_cell_length_b 11.506203
_cell_length_c 7.782228
_cell_angle_alpha 85.427507
_cell_angle_beta 58.765903
_cell_angle_gamma 133.644495
_cell_volume 604.420755
_symmetry_space_group_name_H-M "P -1"
_symmetry_group_IT_number 2
_symmetry_cell_setting 'triclinic'
loop_
_space_group_symop_operation_xyz
x,y,z
-x,-y,-z
loop_
_atom_site_type_symbol
_atom_site_label
_atom_site_fract_x
_atom_site_fract_y
_atom_site_fract_z
Si Si1 0.913448 0.283909 0.146908
Si Si2 0.105334 0.133326 0.693650
Si Si3 0.199308 0.427451 0.090789
Si Si4 0.571748 0.442772 0.487654
Si Si5 0.164466 0.943845 0.070857
Si Si6 0.489493 0.076071 0.230049
Si Si7 0.795357 0.231842 0.756953
Si Si8 0.000000 0.000000 0.500000
O O1 0.941539 0.224253 0.961617
O O2 0.025840 0.335733 0.188702
O O3 0.675736 0.058664 0.442877
O O4 0.000000 0.500000 0.000000
O O5 0.279864 0.390064 0.529276
O O6 0.155213 0.099149 0.491834
O O7 0.927136 0.021250 0.785211
O O8 0.000000 0.000000 0.000000
O O9 0.149681 0.261936 0.266330
O O10 0.314212 0.498515 0.794221
O O11 0.360615 0.669294 0.991619
O O12 0.500000 0.500000 0.500000
O O13 0.385244 0.185481 0.762638
O O14 0.149112 0.845012 0.256168
O O15 0.339940 0.891283 0.254856
O O16 0.652458 0.134209 0.070855
O O17 0.000000 0.500000 0.500000
#
# Coordination Sequence:
#
# PCOD9068051 Si02
#       8
#     2   2   2   2   2   2   2   1
#     4  12  26  46  77 109 148 196 255 318 386 463
#     4  12  25  50  72 105 152 196 248 317 378 452
#     4  12  26  48  73 112 153 197 257 317 386 463
#     4  12  25  47  74 106 147 195 254 313 379 463
#     4  12  25  44  75 102 144 199 241 307 389 442
#     4  11  26  47  73 107 153 193 252 315 382 467
#     4  11  27  48  70 108 154 195 250 318 381 460
#     4  12  28  46  80 108 150 206 258 314 388 460
#
# _framework density 24.817150999999999
#
# number of rings (size 3 to 8) (size 9 to 14) (size 15 to 20)
#    0.000    0.267    5.333    2.400    7.467    2.133 
#    0.000    2.000    0.000    0.000    0.000    0.000 
#    0.000    0.000    0.000    0.000    0.000    0.000 
#
# Total GULP energy -83594.682305 kJ/mol
# GULP energy per Si atom -5572.978820 kJ/mol
# Density = 2.476067 g / cm^3
# Si number density = 24.817151 Si / 1000 Ang^3
#
#
#
# Elastic Constant Matrix: (Units=GPa)
#
#
# Indices 1 2 3 4 5 6 
#
# 1 108.9916 26.5534 57.7033 -16.7296 10.6928 -14.0187
# 2 26.5534 137.3020 46.7872 -37.4351 6.3207 6.7705
# 3 57.7033 46.7872 118.4084 -22.7121 9.7689 3.1594
# 4 -16.7296 -37.4351 -22.7121 47.3634 -9.4963 7.1010
# 5 10.6928 6.3207 9.7689 -9.4963 47.7642 2.0723
# 6 -14.0187 6.7705 3.1594 7.1010 2.0723 49.6370
#
#
#
# Elastic Compliance Matrix: (Units=1/GPa)
#
#
# Indices 1 2 3 4 5 6 
#
# 1 0.013363 -0.000499 -0.006215 0.000351 -0.001769 0.004261
# 2 -0.000499 0.010286 -0.002416 0.007327 0.000809 -0.002472
# 3 -0.006215 -0.002416 0.012996 0.002445 -0.000348 -0.002588
# 4 0.000351 0.007327 0.002445 0.029963 0.004649 -0.005536
# 5 -0.001769 0.000809 -0.000348 0.004649 0.022316 -0.002185
# 6 0.004261 -0.002472 -0.002588 -0.005536 -0.002185 0.022735
#
#
# Mechanical properties :
#
#
# Convention : Reuss Voigt Hill
#
# Bulk Modulus (GPa) = 54.39842 69.64332 62.02087
# Shear Modulus (GPa) = 36.75220 44.53012 40.64116
#
# Velocity S-wave (km/s) = 3.85245 4.24055 4.05115
# Velocity P-wave (km/s) = 6.46187 7.21802 6.85038
#
# Compressibility (1/GPa) = 0.01838289
#
# Stress axis : x y z
#
# Youngs Moduli (GPa) = 74.83541 97.22371 76.94942
#
# Poissons Ratio (x) = 0.04854 0.47824
# Poissons Ratio (y) = 0.03736 0.18592
# Poissons Ratio (z) = 0.46510 0.23491
#
# Static dielectric constant tensor:
#      x y z
#    x 2.089910 -0.119010 -0.084510 
#    y -0.119010 1.048580 -0.515930 
#    z -0.084510 -0.515930 1.549620 
# 
# From -- ./inp_files/305118.got.cif
#   From: 2010.05.17/outbox.cif.g08.bks.cpg/sg2_153_cif.got.tgz:305118.got - 2010.06.03 11:33:40.
