data_PCOD9068143
_publ_section_title
;
Structure prediction by ZEFSAII (Michael W. Deem and Ramdas Pophale) SiO2 
 PCOD9068143
Probable space group: P -1
;
_chemical_formula_sum "Si O2"
_cell_formula_units_Z 14
_cell_length_a 9.665408
_cell_length_b 9.145581
_cell_length_c 15.382814
_cell_angle_alpha 126.839614
_cell_angle_beta 40.087931
_cell_angle_gamma 100.151536
_cell_volume 586.168549
_symmetry_space_group_name_H-M "P -1"
_symmetry_group_IT_number 2
_symmetry_cell_setting 'triclinic'
loop_
_space_group_symop_operation_xyz
x,y,z
-x,-y,-z
loop_
_atom_site_type_symbol
_atom_site_label
_atom_site_fract_x
_atom_site_fract_y
_atom_site_fract_z
Si Si1 0.270970 0.999881 0.158527
Si Si2 0.615119 0.737790 0.537751
Si Si3 0.744457 0.772278 0.153693
Si Si4 0.474094 0.509270 0.912068
Si Si5 0.339155 0.433390 0.730492
Si Si6 0.188031 0.550236 0.483645
Si Si7 0.952876 0.818670 0.485284
O O1 0.239595 0.074997 0.301862
O O2 0.005757 0.191929 0.311878
O O3 0.500000 0.000000 0.000000
O O4 0.317594 0.762311 0.049835
O O5 0.604906 0.617265 0.416118
O O6 0.292002 0.402241 0.468111
O O7 0.849351 0.771138 0.431570
O O8 0.374418 0.987653 0.742639
O O9 0.648129 0.630428 0.102395
O O10 0.655234 0.762725 0.291191
O O11 0.050731 0.638585 0.954602
O O12 0.548067 0.475611 0.683090
O O13 0.500000 0.500000 0.000000
O O14 0.000000 0.500000 0.500000
O O15 0.228030 0.610408 0.303113
O O16 0.000000 0.000000 0.500000
#
# Coordination Sequence:
#
# PCOD9068143 Si02
#       7
#     2   2   2   2   2   2   2
#     4  12  28  46  73 115 158 202 258 325 394 459
#     4  12  25  48  79 109 154 206 258 315 397 462
#     4  11  26  47  79 113 156 201 252 330 385 471
#     4  12  24  43  77 119 154 203 266 318 396 462
#     4  11  28  50  74 112 156 203 262 314 400 470
#     4  12  28  52  76 109 155 204 256 329 389 465
#     4  12  23  44  76 116 157 197 257 329 379 463
#
# _framework density 23.883914000000001
#
# number of rings (size 3 to 8) (size 9 to 14) (size 15 to 20)
#    0.000    0.286    4.286    3.429    2.000    4.000 
#    0.000    0.000    0.000    0.000    0.000    0.000 
#    0.000    0.000    0.000    0.000    0.000    0.000 
#
# Total GULP energy -78185.331621 kJ/mol
# GULP energy per Si atom -5584.666544 kJ/mol
# Density = 2.382955 g / cm^3
# Si number density = 23.883914 Si / 1000 Ang^3
#
#
#
# Elastic Constant Matrix: (Units=GPa)
#
#
# Indices 1 2 3 4 5 6 
#
# 1 149.2404 39.3816 72.4073 7.9871 -12.1327 1.7719
# 2 39.3816 109.3455 59.7635 10.0230 -16.7606 -21.0936
# 3 72.4073 59.7635 130.3035 3.1502 -16.5548 -1.3044
# 4 7.9871 10.0230 3.1502 48.6546 -4.5341 -17.9024
# 5 -12.1327 -16.7606 -16.5548 -4.5341 48.8175 2.4874
# 6 1.7719 -21.0936 -1.3044 -17.9024 2.4874 50.5196
#
#
#
# Elastic Compliance Matrix: (Units=1/GPa)
#
#
# Indices 1 2 3 4 5 6 
#
# 1 0.009349 -0.000846 -0.004739 -0.001521 0.000354 -0.001360
# 2 -0.000846 0.013936 -0.005559 -0.000107 0.002397 0.005549
# 3 -0.004739 -0.005559 0.013013 0.000600 0.001468 -0.001679
# 4 -0.001521 -0.000107 0.000600 0.024050 0.001591 0.008468
# 5 0.000354 0.002397 0.001468 0.001591 0.022015 0.000506
# 6 -0.001360 0.005549 -0.001679 0.008468 0.000506 0.025091
#
#
# Mechanical properties :
#
#
# Convention : Reuss Voigt Hill
#
# Bulk Modulus (GPa) = 71.37785 81.33270 76.35527
# Shear Modulus (GPa) = 37.19879 44.08745 40.64312
#
# Velocity S-wave (km/s) = 3.95078 4.30106 4.12964
# Velocity P-wave (km/s) = 7.12473 7.66764 7.40117
#
# Compressibility (1/GPa) = 0.01400995
#
# Stress axis : x y z
#
# Youngs Moduli (GPa) = 106.95781 71.75743 76.84728
#
# Poissons Ratio (x) = 0.06067 0.36421
# Poissons Ratio (y) = 0.09044 0.42721
# Poissons Ratio (z) = 0.50691 0.39891
#
# Static dielectric constant tensor:
#      x y z
#    x 1.788130 -0.056490 0.143930 
#    y -0.056490 2.017190 -0.102900 
#    z 0.143930 -0.102900 1.775930 
# 
# From -- ./inp_files/493766.got.cif
#   From: 2010.05.17/outbox.cif.g08.bks.cpg/sg2_247_cif.got.tgz:493766.got - 2010.06.03 11:33:40.
