data_PCOD9068797
_publ_section_title
;
Structure prediction by ZEFSAII (Michael W. Deem and Ramdas Pophale) SiO2 
 PCOD9068797
Probable space group: P -1
;
_chemical_formula_sum "Si O2"
_cell_formula_units_Z 14
_cell_length_a 9.228622
_cell_length_b 9.475323
_cell_length_c 12.466494
_cell_angle_alpha 117.498702
_cell_angle_beta 84.346663
_cell_angle_gamma 139.835328
_cell_volume 558.658122
_symmetry_space_group_name_H-M "P -1"
_symmetry_group_IT_number 2
_symmetry_cell_setting 'triclinic'
loop_
_space_group_symop_operation_xyz
x,y,z
-x,-y,-z
loop_
_atom_site_type_symbol
_atom_site_label
_atom_site_fract_x
_atom_site_fract_y
_atom_site_fract_z
Si Si1 0.983293 0.306982 0.159447
Si Si2 0.412667 0.150311 0.124272
Si Si3 0.362796 0.928235 0.376444
Si Si4 0.262006 0.578709 0.626948
Si Si5 0.103753 0.891679 0.662523
Si Si6 0.746089 0.876093 0.661431
Si Si7 0.422619 0.488471 0.120474
O O1 0.589484 0.151006 0.352264
O O2 0.952947 0.232543 0.260297
O O3 0.156647 0.616147 0.251155
O O4 0.146306 0.313774 0.091836
O O5 0.679241 0.341980 0.225399
O O6 0.442559 0.353443 0.147042
O O7 0.281667 0.932499 0.965834
O O8 0.239101 0.995307 0.397384
O O9 0.500000 0.000000 0.500000
O O10 0.997466 0.683341 0.503634
O O11 0.442508 0.583959 0.593463
O O12 0.386557 0.204577 0.747261
O O13 0.937988 0.905426 0.667851
O O14 0.773409 0.008186 0.814244
O O15 0.500000 0.500000 0.000000
#
# Coordination Sequence:
#
# PCOD9068797 Si02
#       7
#     2   2   2   2   2   2   2
#     4  12  20  40  66  87 124 163 196 256 302 356
#     4   9  20  37  57  86 120 154 202 249 292 353
#     4   9  19  35  65  89 118 160 207 237 310 367
#     4   8  20  35  60  91 118 155 202 249 298 361
#     4  12  20  37  67  88 123 158 204 249 307 353
#     4   8  19  35  60  86 117 156 197 248 295 352
#     4  12  24  35  61  98 118 160 208 249 297 360
#
# _framework density 25.060048999999999
#
# number of rings (size 3 to 8) (size 9 to 14) (size 15 to 20)
#    1.714    0.000    4.286    1.714    0.000    4.000 
#    0.000    0.714    6.286    4.286    0.000    0.000 
#    0.000    0.000    0.000    0.000    0.000    0.000 
#
# Total GULP energy -78168.734194 kJ/mol
# GULP energy per Si atom -5583.481014 kJ/mol
# Density = 2.500301 g / cm^3
# Si number density = 25.060049 Si / 1000 Ang^3
#
#
#
# Elastic Constant Matrix: (Units=GPa)
#
#
# Indices 1 2 3 4 5 6 
#
# 1 85.9724 30.8494 51.8097 -11.1601 13.4003 16.2521
# 2 30.8494 94.7390 60.7487 4.6068 18.6938 -9.5648
# 3 51.8097 60.7487 179.1983 17.2284 40.9661 -12.2382
# 4 -11.1601 4.6068 17.2284 53.6723 -3.8824 7.2152
# 5 13.4003 18.6938 40.9661 -3.8824 41.5533 -5.2392
# 6 16.2521 -9.5648 -12.2382 7.2152 -5.2392 30.8330
#
#
#
# Elastic Compliance Matrix: (Units=1/GPa)
#
#
# Indices 1 2 3 4 5 6 
#
# 1 0.022470 -0.005258 -0.007095 0.009939 0.000711 -0.018496
# 2 -0.005258 0.015016 -0.002364 -0.002686 -0.002128 0.006758
# 3 -0.007095 -0.002364 0.011273 -0.006466 -0.007390 0.007738
# 4 0.009939 -0.002686 -0.006466 0.025206 0.005007 -0.013686
# 5 0.000711 -0.002128 -0.007390 0.005007 0.032598 0.000399
# 6 -0.018496 0.006758 0.007738 -0.013686 0.000399 0.050621
#
#
# Mechanical properties :
#
#
# Convention : Reuss Voigt Hill
#
# Bulk Modulus (GPa) = 51.74864 71.85838 61.80351
# Shear Modulus (GPa) = 25.89870 39.64517 32.77194
#
# Velocity S-wave (km/s) = 3.21824 3.98176 3.62019
# Velocity P-wave (km/s) = 5.87402 7.06229 6.49539
#
# Compressibility (1/GPa) = 0.01932418
#
# Stress axis : x y z
#
# Youngs Moduli (GPa) = 44.50343 66.59483 88.70920
#
# Poissons Ratio (x) = 0.35016 0.62942
# Poissons Ratio (y) = 0.23401 0.20972
# Poissons Ratio (z) = 0.31576 0.15744
#
# Static dielectric constant tensor:
#      x y z
#    x 2.057830 0.034540 -0.036480 
#    y 0.034540 1.964900 0.001570 
#    z -0.036480 0.001570 2.011090 
# 
# From -- ./inp_files/498332.got.cif
#   From: 2010.05.17/outbox.cif.g08.bks.cpg/sg2_250_cif.got.tgz:498332.got - 2010.06.03 11:33:40.
