data_PCOD9068625
_publ_section_title
;
Structure prediction by ZEFSAII (Michael W. Deem and Ramdas Pophale) SiO2 
 PCOD9068625
Probable space group: P -1
;
_chemical_formula_sum "Si O2"
_cell_formula_units_Z 14
_cell_length_a 15.480047
_cell_length_b 9.378928
_cell_length_c 4.825309
_cell_angle_alpha 125.059164
_cell_angle_beta 68.109581
_cell_angle_gamma 125.165123
_cell_volume 467.874065
_symmetry_space_group_name_H-M "P -1"
_symmetry_group_IT_number 2
_symmetry_cell_setting 'triclinic'
loop_
_space_group_symop_operation_xyz
x,y,z
-x,-y,-z
loop_
_atom_site_type_symbol
_atom_site_label
_atom_site_fract_x
_atom_site_fract_y
_atom_site_fract_z
Si Si1 0.917276 0.918460 0.758349
Si Si2 0.373709 0.201699 0.711485
Si Si3 0.892150 0.439596 0.721522
Si Si4 0.765119 0.643285 0.039587
Si Si5 0.593601 0.453441 0.502299
Si Si6 0.188063 0.819386 0.973508
Si Si7 0.405554 0.924156 0.803258
O O1 0.825675 0.700956 0.727483
O O2 0.850260 0.032058 0.918503
O O3 0.000000 0.000000 0.500000
O O4 0.000000 0.000000 0.000000
O O5 0.465094 0.324783 0.511602
O O6 0.338703 0.506357 0.815481
O O7 0.406701 0.055836 0.682557
O O8 0.260250 0.170431 0.694004
O O9 0.854870 0.599763 0.022070
O O10 0.807868 0.294074 0.435507
O O11 0.000000 0.500000 0.500000
O O12 0.891111 0.325073 0.868648
O O13 0.616797 0.636844 0.880924
O O14 0.619965 0.300629 0.474352
O O15 0.303920 0.909500 0.068305
O O16 0.500000 0.000000 0.000000
#
# Coordination Sequence:
#
# PCOD9068625 Si02
#       7
#     2   2   2   2   2   2   2
#     4  12  28  51  80 118 159 212 274 345 425 505
#     4  11  27  49  80 112 163 216 279 348 424 497
#     4  12  27  49  83 118 158 215 274 352 427 499
#     4  12  26  47  79 109 163 207 274 347 419 493
#     4  11  27  49  75 117 156 212 280 344 411 505
#     4  12  26  52  78 115 164 207 278 342 420 509
#     4  12  28  50  79 117 167 225 278 343 425 509
#
# _framework density 29.922585000000002
#
# number of rings (size 3 to 8) (size 9 to 14) (size 15 to 20)
#    0.000    0.286    2.857    4.714    8.000    3.429 
#    0.000    0.000    0.000    0.000    0.000    0.000 
#    0.000    0.000    0.000    0.000    0.000    0.000 
#
# Total GULP energy -78173.628488 kJ/mol
# GULP energy per Si atom -5583.830606 kJ/mol
# Density = 2.985448 g / cm^3
# Si number density = 29.922585 Si / 1000 Ang^3
#
#
#
# Elastic Constant Matrix: (Units=GPa)
#
#
# Indices 1 2 3 4 5 6 
#
# 1 212.4371 62.0761 44.5046 -7.9833 -22.1747 -10.5559
# 2 62.0761 231.9402 83.3895 -68.3040 -13.2506 -22.2260
# 3 44.5046 83.3895 163.7441 -55.8373 -4.7799 -6.0644
# 4 -7.9833 -68.3040 -55.8373 74.9877 0.2129 -16.2829
# 5 -22.1747 -13.2506 -4.7799 0.2129 56.9202 -8.9474
# 6 -10.5559 -22.2260 -6.0644 -16.2829 -8.9474 69.9228
#
#
#
# Elastic Compliance Matrix: (Units=1/GPa)
#
#
# Indices 1 2 3 4 5 6 
#
# 1 0.005506 -0.001367 -0.001287 -0.001592 0.001746 0.000138
# 2 -0.001367 0.007496 -0.000917 0.006844 0.001725 0.003911
# 3 -0.001287 -0.000917 0.009114 0.006202 0.000308 0.001788
# 4 -0.001592 0.006844 0.006202 0.025935 0.002791 0.008870
# 5 0.001746 0.001725 0.000308 0.002791 0.019288 0.003957
# 6 0.000138 0.003911 0.001788 0.008870 0.003957 0.018292
#
#
# Mechanical properties :
#
#
# Convention : Reuss Voigt Hill
#
# Bulk Modulus (GPa) = 66.78522 109.78464 88.28493
# Shear Modulus (GPa) = 51.14394 68.24289 59.69341
#
# Velocity S-wave (km/s) = 4.13874 4.78079 4.47131
# Velocity P-wave (km/s) = 6.72359 8.20024 7.49835
#
# Compressibility (1/GPa) = 0.01497337
#
# Stress axis : x y z
#
# Youngs Moduli (GPa) = 181.63387 133.41226 109.72223
#
# Poissons Ratio (x) = 0.18233 0.14125
# Poissons Ratio (y) = 0.24823 0.10061
# Poissons Ratio (z) = 0.23382 0.12233
#
# Static dielectric constant tensor:
#      x y z
#    x 2.552810 0.230280 0.164410 
#    y 0.230280 2.547950 0.222380 
#    z 0.164410 0.222380 2.352860 
# 
# From -- ./inp_files/90893.got.cif
#   From: 2010.05.17/outbox.cif.g08.bks.cpg/sg2_46_cif.got.tgz:90893.got - 2010.06.03 11:33:40.
