data_PCOD9068507
_publ_section_title
;
Structure prediction by ZEFSAII (Michael W. Deem and Ramdas Pophale) SiO2 
 PCOD9068507
Probable space group: P -1
;
_chemical_formula_sum "Si O2"
_cell_formula_units_Z 15
_cell_length_a 9.680868
_cell_length_b 6.961045
_cell_length_c 7.648210
_cell_angle_alpha 73.015484
_cell_angle_beta 72.840338
_cell_angle_gamma 83.127192
_cell_volume 470.666712
_symmetry_space_group_name_H-M "P -1"
_symmetry_group_IT_number 2
_symmetry_cell_setting 'triclinic'
loop_
_space_group_symop_operation_xyz
x,y,z
-x,-y,-z
loop_
_atom_site_type_symbol
_atom_site_label
_atom_site_fract_x
_atom_site_fract_y
_atom_site_fract_z
Si Si1 0.578418 0.618187 0.165805
Si Si2 0.915253 0.083596 0.175462
Si Si3 0.000000 0.000000 0.500000
Si Si4 0.419567 0.255401 0.504438
Si Si5 0.087369 0.355961 0.638406
Si Si6 0.139103 0.429938 0.145808
Si Si7 0.299529 0.041448 0.303702
Si Si8 0.671189 0.196653 0.988139
O O1 0.518718 0.412902 0.325796
O O2 0.533820 0.770737 0.301758
O O3 0.745265 0.586880 0.059442
O O4 0.489037 0.705556 0.006824
O O5 0.939583 0.881265 0.351117
O O6 0.753474 0.121558 0.156122
O O7 0.009950 0.221346 0.223292
O O8 0.000000 0.000000 0.000000
O O9 0.162267 0.907706 0.442567
O O10 0.259044 0.357916 0.580470
O O11 0.396689 0.072037 0.428666
O O12 0.006940 0.415337 0.832047
O O13 0.000000 0.500000 0.500000
O O14 0.770470 0.373789 0.846265
O O15 0.220781 0.260480 0.283319
O O16 0.323476 0.979426 0.110912
#
# Coordination Sequence:
#
# PCOD9068507 Si02
#       8
#     2   2   1   2   2   2   2   2
#     4  11  28  55  82 119 178 236 292 356 435 535
#     4  12  25  48  77 127 171 214 289 361 442 514
#     4  12  24  48  76 122 176 206 280 368 430 520
#     4  11  26  52  82 125 169 230 300 348 442 525
#     4  12  23  49  85 119 173 216 287 369 427 522
#     4  12  26  52  83 119 167 228 290 355 437 521
#     4  12  26  47  85 120 167 227 285 357 440 521
#     4  12  27  52  80 120 173 222 291 363 421 531
#
# _framework density 31.869685
#
# number of rings (size 3 to 8) (size 9 to 14) (size 15 to 20)
#    0.000    0.267    6.667    0.400    1.867    2.667 
#    9.600    0.000    0.000    0.800    0.000    0.000 
#    0.000    0.000    0.000    0.000    0.000    0.000 
#
# Total GULP energy -83528.962713 kJ/mol
# GULP energy per Si atom -5568.597514 kJ/mol
# Density = 3.179715 g / cm^3
# Si number density = 31.869685 Si / 1000 Ang^3
#
#
#
# Elastic Constant Matrix: (Units=GPa)
#
#
# Indices 1 2 3 4 5 6 
#
# 1 257.7592 50.0828 83.3588 11.5498 33.3849 25.1306
# 2 50.0828 211.0075 49.8249 24.0021 -8.5755 8.5775
# 3 83.3588 49.8249 179.4619 12.7462 -5.2878 13.9847
# 4 11.5498 24.0021 12.7462 43.4161 -20.0913 -6.9027
# 5 33.3849 -8.5755 -5.2878 -20.0913 66.7380 3.3744
# 6 25.1306 8.5775 13.9847 -6.9027 3.3744 52.7482
#
#
#
# Elastic Compliance Matrix: (Units=1/GPa)
#
#
# Indices 1 2 3 4 5 6 
#
# 1 0.005468 -0.000569 -0.002151 -0.002514 -0.003632 -0.002039
# 2 -0.000569 0.005442 -0.001003 -0.002601 0.000156 -0.000699
# 3 -0.002151 -0.001003 0.006983 -0.000393 0.001423 -0.000806
# 4 -0.002514 -0.002601 -0.000393 0.030626 0.009854 0.005102
# 5 -0.003632 0.000156 0.001423 0.009854 0.019832 0.001349
# 6 -0.002039 -0.000699 -0.000806 0.005102 0.001349 0.020838
#
#
# Mechanical properties :
#
#
# Convention : Reuss Voigt Hill
#
# Bulk Modulus (GPa) = 95.73029 112.75128 104.24078
# Shear Modulus (GPa) = 49.94206 63.57794 56.76000
#
# Velocity S-wave (km/s) = 3.96292 4.47131 4.22477
# Velocity P-wave (km/s) = 7.14443 7.88115 7.52182
#
# Compressibility (1/GPa) = 0.01044601
#
# Stress axis : x y z
#
# Youngs Moduli (GPa) = 182.89234 183.77025 143.21323
#
# Poissons Ratio (x) = 0.10448 0.30812
# Poissons Ratio (y) = 0.10398 0.14363
# Poissons Ratio (z) = 0.39349 0.18430
#
# Static dielectric constant tensor:
#      x y z
#    x 2.811060 0.165680 -0.020120 
#    y 0.165680 2.459850 0.188650 
#    z -0.020120 0.188650 2.401310 
# 
# From -- ./inp_files/161282.got.cif
#   From: 2010.05.17/outbox.cif.g08.bks.cpg/sg2_81_cif.got.tgz:161282.got - 2010.06.03 11:33:40.
