data_PCOD9068182
_publ_section_title
;
Structure prediction by ZEFSAII (Michael W. Deem and Ramdas Pophale) SiO2 
 PCOD9068182
Probable space group: P -1
;
_chemical_formula_sum "Si O2"
_cell_formula_units_Z 15
_cell_length_a 9.083501
_cell_length_b 11.118104
_cell_length_c 6.545699
_cell_angle_alpha 102.281690
_cell_angle_beta 76.624902
_cell_angle_gamma 87.573987
_cell_volume 625.489451
_symmetry_space_group_name_H-M "P -1"
_symmetry_group_IT_number 2
_symmetry_cell_setting 'triclinic'
loop_
_space_group_symop_operation_xyz
x,y,z
-x,-y,-z
loop_
_atom_site_type_symbol
_atom_site_label
_atom_site_fract_x
_atom_site_fract_y
_atom_site_fract_z
Si Si1 0.971914 0.161738 0.702698
Si Si2 0.340638 0.739316 0.351950
Si Si3 0.056556 0.613146 0.899169
Si Si4 0.679233 0.483686 0.464649
Si Si5 0.844433 0.709071 0.646724
Si Si6 0.422415 0.171171 0.949665
Si Si7 0.347939 0.915699 0.793901
Si Si8 0.000000 0.000000 0.000000
O O1 0.799473 0.183590 0.686690
O O2 0.081380 0.199962 0.499251
O O3 0.983702 0.265526 0.911809
O O4 0.020132 0.035286 0.759043
O O5 0.292136 0.606343 0.382172
O O6 0.495936 0.730111 0.170934
O O7 0.369121 0.815789 0.573893
O O8 0.233665 0.583989 0.778988
O O9 0.974065 0.634752 0.715279
O O10 0.000000 0.500000 0.000000
O O11 0.500000 0.500000 0.500000
O O12 0.750495 0.611840 0.524332
O O13 0.733299 0.782368 0.871619
O O14 0.393058 0.053178 0.778488
O O15 0.542157 0.128796 0.072047
O O16 0.173366 0.933032 0.925200
#
# Coordination Sequence:
#
# PCOD9068182 Si02
#       8
#     2   2   2   2   2   2   2   1
#     4  12  27  48  77 110 151 199 253 315 369 455
#     4  12  26  48  76 107 154 196 252 310 369 449
#     4  12  25  48  75 106 152 199 249 302 379 448
#     4  12  27  45  77 115 149 195 248 309 372 449
#     4  12  27  50  74 114 148 199 249 305 384 447
#     4  11  27  48  75 107 150 198 245 310 378 438
#     4  11  26  48  72 108 149 192 254 307 373 441
#     4  12  26  46  76 108 140 196 254 306 374 436
#
# _framework density 23.981217000000001
#
# number of rings (size 3 to 8) (size 9 to 14) (size 15 to 20)
#    0.000    0.267    4.000    4.000    5.600    6.400 
#    0.000    0.000    0.000    0.000    0.000    0.000 
#    0.000    0.000    0.000    0.000    0.000    0.000 
#
# Total GULP energy -83839.320892 kJ/mol
# GULP energy per Si atom -5589.288059 kJ/mol
# Density = 2.392663 g / cm^3
# Si number density = 23.981217 Si / 1000 Ang^3
#
#
#
# Elastic Constant Matrix: (Units=GPa)
#
#
# Indices 1 2 3 4 5 6 
#
# 1 121.2598 25.9736 52.2695 -11.7499 -17.5418 -15.1177
# 2 25.9736 86.1242 29.3296 -24.8156 0.0915 14.3898
# 3 52.2695 29.3296 91.1102 -20.7346 -21.3065 12.7516
# 4 -11.7499 -24.8156 -20.7346 54.1420 8.3911 -0.5885
# 5 -17.5418 0.0915 -21.3065 8.3911 55.1178 -1.8130
# 6 -15.1177 14.3898 12.7516 -0.5885 -1.8130 38.7452
#
#
#
# Elastic Compliance Matrix: (Units=1/GPa)
#
#
# Indices 1 2 3 4 5 6 
#
# 1 0.013721 -0.003511 -0.008050 -0.001901 0.001858 0.009365
# 2 -0.003511 0.016190 -0.001430 0.006487 -0.002913 -0.006950
# 3 -0.008050 -0.001430 0.019144 0.004229 0.003912 -0.008663
# 4 -0.001901 0.006487 0.004229 0.023010 -0.002626 -0.004316
# 5 0.001858 -0.002913 0.003912 -0.002626 0.020699 0.001448
# 6 0.009365 -0.006950 -0.008663 -0.004316 0.001448 0.034898
#
#
# Mechanical properties :
#
#
# Convention : Reuss Voigt Hill
#
# Bulk Modulus (GPa) = 43.33986 57.07105 50.20545
# Shear Modulus (GPa) = 30.99111 42.32909 36.66010
#
# Velocity S-wave (km/s) = 3.59877 4.20586 3.91410
# Velocity P-wave (km/s) = 5.94809 6.88735 6.43488
#
# Compressibility (1/GPa) = 0.02307345
#
# Stress axis : x y z
#
# Youngs Moduli (GPa) = 72.88050 61.76469 52.23547
#
# Poissons Ratio (x) = 0.21685 0.42051
# Poissons Ratio (y) = 0.25588 0.07469
# Poissons Ratio (z) = 0.58671 0.08832
#
# Static dielectric constant tensor:
#      x y z
#    x 1.878470 0.020620 0.000260 
#    y 0.020620 1.912380 0.013420 
#    z 0.000260 0.013420 1.908960 
# 
# From -- ./inp_files/28178.got.cif
#   From: 2010.05.17/outbox.cif.g08.bks.cpg/sg2_15_cif.got.tgz:28178.got - 2010.06.03 11:33:40.
