data_PCOD9068027
_publ_section_title
;
Structure prediction by ZEFSAII (Michael W. Deem and Ramdas Pophale) SiO2 
 PCOD9068027
Probable space group: P -1
;
_chemical_formula_sum "Si O2"
_cell_formula_units_Z 12
_cell_length_a 8.495787
_cell_length_b 9.879546
_cell_length_c 13.154206
_cell_angle_alpha 113.732302
_cell_angle_beta 116.115858
_cell_angle_gamma 30.488866
_cell_volume 502.343197
_symmetry_space_group_name_H-M "P -1"
_symmetry_group_IT_number 2
_symmetry_cell_setting 'triclinic'
loop_
_space_group_symop_operation_xyz
x,y,z
-x,-y,-z
loop_
_atom_site_type_symbol
_atom_site_label
_atom_site_fract_x
_atom_site_fract_y
_atom_site_fract_z
Si Si1 0.000751 0.639478 0.402289
Si Si2 0.155941 0.891035 0.267426
Si Si3 0.099845 0.619330 0.656152
Si Si4 0.611512 0.151925 0.324021
Si Si5 0.143384 0.753256 0.013232
Si Si6 0.235306 0.258664 0.072693
O O1 0.955022 0.704274 0.527768
O O2 0.362842 0.413462 0.402651
O O3 0.957337 0.493190 0.334858
O O4 0.756646 0.907886 0.349301
O O5 0.522312 0.631193 0.322593
O O6 0.120527 0.792611 0.140233
O O7 0.055345 0.122916 0.266587
O O8 0.912384 0.030546 0.331455
O O9 0.403061 0.248506 0.196983
O O10 0.500000 0.500000 0.000000
O O11 0.957906 0.736235 0.926711
O O12 0.000000 0.000000 0.000000
O O13 0.000000 0.500000 0.000000
O O14 0.500000 0.000000 0.000000
#
# Coordination Sequence:
#
# PCOD9068027 Si02
#       6
#     2   2   2   2   2   2
#     4  11  26  47  71 104 137 185 231 282 350 412
#     4  12  26  45  71 105 139 182 229 290 341 407
#     4  11  26  47  72 101 144 178 230 291 343 408
#     4  12  26  44  74 103 137 186 231 279 348 412
#     4  12  28  46  70 105 138 182 232 283 345 407
#     4  12  26  48  70 100 143 182 224 285 344 412
#
# _framework density 23.888051000000001
#
# number of rings (size 3 to 8) (size 9 to 14) (size 15 to 20)
#    0.000    0.333    1.667    6.000    9.333    6.667 
#    0.000    0.000    0.000    0.000    0.000    0.000 
#    0.000    0.000    0.000    0.000    0.000    0.000 
#
# Total GULP energy -67292.526949 kJ/mol
# GULP energy per Si atom -5607.710579 kJ/mol
# Density = 2.383368 g / cm^3
# Si number density = 23.888051 Si / 1000 Ang^3
#
#
#
# Elastic Constant Matrix: (Units=GPa)
#
#
# Indices 1 2 3 4 5 6 
#
# 1 71.0913 16.5011 3.0965 -10.4790 5.2785 2.4839
# 2 16.5011 176.1640 16.6660 -17.3782 -2.2112 7.0274
# 3 3.0965 16.6660 53.9914 0.7276 0.8263 4.9526
# 4 -10.4790 -17.3782 0.7276 41.5233 -1.3464 -10.1677
# 5 5.2785 -2.2112 0.8263 -1.3464 35.7989 5.1936
# 6 2.4839 7.0274 4.9526 -10.1677 5.1936 48.5576
#
#
#
# Elastic Compliance Matrix: (Units=1/GPa)
#
#
# Indices 1 2 3 4 5 6 
#
# 1 0.014984 -0.001059 -0.000580 0.003372 -0.002191 0.000386
# 2 -0.001059 0.006201 -0.001873 0.002325 0.000705 -0.000241
# 3 -0.000580 -0.001873 0.019346 -0.001771 -0.000251 -0.002016
# 4 0.003372 0.002325 -0.001771 0.027254 -0.000069 0.005386
# 5 -0.002191 0.000705 -0.000251 -0.000069 0.028746 -0.003053
# 6 0.000386 -0.000241 -0.002016 0.005386 -0.003053 0.022269
#
#
# Mechanical properties :
#
#
# Convention : Reuss Voigt Hill
#
# Bulk Modulus (GPa) = 29.84553 41.53043 35.68798
# Shear Modulus (GPa) = 36.49827 42.84151 39.66989
#
# Velocity S-wave (km/s) = 3.91306 4.23948 4.07954
# Velocity P-wave (km/s) = 5.73909 6.43331 6.09609
#
# Compressibility (1/GPa) = 0.03350586
#
# Stress axis : x y z
#
# Youngs Moduli (GPa) = 66.73943 161.27184 51.69126
#
# Poissons Ratio (x) = 0.17078 0.02997
# Poissons Ratio (y) = 0.07067 0.09683
# Poissons Ratio (z) = 0.03870 0.30211
#
# Static dielectric constant tensor:
#      x y z
#    x 1.917470 0.024270 -0.013830 
#    y 0.024270 1.818740 0.001250 
#    z -0.013830 0.001250 1.904410 
# 
# From -- ./inp_files/97390.got.cif
#   From: 2010.05.17/outbox.cif.g08.bks.cpg/sg2_49_cif.got.tgz:97390.got - 2010.06.03 11:33:40.
