data_PCOD9068371
_publ_section_title
;
Structure prediction by ZEFSAII (Michael W. Deem and Ramdas Pophale) SiO2 
 PCOD9068371
Probable space group: P -1
;
_chemical_formula_sum "Si O2"
_cell_formula_units_Z 12
_cell_length_a 7.264015
_cell_length_b 13.757551
_cell_length_c 9.823269
_cell_angle_alpha 150.635145
_cell_angle_beta 95.117577
_cell_angle_gamma 93.483697
_cell_volume 459.788484
_symmetry_space_group_name_H-M "P -1"
_symmetry_group_IT_number 2
_symmetry_cell_setting 'triclinic'
loop_
_space_group_symop_operation_xyz
x,y,z
-x,-y,-z
loop_
_atom_site_type_symbol
_atom_site_label
_atom_site_fract_x
_atom_site_fract_y
_atom_site_fract_z
Si Si1 0.098186 0.076186 0.456354
Si Si2 0.818601 0.024298 0.931323
Si Si3 0.862349 0.359847 0.710658
Si Si4 0.355846 0.450105 0.623800
Si Si5 0.475758 0.764785 0.259149
Si Si6 0.248686 0.564041 0.483546
O O1 0.136837 0.917845 0.154410
O O2 0.304637 0.236415 0.701827
O O3 0.950761 0.168469 0.476251
O O4 0.000000 0.000000 0.500000
O O5 0.687997 0.788653 0.631559
O O6 0.722266 0.190762 0.190698
O O7 0.000000 0.000000 0.000000
O O8 0.652667 0.284243 0.673162
O O9 0.878117 0.472502 0.705527
O O10 0.000000 0.500000 0.000000
O O11 0.208635 0.467480 0.513698
O O12 0.568265 0.506358 0.641196
O O13 0.372733 0.603867 0.939185
O O14 0.500000 0.000000 0.500000
#
# Coordination Sequence:
#
# PCOD9068371 Si02
#       6
#     2   2   2   2   2   2
#     4  12  26  48  76 113 152 210 267 323 399 467
#     4  12  26  48  76 114 158 208 262 329 400 480
#     4  12  26  47  78 116 156 204 266 330 397 481
#     4  11  27  50  79 114 158 208 266 330 403 486
#     4  12  26  50  81 115 160 211 271 333 401 477
#     4  11  26  49  78 113 158 206 263 325 407 477
#
# _framework density 26.098958
#
# number of rings (size 3 to 8) (size 9 to 14) (size 15 to 20)
#    0.000    0.333    3.333    4.500    0.000    9.333 
#    0.000    0.000    0.000    0.000    0.000    0.000 
#    0.000    0.000    0.000    0.000    0.000    0.000 
#
# Total GULP energy -67194.684137 kJ/mol
# GULP energy per Si atom -5599.557011 kJ/mol
# Density = 2.603956 g / cm^3
# Si number density = 26.098958 Si / 1000 Ang^3
#
#
#
# Elastic Constant Matrix: (Units=GPa)
#
#
# Indices 1 2 3 4 5 6 
#
# 1 113.4409 41.4190 13.5906 -25.0032 6.2387 3.8072
# 2 41.4190 159.5743 48.3515 -28.2592 8.1417 -11.7586
# 3 13.5906 48.3515 140.4855 -27.5921 -5.6756 -3.0548
# 4 -25.0032 -28.2592 -27.5921 60.2578 -7.2700 -0.3094
# 5 6.2387 8.1417 -5.6756 -7.2700 39.7892 -3.2907
# 6 3.8072 -11.7586 -3.0548 -0.3094 -3.2907 46.5257
#
#
#
# Elastic Compliance Matrix: (Units=1/GPa)
#
#
# Indices 1 2 3 4 5 6 
#
# 1 0.010429 -0.002306 0.000385 0.003340 -0.000617 -0.001432
# 2 -0.002306 0.008039 -0.002217 0.001672 -0.001128 0.002006
# 3 0.000385 -0.002217 0.008591 0.003324 0.002239 0.000153
# 4 0.003340 0.001672 0.003324 0.020708 0.003454 0.000749
# 5 -0.000617 -0.001128 0.002239 0.003454 0.026560 0.001814
# 6 -0.001432 0.002006 0.000153 0.000749 0.001814 0.022261
#
#
# Mechanical properties :
#
#
# Convention : Reuss Voigt Hill
#
# Bulk Modulus (GPa) = 53.24361 68.91368 61.07864
# Shear Modulus (GPa) = 44.99402 49.99051 47.49227
#
# Velocity S-wave (km/s) = 4.15659 4.38130 4.27042
# Velocity P-wave (km/s) = 6.59403 7.21502 6.91150
#
# Compressibility (1/GPa) = 0.01878160
#
# Stress axis : x y z
#
# Youngs Moduli (GPa) = 95.88359 124.40111 116.40440
#
# Poissons Ratio (x) = 0.28689 -0.04479
# Poissons Ratio (y) = 0.22112 0.25808
# Poissons Ratio (z) = -0.03690 0.27581
#
# Static dielectric constant tensor:
#      x y z
#    x 2.126310 0.004490 -0.032970 
#    y 0.004490 2.134620 0.062540 
#    z -0.032970 0.062540 2.138350 
# 
# From -- ./inp_files/204941.got.cif
#   From: 2010.05.17/outbox.cif.g08.bks.cpg/sg2_103_cif.got.tgz:204941.got - 2010.06.03 11:33:40.
