data_PCOD9068448
_publ_section_title
;
Structure prediction by ZEFSAII (Michael W. Deem and Ramdas Pophale) SiO2 
 PCOD9068448
Probable space group: P -1
;
_chemical_formula_sum "Si O2"
_cell_formula_units_Z 12
_cell_length_a 10.867671
_cell_length_b 5.078448
_cell_length_c 10.767441
_cell_angle_alpha 87.999658
_cell_angle_beta 53.836249
_cell_angle_gamma 98.311902
_cell_volume 469.324783
_symmetry_space_group_name_H-M "P -1"
_symmetry_group_IT_number 2
_symmetry_cell_setting 'triclinic'
loop_
_space_group_symop_operation_xyz
x,y,z
-x,-y,-z
loop_
_atom_site_type_symbol
_atom_site_label
_atom_site_fract_x
_atom_site_fract_y
_atom_site_fract_z
Si Si1 0.537586 0.771150 0.395029
Si Si2 0.839314 0.095078 0.106466
Si Si3 0.132689 0.133773 0.515806
Si Si4 0.719054 0.389540 0.951165
Si Si5 0.935103 0.384244 0.280048
Si Si6 0.406036 0.558604 0.230055
O O1 0.500000 0.500000 0.500000
O O2 0.439244 0.738706 0.328529
O O3 0.500000 0.000000 0.500000
O O4 0.714358 0.858464 0.245754
O O5 0.868270 0.347057 0.181077
O O6 0.769047 0.176482 0.018311
O O7 0.000000 0.000000 0.000000
O O8 0.282502 0.292220 0.349664
O O9 0.335193 0.695497 0.154892
O O10 0.148881 0.882932 0.594759
O O11 0.000000 0.000000 0.500000
O O12 0.570981 0.489489 0.093820
O O13 0.879823 0.608243 0.838717
O O14 0.916128 0.642727 0.367129
#
# Coordination Sequence:
#
# PCOD9068448 Si02
#       6
#     2   2   2   2   2   2
#     4  12  27  52  81 117 160 210 267 329 398 477
#     4  12  27  51  81 117 163 212 269 326 400 480
#     4  12  26  50  79 115 158 207 272 330 395 473
#     4  11  26  50  79 116 164 206 262 326 407 470
#     4  12  26  50  80 115 158 212 271 329 391 479
#     4  11  26  50  81 118 160 207 264 332 404 475
#
# _framework density 25.568646000000001
#
# number of rings (size 3 to 8) (size 9 to 14) (size 15 to 20)
#    0.000    0.333    1.667    6.000    0.000    4.667 
#    0.000    0.000    0.000    0.000    0.000    0.000 
#    0.000    0.000    0.000    0.000    0.000    0.000 
#
# Total GULP energy -67376.745927 kJ/mol
# GULP energy per Si atom -5614.728827 kJ/mol
# Density = 2.551045 g / cm^3
# Si number density = 25.568646 Si / 1000 Ang^3
#
#
#
# Elastic Constant Matrix: (Units=GPa)
#
#
# Indices 1 2 3 4 5 6 
#
# 1 196.5470 79.8738 116.6191 1.1814 11.0618 11.4003
# 2 79.8738 176.9601 94.9396 22.2360 11.6846 7.1516
# 3 116.6191 94.9396 195.7802 -7.2001 0.0099 5.6712
# 4 1.1814 22.2360 -7.2001 33.4473 18.4180 3.7100
# 5 11.0618 11.6846 0.0099 18.4180 76.5504 -2.8468
# 6 11.4003 7.1516 5.6712 3.7100 -2.8468 46.7610
#
#
#
# Elastic Compliance Matrix: (Units=1/GPa)
#
#
# Indices 1 2 3 4 5 6 
#
# 1 0.008299 -0.001437 -0.004185 0.000560 -0.001167 -0.001411
# 2 -0.001437 0.009271 -0.003907 -0.007251 0.000538 0.000014
# 3 -0.004185 -0.003907 0.009669 0.004792 0.000049 0.000068
# 4 0.000560 -0.007251 0.004792 0.041053 -0.008979 -0.003412
# 5 -0.001167 0.000538 0.000049 -0.008979 0.015379 0.001845
# 6 -0.001411 0.000014 0.000068 -0.003412 0.001845 0.022102
#
#
# Mechanical properties :
#
#
# Convention : Reuss Voigt Hill
#
# Bulk Modulus (GPa) = 122.22664 128.01691 125.12177
# Shear Modulus (GPa) = 39.19780 49.87539 44.53660
#
# Velocity S-wave (km/s) = 3.91966 4.42140 4.17807
# Velocity P-wave (km/s) = 8.26995 8.73165 8.50393
#
# Compressibility (1/GPa) = 0.00818152
#
# Stress axis : x y z
#
# Youngs Moduli (GPa) = 120.49398 107.86726 103.41803
#
# Poissons Ratio (x) = 0.15500 0.43282
# Poissons Ratio (y) = 0.17314 0.40403
# Poissons Ratio (z) = 0.50429 0.42142
#
# Static dielectric constant tensor:
#      x y z
#    x 1.998180 0.009340 0.012460 
#    y 0.009340 1.991980 0.010370 
#    z 0.012460 0.010370 2.023440 
# 
# From -- ./inp_files/26216.got.cif
#   From: 2010.05.17/outbox.cif.g08.bks.cpg/sg2_14_cif.got.tgz:26216.got - 2010.06.03 11:33:40.
