data_PCOD9068699
_publ_section_title
;
Structure prediction by ZEFSAII (Michael W. Deem and Ramdas Pophale) SiO2 
 PCOD9068699
Probable space group: P -1
;
_chemical_formula_sum "Si O2"
_cell_formula_units_Z 16
_cell_length_a 11.922568
_cell_length_b 6.788098
_cell_length_c 21.985897
_cell_angle_alpha 77.150806
_cell_angle_beta 35.825161
_cell_angle_gamma 53.891032
_cell_volume 708.082354
_symmetry_space_group_name_H-M "P -1"
_symmetry_group_IT_number 2
_symmetry_cell_setting 'triclinic'
loop_
_space_group_symop_operation_xyz
x,y,z
-x,-y,-z
loop_
_atom_site_type_symbol
_atom_site_label
_atom_site_fract_x
_atom_site_fract_y
_atom_site_fract_z
Si Si1 0.651297 0.064135 0.465298
Si Si2 0.742779 0.353433 0.327920
Si Si3 0.441793 0.563770 0.723870
Si Si4 0.094121 0.568278 0.398162
Si Si5 0.140594 0.783496 0.039237
Si Si6 0.202191 0.323242 0.119471
Si Si7 0.402373 0.215134 0.164935
Si Si8 0.278000 0.402540 0.897333
O O1 0.413439 0.384904 0.574763
O O2 0.835003 0.851575 0.455615
O O3 0.500000 0.000000 0.500000
O O4 0.825845 0.083099 0.343498
O O5 0.539908 0.446881 0.355771
O O6 0.987055 0.309263 0.198144
O O7 0.703753 0.432726 0.655861
O O8 0.391771 0.377843 0.783695
O O9 0.166970 0.901145 0.836928
O O10 0.274432 0.340420 0.279255
O O11 0.000000 0.500000 0.500000
O O12 0.171547 0.558178 0.081917
O O13 0.362899 0.794038 0.951153
O O14 0.207502 0.650629 0.951575
O O15 0.183612 0.386707 0.195141
O O16 0.500000 0.000000 0.000000
O O17 0.528867 0.895749 0.131389
O O18 0.000000 0.500000 0.000000
#
# Coordination Sequence:
#
# PCOD9068699 Si02
#       8
#     2   2   2   2   2   2   2   2
#     4  11  27  55  78 104 147 197 256 311 371 429
#     4  11  28  49  77 107 147 200 247 310 372 434
#     4  12  26  46  75 110 148 195 245 303 374 448
#     4  12  29  47  77 108 145 196 255 308 365 441
#     4  12  25  47  72 109 156 198 240 303 383 451
#     4  12  26  45  77 113 152 194 249 304 379 455
#     4  12  26  46  72 109 151 198 249 312 371 446
#     4  12  23  44  70 104 153 193 238 297 377 448
#
# _framework density 22.596242
#
# number of rings (size 3 to 8) (size 9 to 14) (size 15 to 20)
#    0.000    0.250    3.750    4.500   10.500    1.500 
#    0.000    0.000    0.000    0.000    0.000    0.000 
#    0.000    0.000    0.000    0.000    0.000    0.000 
#
# Total GULP energy -89478.881941 kJ/mol
# GULP energy per Si atom -5592.430121 kJ/mol
# Density = 2.254481 g / cm^3
# Si number density = 22.596242 Si / 1000 Ang^3
#
#
#
# Elastic Constant Matrix: (Units=GPa)
#
#
# Indices 1 2 3 4 5 6 
#
# 1 139.4461 34.5687 22.3927 -16.5849 2.6379 -10.9922
# 2 34.5687 131.4521 39.0367 -26.8297 -2.1939 -16.9271
# 3 22.3927 39.0367 88.0791 -24.3355 -7.8801 -7.4454
# 4 -16.5849 -26.8297 -24.3355 31.4348 -10.1148 15.3463
# 5 2.6379 -2.1939 -7.8801 -10.1148 39.8473 -2.3027
# 6 -10.9922 -16.9271 -7.4454 15.3463 -2.3027 44.7638
#
#
#
# Elastic Compliance Matrix: (Units=1/GPa)
#
#
# Indices 1 2 3 4 5 6 
#
# 1 0.007932 -0.001353 -0.000823 0.002036 -0.000211 0.000590
# 2 -0.001353 0.010046 -0.002100 0.006335 0.001896 0.001043
# 3 -0.000823 -0.002100 0.016815 0.014304 0.006736 -0.002757
# 4 0.002036 0.006335 0.014304 0.062632 0.018059 -0.015268
# 5 -0.000211 0.001896 0.006736 0.018059 0.030968 -0.002813
# 6 0.000590 0.001043 -0.002757 -0.015268 -0.002813 0.027510
#
#
# Mechanical properties :
#
#
# Convention : Reuss Voigt Hill
#
# Bulk Modulus (GPa) = 38.11047 61.21928 49.66488
# Shear Modulus (GPa) = 28.86814 40.74111 34.80462
#
# Velocity S-wave (km/s) = 3.57818 4.25079 3.92890
# Velocity P-wave (km/s) = 5.82869 7.15847 6.52753
#
# Compressibility (1/GPa) = 0.02623951
#
# Stress axis : x y z
#
# Youngs Moduli (GPa) = 126.07812 99.54365 59.47014
#
# Poissons Ratio (x) = 0.13471 0.04895
# Poissons Ratio (y) = 0.17062 0.12490
# Poissons Ratio (z) = 0.10377 0.20906
#
# Static dielectric constant tensor:
#      x y z
#    x 1.869560 -0.011830 0.012450 
#    y -0.011830 1.890190 -0.003290 
#    z 0.012450 -0.003290 1.894840 
# 
# From -- ./inp_files/609159.got.cif
#   From: 2010.05.17/outbox.cif.g08.bks.cpg/sg2_305_cif.got.tgz:609159.got - 2010.06.03 11:33:40.
