data_PCOD9068282
_publ_section_title
;
Structure prediction by ZEFSAII (Michael W. Deem and Ramdas Pophale) SiO2 
 PCOD9068282
Probable space group: P -1
;
_chemical_formula_sum "Si O2"
_cell_formula_units_Z 13
_cell_length_a 17.788481
_cell_length_b 5.158201
_cell_length_c 8.025011
_cell_angle_alpha 83.160099
_cell_angle_beta 50.007292
_cell_angle_gamma 106.483590
_cell_volume 493.309372
_symmetry_space_group_name_H-M "P -1"
_symmetry_group_IT_number 2
_symmetry_cell_setting 'triclinic'
loop_
_space_group_symop_operation_xyz
x,y,z
-x,-y,-z
loop_
_atom_site_type_symbol
_atom_site_label
_atom_site_fract_x
_atom_site_fract_y
_atom_site_fract_z
Si Si1 0.369069 0.228149 0.002286
Si Si2 0.929806 0.673429 0.558366
Si Si3 0.800443 0.280020 0.512630
Si Si4 0.679722 0.824619 0.305009
Si Si5 0.190809 0.492899 0.943343
Si Si6 0.595085 0.382221 0.758853
Si Si7 0.000000 0.500000 0.000000
O O1 0.392569 0.486738 0.082670
O O2 0.249443 0.965370 0.252866
O O3 0.374395 0.286157 0.793246
O O4 0.468494 0.149939 0.911247
O O5 0.887979 0.604701 0.434673
O O6 0.000000 0.500000 0.500000
O O7 0.821694 0.541899 0.838150
O O8 0.000000 0.000000 0.500000
O O9 0.693264 0.299022 0.598978
O O10 0.879125 0.238376 0.272626
O O11 0.783979 0.758622 0.145752
O O12 0.617204 0.643541 0.571740
O O13 0.715166 0.169082 0.240044
O O14 0.073966 0.440281 0.039438
#
# Coordination Sequence:
#
# PCOD9068282 Si02
#       7
#     2   2   2   2   2   2   1
#     4  11  26  50  77 114 151 207 262 325 391 462
#     4  12  26  44  72 103 147 204 254 309 377 457
#     4  12  25  49  74 108 158 202 257 324 387 466
#     4  12  26  50  78 115 155 201 258 323 392 461
#     4  12  26  46  73 110 155 202 253 316 389 464
#     4  11  26  48  80 111 154 204 263 324 390 466
#     4  12  26  44  72 110 152 206 250 322 380 462
#
# _framework density 26.352633999999998
#
# number of rings (size 3 to 8) (size 9 to 14) (size 15 to 20)
#    0.000    0.308    4.615    3.692    2.154    1.846 
#    0.000    1.538    0.000    0.000    0.000    0.000 
#    0.000    0.000    0.000    0.000    0.000    0.000 
#
# Total GULP energy -72519.607128 kJ/mol
# GULP energy per Si atom -5578.431318 kJ/mol
# Density = 2.629265 g / cm^3
# Si number density = 26.352634 Si / 1000 Ang^3
#
#
#
# Elastic Constant Matrix: (Units=GPa)
#
#
# Indices 1 2 3 4 5 6 
#
# 1 131.8600 29.1254 28.2016 11.8386 -3.5997 15.9004
# 2 29.1254 127.3207 17.0866 3.8932 7.1546 10.6833
# 3 28.2016 17.0866 83.5893 -7.5386 -9.7226 -1.6671
# 4 11.8386 3.8932 -7.5386 37.5192 1.1276 5.3955
# 5 -3.5997 7.1546 -9.7226 1.1276 50.8068 4.2934
# 6 15.9004 10.6833 -1.6671 5.3955 4.2934 35.7832
#
#
#
# Elastic Compliance Matrix: (Units=1/GPa)
#
#
# Indices 1 2 3 4 5 6 
#
# 1 0.009245 -0.001351 -0.003105 -0.002918 0.000610 -0.003482
# 2 -0.001351 0.008618 -0.001553 -0.000478 -0.001444 -0.001800
# 3 -0.003105 -0.001553 0.013974 0.003637 0.002453 0.001651
# 4 -0.002918 -0.000478 0.003637 0.028744 0.000150 -0.002743
# 5 0.000610 -0.001444 0.002453 0.000150 0.020582 -0.002218
# 6 -0.003482 -0.001800 0.001651 -0.002743 -0.002218 0.030788
#
#
# Mechanical properties :
#
#
# Convention : Reuss Voigt Hill
#
# Bulk Modulus (GPa) = 50.45208 54.62192 52.53700
# Shear Modulus (GPa) = 38.29208 42.71228 40.50218
#
# Velocity S-wave (km/s) = 3.81604 4.03028 3.92462
# Velocity P-wave (km/s) = 6.21312 6.51382 6.36524
#
# Compressibility (1/GPa) = 0.01982079
#
# Stress axis : x y z
#
# Youngs Moduli (GPa) = 108.16914 116.03104 71.55979
#
# Poissons Ratio (x) = 0.15676 0.22216
# Poissons Ratio (y) = 0.14614 0.11112
# Poissons Ratio (z) = 0.33581 0.18017
#
# Static dielectric constant tensor:
#      x y z
#    x 2.302180 -0.060960 0.120410 
#    y -0.060960 2.069620 0.046870 
#    z 0.120410 0.046870 2.153350 
# 
# From -- ./inp_files/105298.got.cif
#   From: 2010.05.17/outbox.cif.g08.bks.cpg/sg2_53_cif.got.tgz:105298.got - 2010.06.03 11:33:40.
