data_PCOD9068930
_publ_section_title
;
Structure prediction by ZEFSAII (Michael W. Deem and Ramdas Pophale) SiO2 
 PCOD9068930
Probable space group: P -1
;
_chemical_formula_sum "Si O2"
_cell_formula_units_Z 14
_cell_length_a 11.093295
_cell_length_b 11.417990
_cell_length_c 9.302688
_cell_angle_alpha 92.548758
_cell_angle_beta 137.392628
_cell_angle_gamma 60.267032
_cell_volume 580.610980
_symmetry_space_group_name_H-M "P -1"
_symmetry_group_IT_number 2
_symmetry_cell_setting 'triclinic'
loop_
_space_group_symop_operation_xyz
x,y,z
-x,-y,-z
loop_
_atom_site_type_symbol
_atom_site_label
_atom_site_fract_x
_atom_site_fract_y
_atom_site_fract_z
Si Si1 0.788979 0.376155 0.251283
Si Si2 0.382714 0.723117 0.488120
Si Si3 0.895600 0.485608 0.096679
Si Si4 0.063934 0.672466 0.286568
Si Si5 0.605280 0.830910 0.516149
Si Si6 0.478457 0.010943 0.151612
Si Si7 0.917178 0.979904 0.575457
O O1 0.874256 0.339906 0.489534
O O2 0.863394 0.455422 0.229349
O O3 0.901222 0.211551 0.259453
O O4 0.500000 0.500000 0.000000
O O5 0.273353 0.641394 0.376051
O O6 0.462810 0.778915 0.438815
O O7 0.139212 0.893979 0.353835
O O8 0.628222 0.605639 0.796029
O O9 0.021516 0.555462 0.211430
O O10 0.107521 0.309539 0.203273
O O11 0.797824 0.846558 0.039806
O O12 0.500000 0.000000 0.500000
O O13 0.579762 0.856891 0.323058
O O14 0.649588 0.042598 0.341382
O O15 0.500000 0.000000 0.000000
O O16 0.000000 0.000000 0.500000
#
# Coordination Sequence:
#
# PCOD9068930 Si02
#       7
#     2   2   2   2   2   2   2
#     4  12  23  42  72 108 142 190 242 295 362 425
#     4  12  25  46  72 103 145 192 242 292 362 432
#     4  12  24  46  71 103 144 189 239 300 358 430
#     4  12  25  43  67 104 147 186 236 301 362 419
#     4  12  25  48  75 104 141 197 240 293 368 434
#     4  12  23  44  72 106 143 184 242 295 357 425
#     4  12  21  43  73 104 143 188 236 293 356 422
#
# _framework density 24.112531000000001
#
# number of rings (size 3 to 8) (size 9 to 14) (size 15 to 20)
#    0.000    0.000    8.571    0.857    0.000    1.143 
#    2.571    0.000    0.000    0.000    0.000    0.000 
#    0.000    0.000    0.000    0.000    0.000    0.000 
#
# Total GULP energy -78301.336051 kJ/mol
# GULP energy per Si atom -5592.952575 kJ/mol
# Density = 2.405765 g / cm^3
# Si number density = 24.112531 Si / 1000 Ang^3
#
#
#
# Elastic Constant Matrix: (Units=GPa)
#
#
# Indices 1 2 3 4 5 6 
#
# 1 189.2451 37.3449 50.8991 3.1457 5.5604 44.8378
# 2 37.3449 88.4394 62.9725 -11.8290 22.5403 18.1844
# 3 50.8991 62.9725 146.0683 -23.4716 27.6754 8.5452
# 4 3.1457 -11.8290 -23.4716 25.3275 3.1861 12.1730
# 5 5.5604 22.5403 27.6754 3.1861 59.3251 0.1659
# 6 44.8378 18.1844 8.5452 12.1730 0.1659 55.7542
#
#
#
# Elastic Compliance Matrix: (Units=1/GPa)
#
#
# Indices 1 2 3 4 5 6 
#
# 1 0.007200 -0.000773 -0.002167 -0.000947 0.000694 -0.005001
# 2 -0.000773 0.019142 -0.005386 0.007802 -0.005089 -0.006485
# 3 -0.002167 -0.005386 0.012315 0.009934 -0.004027 -0.000545
# 4 -0.000947 0.007802 0.009934 0.061873 -0.010786 -0.016783
# 5 0.000694 -0.005089 -0.004027 -0.010786 0.021171 0.004010
# 6 -0.005001 -0.006485 -0.000545 -0.016783 0.004010 0.027809
#
#
# Mechanical properties :
#
#
# Convention : Reuss Voigt Hill
#
# Bulk Modulus (GPa) = 45.44356 80.68729 63.06543
# Shear Modulus (GPa) = 28.81901 46.25043 37.53472
#
# Velocity S-wave (km/s) = 3.46090 4.38437 3.94972
# Velocity P-wave (km/s) = 5.90405 7.69193 6.85651
#
# Compressibility (1/GPa) = 0.02200532
#
# Stress axis : x y z
#
# Youngs Moduli (GPa) = 138.89477 52.23994 81.20482
#
# Poissons Ratio (x) = 0.04036 0.17596
# Poissons Ratio (y) = 0.10730 0.43739
# Poissons Ratio (z) = 0.30097 0.28138
#
# Static dielectric constant tensor:
#      x y z
#    x 1.946290 -0.075200 -0.042190 
#    y -0.075200 2.328450 0.040170 
#    z -0.042190 0.040170 1.911610 
# 
# From -- ./inp_files/425828.got.cif
#   From: 2010.05.17/outbox.cif.g08.bks.cpg/sg2_213_cif.got.tgz:425828.got - 2010.06.03 11:33:40.
