data_PCOD9068909
_publ_section_title
;
Structure prediction by ZEFSAII (Michael W. Deem and Ramdas Pophale) SiO2 
 PCOD9068909
Probable space group: P -1
;
_chemical_formula_sum "Si O2"
_cell_formula_units_Z 16
_cell_length_a 14.440468
_cell_length_b 22.883975
_cell_length_c 9.025036
_cell_angle_alpha 126.624815
_cell_angle_beta 30.818419
_cell_angle_gamma 146.405424
_cell_volume 767.621529
_symmetry_space_group_name_H-M "P -1"
_symmetry_group_IT_number 2
_symmetry_cell_setting 'triclinic'
loop_
_space_group_symop_operation_xyz
x,y,z
-x,-y,-z
loop_
_atom_site_type_symbol
_atom_site_label
_atom_site_fract_x
_atom_site_fract_y
_atom_site_fract_z
Si Si1 0.888766 0.298666 0.165016
Si Si2 0.751947 0.874555 0.225086
Si Si3 0.255828 0.288015 0.503842
Si Si4 0.252455 0.286742 0.150085
Si Si5 0.751691 0.871744 0.577541
Si Si6 0.117388 0.461846 0.350640
Si Si7 0.872448 0.530463 0.142479
Si Si8 0.112650 0.695689 0.307442
O O1 0.555591 0.188128 0.495224
O O2 0.081732 0.384507 0.167293
O O3 0.014616 0.268600 0.863058
O O4 0.913617 0.375295 0.136155
O O5 0.769927 0.879795 0.386738
O O6 0.766953 0.797254 0.026779
O O7 0.000000 0.000000 0.000000
O O8 0.255114 0.278147 0.312461
O O9 0.217005 0.199531 0.507384
O O10 0.562429 0.418014 0.329498
O O11 0.990031 0.257982 0.427802
O O12 0.549521 0.418870 0.891587
O O13 0.431198 0.796145 0.954055
O O14 0.000000 0.000000 0.500000
O O15 0.000000 0.500000 0.500000
O O16 0.922715 0.376270 0.626611
O O17 0.883009 0.598065 0.350464
O O18 0.000000 0.500000 0.000000
#
# Coordination Sequence:
#
# PCOD9068909 Si02
#       8
#     2   2   2   2   2   2   2   2
#     4  12  24  44  70 103 141 178 226 271 345 408
#     4  12  28  48  71  98 134 179 232 287 335 397
#     4  12  24  44  73 102 139 182 221 277 339 414
#     4  12  25  45  70 104 141 178 222 280 344 401
#     4  12  28  49  71  97 131 184 235 280 336 401
#     4  12  24  40  70 109 144 177 216 281 344 407
#     4  12  21  41  72 104 137 178 221 270 338 413
#     4  12  26  44  70 102 143 179 226 278 338 412
#
# _framework density 20.843606000000001
#
# number of rings (size 3 to 8) (size 9 to 14) (size 15 to 20)
#    0.000    0.000    6.250    3.750    5.250    1.000 
#    0.000    3.750    0.000    0.000    0.000    0.000 
#    0.000    0.000    0.000    0.000    0.000    0.000 
#
# Total GULP energy -89584.488440 kJ/mol
# GULP energy per Si atom -5599.030527 kJ/mol
# Density = 2.079617 g / cm^3
# Si number density = 20.843606 Si / 1000 Ang^3
#
#
#
# Elastic Constant Matrix: (Units=GPa)
#
#
# Indices 1 2 3 4 5 6 
#
# 1 78.8768 36.2580 50.7554 -8.9298 6.0298 -2.8832
# 2 36.2580 134.2422 87.8247 -13.4908 -1.6150 18.5149
# 3 50.7554 87.8247 164.3968 -4.9861 -4.4424 -10.2372
# 4 -8.9298 -13.4908 -4.9861 40.7400 -6.2482 12.7646
# 5 6.0298 -1.6150 -4.4424 -6.2482 38.5801 7.6704
# 6 -2.8832 18.5149 -10.2372 12.7646 7.6704 26.8677
#
#
#
# Elastic Compliance Matrix: (Units=1/GPa)
#
#
# Indices 1 2 3 4 5 6 
#
# 1 0.016665 -0.002135 -0.003924 0.001289 -0.003357 0.002110
# 2 -0.002135 0.021722 -0.012090 0.015826 0.008319 -0.029698
# 3 -0.003924 -0.012090 0.014551 -0.009588 -0.003552 0.019023
# 4 0.001289 0.015826 -0.009588 0.043288 0.014125 -0.039019
# 5 -0.003357 0.008319 -0.003552 0.014125 0.033381 -0.023687
# 6 0.002110 -0.029698 0.019023 -0.039019 -0.023687 0.090459
#
#
# Mechanical properties :
#
#
# Convention : Reuss Voigt Hill
#
# Bulk Modulus (GPa) = 60.10184 80.79913 70.45048
# Shear Modulus (GPa) = 19.09052 34.74940 26.91996
#
# Velocity S-wave (km/s) = 3.02966 4.08750 3.59767
# Velocity P-wave (km/s) = 6.41371 7.81828 7.15057
#
# Compressibility (1/GPa) = 0.01663843
#
# Stress axis : x y z
#
# Youngs Moduli (GPa) = 60.00764 46.03651 68.72470
#
# Poissons Ratio (x) = 0.09831 0.26970
# Poissons Ratio (y) = 0.12815 0.83085
# Poissons Ratio (z) = 0.23549 0.55656
#
# Static dielectric constant tensor:
#      x y z
#    x 1.780860 0.025060 0.013550 
#    y 0.025060 1.729020 0.029300 
#    z 0.013550 0.029300 1.752680 
# 
# From -- ./inp_files/184809.got.cif
#   From: 2010.05.17/outbox.cif.g08.bks.cpg/sg2_93_cif.got.tgz:184809.got - 2010.06.03 11:33:40.
