data_PCOD9068836
_publ_section_title
;
Structure prediction by ZEFSAII (Michael W. Deem and Ramdas Pophale) SiO2 
 PCOD9068836
Probable space group: P -1
;
_chemical_formula_sum "Si O2"
_cell_formula_units_Z 12
_cell_length_a 12.268864
_cell_length_b 7.878022
_cell_length_c 13.310178
_cell_angle_alpha 120.254561
_cell_angle_beta 135.533525
_cell_angle_gamma 36.818648
_cell_volume 533.038517
_symmetry_space_group_name_H-M "P -1"
_symmetry_group_IT_number 2
_symmetry_cell_setting 'triclinic'
loop_
_space_group_symop_operation_xyz
x,y,z
-x,-y,-z
loop_
_atom_site_type_symbol
_atom_site_label
_atom_site_fract_x
_atom_site_fract_y
_atom_site_fract_z
Si Si1 0.173465 0.742221 0.818577
Si Si2 0.948631 0.771851 0.020254
Si Si3 0.126072 0.346090 0.429896
Si Si4 0.647138 0.566700 0.946936
Si Si5 0.739696 0.861504 0.216859
Si Si6 0.470794 0.169954 0.738507
O O1 0.327099 0.501701 0.761742
O O2 0.952627 0.801251 0.695692
O O3 0.312746 0.576999 0.964256
O O4 0.116047 0.024563 0.869341
O O5 0.736593 0.960715 0.860644
O O6 0.000000 0.500000 0.000000
O O7 0.167147 0.668018 0.081197
O O8 0.382851 0.151985 0.573200
O O9 0.000000 0.500000 0.500000
O O10 0.000465 0.611390 0.350160
O O11 0.399319 0.819596 0.811332
O O12 0.718634 0.724158 0.072266
O O13 0.599841 0.898750 0.231514
#
# Coordination Sequence:
#
# PCOD9068836 Si02
#       6
#     2   2   2   2   2   2
#     4   9  19  34  52  74  95 136 167 192 240 303
#     4  12  21  30  48  81 105 121 160 214 251 272
#     4   7  14  30  55  71  92 130 171 194 232 297
#     4   9  17  30  50  72 101 126 165 199 241 292
#     4   8  14  30  51  72  90 133 166 192 236 294
#     4   9  17  33  53  75  99 127 162 207 245 285
#
# _framework density 22.512443999999999
#
# number of rings (size 3 to 8) (size 9 to 14) (size 15 to 20)
#    0.000    3.667    1.667    1.000    0.000    0.000 
#    0.000    4.167    0.000    1.000    0.000    1.167 
#    0.000    0.000    0.000    0.000    0.000    0.000 
#
# Total GULP energy -66861.383491 kJ/mol
# GULP energy per Si atom -5571.781958 kJ/mol
# Density = 2.246120 g / cm^3
# Si number density = 22.512444 Si / 1000 Ang^3
#
#
#
# Elastic Constant Matrix: (Units=GPa)
#
#
# Indices 1 2 3 4 5 6 
#
# 1 55.4986 29.7019 10.6733 8.6189 -4.6385 6.4846
# 2 29.7019 117.1712 54.9839 -0.7565 8.2365 17.0412
# 3 10.6733 54.9839 142.3537 -17.0637 14.4733 11.8036
# 4 8.6189 -0.7565 -17.0637 27.5057 -1.1646 5.9129
# 5 -4.6385 8.2365 14.4733 -1.1646 26.1613 5.3349
# 6 6.4846 17.0412 11.8036 5.9129 5.3349 30.7475
#
#
#
# Elastic Compliance Matrix: (Units=1/GPa)
#
#
# Indices 1 2 3 4 5 6 
#
# 1 0.023089 -0.005748 -0.000975 -0.007525 0.006303 -0.000956
# 2 -0.005748 0.012500 -0.003791 0.000573 -0.002012 -0.004022
# 3 -0.000975 -0.003791 0.009916 0.006653 -0.003734 -0.002132
# 4 -0.007525 0.000573 0.006653 0.044892 -0.001217 -0.009706
# 5 0.006303 -0.002012 -0.003734 -0.001217 0.043220 -0.006045
# 6 -0.000956 -0.004022 -0.002132 -0.009706 -0.006045 0.038687
#
#
# Mechanical properties :
#
#
# Convention : Reuss Voigt Hill
#
# Bulk Modulus (GPa) = 40.85144 56.19352 48.52248
# Shear Modulus (GPa) = 24.81497 31.52720 28.17109
#
# Velocity S-wave (km/s) = 3.32366 3.74630 3.54129
# Velocity P-wave (km/s) = 5.73712 6.61274 6.19043
#
# Compressibility (1/GPa) = 0.02447894
#
# Stress axis : x y z
#
# Youngs Moduli (GPa) = 43.30986 79.99685 100.84914
#
# Poissons Ratio (x) = 0.45984 0.09828
# Poissons Ratio (y) = 0.24896 0.38228
# Poissons Ratio (z) = 0.04221 0.30324
#
# Static dielectric constant tensor:
#      x y z
#    x 1.974030 -0.002720 0.082570 
#    y -0.002720 1.917210 -0.023730 
#    z 0.082570 -0.023730 1.878510 
# 
# From -- ./inp_files/221165.got.cif
#   From: 2010.05.17/outbox.cif.g08.bks.cpg/sg2_111_cif.got.tgz:221165.got - 2010.06.03 11:33:40.
