data_PCOD9068619
_publ_section_title
;
Structure prediction by ZEFSAII (Michael W. Deem and Ramdas Pophale) SiO2 
 PCOD9068619
Probable space group: P -1
;
_chemical_formula_sum "Si O2"
_cell_formula_units_Z 16
_cell_length_a 12.474788
_cell_length_b 11.154253
_cell_length_c 8.052024
_cell_angle_alpha 99.130917
_cell_angle_beta 87.682372
_cell_angle_gamma 145.238645
_cell_volume 622.619850
_symmetry_space_group_name_H-M "P -1"
_symmetry_group_IT_number 2
_symmetry_cell_setting 'triclinic'
loop_
_space_group_symop_operation_xyz
x,y,z
-x,-y,-z
loop_
_atom_site_type_symbol
_atom_site_label
_atom_site_fract_x
_atom_site_fract_y
_atom_site_fract_z
Si Si1 0.983128 0.429755 0.304839
Si Si2 0.583385 0.821679 0.757538
Si Si3 0.134755 0.340745 0.122917
Si Si4 0.457559 0.971781 0.696560
Si Si5 0.023470 0.711072 0.217800
Si Si6 0.534038 0.758481 0.140597
Si Si7 0.097232 0.018874 0.728875
Si Si8 0.776660 0.643324 0.407323
O O1 0.756132 0.205991 0.256647
O O2 0.000000 0.500000 0.500000
O O3 0.085014 0.396631 0.274972
O O4 0.068157 0.611720 0.217438
O O5 0.518153 0.900265 0.753163
O O6 0.445521 0.598873 0.620495
O O7 0.797829 0.031230 0.722956
O O8 0.576856 0.789553 0.948283
O O9 0.353029 0.506087 0.140512
O O10 0.992216 0.098651 0.115285
O O11 0.074419 0.353299 0.963449
O O12 0.500000 0.000000 0.500000
O O13 0.544122 0.180162 0.797540
O O14 0.872790 0.606424 0.343092
O O15 0.717890 0.896902 0.269724
O O16 0.184183 0.229510 0.721776
O O17 0.909810 0.822033 0.582111
#
# Coordination Sequence:
#
# PCOD9068619 Si02
#       8
#     2   2   2   2   2   2   2   2
#     4  12  23  42  67 103 147 182 227 283 352 422
#     4  12  25  46  71 106 143 184 231 286 352 417
#     4  12  24  44  71 104 141 184 229 292 349 413
#     4  12  25  40  71 109 143 184 227 282 347 427
#     4  12  24  44  71 104 141 184 229 292 349 413
#     4  12  25  46  71 106 143 184 231 286 352 417
#     4  11  27  49  72 100 139 185 238 296 351 412
#     4  11  27  49  72 100 139 185 238 296 351 412
#
# _framework density 25.697862000000001
#
# number of rings (size 3 to 8) (size 9 to 14) (size 15 to 20)
#    0.000    0.250    5.000    3.750    3.500    2.000 
#    0.000    2.500    0.000    0.000    0.000    0.000 
#    0.000    0.000    0.000    0.000    0.000    0.000 
#
# Total GULP energy -89488.766871 kJ/mol
# GULP energy per Si atom -5593.047929 kJ/mol
# Density = 2.563937 g / cm^3
# Si number density = 25.697862 Si / 1000 Ang^3
#
#
#
# Elastic Constant Matrix: (Units=GPa)
#
#
# Indices 1 2 3 4 5 6 
#
# 1 51.2668 31.2716 22.9595 3.7370 3.1845 -15.0048
# 2 31.2716 161.8982 18.4346 12.0496 15.8493 20.3143
# 3 22.9595 18.4346 85.7357 2.7598 3.9195 -1.4776
# 4 3.7370 12.0496 2.7598 38.1553 3.2214 4.3982
# 5 3.1845 15.8493 3.9195 3.2214 23.8002 6.0584
# 6 -15.0048 20.3143 -1.4776 4.3982 6.0584 46.6546
#
#
#
# Elastic Compliance Matrix: (Units=1/GPa)
#
#
# Indices 1 2 3 4 5 6 
#
# 1 0.030213 -0.006403 -0.006359 -0.001795 -0.001720 0.012696
# 2 -0.006403 0.008479 -0.000010 -0.001170 -0.003303 -0.005212
# 3 -0.006359 -0.000010 0.013390 -0.000091 -0.000958 -0.001484
# 4 -0.001795 -0.001170 -0.000091 0.027206 -0.002045 -0.002370
# 5 -0.001720 -0.003303 -0.000958 -0.002045 0.046139 -0.004944
# 6 0.012696 -0.005212 -0.001484 -0.002370 -0.004944 0.028605
#
#
# Mechanical properties :
#
#
# Convention : Reuss Voigt Hill
#
# Bulk Modulus (GPa) = 37.68031 49.35911 43.51971
# Shear Modulus (GPa) = 26.53632 36.80436 31.67034
#
# Velocity S-wave (km/s) = 3.21694 3.78854 3.51438
# Velocity P-wave (km/s) = 5.33787 6.19569 5.78271
#
# Compressibility (1/GPa) = 0.02653906
#
# Stress axis : x y z
#
# Youngs Moduli (GPa) = 33.09872 117.93854 74.68359
#
# Poissons Ratio (x) = 0.75513 0.47490
# Poissons Ratio (y) = 0.21192 0.00072
# Poissons Ratio (z) = 0.21047 0.00114
#
# Static dielectric constant tensor:
#      x y z
#    x 1.990570 -0.004130 -0.012190 
#    y -0.004130 2.008140 -0.002280 
#    z -0.012190 -0.002280 2.048220 
# 
# From -- ./inp_files/307597.got.cif
#   From: 2010.05.17/outbox.cif.g08.bks.cpg/sg2_154_cif.got.tgz:307597.got - 2010.06.03 11:33:40.
