data_PCOD9068827
_publ_section_title
;
Structure prediction by ZEFSAII (Michael W. Deem and Ramdas Pophale) SiO2 
 PCOD9068827
Probable space group: P -1
;
_chemical_formula_sum "Si O2"
_cell_formula_units_Z 16
_cell_length_a 11.560512
_cell_length_b 10.126978
_cell_length_c 10.103421
_cell_angle_alpha 43.409872
_cell_angle_beta 97.701276
_cell_angle_gamma 100.591518
_cell_volume 799.012228
_symmetry_space_group_name_H-M "P -1"
_symmetry_group_IT_number 2
_symmetry_cell_setting 'triclinic'
loop_
_space_group_symop_operation_xyz
x,y,z
-x,-y,-z
loop_
_atom_site_type_symbol
_atom_site_label
_atom_site_fract_x
_atom_site_fract_y
_atom_site_fract_z
Si Si1 0.973227 0.266528 0.659263
Si Si2 0.219232 0.291746 0.788053
Si Si3 0.735521 0.653110 0.738371
Si Si4 0.634627 0.035640 0.540230
Si Si5 0.000636 0.218604 0.390436
Si Si6 0.220734 0.579751 0.828178
Si Si7 0.371090 0.524327 0.412467
Si Si8 0.710116 0.087816 0.817583
O O1 0.847070 0.181761 0.758280
O O2 0.000000 0.500000 0.500000
O O3 0.087280 0.201847 0.793808
O O4 0.971554 0.209292 0.547643
O O5 0.209771 0.425988 0.817724
O O6 0.279209 0.419194 0.583362
O O7 0.292254 0.116677 0.961268
O O8 0.869109 0.675982 0.690101
O O9 0.654258 0.569515 0.666266
O O10 0.700864 0.860131 0.625899
O O11 0.731633 0.517284 0.964924
O O12 0.692467 0.235795 0.340262
O O13 0.655455 0.053314 0.687933
O O14 0.500000 0.000000 0.500000
O O15 0.903448 0.338769 0.224395
O O16 0.000000 0.000000 0.500000
O O17 0.500000 0.500000 0.500000
O O18 0.354323 0.749659 0.240219
#
# Coordination Sequence:
#
# PCOD9068827 Si02
#       8
#     2   2   2   2   2   2   2   2
#     4  12  20  43  72  97 134 183 218 273 342 408
#     4  12  25  44  75 100 133 184 227 273 341 410
#     4  12  26  44  70 104 136 177 223 283 346 391
#     4  12  25  45  70  97 134 182 231 276 328 403
#     4  12  22  41  69  99 142 172 213 281 352 394
#     4  12  25  45  72 102 136 179 227 277 339 411
#     4  12  27  47  69  99 141 177 225 287 335 390
#     4  12  24  46  71 101 134 180 232 273 332 413
#
# _framework density 20.024725
#
# number of rings (size 3 to 8) (size 9 to 14) (size 15 to 20)
#    0.000    0.000    8.750    1.500    0.000    4.000 
#    0.000    0.000    0.000    0.000    0.000    0.000 
#    0.000    0.000    0.000    0.000    0.000    0.000 
#
# Total GULP energy -89539.534044 kJ/mol
# GULP energy per Si atom -5596.220878 kJ/mol
# Density = 1.997915 g / cm^3
# Si number density = 20.024725 Si / 1000 Ang^3
#
#
#
# Elastic Constant Matrix: (Units=GPa)
#
#
# Indices 1 2 3 4 5 6 
#
# 1 58.6918 -12.9501 1.1457 -1.6486 16.3962 23.6572
# 2 -12.9501 101.5646 24.1172 -0.1924 5.6059 2.3506
# 3 1.1457 24.1172 102.1094 -5.5957 20.4661 4.0073
# 4 -1.6486 -0.1924 -5.5957 38.1129 -3.5607 11.6774
# 5 16.3962 5.6059 20.4661 -3.5607 14.8343 8.3605
# 6 23.6572 2.3506 4.0073 11.6774 8.3605 32.5666
#
#
#
# Elastic Compliance Matrix: (Units=1/GPa)
#
#
# Indices 1 2 3 4 5 6 
#
# 1 0.038430 0.005881 0.007872 0.004959 -0.043082 -0.020028
# 2 0.005881 0.011343 -0.001132 0.000459 -0.007285 -0.003246
# 3 0.007872 -0.001132 0.016114 -0.000297 -0.030798 0.000393
# 4 0.004959 0.000459 -0.000297 0.033533 0.013573 -0.019108
# 5 -0.043082 -0.007285 -0.030798 0.013573 0.170935 -0.013138
# 6 -0.020028 -0.003246 0.000393 -0.019108 -0.013138 0.055665
#
#
# Mechanical properties :
#
#
# Convention : Reuss Voigt Hill
#
# Bulk Modulus (GPa) = 10.97341 31.88794 21.43067
# Shear Modulus (GPa) = 15.09880 33.77295 24.43587
#
# Velocity S-wave (km/s) = 2.74890 4.11123 3.49705
# Velocity P-wave (km/s) = 3.94551 6.20445 5.19915
#
# Compressibility (1/GPa) = 0.09112941
#
# Stress axis : x y z
#
# Youngs Moduli (GPa) = 26.02165 88.16123 62.05912
#
# Poissons Ratio (x) = -0.51852 -0.48856
# Poissons Ratio (y) = -0.15305 0.07027
# Poissons Ratio (z) = -0.20486 0.09982
#
# Static dielectric constant tensor:
#      x y z
#    x 1.700440 -0.002340 0.016780 
#    y -0.002340 1.677250 -0.005840 
#    z 0.016780 -0.005840 1.693040 
# 
# From -- ./inp_files/187948.got.cif
#   From: 2010.05.17/outbox.cif.g08.bks.cpg/sg2_94_cif.got.tgz:187948.got - 2010.06.03 11:33:40.
