data_PCOD9068547
_publ_section_title
;
Structure prediction by ZEFSAII (Michael W. Deem and Ramdas Pophale) SiO2 
 PCOD9068547
Probable space group: P -1
;
_chemical_formula_sum "Si O2"
_cell_formula_units_Z 16
_cell_length_a 6.757655
_cell_length_b 24.111010
_cell_length_c 15.848767
_cell_angle_alpha 26.309573
_cell_angle_beta 55.779254
_cell_angle_gamma 72.864716
_cell_volume 776.516983
_symmetry_space_group_name_H-M "P -1"
_symmetry_group_IT_number 2
_symmetry_cell_setting 'triclinic'
loop_
_space_group_symop_operation_xyz
x,y,z
-x,-y,-z
loop_
_atom_site_type_symbol
_atom_site_label
_atom_site_fract_x
_atom_site_fract_y
_atom_site_fract_z
Si Si1 0.745383 0.283784 0.220898
Si Si2 0.290264 0.848645 0.310670
Si Si3 0.788918 0.045489 0.634228
Si Si4 0.670435 0.543288 0.487631
Si Si5 0.587887 0.881042 0.639409
Si Si6 0.666019 0.254761 0.936914
Si Si7 0.380854 0.587037 0.658116
Si Si8 0.626968 0.630917 0.718838
O O1 0.814883 0.164479 0.397236
O O2 0.607092 0.240807 0.220059
O O3 0.509867 0.276149 0.349634
O O4 0.038673 0.451805 0.926121
O O5 0.234138 0.896158 0.349445
O O6 0.418283 0.747825 0.429459
O O7 0.974356 0.738048 0.493995
O O8 0.500000 0.000000 0.000000
O O9 0.074098 0.043592 0.564087
O O10 0.502012 0.881424 0.903856
O O11 0.500000 0.500000 0.500000
O O12 0.676083 0.399114 0.706327
O O13 0.516093 0.570199 0.564052
O O14 0.003489 0.689448 0.201190
O O15 0.500000 0.000000 0.500000
O O16 0.512991 0.804315 0.853096
O O17 0.518654 0.570043 0.733413
O O18 0.500000 0.500000 0.000000
#
# Coordination Sequence:
#
# PCOD9068547 Si02
#       8
#     2   2   2   2   2   2   2   2
#     4  12  24  44  74 104 143 184 241 303 356 418
#     4  12  29  46  71 106 149 191 236 296 362 430
#     4  12  26  46  71 106 145 185 240 298 357 432
#     4  11  28  48  72 100 144 194 237 296 353 430
#     4  12  26  43  73 108 141 186 233 300 362 421
#     4  11  27  46  70 104 143 185 245 288 359 430
#     4  12  27  45  75 105 142 188 245 292 359 432
#     4  12  25  47  73 104 143 188 241 299 358 425
#
# _framework density 20.60483
#
# number of rings (size 3 to 8) (size 9 to 14) (size 15 to 20)
#    0.000    0.250    5.000    3.000    8.750    2.500 
#    0.000    0.000    0.000    0.000    0.000    0.000 
#    0.000    0.000    0.000    0.000    0.000    0.000 
#
# Total GULP energy -89580.549826 kJ/mol
# GULP energy per Si atom -5598.784364 kJ/mol
# Density = 2.055793 g / cm^3
# Si number density = 20.604830 Si / 1000 Ang^3
#
#
#
# Elastic Constant Matrix: (Units=GPa)
#
#
# Indices 1 2 3 4 5 6 
#
# 1 124.8298 53.7612 46.8367 -2.0981 -14.3381 10.7724
# 2 53.7612 90.5669 6.8100 0.9837 1.8391 15.8164
# 3 46.8367 6.8100 104.0352 -11.1879 -5.5746 1.9480
# 4 -2.0981 0.9837 -11.1879 31.2807 0.4207 -1.5051
# 5 -14.3381 1.8391 -5.5746 0.4207 28.2096 -11.9074
# 6 10.7724 15.8164 1.9480 -1.5051 -11.9074 44.9099
#
#
#
# Elastic Compliance Matrix: (Units=1/GPa)
#
#
# Indices 1 2 3 4 5 6 
#
# 1 0.014616 -0.008708 -0.005721 -0.000808 0.007641 0.001808
# 2 -0.008708 0.017259 0.002448 -0.000444 -0.007652 -0.006140
# 3 -0.005721 0.002448 0.012420 0.003987 -0.000707 -0.000082
# 4 -0.000808 -0.000444 0.003987 0.033416 0.000513 0.001433
# 5 0.007641 -0.007652 -0.000707 0.000513 0.045118 0.012873
# 6 0.001808 -0.006140 -0.000082 0.001433 0.012873 0.027460
#
#
# Mechanical properties :
#
#
# Convention : Reuss Voigt Hill
#
# Bulk Modulus (GPa) = 49.18401 59.36086 54.27243
# Shear Modulus (GPa) = 27.61971 35.01497 31.31734
#
# Velocity S-wave (km/s) = 3.66519 4.12680 3.90282
# Velocity P-wave (km/s) = 6.46787 7.18185 6.83419
#
# Compressibility (1/GPa) = 0.02033181
#
# Stress axis : x y z
#
# Youngs Moduli (GPa) = 68.41784 57.94031 80.51480
#
# Poissons Ratio (x) = 0.50455 0.46066
# Poissons Ratio (y) = 0.59579 -0.19709
# Poissons Ratio (z) = 0.39145 -0.14183
#
# Static dielectric constant tensor:
#      x y z
#    x 1.735790 -0.006040 0.002710 
#    y -0.006040 1.715480 -0.010200 
#    z 0.002710 -0.010200 1.708660 
# 
# From -- ./inp_files/485958.got.cif
#   From: 2010.05.17/outbox.cif.g08.bks.cpg/sg2_243_cif.got.tgz:485958.got - 2010.06.03 11:33:40.
