data_PCOD9068542
_publ_section_title
;
Structure prediction by ZEFSAII (Michael W. Deem and Ramdas Pophale) SiO2 
 PCOD9068542
Probable space group: P -1
;
_chemical_formula_sum "Si O2"
_cell_formula_units_Z 12
_cell_length_a 14.461088
_cell_length_b 5.004306
_cell_length_c 12.971462
_cell_angle_alpha 72.554990
_cell_angle_beta 138.852587
_cell_angle_gamma 124.927747
_cell_volume 491.175975
_symmetry_space_group_name_H-M "P -1"
_symmetry_group_IT_number 2
_symmetry_cell_setting 'triclinic'
loop_
_space_group_symop_operation_xyz
x,y,z
-x,-y,-z
loop_
_atom_site_type_symbol
_atom_site_label
_atom_site_fract_x
_atom_site_fract_y
_atom_site_fract_z
Si Si1 0.729255 0.304579 0.553553
Si Si2 0.585918 0.714179 0.649537
Si Si3 0.920230 0.114583 0.158415
Si Si4 0.672578 0.758906 0.174690
Si Si5 0.803004 0.296054 0.391776
Si Si6 0.862519 0.661629 0.984150
O O1 0.555548 0.285115 0.402777
O O2 0.770812 0.188330 0.496794
O O3 0.888098 0.673172 0.668396
O O4 0.710114 0.083423 0.662610
O O5 0.500000 0.500000 0.500000
O O6 0.683821 0.574735 0.803575
O O7 0.800075 0.012185 0.166465
O O8 0.888110 0.358141 0.034700
O O9 0.879288 0.787841 0.100618
O O10 0.748383 0.556429 0.305280
O O11 0.682418 0.986199 0.250898
O O12 0.500000 0.500000 0.000000
O O13 0.000000 0.500000 0.500000
O O14 0.000000 0.000000 0.000000
#
# Coordination Sequence:
#
# PCOD9068542 Si02
#       6
#     2   2   2   2   2   2
#     4  11  27  46  74 110 147 199 250 311 377 453
#     4  11  27  45  74 109 152 192 250 310 377 451
#     4  12  27  48  76 104 151 197 247 309 379 449
#     4  12  29  51  75 114 151 198 256 319 380 448
#     4  12  27  50  81 110 150 202 259 311 380 455
#     4  12  26  46  76 110 146 196 248 304 377 454
#
# _framework density 24.431163000000002
#
# number of rings (size 3 to 8) (size 9 to 14) (size 15 to 20)
#    0.000    0.333    3.333    3.500    9.333    0.000 
#    0.000    0.000    0.000    0.000    0.000    0.000 
#    0.000    0.000    0.000    0.000    0.000    0.000 
#
# Total GULP energy -67305.195838 kJ/mol
# GULP energy per Si atom -5608.766320 kJ/mol
# Density = 2.437556 g / cm^3
# Si number density = 24.431163 Si / 1000 Ang^3
#
#
#
# Elastic Constant Matrix: (Units=GPa)
#
#
# Indices 1 2 3 4 5 6 
#
# 1 121.3593 26.0636 31.8848 4.5794 -11.0496 16.4721
# 2 26.0636 88.7494 14.4615 -1.2973 8.7283 3.1868
# 3 31.8848 14.4615 96.6949 18.7347 -1.8596 20.2731
# 4 4.5794 -1.2973 18.7347 44.4214 -12.6489 0.1800
# 5 -11.0496 8.7283 -1.8596 -12.6489 41.9407 9.6446
# 6 16.4721 3.1868 20.2731 0.1800 9.6446 37.1899
#
#
#
# Elastic Compliance Matrix: (Units=1/GPa)
#
#
# Indices 1 2 3 4 5 6 
#
# 1 0.010429 -0.002984 -0.002202 0.001095 0.004605 -0.004363
# 2 -0.002984 0.012694 -0.001449 0.000168 -0.003910 0.002037
# 3 -0.002202 -0.001449 0.013694 -0.005529 0.000127 -0.006372
# 4 0.001095 0.000168 -0.005529 0.027040 0.008098 0.000284
# 5 0.004605 -0.003910 0.000127 0.008098 0.030557 -0.009737
# 6 -0.004363 0.002037 -0.006372 0.000284 -0.009737 0.034644
#
#
# Mechanical properties :
#
#
# Convention : Reuss Voigt Hill
#
# Bulk Modulus (GPa) = 42.46798 50.18039 46.32419
# Shear Modulus (GPa) = 33.29359 40.33663 36.81511
#
# Velocity S-wave (km/s) = 3.69555 4.06770 3.88608
# Velocity P-wave (km/s) = 5.96908 6.53036 6.25602
#
# Compressibility (1/GPa) = 0.02354715
#
# Stress axis : x y z
#
# Youngs Moduli (GPa) = 95.88202 78.77662 73.02407
#
# Poissons Ratio (x) = 0.23510 0.16077
# Poissons Ratio (y) = 0.28614 0.10584
# Poissons Ratio (z) = 0.21110 0.11417
#
# Static dielectric constant tensor:
#      x y z
#    x 1.890180 0.032540 0.003230 
#    y 0.032540 1.925300 -0.011860 
#    z 0.003230 -0.011860 1.919080 
# 
# From -- ./inp_files/28579.got.cif
#   From: 2010.05.17/outbox.cif.g08.bks.cpg/sg2_15_cif.got.tgz:28579.got - 2010.06.03 11:33:40.
