data_PCOD9068064
_publ_section_title
;
Structure prediction by ZEFSAII (Michael W. Deem and Ramdas Pophale) SiO2 
 PCOD9068064
Probable space group: P -1
;
_chemical_formula_sum "Si O2"
_cell_formula_units_Z 14
_cell_length_a 8.068208
_cell_length_b 16.548449
_cell_length_c 7.467279
_cell_angle_alpha 61.903640
_cell_angle_beta 142.777512
_cell_angle_gamma 104.409714
_cell_volume 516.944478
_symmetry_space_group_name_H-M "P -1"
_symmetry_group_IT_number 2
_symmetry_cell_setting 'triclinic'
loop_
_space_group_symop_operation_xyz
x,y,z
-x,-y,-z
loop_
_atom_site_type_symbol
_atom_site_label
_atom_site_fract_x
_atom_site_fract_y
_atom_site_fract_z
Si Si1 0.702959 0.671741 0.774156
Si Si2 0.574468 0.129793 0.791190
Si Si3 0.410286 0.941772 0.721631
Si Si4 0.700465 0.403114 0.710752
Si Si5 0.204437 0.404220 0.710652
Si Si6 0.198352 0.671110 0.768998
Si Si7 0.041525 0.864848 0.220128
O O1 0.652733 0.771155 0.530217
O O2 0.431082 0.631954 0.540723
O O3 0.771543 0.677600 0.034995
O O4 0.977046 0.593485 0.031539
O O5 0.826632 0.138570 0.861909
O O6 0.444123 0.045409 0.693002
O O7 0.641476 0.105501 0.083141
O O8 0.168003 0.937238 0.375863
O O9 0.706482 0.889986 0.937539
O O10 0.500000 0.500000 0.500000
O O11 0.729762 0.321219 0.970112
O O12 0.000000 0.500000 0.500000
O O13 0.075538 0.368343 0.461770
O O14 0.526574 0.408536 0.968933
O O15 0.165870 0.765329 0.530777
#
# Coordination Sequence:
#
# PCOD9068064 Si02
#       7
#     2   2   2   2   2   2   2
#     4  12  25  43  69 100 135 180 231 289 355 422
#     4  11  26  47  74 106 149 186 248 298 365 432
#     4  11  27  46  72 108 143 196 238 300 363 442
#     4  12  25  44  68 100 136 181 231 294 360 423
#     4  12  24  43  66  97 134 178 225 284 348 420
#     4  12  24  43  67  97 136 177 233 286 349 433
#     4  12  25  47  72 106 147 190 244 294 371 426
#
# _framework density 27.082214
#
# number of rings (size 3 to 8) (size 9 to 14) (size 15 to 20)
#    0.000    0.286    1.429    7.714    0.000    4.571 
#    0.000    0.000    0.000    0.000    0.000    0.000 
#    0.000    0.000    0.000    0.000    0.000    0.000 
#
# Total GULP energy -78478.716537 kJ/mol
# GULP energy per Si atom -5605.622610 kJ/mol
# Density = 2.702057 g / cm^3
# Si number density = 27.082214 Si / 1000 Ang^3
#
#
#
# Elastic Constant Matrix: (Units=GPa)
#
#
# Indices 1 2 3 4 5 6 
#
# 1 139.9665 12.8153 55.0088 -0.2680 -28.1301 12.2602
# 2 12.8153 91.2351 34.1665 -14.8530 -3.5476 1.7810
# 3 55.0088 34.1665 145.9231 3.0602 5.6185 -1.0571
# 4 -0.2680 -14.8530 3.0602 51.0661 0.7121 -8.0334
# 5 -28.1301 -3.5476 5.6185 0.7121 43.3567 -8.9606
# 6 12.2602 1.7810 -1.0571 -8.0334 -8.9606 39.2139
#
#
#
# Elastic Compliance Matrix: (Units=1/GPa)
#
#
# Indices 1 2 3 4 5 6 
#
# 1 0.010335 0.000470 -0.004287 0.000073 0.006933 -0.001769
# 2 0.000470 0.012855 -0.003337 0.003980 0.001808 0.000408
# 3 -0.004287 -0.003337 0.009444 -0.001421 -0.004150 0.000507
# 4 0.000073 0.003980 -0.001421 0.021505 0.001117 0.004419
# 5 0.006933 0.001808 -0.004150 0.001117 0.029166 0.004532
# 6 -0.001769 0.000408 0.000507 0.004419 0.004532 0.027990
#
#
# Mechanical properties :
#
#
# Convention : Reuss Voigt Hill
#
# Bulk Modulus (GPa) = 54.57218 64.56733 59.56975
# Shear Modulus (GPa) = 37.96149 45.06960 41.51555
#
# Velocity S-wave (km/s) = 3.74801 4.08386 3.91953
# Velocity P-wave (km/s) = 6.23894 6.79192 6.52129
#
# Compressibility (1/GPa) = 0.01832436
#
# Stress axis : x y z
#
# Youngs Moduli (GPa) = 96.75977 77.79249 105.89075
#
# Poissons Ratio (x) = -0.03655 0.45398
# Poissons Ratio (y) = -0.04546 0.35336
# Poissons Ratio (z) = 0.41483 0.25960
#
# Static dielectric constant tensor:
#      x y z
#    x 2.222400 0.040450 0.005560 
#    y 0.040450 2.048620 -0.058820 
#    z 0.005560 -0.058820 2.002570 
# 
# From -- ./inp_files/217206.got.cif
#   From: 2010.05.17/outbox.cif.g08.bks.cpg/sg2_109_cif.got.tgz:217206.got - 2010.06.03 11:33:40.
