data_PCOD9068387
_publ_section_title
;
Structure prediction by ZEFSAII (Michael W. Deem and Ramdas Pophale) SiO2 
 PCOD9068387
Probable space group: P -1
;
_chemical_formula_sum "Si O2"
_cell_formula_units_Z 14
_cell_length_a 14.496213
_cell_length_b 14.083287
_cell_length_c 6.105600
_cell_angle_alpha 76.884834
_cell_angle_beta 114.094990
_cell_angle_gamma 149.682125
_cell_volume 552.682259
_symmetry_space_group_name_H-M "P -1"
_symmetry_group_IT_number 2
_symmetry_cell_setting 'triclinic'
loop_
_space_group_symop_operation_xyz
x,y,z
-x,-y,-z
loop_
_atom_site_type_symbol
_atom_site_label
_atom_site_fract_x
_atom_site_fract_y
_atom_site_fract_z
Si Si1 0.018919 0.716116 0.529764
Si Si2 0.329298 0.562200 0.367810
Si Si3 0.114643 0.248690 0.978477
Si Si4 0.314515 0.213900 0.094735
Si Si5 0.427169 0.967011 0.199579
Si Si6 0.000000 0.500000 0.000000
Si Si7 0.602801 0.864802 0.116435
Si Si8 0.000000 0.500000 0.500000
O O1 0.843756 0.524963 0.619564
O O2 0.902057 0.684374 0.259599
O O3 0.115856 0.703545 0.525869
O O4 0.182296 0.919606 0.697796
O O5 0.501773 0.658336 0.633267
O O6 0.443619 0.729121 0.227894
O O7 0.208762 0.378125 0.215360
O O8 0.251844 0.273440 0.020189
O O9 0.888797 0.017585 0.921633
O O10 0.378405 0.228231 0.911462
O O11 0.500000 0.000000 0.500000
O O12 0.197098 0.738403 0.092112
O O13 0.500000 0.000000 0.000000
O O14 0.453385 0.107081 0.142951
O O15 0.069566 0.531245 0.798793
#
# Coordination Sequence:
#
# PCOD9068387 Si02
#       8
#     2   2   2   2   2   1   2   1
#     4  12  28  53  80 115 166 216 273 348 414 502
#     4  12  27  49  84 114 162 214 274 333 426 498
#     4  11  26  49  83 117 164 215 267 348 422 493
#     4  11  26  49  80 122 161 210 279 340 416 508
#     4  12  31  52  81 121 162 217 282 342 413 500
#     4  12  28  52  82 112 160 216 268 344 408 486
#     4  12  28  52  78 118 163 211 275 350 411 504
#     4  12  30  50  88 118 168 222 278 340 424 492
#
# _framework density 25.331008000000001
#
# number of rings (size 3 to 8) (size 9 to 14) (size 15 to 20)
#    0.000    0.286    4.286    2.143    8.000    6.286 
#    0.000    0.714    0.000    0.000    0.000    0.000 
#    0.000    0.000    0.000    0.000    0.000    0.000 
#
# Total GULP energy -77942.772303 kJ/mol
# GULP energy per Si atom -5567.340879 kJ/mol
# Density = 2.527335 g / cm^3
# Si number density = 25.331008 Si / 1000 Ang^3
#
#
#
# Elastic Constant Matrix: (Units=GPa)
#
#
# Indices 1 2 3 4 5 6 
#
# 1 48.5309 5.9780 12.8042 3.1068 7.7225 1.6801
# 2 5.9780 139.9293 31.4795 2.5045 3.9336 14.9852
# 3 12.8042 31.4795 146.9789 27.6596 -5.4984 10.1957
# 4 3.1068 2.5045 27.6596 44.4996 -3.5029 -12.2798
# 5 7.7225 3.9336 -5.4984 -3.5029 29.5290 2.9922
# 6 1.6801 14.9852 10.1957 -12.2798 2.9922 42.2759
#
#
#
# Elastic Compliance Matrix: (Units=1/GPa)
#
#
# Indices 1 2 3 4 5 6 
#
# 1 0.022201 -0.000312 -0.001931 -0.000852 -0.006214 -0.000114
# 2 -0.000312 0.007778 -0.001465 -0.000245 -0.001014 -0.002391
# 3 -0.001931 -0.001465 0.008719 -0.005982 0.001957 -0.003383
# 4 -0.000852 -0.000245 -0.005982 0.029124 0.001592 0.009910
# 5 -0.006214 -0.001014 0.001957 0.001592 0.036379 -0.001978
# 6 -0.000114 -0.002391 -0.003383 0.009910 -0.001978 0.028341
#
#
# Mechanical properties :
#
#
# Convention : Reuss Voigt Hill
#
# Bulk Modulus (GPa) = 31.96695 48.44027 40.20361
# Shear Modulus (GPa) = 33.24809 42.27272 37.76040
#
# Velocity S-wave (km/s) = 3.62684 4.08954 3.86512
# Velocity P-wave (km/s) = 5.49415 6.43922 5.98537
#
# Compressibility (1/GPa) = 0.03128231
#
# Stress axis : x y z
#
# Youngs Moduli (GPa) = 45.04370 128.56380 114.68883
#
# Poissons Ratio (x) = 0.04009 0.22151
# Poissons Ratio (y) = 0.01405 0.16798
# Poissons Ratio (z) = 0.08700 0.18831
#
# Static dielectric constant tensor:
#      x y z
#    x 0.600470 -0.618970 -1.695940 
#    y -0.618970 1.466710 -0.865280 
#    z -1.695940 -0.865280 0.087620 
# 
# From -- ./inp_files/98001.got.cif
#   From: 2010.05.17/outbox.cif.g08.bks.cpg/sg2_50_cif.got.tgz:98001.got - 2010.06.03 11:33:40.
