data_PCOD9068984
_publ_section_title
;
Structure prediction by ZEFSAII (Michael W. Deem and Ramdas Pophale) SiO2 
 PCOD9068984
Probable space group: P -1
;
_chemical_formula_sum "Si O2"
_cell_formula_units_Z 12
_cell_length_a 8.628803
_cell_length_b 7.040850
_cell_length_c 9.559437
_cell_angle_alpha 93.963950
_cell_angle_beta 55.724785
_cell_angle_gamma 77.980680
_cell_volume 456.743160
_symmetry_space_group_name_H-M "P -1"
_symmetry_group_IT_number 2
_symmetry_cell_setting 'triclinic'
loop_
_space_group_symop_operation_xyz
x,y,z
-x,-y,-z
loop_
_atom_site_type_symbol
_atom_site_label
_atom_site_fract_x
_atom_site_fract_y
_atom_site_fract_z
Si Si1 0.808716 0.136870 0.683501
Si Si2 0.410180 0.524165 0.347213
Si Si3 0.278115 0.083299 0.059474
Si Si4 0.035100 0.533832 0.687058
Si Si5 0.687083 0.840691 0.554924
Si Si6 0.754405 0.722672 0.211340
O O1 0.700730 0.369723 0.729698
O O2 0.664208 0.035674 0.664479
O O3 0.000000 0.000000 0.500000
O O4 0.820304 0.077805 0.836698
O O5 0.230150 0.604305 0.556578
O O6 0.452990 0.287506 0.328195
O O7 0.599501 0.595990 0.270357
O O8 0.239139 0.151621 0.923148
O O9 0.159605 0.285678 0.212912
O O10 0.500000 0.000000 0.000000
O O11 0.097050 0.333563 0.549121
O O12 0.053604 0.437150 0.827033
O O13 0.684968 0.864635 0.390278
#
# Coordination Sequence:
#
# PCOD9068984 Si02
#       6
#     2   2   2   2   2   2
#     4  12  22  39  65  88 124 164 205 258 303 360
#     4   9  18  38  66  90 118 160 207 247 302 362
#     4  12  22  35  61  93 127 162 197 254 318 351
#     4   8  19  38  64  83 122 162 207 241 297 366
#     4   8  21  39  67  88 115 164 217 240 300 370
#     4   9  19  40  63  90 125 159 201 253 308 362
#
# _framework density 26.272973
#
# number of rings (size 3 to 8) (size 9 to 14) (size 15 to 20)
#    2.000    0.000    3.333    2.500    0.000    3.333 
#    0.000    1.667    3.667    0.000    0.000    0.000 
#    0.000    0.000    0.000    0.000    0.000    0.000 
#
# Total GULP energy -66813.412131 kJ/mol
# GULP energy per Si atom -5567.784344 kJ/mol
# Density = 2.621317 g / cm^3
# Si number density = 26.272973 Si / 1000 Ang^3
#
#
#
# Elastic Constant Matrix: (Units=GPa)
#
#
# Indices 1 2 3 4 5 6 
#
# 1 41.7068 12.4815 8.1863 -7.7149 6.9862 -16.2270
# 2 12.4815 106.3032 31.7813 -16.4871 17.3855 -34.8577
# 3 8.1863 31.7813 102.3859 -46.9442 35.3986 -15.9735
# 4 -7.7149 -16.4871 -46.9442 48.4579 -22.4437 6.1613
# 5 6.9862 17.3855 35.3986 -22.4437 36.5249 2.3682
# 6 -16.2270 -34.8577 -15.9735 6.1613 2.3682 48.5534
#
#
#
# Elastic Compliance Matrix: (Units=1/GPa)
#
#
# Indices 1 2 3 4 5 6 
#
# 1 0.029555 0.001287 0.003420 0.002990 -0.008518 0.011962
# 2 0.001287 0.014093 -0.000232 -0.000064 -0.007473 0.010845
# 3 0.003420 -0.000232 0.022004 0.014753 -0.013257 0.006990
# 4 0.002990 -0.000064 0.014753 0.039788 0.009590 0.000290
# 5 -0.008518 -0.007473 -0.013257 0.009590 0.052366 -0.016344
# 6 0.011962 0.010845 0.006990 0.000290 -0.016344 0.035439
#
#
# Mechanical properties :
#
#
# Convention : Reuss Voigt Hill
#
# Bulk Modulus (GPa) = 13.40452 39.47713 26.44082
# Shear Modulus (GPa) = 23.90490 39.90370 31.90430
#
# Velocity S-wave (km/s) = 3.01967 3.90142 3.48852
# Velocity P-wave (km/s) = 4.15584 5.94585 5.12953
#
# Compressibility (1/GPa) = 0.07460173
#
# Stress axis : x y z
#
# Youngs Moduli (GPa) = 33.83552 70.95544 45.44688
#
# Poissons Ratio (x) = -0.09131 -0.15541
# Poissons Ratio (y) = -0.04354 0.01053
# Poissons Ratio (z) = -0.11570 0.01643
#
# Static dielectric constant tensor:
#      x y z
#    x 2.356860 0.134460 -0.194470 
#    y 0.134460 2.284250 -0.230010 
#    z -0.194470 -0.230010 2.281000 
# 
# From -- ./inp_files/158362.got.cif
#   From: 2010.05.17/outbox.cif.g08.bks.cpg/sg2_80_cif.got.tgz:158362.got - 2010.06.03 11:33:40.
