data_PCOD9068676
_publ_section_title
;
Structure prediction by ZEFSAII (Michael W. Deem and Ramdas Pophale) SiO2 
 PCOD9068676
Probable space group: P -1
;
_chemical_formula_sum "Si O2"
_cell_formula_units_Z 13
_cell_length_a 11.201020
_cell_length_b 7.397737
_cell_length_c 9.091818
_cell_angle_alpha 88.750207
_cell_angle_beta 52.678024
_cell_angle_gamma 60.238774
_cell_volume 475.673810
_symmetry_space_group_name_H-M "P -1"
_symmetry_group_IT_number 2
_symmetry_cell_setting 'triclinic'
loop_
_space_group_symop_operation_xyz
x,y,z
-x,-y,-z
loop_
_atom_site_type_symbol
_atom_site_label
_atom_site_fract_x
_atom_site_fract_y
_atom_site_fract_z
Si Si1 0.855986 0.742584 0.679748
Si Si2 0.583207 0.910168 0.631724
Si Si3 0.500000 0.500000 0.500000
Si Si4 0.191819 0.826740 0.227666
Si Si5 0.848477 0.736332 0.032021
Si Si6 0.146185 0.007522 0.736633
Si Si7 0.465529 0.427262 0.238614
O O1 0.657846 0.851914 0.744224
O O2 0.000000 0.500000 0.500000
O O3 0.881816 0.939317 0.641143
O O4 0.868293 0.705217 0.844103
O O5 0.728624 0.920503 0.430466
O O6 0.574832 0.700113 0.605713
O O7 0.372431 0.135606 0.773656
O O8 0.539242 0.523733 0.292958
O O9 0.280628 0.736182 0.639664
O O10 0.285664 0.620375 0.276914
O O11 0.037292 0.868914 0.229394
O O12 0.373588 0.748680 0.992099
O O13 0.887823 0.903367 0.072471
O O14 0.000000 0.500000 0.000000
#
# Coordination Sequence:
#
# PCOD9068676 Si02
#       7
#     2   2   1   2   2   2   2
#     4  12  28  50  83 116 162 211 269 326 402 485
#     4  12  27  53  76 120 154 217 263 326 401 485
#     4  12  26  48  78 118 162 208 260 344 386 478
#     4  11  28  54  80 120 157 217 264 332 401 481
#     4  12  28  50  80 117 158 209 267 332 395 479
#     4  12  29  51  82 118 165 207 270 328 408 473
#     4  11  27  51  83 114 163 208 271 329 404 471
#
# _framework density 27.329650999999998
#
# number of rings (size 3 to 8) (size 9 to 14) (size 15 to 20)
#    0.000    0.308    3.077    2.769    6.462    7.385 
#    0.000    0.000    0.000    0.923    0.000    0.000 
#    0.000    0.000    0.000    0.000    0.000    0.000 
#
# Total GULP energy -72739.636076 kJ/mol
# GULP energy per Si atom -5595.356621 kJ/mol
# Density = 2.726745 g / cm^3
# Si number density = 27.329651 Si / 1000 Ang^3
#
#
#
# Elastic Constant Matrix: (Units=GPa)
#
#
# Indices 1 2 3 4 5 6 
#
# 1 140.6690 84.8352 60.3835 14.1178 -6.6645 -47.6709
# 2 84.8352 199.2311 69.0187 24.6181 -17.0486 -46.4384
# 3 60.3835 69.0187 128.3318 22.3531 13.5368 -19.9870
# 4 14.1178 24.6181 22.3531 54.5674 -5.8151 3.7469
# 5 -6.6645 -17.0486 13.5368 -5.8151 57.0169 -4.7800
# 6 -47.6709 -46.4384 -19.9870 3.7469 -4.7800 74.5535
#
#
#
# Elastic Compliance Matrix: (Units=1/GPa)
#
#
# Indices 1 2 3 4 5 6 
#
# 1 0.012123 -0.002361 -0.003662 -0.000737 0.001963 0.005462
# 2 -0.002361 0.008201 -0.002798 -0.001847 0.002914 0.003128
# 3 -0.003662 -0.002798 0.011864 -0.003056 -0.004480 -0.001038
# 4 -0.000737 -0.001847 -0.003056 0.021041 0.001950 -0.003373
# 5 0.001963 0.002914 -0.004480 0.001950 0.020159 0.003064
# 6 0.005462 0.003128 -0.001038 -0.003373 0.003064 0.018942
#
#
# Mechanical properties :
#
#
# Convention : Reuss Voigt Hill
#
# Bulk Modulus (GPa) = 68.75644 99.63407 84.19526
# Shear Modulus (GPa) = 43.54635 54.16053 48.85344
#
# Velocity S-wave (km/s) = 3.99604 4.45651 4.23254
# Velocity P-wave (km/s) = 6.81938 7.93828 7.40000
#
# Compressibility (1/GPa) = 0.01454409
#
# Stress axis : x y z
#
# Youngs Moduli (GPa) = 82.48825 121.94115 84.29154
#
# Poissons Ratio (x) = 0.28793 0.30870
# Poissons Ratio (y) = 0.19477 0.23585
# Poissons Ratio (z) = 0.30210 0.34119
#
# Static dielectric constant tensor:
#      x y z
#    x 1.460700 -0.241480 -0.229070 
#    y -0.241480 1.970180 -0.154150 
#    z -0.229070 -0.154150 2.140510 
# 
# From -- ./inp_files/238878.got.cif
#   From: 2010.05.17/outbox.cif.g08.bks.cpg/sg2_120_cif.got.tgz:238878.got - 2010.06.03 11:33:40.
