data_PCOD9068644
_publ_section_title
;
Structure prediction by ZEFSAII (Michael W. Deem and Ramdas Pophale) SiO2 
 PCOD9068644
Probable space group: P -1
;
_chemical_formula_sum "Si O2"
_cell_formula_units_Z 13
_cell_length_a 9.326049
_cell_length_b 15.350332
_cell_length_c 12.059120
_cell_angle_alpha 29.633367
_cell_angle_beta 134.931631
_cell_angle_gamma 136.717463
_cell_volume 571.302004
_symmetry_space_group_name_H-M "P -1"
_symmetry_group_IT_number 2
_symmetry_cell_setting 'triclinic'
loop_
_space_group_symop_operation_xyz
x,y,z
-x,-y,-z
loop_
_atom_site_type_symbol
_atom_site_label
_atom_site_fract_x
_atom_site_fract_y
_atom_site_fract_z
Si Si1 0.213798 0.505514 0.037117
Si Si2 0.859234 0.202290 0.713777
Si Si3 0.693136 0.950462 0.105912
Si Si4 0.066945 0.100366 0.310096
Si Si5 0.736277 0.135109 0.471753
Si Si6 0.680897 0.514148 0.360550
Si Si7 0.500000 0.500000 0.500000
O O1 0.177180 0.313617 0.164952
O O2 0.442335 0.537969 0.190698
O O3 0.245155 0.665539 0.787469
O O4 0.000000 0.500000 0.000000
O O5 0.841808 0.150733 0.632313
O O6 0.721663 0.342523 0.507705
O O7 0.111619 0.311959 0.752980
O O8 0.754927 0.027173 0.930558
O O9 0.638679 0.728094 0.329336
O O10 0.880678 0.073717 0.150464
O O11 0.500000 0.000000 0.000000
O O12 0.183368 0.973366 0.457005
O O13 0.000000 0.000000 0.500000
O O14 0.500000 0.000000 0.500000
O O15 0.674721 0.473566 0.533143
#
# Coordination Sequence:
#
# PCOD9068644 Si02
#       7
#     2   2   2   2   2   2   1
#     4  12  29  50  84 113 159 213 267 330 399 477
#     4  11  28  52  78 119 165 207 267 333 408 472
#     4  12  29  48  82 113 156 210 261 334 391 480
#     4  12  28  51  78 115 155 205 270 324 397 473
#     4  12  30  50  77 118 160 210 263 334 401 476
#     4  11  27  49  81 117 158 209 265 330 399 489
#     4  12  26  46  82 110 154 204 272 318 398 468
#
# _framework density 22.755039
#
# number of rings (size 3 to 8) (size 9 to 14) (size 15 to 20)
#    0.000    0.308    3.077    2.769   15.077    2.462 
#    0.000    0.000    0.000    0.000    0.000    0.000 
#    0.000    0.000    0.000    0.000    0.000    0.000 
#
# Total GULP energy -72390.553679 kJ/mol
# GULP energy per Si atom -5568.504129 kJ/mol
# Density = 2.270325 g / cm^3
# Si number density = 22.755039 Si / 1000 Ang^3
#
#
#
# Elastic Constant Matrix: (Units=GPa)
#
#
# Indices 1 2 3 4 5 6 
#
# 1 135.8055 9.8848 32.7889 -6.2677 -3.4829 -15.4141
# 2 9.8848 79.5316 35.4603 -26.7507 5.4823 -4.5456
# 3 32.7889 35.4603 97.8870 -19.2779 -9.8864 0.0203
# 4 -6.2677 -26.7507 -19.2779 30.3555 2.9153 8.5020
# 5 -3.4829 5.4823 -9.8864 2.9153 43.4418 -8.1331
# 6 -15.4141 -4.5456 0.0203 8.5020 -8.1331 47.3063
#
#
#
# Elastic Compliance Matrix: (Units=1/GPa)
#
#
# Indices 1 2 3 4 5 6 
#
# 1 0.008389 0.000079 -0.002972 -0.000994 0.000620 0.003027
# 2 0.000079 0.020247 -0.004754 0.015805 -0.005015 -0.001730
# 3 -0.002972 -0.004754 0.014087 0.004335 0.002958 -0.001702
# 4 -0.000994 0.015805 0.004335 0.052655 -0.006375 -0.009366
# 5 0.000620 -0.005015 0.002958 -0.006375 0.025795 0.005299
# 6 0.003027 -0.001730 -0.001702 -0.009366 0.005299 0.024554
#
#
# Mechanical properties :
#
#
# Convention : Reuss Voigt Hill
#
# Bulk Modulus (GPa) = 36.46107 52.16579 44.31343
# Shear Modulus (GPa) = 29.38340 39.89338 34.63839
#
# Velocity S-wave (km/s) = 3.59735 4.19163 3.90581
# Velocity P-wave (km/s) = 5.77171 6.81183 6.31323
#
# Compressibility (1/GPa) = 0.02742651
#
# Stress axis : x y z
#
# Youngs Moduli (GPa) = 119.20341 49.39102 70.98928
#
# Poissons Ratio (x) = -0.00389 0.21100
# Poissons Ratio (y) = -0.00938 0.33750
# Poissons Ratio (z) = 0.35430 0.23482
#
# Static dielectric constant tensor:
#      x y z
#    x 1.736210 0.069910 0.000640 
#    y 0.069910 1.849320 0.050380 
#    z 0.000640 0.050380 1.807560 
# 
# From -- ./inp_files/380216.got.cif
#   From: 2010.05.17/outbox.cif.g08.bks.cpg/sg2_191_cif.got.tgz:380216.got - 2010.06.03 11:33:40.
