data_PCOD9068404
_publ_section_title
;
Structure prediction by ZEFSAII (Michael W. Deem and Ramdas Pophale) SiO2 
 PCOD9068404
Probable space group: P -1
;
_chemical_formula_sum "Si O2"
_cell_formula_units_Z 12
_cell_length_a 7.552661
_cell_length_b 15.904714
_cell_length_c 5.399676
_cell_angle_alpha 112.336069
_cell_angle_beta 84.110941
_cell_angle_gamma 58.518837
_cell_volume 472.920850
_symmetry_space_group_name_H-M "P -1"
_symmetry_group_IT_number 2
_symmetry_cell_setting 'triclinic'
loop_
_space_group_symop_operation_xyz
x,y,z
-x,-y,-z
loop_
_atom_site_type_symbol
_atom_site_label
_atom_site_fract_x
_atom_site_fract_y
_atom_site_fract_z
Si Si1 0.563999 0.196092 0.912003
Si Si2 0.508648 0.438006 0.683039
Si Si3 0.827440 0.603985 0.462313
Si Si4 0.257592 0.043758 0.178369
Si Si5 0.887408 0.231313 0.114133
Si Si6 0.165412 0.249063 0.734656
O O1 0.414503 0.209884 0.718096
O O2 0.708791 0.065337 0.833920
O O3 0.367986 0.284331 0.231360
O O4 0.728868 0.230884 0.935377
O O5 0.302358 0.432488 0.712790
O O6 0.731521 0.309734 0.453104
O O7 0.500000 0.500000 0.000000
O O8 0.987609 0.721592 0.971685
O O9 0.935567 0.645906 0.318738
O O10 0.000000 0.500000 0.500000
O O11 0.189807 0.142333 0.493362
O O12 0.078137 0.105633 0.052993
O O13 0.500000 0.000000 0.000000
O O14 0.500000 0.500000 0.500000
#
# Coordination Sequence:
#
# PCOD9068404 Si02
#       6
#     2   2   2   2   2   2
#     4  11  26  50  73 117 155 210 263 323 404 480
#     4  11  30  53  81 115 162 212 274 332 407 486
#     4  11  28  50  78 111 161 210 267 337 406 478
#     4  12  24  47  79 113 163 204 262 328 399 481
#     4  11  28  48  80 118 157 207 266 329 401 477
#     4  12  26  48  79 113 160 204 272 324 407 470
#
# _framework density 25.374227000000001
#
# number of rings (size 3 to 8) (size 9 to 14) (size 15 to 20)
#    0.000    0.667    3.333    1.000   11.667    2.667 
#    0.000    1.667    0.000    0.000    0.000    0.000 
#    0.000    0.000    0.000    0.000    0.000    0.000 
#
# Total GULP energy -67314.819384 kJ/mol
# GULP energy per Si atom -5609.568282 kJ/mol
# Density = 2.531647 g / cm^3
# Si number density = 25.374227 Si / 1000 Ang^3
#
#
#
# Elastic Constant Matrix: (Units=GPa)
#
#
# Indices 1 2 3 4 5 6 
#
# 1 147.7807 56.3778 44.1004 0.8647 22.8086 -16.8510
# 2 56.3778 176.3938 50.0380 8.6860 -1.6611 9.9410
# 3 44.1004 50.0380 111.9566 9.4522 9.3175 -0.4746
# 4 0.8647 8.6860 9.4522 35.7530 -5.6169 3.7091
# 5 22.8086 -1.6611 9.3175 -5.6169 45.4407 2.9226
# 6 -16.8510 9.9410 -0.4746 3.7091 2.9226 42.9472
#
#
#
# Elastic Compliance Matrix: (Units=1/GPa)
#
#
# Indices 1 2 3 4 5 6 
#
# 1 0.009799 -0.002830 -0.002143 -0.000258 -0.004925 0.004834
# 2 -0.002830 0.007463 -0.002390 -0.000439 0.002321 -0.002984
# 3 -0.002143 -0.002390 0.011201 -0.002605 -0.001642 0.000173
# 4 -0.000258 -0.000439 -0.002605 0.029782 0.004516 -0.002908
# 5 -0.004925 0.002321 -0.001642 0.004516 0.025756 -0.004631
# 6 0.004834 -0.002984 0.000173 -0.002908 -0.004631 0.026440
#
#
# Mechanical properties :
#
#
# Convention : Reuss Voigt Hill
#
# Bulk Modulus (GPa) = 72.78813 81.90705 77.34759
# Shear Modulus (GPa) = 38.53678 43.86916 41.20297
#
# Velocity S-wave (km/s) = 3.90133 4.16250 4.03403
# Velocity P-wave (km/s) = 7.00299 7.44658 7.22819
#
# Compressibility (1/GPa) = 0.01373850
#
# Stress axis : x y z
#
# Youngs Moduli (GPa) = 102.05442 133.99143 89.27482
#
# Poissons Ratio (x) = 0.37920 0.19129
# Poissons Ratio (y) = 0.28882 0.21333
# Poissons Ratio (z) = 0.21867 0.32019
#
# Static dielectric constant tensor:
#      x y z
#    x 1.892890 -0.055510 -0.071650 
#    y -0.055510 1.996980 -0.074810 
#    z -0.071650 -0.074810 1.875620 
# 
# From -- ./inp_files/48987.got.cif
#   From: 2010.05.17/outbox.cif.g08.bks.cpg/sg2_25_cif.got.tgz:48987.got - 2010.06.03 11:33:40.
