data_PCOD9068526
_publ_section_title
;
Structure prediction by ZEFSAII (Michael W. Deem and Ramdas Pophale) SiO2 
 PCOD9068526
Probable space group: P -1
;
_chemical_formula_sum "Si O2"
_cell_formula_units_Z 10
_cell_length_a 9.742288
_cell_length_b 9.344623
_cell_length_c 4.943035
_cell_angle_alpha 81.852416
_cell_angle_beta 105.992210
_cell_angle_gamma 131.197045
_cell_volume 325.009146
_symmetry_space_group_name_H-M "P -1"
_symmetry_group_IT_number 2
_symmetry_cell_setting 'triclinic'
loop_
_space_group_symop_operation_xyz
x,y,z
-x,-y,-z
loop_
_atom_site_type_symbol
_atom_site_label
_atom_site_fract_x
_atom_site_fract_y
_atom_site_fract_z
Si Si1 0.594247 0.474723 0.806844
Si Si2 0.932473 0.346669 0.243231
Si Si3 0.915869 0.789418 0.258011
Si Si4 0.261097 0.044934 0.009209
Si Si5 0.395154 0.777249 0.527789
O O1 0.500000 0.500000 0.500000
O O2 0.471470 0.207173 0.178296
O O3 0.596509 0.315799 0.709486
O O4 0.500000 0.500000 0.000000
O O5 0.811860 0.338761 0.427035
O O6 0.066710 0.315224 0.469014
O O7 0.775344 0.135991 0.081678
O O8 0.000000 0.500000 0.000000
O O9 0.811725 0.872033 0.239956
O O10 0.806853 0.645388 0.985260
O O11 0.123327 0.961789 0.214692
O O12 0.500000 0.000000 0.500000
#
# Coordination Sequence:
#
# PCOD9068526 Si02
#       5
#     2   2   2   2   2
#     4  12  31  58  96 144 196 259 342 419 506 603
#     4  12  30  56  98 148 209 260 329 426 516 597
#     4  11  27  56  95 140 197 261 345 401 505 601
#     4  11  26  55  98 138 194 265 339 414 494 610
#     4  12  28  59  97 148 200 262 338 421 506 600
#
# _framework density 30.768363000000001
#
# number of rings (size 3 to 8) (size 9 to 14) (size 15 to 20)
#    0.000    0.400    4.000    1.200    5.600    6.400 
#    0.000    1.000    0.000    0.000    0.000    0.000 
#    0.000    0.000    0.000    0.000    0.000    0.000 
#
# Total GULP energy -56111.409703 kJ/mol
# GULP energy per Si atom -5611.140970 kJ/mol
# Density = 3.069833 g / cm^3
# Si number density = 30.768363 Si / 1000 Ang^3
#
#
#
# Elastic Constant Matrix: (Units=GPa)
#
#
# Indices 1 2 3 4 5 6 
#
# 1 218.2698 76.4176 129.0416 -16.3287 3.3258 -19.2957
# 2 76.4176 213.1868 100.6289 -15.2091 -13.2862 -57.2985
# 3 129.0416 100.6289 303.9397 11.7188 -17.9697 -18.5866
# 4 -16.3287 -15.2091 11.7188 66.1770 -7.8867 5.2683
# 5 3.3258 -13.2862 -17.9697 -7.8867 72.8553 5.9413
# 6 -19.2957 -57.2985 -18.5866 5.2683 5.9413 74.5220
#
#
#
# Elastic Compliance Matrix: (Units=1/GPa)
#
#
# Indices 1 2 3 4 5 6 
#
# 1 0.006635 -0.001032 -0.002584 0.001724 -0.000961 0.000234
# 2 -0.001032 0.007285 -0.001695 0.001428 0.000725 0.004753
# 3 -0.002584 -0.001695 0.005029 -0.001756 0.000914 -0.000667
# 4 0.001724 0.001428 -0.001756 0.016372 0.001535 -0.000173
# 5 -0.000961 0.000725 0.000914 0.001535 0.014352 -0.000717
# 6 0.000234 0.004753 -0.000667 -0.000173 -0.000717 0.017037
#
#
# Mechanical properties :
#
#
# Convention : Reuss Voigt Hill
#
# Bulk Modulus (GPa) = 120.10330 149.73027 134.91678
# Shear Modulus (GPa) = 62.41400 71.33142 66.87271
#
# Velocity S-wave (km/s) = 4.50879 4.82013 4.66706
# Velocity P-wave (km/s) = 8.13787 8.93015 8.54320
#
# Compressibility (1/GPa) = 0.00832617
#
# Stress axis : x y z
#
# Youngs Moduli (GPa) = 150.71447 137.25940 198.82802
#
# Poissons Ratio (x) = 0.14172 0.51380
# Poissons Ratio (y) = 0.15561 0.33707
# Poissons Ratio (z) = 0.38947 0.23270
#
# Static dielectric constant tensor:
#      x y z
#    x 2.667980 0.354780 -0.072840 
#    y 0.354780 3.135580 -0.609210 
#    z -0.072840 -0.609210 3.043860 
# 
# From -- ./inp_files/57492.got.cif
#   From: 2010.05.17/outbox.cif.g08.bks.cpg/sg2_29_cif.got.tgz:57492.got - 2010.06.03 11:33:40.
