data_PCOD9068553
_publ_section_title
;
Structure prediction by ZEFSAII (Michael W. Deem and Ramdas Pophale) SiO2 
 PCOD9068553
Probable space group: P -1
;
_chemical_formula_sum "Si O2"
_cell_formula_units_Z 10
_cell_length_a 14.654259
_cell_length_b 11.985121
_cell_length_c 15.358524
_cell_angle_alpha 27.514861
_cell_angle_beta 160.486862
_cell_angle_gamma 152.192127
_cell_volume 395.098273
_symmetry_space_group_name_H-M "P -1"
_symmetry_group_IT_number 2
_symmetry_cell_setting 'triclinic'
loop_
_space_group_symop_operation_xyz
x,y,z
-x,-y,-z
loop_
_atom_site_type_symbol
_atom_site_label
_atom_site_fract_x
_atom_site_fract_y
_atom_site_fract_z
Si Si1 0.657343 0.858674 0.302923
Si Si2 0.616656 0.279286 0.662259
Si Si3 0.766040 0.087212 0.568211
Si Si4 0.244162 0.458669 0.639109
Si Si5 0.866372 0.626299 0.039361
O O1 0.579122 0.556158 0.424869
O O2 0.538211 0.852653 0.298489
O O3 0.000000 0.000000 0.500000
O O4 0.500000 0.000000 0.000000
O O5 0.962037 0.349750 0.913766
O O6 0.480532 0.089933 0.591715
O O7 0.692286 0.323006 0.380744
O O8 0.049236 0.204142 0.684321
O O9 0.831821 0.904850 0.825910
O O10 0.051155 0.538425 0.338118
O O11 0.541517 0.443677 0.879787
#
# Coordination Sequence:
#
# PCOD9068553 Si02
#       5
#     2   2   2   2   2
#     4  11  30  53  77 105 145 184 242 316 373 427
#     4  11  29  47  79 111 140 190 251 297 365 440
#     4  11  27  46  73 109 153 194 246 289 350 442
#     4  11  28  44  71 110 156 198 235 289 358 422
#     4  12  26  45  73 109 150 194 241 297 352 430
#
# _framework density 25.310158999999999
#
# number of rings (size 3 to 8) (size 9 to 14) (size 15 to 20)
#    0.000    0.800    2.000    1.200   14.000    3.200 
#    0.000    0.000    0.000    0.000    0.000    0.000 
#    0.000    0.000    0.000    0.000    0.000    0.000 
#
# Total GULP energy -56051.192034 kJ/mol
# GULP energy per Si atom -5605.119203 kJ/mol
# Density = 2.525255 g / cm^3
# Si number density = 25.310159 Si / 1000 Ang^3
#
#
#
# Elastic Constant Matrix: (Units=GPa)
#
#
# Indices 1 2 3 4 5 6 
#
# 1 146.0449 47.2863 58.2884 28.9910 6.9862 52.8756
# 2 47.2863 114.0662 71.0941 -6.1441 -6.1167 41.4920
# 3 58.2884 71.0941 136.8059 25.7873 0.6965 30.1448
# 4 28.9910 -6.1441 25.7873 46.7827 15.4528 10.3337
# 5 6.9862 -6.1167 0.6965 15.4528 42.2042 8.0812
# 6 52.8756 41.4920 30.1448 10.3337 8.0812 67.4441
#
#
#
# Elastic Compliance Matrix: (Units=1/GPa)
#
#
# Indices 1 2 3 4 5 6 
#
# 1 0.011357 -0.001550 -0.001598 -0.005278 0.001110 -0.006560
# 2 -0.001550 0.018437 -0.009071 0.009757 0.000977 -0.007684
# 3 -0.001598 -0.009071 0.013975 -0.008823 0.001616 0.001746
# 4 -0.005278 0.009757 -0.008823 0.034477 -0.009802 -0.002029
# 5 0.001110 0.000977 0.001616 -0.009802 0.027989 -0.004046
# 6 -0.006560 -0.007684 0.001746 -0.002029 -0.004046 0.024713
#
#
# Mechanical properties :
#
#
# Convention : Reuss Voigt Hill
#
# Bulk Modulus (GPa) = 51.73796 83.36161 67.54979
# Shear Modulus (GPa) = 30.89675 45.96941 38.43308
#
# Velocity S-wave (km/s) = 3.49768 4.26636 3.90100
# Velocity P-wave (km/s) = 6.06610 7.56814 6.85836
#
# Compressibility (1/GPa) = 0.01932817
#
# Stress axis : x y z
#
# Youngs Moduli (GPa) = 88.05411 54.24006 71.55652
#
# Poissons Ratio (x) = 0.08409 0.11437
# Poissons Ratio (y) = 0.13651 0.64911
# Poissons Ratio (z) = 0.14074 0.49203
#
# Static dielectric constant tensor:
#      x y z
#    x 2.038990 -0.024510 0.030930 
#    y -0.024510 1.949520 0.004370 
#    z 0.030930 0.004370 1.993170 
# 
# From -- ./inp_files/530395.got.cif
#   From: 2010.05.17/outbox.cif.g08.bks.cpg/sg2_266_cif.got.tgz:530395.got - 2010.06.03 11:33:40.
