data_PCOD9068435
_publ_section_title
;
Structure prediction by ZEFSAII (Michael W. Deem and Ramdas Pophale) SiO2 
 PCOD9068435
Probable space group: P -1
;
_chemical_formula_sum "Si O2"
_cell_formula_units_Z 12
_cell_length_a 5.410015
_cell_length_b 10.547262
_cell_length_c 10.823037
_cell_angle_alpha 111.425850
_cell_angle_beta 128.362859
_cell_angle_gamma 81.872234
_cell_volume 447.679061
_symmetry_space_group_name_H-M "P -1"
_symmetry_group_IT_number 2
_symmetry_cell_setting 'triclinic'
loop_
_space_group_symop_operation_xyz
x,y,z
-x,-y,-z
loop_
_atom_site_type_symbol
_atom_site_label
_atom_site_fract_x
_atom_site_fract_y
_atom_site_fract_z
Si Si1 0.696268 0.541640 0.695238
Si Si2 0.485963 0.101393 0.229435
Si Si3 0.913612 0.152500 0.876985
Si Si4 0.492975 0.343936 0.897350
Si Si5 0.700362 0.288095 0.184913
Si Si6 0.163280 0.755201 0.377334
O O1 0.500000 0.500000 0.500000
O O2 0.465739 0.612393 0.740178
O O3 0.770023 0.392547 0.708763
O O4 0.993476 0.636083 0.759833
O O5 0.760081 0.152169 0.231364
O O6 0.602626 0.188496 0.419663
O O7 0.377978 0.952757 0.195615
O O8 0.193491 0.128352 0.054483
O O9 0.818718 0.304330 0.930362
O O10 0.867023 0.140900 0.709291
O O11 0.196823 0.289333 0.701022
O O12 0.500000 0.500000 0.000000
O O13 0.453910 0.261700 0.986321
#
# Coordination Sequence:
#
# PCOD9068435 Si02
#       6
#     2   2   2   2   2   2
#     4  12  26  44  78 118 160 200 264 327 392 467
#     4  11  26  50  78 108 153 211 264 320 388 473
#     4  11  27  53  72 110 158 207 262 324 392 465
#     4  12  26  45  74 112 156 200 257 327 397 462
#     4  12  25  47  74 114 154 207 253 318 399 458
#     4  12  26  45  78 113 151 203 262 322 391 467
#
# _framework density 26.804918000000001
#
# number of rings (size 3 to 8) (size 9 to 14) (size 15 to 20)
#    0.000    0.333    5.000    3.000    0.000    2.667 
#    3.000    0.000    0.000    0.000    0.000    0.000 
#    0.000    0.000    0.000    0.000    0.000    0.000 
#
# Total GULP energy -66891.100592 kJ/mol
# GULP energy per Si atom -5574.258383 kJ/mol
# Density = 2.674391 g / cm^3
# Si number density = 26.804918 Si / 1000 Ang^3
#
#
#
# Elastic Constant Matrix: (Units=GPa)
#
#
# Indices 1 2 3 4 5 6 
#
# 1 98.2692 27.1668 66.0675 -16.1305 -12.5636 15.4779
# 2 27.1668 87.3960 40.6569 -19.7619 1.2304 42.2148
# 3 66.0675 40.6569 170.3909 -8.6031 -5.1452 21.7256
# 4 -16.1305 -19.7619 -8.6031 41.4276 8.3034 -7.1158
# 5 -12.5636 1.2304 -5.1452 8.3034 32.5969 -11.1472
# 6 15.4779 42.2148 21.7256 -7.1158 -11.1472 52.6131
#
#
#
# Elastic Compliance Matrix: (Units=1/GPa)
#
#
# Indices 1 2 3 4 5 6 
#
# 1 0.015219 -0.001982 -0.005217 0.003097 0.004551 0.000650
# 2 -0.001982 0.024963 -0.002563 0.009502 -0.011191 -0.019474
# 3 -0.005217 -0.002563 0.008440 -0.001475 -0.000257 -0.000148
# 4 0.003097 0.009502 -0.001475 0.030410 -0.009108 -0.005743
# 5 0.004551 -0.011191 -0.000257 -0.009108 0.040280 0.015048
# 6 0.000650 -0.019474 -0.000148 -0.005743 0.015048 0.036913
#
#
# Mechanical properties :
#
#
# Convention : Reuss Voigt Hill
#
# Bulk Modulus (GPa) = 34.36644 69.31536 51.84090
# Shear Modulus (GPa) = 26.96151 40.13853 33.55002
#
# Velocity S-wave (km/s) = 3.17494 3.87386 3.54169
# Velocity P-wave (km/s) = 5.12729 6.77676 6.00889
#
# Compressibility (1/GPa) = 0.02909816
#
# Stress axis : x y z
#
# Youngs Moduli (GPa) = 65.70540 40.05886 118.48232
#
# Poissons Ratio (x) = 0.07938 0.61818
# Poissons Ratio (y) = 0.13020 0.30370
# Poissons Ratio (z) = 0.34282 0.10268
#
# Static dielectric constant tensor:
#      x y z
#    x 2.249360 -0.036520 0.091700 
#    y -0.036520 2.275700 -0.052770 
#    z 0.091700 -0.052770 2.113810 
# 
# From -- ./inp_files/363484.got.cif
#   From: 2010.05.17/outbox.cif.g08.bks.cpg/sg2_182_cif.got.tgz:363484.got - 2010.06.03 11:33:40.
