data_PCOD9068665
_publ_section_title
;
Structure prediction by ZEFSAII (Michael W. Deem and Ramdas Pophale) SiO2 
 PCOD9068665
Probable space group: P -1
;
_chemical_formula_sum "Si O2"
_cell_formula_units_Z 10
_cell_length_a 16.346197
_cell_length_b 9.824530
_cell_length_c 15.965809
_cell_angle_alpha 45.437417
_cell_angle_beta 162.075785
_cell_angle_gamma 144.669501
_cell_volume 414.370340
_symmetry_space_group_name_H-M "P -1"
_symmetry_group_IT_number 2
_symmetry_cell_setting 'triclinic'
loop_
_space_group_symop_operation_xyz
x,y,z
-x,-y,-z
loop_
_atom_site_type_symbol
_atom_site_label
_atom_site_fract_x
_atom_site_fract_y
_atom_site_fract_z
Si Si1 0.612535 0.846106 0.148757
Si Si2 0.675078 0.001482 0.789029
Si Si3 0.551640 0.603223 0.719853
Si Si4 0.571779 0.313059 0.150403
Si Si5 0.695658 0.427588 0.670573
O O1 0.410905 0.562453 0.112922
O O2 0.561388 0.821574 0.010535
O O3 0.000000 0.000000 0.500000
O O4 0.500000 0.000000 0.000000
O O5 0.492970 0.763015 0.650586
O O6 0.645855 0.892254 0.898460
O O7 0.518389 0.138403 0.592381
O O8 0.076518 0.213035 0.050671
O O9 0.240327 0.446931 0.412814
O O10 0.000000 0.500000 0.500000
O O11 0.500000 0.500000 0.000000
O O12 0.500000 0.500000 0.500000
O O13 0.000000 0.500000 0.000000
#
# Coordination Sequence:
#
# PCOD9068665 Si02
#       5
#     2   2   2   2   2
#     4  12  30  51  79 116 165 209 259 329 403 470
#     4  11  27  50  84 111 158 204 269 322 393 467
#     4  11  27  52  81 116 158 210 269 321 396 479
#     4  12  28  52  78 114 159 208 266 322 396 480
#     4  12  27  46  74 115 158 197 256 324 394 458
#
# _framework density 24.133001
#
# number of rings (size 3 to 8) (size 9 to 14) (size 15 to 20)
#    0.000    0.400    4.000    1.800   11.200    0.000 
#    0.000    0.000    0.000    0.000    0.000    0.000 
#    0.000    0.000    0.000    0.000    0.000    0.000 
#
# Total GULP energy -55926.855234 kJ/mol
# GULP energy per Si atom -5592.685523 kJ/mol
# Density = 2.407807 g / cm^3
# Si number density = 24.133001 Si / 1000 Ang^3
#
#
#
# Elastic Constant Matrix: (Units=GPa)
#
#
# Indices 1 2 3 4 5 6 
#
# 1 246.9627 96.6355 73.6002 -8.9442 -37.3302 -22.4529
# 2 96.6355 157.3860 48.6718 -32.3274 15.7397 -26.5920
# 3 73.6002 48.6718 159.1468 -23.2937 -6.0235 -16.4658
# 4 -8.9442 -32.3274 -23.2937 49.4238 -8.4759 12.7349
# 5 -37.3302 15.7397 -6.0235 -8.4759 50.4987 -5.2313
# 6 -22.4529 -26.5920 -16.4658 12.7349 -5.2313 76.2202
#
#
#
# Elastic Compliance Matrix: (Units=1/GPa)
#
#
# Indices 1 2 3 4 5 6 
#
# 1 0.007594 -0.004977 -0.001919 -0.001855 0.006714 0.000857
# 2 -0.004977 0.011433 -0.000600 0.004909 -0.006373 0.001135
# 3 -0.001919 -0.000600 0.007831 0.002874 0.000232 0.000453
# 4 -0.001855 0.004909 0.002874 0.025315 0.001448 -0.002343
# 5 0.006714 -0.006373 0.000232 0.001448 0.027170 0.001427
# 6 0.000857 0.001135 0.000453 -0.002343 0.001427 0.014356
#
#
# Mechanical properties :
#
#
# Convention : Reuss Voigt Hill
#
# Bulk Modulus (GPa) = 84.27307 111.25672 97.76490
# Shear Modulus (GPa) = 44.38734 58.20107 51.29421
#
# Velocity S-wave (km/s) = 4.29334 4.91621 4.61529
# Velocity P-wave (km/s) = 7.71836 8.85591 8.30663
#
# Compressibility (1/GPa) = 0.01186619
#
# Stress axis : x y z
#
# Youngs Moduli (GPa) = 131.68309 87.46827 127.70450
#
# Poissons Ratio (x) = 0.43533 0.24501
# Poissons Ratio (y) = 0.65539 0.07662
# Poissons Ratio (z) = 0.25264 0.05248
#
# Static dielectric constant tensor:
#      x y z
#    x 1.831330 0.068710 0.018600 
#    y 0.068710 1.966650 0.064980 
#    z 0.018600 0.064980 1.975470 
# 
# From -- ./inp_files/309364.got.cif
#   From: 2010.05.17/outbox.cif.g08.bks.cpg/sg2_155_cif.got.tgz:309364.got - 2010.06.03 11:33:40.
