data_PCOD9068555
_publ_section_title
;
Structure prediction by ZEFSAII (Michael W. Deem and Ramdas Pophale) SiO2 
 PCOD9068555
Probable space group: P -1
;
_chemical_formula_sum "Si O2"
_cell_formula_units_Z 14
_cell_length_a 4.851963
_cell_length_b 14.399482
_cell_length_c 16.754059
_cell_angle_alpha 30.460905
_cell_angle_beta 111.728864
_cell_angle_gamma 99.496319
_cell_volume 520.878937
_symmetry_space_group_name_H-M "P -1"
_symmetry_group_IT_number 2
_symmetry_cell_setting 'triclinic'
loop_
_space_group_symop_operation_xyz
x,y,z
-x,-y,-z
loop_
_atom_site_type_symbol
_atom_site_label
_atom_site_fract_x
_atom_site_fract_y
_atom_site_fract_z
Si Si1 0.523160 0.513752 0.396512
Si Si2 0.251684 0.200816 0.125431
Si Si3 0.874020 0.765513 0.168989
Si Si4 0.798516 0.008675 0.134320
Si Si5 0.736951 0.393418 0.237739
Si Si6 0.763805 0.790655 0.696950
Si Si7 0.260183 0.197094 0.565198
O O1 0.500000 0.500000 0.500000
O O2 0.786694 0.593666 0.332071
O O3 0.499537 0.318292 0.501440
O O4 0.190143 0.677038 0.219714
O O5 0.161329 0.238013 0.180684
O O6 0.995440 0.132392 0.101825
O O7 0.569017 0.015131 0.295086
O O8 0.296258 0.388937 0.950842
O O9 0.919935 0.906253 0.138998
O O10 0.567765 0.872946 0.005609
O O11 0.807615 0.842663 0.321981
O O12 0.405593 0.361993 0.236614
O O13 0.923574 0.254880 0.288102
O O14 0.956494 0.315676 0.395121
O O15 0.500000 0.000000 0.500000
#
# Coordination Sequence:
#
# PCOD9068555 Si02
#       7
#     2   2   2   2   2   2   2
#     4  12  25  48  72 109 149 200 250 307 369 438
#     4  12  28  48  76 112 151 193 252 305 373 447
#     4  11  27  48  74 105 154 201 251 303 377 435
#     4  11  27  46  74 109 149 198 251 313 363 444
#     4  12  29  50  77 112 149 199 241 309 374 446
#     4  12  26  53  80 108 152 195 245 305 377 444
#     4  12  28  44  77 109 151 196 252 309 368 437
#
# _framework density 26.877645000000001
#
# number of rings (size 3 to 8) (size 9 to 14) (size 15 to 20)
#    0.000    0.286    2.857    4.286   10.000    1.143 
#    0.000    0.000    0.000    0.000    0.000    0.000 
#    0.000    0.000    0.000    0.000    0.000    0.000 
#
# Total GULP energy -78767.816879 kJ/mol
# GULP energy per Si atom -5626.272634 kJ/mol
# Density = 2.681647 g / cm^3
# Si number density = 26.877645 Si / 1000 Ang^3
#
#
#
# Elastic Constant Matrix: (Units=GPa)
#
#
# Indices 1 2 3 4 5 6 
#
# 1 85.5350 6.7382 9.8566 -1.5042 -2.1982 11.9012
# 2 6.7382 116.5781 53.6287 9.8777 -13.8736 21.0977
# 3 9.8566 53.6287 168.5205 2.2396 -7.4961 7.9724
# 4 -1.5042 9.8777 2.2396 61.3986 -0.6780 -4.3335
# 5 -2.1982 -13.8736 -7.4961 -0.6780 44.3550 -6.5274
# 6 11.9012 21.0977 7.9724 -4.3335 -6.5274 49.8807
#
#
#
# Elastic Compliance Matrix: (Units=1/GPa)
#
#
# Indices 1 2 3 4 5 6 
#
# 1 0.012150 0.000089 -0.000602 0.000108 0.000115 -0.002816
# 2 0.000089 0.011266 -0.003265 -0.001957 0.002339 -0.004128
# 3 -0.000602 -0.003265 0.006992 0.000290 0.000202 0.000459
# 4 0.000108 -0.001957 0.000290 0.016750 0.000024 0.002214
# 5 0.000115 0.002339 0.000202 0.000024 0.023618 0.002044
# 6 -0.002816 -0.004128 0.000459 0.002214 0.002044 0.022852
#
#
# Mechanical properties :
#
#
# Convention : Reuss Voigt Hill
#
# Bulk Modulus (GPa) = 43.76083 56.78674 50.27378
# Shear Modulus (GPa) = 45.95490 51.15419 48.55454
#
# Velocity S-wave (km/s) = 4.13944 4.36733 4.25491
# Velocity P-wave (km/s) = 6.25807 6.82680 6.54861
#
# Compressibility (1/GPa) = 0.02285149
#
# Stress axis : x y z
#
# Youngs Moduli (GPa) = 82.30350 88.76176 143.02667
#
# Poissons Ratio (x) = -0.00789 0.08610
# Poissons Ratio (y) = -0.00731 0.46699
# Poissons Ratio (z) = 0.04955 0.28981
#
# Static dielectric constant tensor:
#      x y z
#    x 2.035340 -0.040020 0.028740 
#    y -0.040020 2.057520 -0.014980 
#    z 0.028740 -0.014980 2.137090 
# 
# From -- ./inp_files/549789.got.cif
#   From: 2010.05.17/outbox.cif.g08.bks.cpg/sg2_275_cif.got.tgz:549789.got - 2010.06.03 11:33:40.
