data_PCOD9068350
_publ_section_title
;
Structure prediction by ZEFSAII (Michael W. Deem and Ramdas Pophale) SiO2 
 PCOD9068350
Probable space group: P -1
;
_chemical_formula_sum "Si O2"
_cell_formula_units_Z 16
_cell_length_a 22.304568
_cell_length_b 9.317412
_cell_length_c 8.569822
_cell_angle_alpha 126.963421
_cell_angle_beta 32.155483
_cell_angle_gamma 129.933932
_cell_volume 719.472988
_symmetry_space_group_name_H-M "P -1"
_symmetry_group_IT_number 2
_symmetry_cell_setting 'triclinic'
loop_
_space_group_symop_operation_xyz
x,y,z
-x,-y,-z
loop_
_atom_site_type_symbol
_atom_site_label
_atom_site_fract_x
_atom_site_fract_y
_atom_site_fract_z
Si Si1 0.312280 0.385764 0.358242
Si Si2 0.359417 0.390976 0.919117
Si Si3 0.932664 0.564406 0.054306
Si Si4 0.274706 0.960778 0.203450
Si Si5 0.047914 0.671457 0.388504
Si Si6 0.897699 0.070397 0.189958
Si Si7 0.618824 0.383417 0.308646
Si Si8 0.886951 0.873505 0.759522
O O1 0.170784 0.348854 0.624013
O O2 0.341410 0.492734 0.534585
O O3 0.334578 0.181199 0.175647
O O4 0.369206 0.486888 0.134954
O O5 0.477154 0.334371 0.594753
O O6 0.344171 0.502175 0.864890
O O7 0.243387 0.208922 0.074008
O O8 0.878409 0.386589 0.947719
O O9 0.000000 0.500000 0.000000
O O10 0.036438 0.709580 0.825066
O O11 0.139366 0.865820 0.375030
O O12 0.233024 0.971230 0.479951
O O13 0.339829 0.805319 0.919354
O O14 0.000000 0.500000 0.500000
O O15 0.930033 0.697798 0.596566
O O16 0.881021 0.986189 0.000653
O O17 0.000000 0.000000 0.000000
O O18 0.000000 0.000000 0.500000
#
# Coordination Sequence:
#
# PCOD9068350 Si02
#       8
#     2   2   2   2   2   2   2   2
#     4  12  25  47  74 105 144 191 249 304 369 435
#     4  11  26  49  76 106 146 193 251 306 359 440
#     4  12  24  37  62 103 145 182 234 297 362 434
#     4  12  24  42  74 106 141 192 247 297 365 442
#     4  12  21  37  64  96 139 184 223 284 362 424
#     4  12  22  40  64 101 141 188 233 289 370 439
#     4  11  27  52  75 103 147 201 248 303 362 429
#     4  12  24  43  67 105 145 177 233 303 365 428
#
# _framework density 22.238499999999998
#
# number of rings (size 3 to 8) (size 9 to 14) (size 15 to 20)
#    0.000    0.250    5.000    4.875    1.750    0.500 
#    0.000    6.875    0.000    0.000    0.000    0.000 
#    0.000    0.000    0.000    0.000    0.000    0.000 
#
# Total GULP energy -89132.780676 kJ/mol
# GULP energy per Si atom -5570.798792 kJ/mol
# Density = 2.218788 g / cm^3
# Si number density = 22.238500 Si / 1000 Ang^3
#
#
#
# Elastic Constant Matrix: (Units=GPa)
#
#
# Indices 1 2 3 4 5 6 
#
# 1 114.6340 53.1271 60.5351 9.0610 14.3527 -6.5878
# 2 53.1271 84.0492 41.5644 11.4965 3.6582 -6.6480
# 3 60.5351 41.5644 126.6178 8.4008 12.2251 3.9568
# 4 9.0610 11.4965 8.4008 43.0236 5.5574 3.1198
# 5 14.3527 3.6582 12.2251 5.5574 55.4020 -0.5975
# 6 -6.5878 -6.6480 3.9568 3.1198 -0.5975 26.8917
#
#
#
# Elastic Compliance Matrix: (Units=1/GPa)
#
#
# Indices 1 2 3 4 5 6 
#
# 1 0.014755 -0.006643 -0.004715 -0.000309 -0.002284 0.002651
# 2 -0.006643 0.018187 -0.002833 -0.003373 0.001524 0.003711
# 3 -0.004715 -0.002833 0.011304 -0.000056 -0.001118 -0.003537
# 4 -0.000309 -0.003373 -0.000056 0.024784 -0.002212 -0.003826
# 5 -0.002284 0.001524 -0.001118 -0.002212 0.019017 0.000661
# 6 0.002651 0.003711 -0.003537 -0.003826 0.000661 0.039732
#
#
# Mechanical properties :
#
#
# Convention : Reuss Voigt Hill
#
# Bulk Modulus (GPa) = 63.04242 70.63935 66.84089
# Shear Modulus (GPa) = 30.96938 36.40175 33.68557
#
# Velocity S-wave (km/s) = 3.73581 4.05023 3.89619
# Velocity P-wave (km/s) = 6.85698 7.32843 7.09662
#
# Compressibility (1/GPa) = 0.01586233
#
# Stress axis : x y z
#
# Youngs Moduli (GPa) = 67.77334 54.98517 88.46077
#
# Poissons Ratio (x) = 0.36529 0.41712
# Poissons Ratio (y) = 0.45025 0.25063
# Poissons Ratio (z) = 0.31958 0.15578
#
# Static dielectric constant tensor:
#      x y z
#    x 1.697930 -0.068600 -0.127510 
#    y -0.068600 1.881480 -0.004100 
#    z -0.127510 -0.004100 1.667150 
# 
# From -- ./inp_files/352378.got.cif
#   From: 2010.05.17/outbox.cif.g08.bks.cpg/sg2_177_cif.got.tgz:352378.got - 2010.06.03 11:33:40.
