data_PCOD9068287
_publ_section_title
;
Structure prediction by ZEFSAII (Michael W. Deem and Ramdas Pophale) SiO2 
 PCOD9068287
Probable space group: P -1
;
_chemical_formula_sum "Si O2"
_cell_formula_units_Z 15
_cell_length_a 21.189411
_cell_length_b 5.133465
_cell_length_c 9.469490
_cell_angle_alpha 69.186012
_cell_angle_beta 38.127587
_cell_angle_gamma 86.381127
_cell_volume 551.088352
_symmetry_space_group_name_H-M "P -1"
_symmetry_group_IT_number 2
_symmetry_cell_setting 'triclinic'
loop_
_space_group_symop_operation_xyz
x,y,z
-x,-y,-z
loop_
_atom_site_type_symbol
_atom_site_label
_atom_site_fract_x
_atom_site_fract_y
_atom_site_fract_z
Si Si1 0.080861 0.827407 0.246582
Si Si2 0.771610 0.181806 0.759013
Si Si3 0.554953 0.308835 0.175492
Si Si4 0.500000 0.500000 0.500000
Si Si5 0.629275 0.254243 0.505132
Si Si6 0.121949 0.472761 0.000129
Si Si7 0.307132 0.117181 0.326661
Si Si8 0.883071 0.725007 0.260487
O O1 0.181005 0.898335 0.166942
O O2 0.102661 0.734771 0.068979
O O3 0.000000 0.500000 0.500000
O O4 0.051986 0.126267 0.235287
O O5 0.853134 0.504965 0.492278
O O6 0.759297 0.969778 0.687090
O O7 0.647213 0.159429 0.010405
O O8 0.575326 0.379291 0.292614
O O9 0.436751 0.062088 0.393083
O O10 0.592245 0.583054 0.948048
O O11 0.553117 0.438554 0.568832
O O12 0.649807 0.137513 0.646156
O O13 0.750882 0.458831 0.203837
O O14 0.113363 0.467764 0.847168
O O15 0.223297 0.177344 0.571671
O O16 0.000000 0.000000 0.000000
#
# Coordination Sequence:
#
# PCOD9068287 Si02
#       8
#     2   2   2   1   2   2   2   2
#     4  12  29  50  80 112 162 210 266 335 411 482
#     4  11  26  49  73 114 152 207 265 324 404 481
#     4  11  27  46  75 107 153 210 260 329 396 483
#     4  12  28  44  76 104 158 200 266 320 400 476
#     4  12  27  47  73 114 149 207 259 328 401 467
#     4  12  28  49  80 118 158 206 270 333 400 492
#     4  11  26  49  76 111 159 206 267 330 400 490
#     4  11  26  48  81 114 154 205 265 335 403 470
#
# _framework density 27.218865999999998
#
# number of rings (size 3 to 8) (size 9 to 14) (size 15 to 20)
#    0.000    0.533    1.333    4.400   13.067    2.667 
#    0.000    0.000    0.000    0.000    0.000    0.000 
#    0.000    0.000    0.000    0.000    0.000    0.000 
#
# Total GULP energy -83749.056550 kJ/mol
# GULP energy per Si atom -5583.270437 kJ/mol
# Density = 2.715691 g / cm^3
# Si number density = 27.218866 Si / 1000 Ang^3
#
#
#
# Elastic Constant Matrix: (Units=GPa)
#
#
# Indices 1 2 3 4 5 6 
#
# 1 140.2755 48.0003 26.3621 6.9322 2.6480 2.7237
# 2 48.0003 90.6999 22.8651 -9.9229 18.9367 19.4808
# 3 26.3621 22.8651 125.6226 -12.4930 8.3803 17.9574
# 4 6.9322 -9.9229 -12.4930 46.0936 19.6481 7.1295
# 5 2.6480 18.9367 8.3803 19.6481 34.2356 1.6789
# 6 2.7237 19.4808 17.9574 7.1295 1.6789 39.8371
#
#
#
# Elastic Compliance Matrix: (Units=1/GPa)
#
#
# Indices 1 2 3 4 5 6 
#
# 1 0.011555 -0.010503 -0.003459 -0.011096 0.011768 0.007395
# 2 -0.010503 0.027769 0.003837 0.023233 -0.027959 -0.017571
# 3 -0.003459 0.003837 0.010678 0.009509 -0.009546 -0.007753
# 4 -0.011096 0.023233 0.009509 0.053037 -0.043653 -0.022541
# 5 0.011768 -0.027959 -0.009546 -0.043653 0.070073 0.022030
# 6 0.007395 -0.017571 -0.007753 -0.022541 0.022030 0.039789
#
#
# Mechanical properties :
#
#
# Convention : Reuss Voigt Hill
#
# Bulk Modulus (GPa) = 33.60893 61.22814 47.41854
# Shear Modulus (GPa) = 20.57023 41.32464 30.94744
#
# Velocity S-wave (km/s) = 2.75204 3.90068 3.37558
# Velocity P-wave (km/s) = 4.74055 6.54451 5.71417
#
# Compressibility (1/GPa) = 0.02975399
#
# Stress axis : x y z
#
# Youngs Moduli (GPa) = 86.54024 36.01097 93.64643
#
# Poissons Ratio (x) = 0.37821 0.32391
# Poissons Ratio (y) = 0.90889 -0.35931
# Poissons Ratio (z) = 0.29934 -0.13817
#
# Static dielectric constant tensor:
#      x y z
#    x 2.153370 0.011980 0.050760 
#    y 0.011980 2.311200 -0.092390 
#    z 0.050760 -0.092390 2.251910 
# 
# From -- ./inp_files/340238.got.cif
#   From: 2010.05.17/outbox.cif.g08.bks.cpg/sg2_171_cif.got.tgz:340238.got - 2010.06.03 11:33:40.
