data_PCOD9068268
_publ_section_title
;
Structure prediction by ZEFSAII (Michael W. Deem and Ramdas Pophale) SiO2 
 PCOD9068268
Probable space group: P -1
;
_chemical_formula_sum "Si O2"
_cell_formula_units_Z 13
_cell_length_a 9.268546
_cell_length_b 9.795223
_cell_length_c 9.673065
_cell_angle_alpha 134.571821
_cell_angle_beta 74.010069
_cell_angle_gamma 115.253138
_cell_volume 565.421631
_symmetry_space_group_name_H-M "P -1"
_symmetry_group_IT_number 2
_symmetry_cell_setting 'triclinic'
loop_
_space_group_symop_operation_xyz
x,y,z
-x,-y,-z
loop_
_atom_site_type_symbol
_atom_site_label
_atom_site_fract_x
_atom_site_fract_y
_atom_site_fract_z
Si Si1 0.993101 0.957035 0.629632
Si Si2 0.106104 0.197194 0.021780
Si Si3 0.441008 0.527606 0.189623
Si Si4 0.048466 0.489484 0.636308
Si Si5 0.500000 0.000000 0.500000
Si Si6 0.353358 0.015222 0.238662
Si Si7 0.608990 0.340302 0.217292
O O1 0.022530 0.745744 0.479841
O O2 0.819529 0.961967 0.720461
O O3 0.000000 0.000000 0.500000
O O4 0.120411 0.112520 0.806355
O O5 0.280344 0.333675 0.125009
O O6 0.013521 0.357058 0.152946
O O7 0.000000 0.000000 0.000000
O O8 0.423570 0.748308 0.352565
O O9 0.563302 0.505480 0.257189
O O10 0.500000 0.500000 0.000000
O O11 0.235199 0.555617 0.659643
O O12 0.000000 0.500000 0.500000
O O13 0.407225 0.997524 0.369484
O O14 0.475551 0.206890 0.262293
O O15 0.358773 0.816282 0.012532
#
# Coordination Sequence:
#
# PCOD9068268 Si02
#       7
#     2   2   2   2   1   2   2
#     4  12  29  46  76 112 157 200 259 322 397 464
#     4  12  28  52  79 113 161 202 270 324 393 475
#     4  12  29  49  80 118 157 205 258 333 392 468
#     4  12  28  47  79 112 148 209 259 324 392 464
#     4  12  28  46  76 112 160 196 268 318 396 462
#     4  11  26  48  78 115 153 209 263 329 388 480
#     4  11  26  50  80 110 158 205 266 324 398 468
#
# _framework density 22.991693000000001
#
# number of rings (size 3 to 8) (size 9 to 14) (size 15 to 20)
#    0.000    0.308    4.615    1.846   10.769    1.846 
#    0.000    0.000    0.000    0.000    0.000    0.000 
#    0.000    0.000    0.000    0.000    0.000    0.000 
#
# Total GULP energy -72518.576672 kJ/mol
# GULP energy per Si atom -5578.352052 kJ/mol
# Density = 2.293936 g / cm^3
# Si number density = 22.991693 Si / 1000 Ang^3
#
#
#
# Elastic Constant Matrix: (Units=GPa)
#
#
# Indices 1 2 3 4 5 6 
#
# 1 92.5983 35.3174 18.0531 2.6604 19.7783 -12.9410
# 2 35.3174 130.6151 56.3898 12.2124 1.7592 -46.3656
# 3 18.0531 56.3898 107.2515 24.8660 17.8772 -5.4501
# 4 2.6604 12.2124 24.8660 37.9525 -12.5041 1.3497
# 5 19.7783 1.7592 17.8772 -12.5041 48.2412 -2.8640
# 6 -12.9410 -46.3656 -5.4501 1.3497 -2.8640 44.3810
#
#
#
# Elastic Compliance Matrix: (Units=1/GPa)
#
#
# Indices 1 2 3 4 5 6 
#
# 1 0.013551 -0.004304 0.001781 -0.002971 -0.006869 -0.000679
# 2 -0.004304 0.019252 -0.010058 0.002173 0.006420 0.017971
# 3 0.001781 -0.010058 0.018604 -0.012399 -0.010948 -0.008034
# 4 -0.002971 0.002173 -0.012399 0.039224 0.015883 -0.000287
# 5 -0.006869 0.006420 -0.010948 0.015883 0.031778 0.004927
# 6 -0.000679 0.017971 -0.008034 -0.000287 0.004927 0.040449
#
#
# Mechanical properties :
#
#
# Convention : Reuss Voigt Hill
#
# Bulk Modulus (GPa) = 38.10290 61.10950 49.60620
# Shear Modulus (GPa) = 25.41053 40.82859 33.11956
#
# Velocity S-wave (km/s) = 3.32807 4.21859 3.79951
# Velocity P-wave (km/s) = 5.60147 7.09685 6.39304
#
# Compressibility (1/GPa) = 0.02624472
#
# Stress axis : x y z
#
# Youngs Moduli (GPa) = 73.79365 51.94280 53.75266
#
# Poissons Ratio (x) = 0.22356 -0.09575
# Poissons Ratio (y) = 0.31761 0.54067
# Poissons Ratio (z) = -0.13145 0.52246
#
# Static dielectric constant tensor:
#      x y z
#    x 1.985200 0.062340 -0.245540 
#    y 0.062340 1.799950 -0.014300 
#    z -0.245540 -0.014300 2.565060 
# 
# From -- ./inp_files/160337.got.cif
#   From: 2010.05.17/outbox.cif.g08.bks.cpg/sg2_81_cif.got.tgz:160337.got - 2010.06.03 11:33:40.
