data_PCOD9068968
_publ_section_title
;
Structure prediction by ZEFSAII (Michael W. Deem and Ramdas Pophale) SiO2 
 PCOD9068968
Probable space group: P -1
;
_chemical_formula_sum "Si O2"
_cell_formula_units_Z 16
_cell_length_a 24.859871
_cell_length_b 9.021909
_cell_length_c 9.081273
_cell_angle_alpha 50.895945
_cell_angle_beta 137.702742
_cell_angle_gamma 151.321083
_cell_volume 656.758325
_symmetry_space_group_name_H-M "P -1"
_symmetry_group_IT_number 2
_symmetry_cell_setting 'triclinic'
loop_
_space_group_symop_operation_xyz
x,y,z
-x,-y,-z
loop_
_atom_site_type_symbol
_atom_site_label
_atom_site_fract_x
_atom_site_fract_y
_atom_site_fract_z
Si Si1 0.376431 0.303485 0.278410
Si Si2 0.081739 0.343371 0.984497
Si Si3 0.557677 0.531977 0.248049
Si Si4 0.108110 0.824021 0.091822
Si Si5 0.254179 0.772981 0.797351
Si Si6 0.304625 0.593447 0.498799
Si Si7 0.538827 0.131170 0.830393
Si Si8 0.147279 0.255597 0.685290
O O1 0.500000 0.500000 0.500000
O O2 0.430025 0.331217 0.215062
O O3 0.373157 0.522603 0.173550
O O4 0.243017 0.967280 0.273943
O O5 0.197226 0.500718 0.237205
O O6 0.146404 0.565921 0.835473
O O7 0.964194 0.253658 0.859192
O O8 0.000000 0.000000 0.000000
O O9 0.621812 0.441659 0.417154
O O10 0.676064 0.896469 0.306401
O O11 0.500000 0.500000 0.000000
O O12 0.000000 0.500000 0.000000
O O13 0.136360 0.058495 0.898512
O O14 0.200804 0.544763 0.696579
O O15 0.371077 0.868024 0.044660
O O16 0.230195 0.372510 0.632029
O O17 0.420219 0.930531 0.602664
O O18 0.500000 0.000000 0.000000
O O19 0.000000 0.000000 0.500000
#
# Coordination Sequence:
#
# PCOD9068968 Si02
#       8
#     2   2   2   2   2   2   2   2
#     4  12  28  47  75 104 146 190 242 302 362 431
#     4  12  27  51  69 105 151 193 242 297 366 435
#     4  12  26  45  71 113 146 180 241 305 366 426
#     4  12  28  46  74 105 146 191 243 302 360 429
#     4  12  25  46  75 103 149 192 238 305 362 428
#     4  12  26  43  77 110 142 189 245 299 365 434
#     4  12  21  46  75 101 142 192 242 295 361 431
#     4  12  23  49  73  99 138 200 244 284 359 442
#
# _framework density 24.362082000000001
#
# number of rings (size 3 to 8) (size 9 to 14) (size 15 to 20)
#    0.000    0.000    7.500    0.750    8.750    1.500 
#    0.000    1.250    0.000    0.000    0.000    0.000 
#    0.000    0.000    0.000    0.000    0.000    0.000 
#
# Total GULP energy -89347.623835 kJ/mol
# GULP energy per Si atom -5584.226490 kJ/mol
# Density = 2.430663 g / cm^3
# Si number density = 24.362082 Si / 1000 Ang^3
#
#
#
# Elastic Constant Matrix: (Units=GPa)
#
#
# Indices 1 2 3 4 5 6 
#
# 1 164.7147 55.7806 16.0728 15.2609 5.4557 25.1584
# 2 55.7806 158.9035 35.2793 37.8554 7.9150 3.0273
# 3 16.0728 35.2793 96.2131 35.5559 0.6593 5.2837
# 4 15.2609 37.8554 35.5559 48.5288 4.1130 4.5180
# 5 5.4557 7.9150 0.6593 4.1130 31.0330 6.7406
# 6 25.1584 3.0273 5.2837 4.5180 6.7406 41.2668
#
#
#
# Elastic Compliance Matrix: (Units=1/GPa)
#
#
# Indices 1 2 3 4 5 6 
#
# 1 0.007635 -0.002610 -0.000115 0.000115 0.000290 -0.004508
# 2 -0.002610 0.008725 -0.000858 -0.005410 -0.001441 0.001889
# 3 -0.000115 -0.000858 0.014425 -0.009905 0.001433 -0.000864
# 4 0.000115 -0.005410 -0.009905 0.032395 -0.002384 -0.001562
# 5 0.000290 -0.001441 0.001433 -0.002384 0.034032 -0.005552
# 6 -0.004508 0.001889 -0.000864 -0.001562 -0.005552 0.028031
#
#
# Mechanical properties :
#
#
# Convention : Reuss Voigt Hill
#
# Bulk Modulus (GPa) = 42.33977 70.45521 56.39749
# Shear Modulus (GPa) = 35.64265 45.01229 40.32747
#
# Velocity S-wave (km/s) = 3.82912 4.30308 4.07300
# Velocity P-wave (km/s) = 6.08002 7.32608 6.73194
#
# Compressibility (1/GPa) = 0.02361846
#
# Stress axis : x y z
#
# Youngs Moduli (GPa) = 130.98122 114.61945 69.32273
#
# Poissons Ratio (x) = 0.29920 0.00798
# Poissons Ratio (y) = 0.34191 0.05945
# Poissons Ratio (z) = 0.01507 0.09829
#
# Static dielectric constant tensor:
#      x y z
#    x 1.905760 0.014650 0.186690 
#    y 0.014650 1.951290 -0.064100 
#    z 0.186690 -0.064100 2.476540 
# 
# From -- ./inp_files/352121.got.cif
#   From: 2010.05.17/outbox.cif.g08.bks.cpg/sg2_177_cif.got.tgz:352121.got - 2010.06.03 11:33:40.
