data_PCOD9068203
_publ_section_title
;
Structure prediction by ZEFSAII (Michael W. Deem and Ramdas Pophale) SiO2 
 PCOD9068203
Probable space group: P -1
;
_chemical_formula_sum "Si O2"
_cell_formula_units_Z 12
_cell_length_a 18.338940
_cell_length_b 4.948152
_cell_length_c 8.288935
_cell_angle_alpha 59.859030
_cell_angle_beta 43.241107
_cell_angle_gamma 61.530709
_cell_volume 437.741496
_symmetry_space_group_name_H-M "P -1"
_symmetry_group_IT_number 2
_symmetry_cell_setting 'triclinic'
loop_
_space_group_symop_operation_xyz
x,y,z
-x,-y,-z
loop_
_atom_site_type_symbol
_atom_site_label
_atom_site_fract_x
_atom_site_fract_y
_atom_site_fract_z
Si Si1 0.396108 0.359581 0.655038
Si Si2 0.076659 0.335589 0.161804
Si Si3 0.859842 0.377514 0.345104
Si Si4 0.474602 0.196378 0.223316
Si Si5 0.794794 0.343580 0.920435
Si Si6 0.276533 0.127716 0.378822
O O1 0.500000 0.500000 0.500000
O O2 0.407379 0.285381 0.470546
O O3 0.416259 0.030490 0.822530
O O4 0.289076 0.593161 0.814056
O O5 0.103756 0.504638 0.229361
O O6 0.957291 0.262470 0.348015
O O7 0.165258 0.017057 0.086563
O O8 0.089754 0.583213 0.922828
O O9 0.801851 0.723990 0.393901
O O10 0.774352 0.145476 0.540693
O O11 0.398131 0.036011 0.276449
O O12 0.500000 0.500000 0.000000
O O13 0.734022 0.566104 0.811925
#
# Coordination Sequence:
#
# PCOD9068203 Si02
#       6
#     2   2   2   2   2   2
#     4  11  28  48  75 109 149 198 246 310 370 440
#     4  11  26  48  74 105 149 194 247 309 367 445
#     4  11  26  48  74 107 145 196 250 303 374 435
#     4  11  28  50  76 109 152 196 251 305 371 446
#     4  12  27  45  74 109 149 193 246 306 372 436
#     4  12  27  45  75 110 146 195 245 308 367 445
#
# _framework density 27.413436000000001
#
# number of rings (size 3 to 8) (size 9 to 14) (size 15 to 20)
#    0.000    0.667    0.000    5.000   16.333    8.000 
#    0.000    0.000    0.000    0.000    0.000    0.000 
#    0.000    0.000    0.000    0.000    0.000    0.000 
#
# Total GULP energy -67449.232039 kJ/mol
# GULP energy per Si atom -5620.769337 kJ/mol
# Density = 2.735104 g / cm^3
# Si number density = 27.413436 Si / 1000 Ang^3
#
#
#
# Elastic Constant Matrix: (Units=GPa)
#
#
# Indices 1 2 3 4 5 6 
#
# 1 173.6369 26.2645 28.9331 -15.7673 -12.4476 0.3224
# 2 26.2645 115.0593 18.3492 -17.7165 -6.3316 -3.9574
# 3 28.9331 18.3492 91.9642 -9.2914 -6.7836 -3.9693
# 4 -15.7673 -17.7165 -9.2914 45.6246 -7.0566 -1.0090
# 5 -12.4476 -6.3316 -6.7836 -7.0566 45.7336 -6.4087
# 6 0.3224 -3.9574 -3.9693 -1.0090 -6.4087 53.0212
#
#
#
# Elastic Compliance Matrix: (Units=1/GPa)
#
#
# Indices 1 2 3 4 5 6 
#
# 1 0.006433 -0.000845 -0.001543 0.001843 0.001692 0.000022
# 2 -0.000845 0.009731 -0.001162 0.003520 0.001615 0.000907
# 3 -0.001543 -0.001162 0.011927 0.001715 0.001599 0.001041
# 4 0.001843 0.003520 0.001715 0.025129 0.005331 0.001503
# 5 0.001692 0.001615 0.001599 0.005331 0.024064 0.003240
# 6 0.000022 0.000907 0.001041 0.001503 0.003240 0.019426
#
#
# Mechanical properties :
#
#
# Convention : Reuss Voigt Hill
#
# Bulk Modulus (GPa) = 47.63807 58.63931 53.13869
# Shear Modulus (GPa) = 45.12345 49.35012 47.23678
#
# Velocity S-wave (km/s) = 4.06154 4.24750 4.15556
# Velocity P-wave (km/s) = 6.27775 6.74479 6.51545
#
# Compressibility (1/GPa) = 0.02099161
#
# Stress axis : x y z
#
# Youngs Moduli (GPa) = 155.45555 102.76047 83.84117
#
# Poissons Ratio (x) = 0.08679 0.12939
# Poissons Ratio (y) = 0.13130 0.09742
# Poissons Ratio (z) = 0.23991 0.11941
#
# Static dielectric constant tensor:
#      x y z
#    x 2.078670 -0.027310 0.016810 
#    y -0.027310 2.100990 -0.000040 
#    z 0.016810 -0.000040 2.181410 
# 
# From -- ./inp_files/323244.got.cif
#   From: 2010.05.17/outbox.cif.g08.bks.cpg/sg2_162_cif.got.tgz:323244.got - 2010.06.03 11:33:40.
