data_PCOD9068157
_publ_section_title
;
Structure prediction by ZEFSAII (Michael W. Deem and Ramdas Pophale) SiO2 
 PCOD9068157
Probable space group: P -1
;
_chemical_formula_sum "Si O2"
_cell_formula_units_Z 15
_cell_length_a 9.279200
_cell_length_b 9.306470
_cell_length_c 13.419659
_cell_angle_alpha 116.707699
_cell_angle_beta 86.388118
_cell_angle_gamma 135.581470
_cell_volume 659.983405
_symmetry_space_group_name_H-M "P -1"
_symmetry_group_IT_number 2
_symmetry_cell_setting 'triclinic'
loop_
_space_group_symop_operation_xyz
x,y,z
-x,-y,-z
loop_
_atom_site_type_symbol
_atom_site_label
_atom_site_fract_x
_atom_site_fract_y
_atom_site_fract_z
Si Si1 0.572879 0.735019 0.803620
Si Si2 0.203575 0.601298 0.455928
Si Si3 0.304892 0.892524 0.342670
Si Si4 0.275733 0.297497 0.011177
Si Si5 0.038684 0.105793 0.255213
Si Si6 0.500000 0.000000 0.000000
Si Si7 0.085729 0.181608 0.643574
Si Si8 0.229553 0.618985 0.066761
O O1 0.753703 0.840443 0.746083
O O2 0.571278 0.918090 0.893540
O O3 0.322253 0.469131 0.700569
O O4 0.655807 0.697580 0.881123
O O5 0.245888 0.738561 0.396048
O O6 0.132085 0.360724 0.354356
O O7 0.000000 0.500000 0.500000
O O8 0.447104 0.816221 0.566494
O O9 0.308443 0.781212 0.211860
O O10 0.101155 0.844648 0.332486
O O11 0.500000 0.500000 0.000000
O O12 0.176378 0.391391 0.033027
O O13 0.107499 0.029090 0.881069
O O14 0.885988 0.909881 0.290929
O O15 0.595892 0.218946 0.982450
O O16 0.000000 0.000000 0.500000
O O17 0.000000 0.500000 0.000000
#
# Coordination Sequence:
#
# PCOD9068157 Si02
#       8
#     2   2   2   2   2   1   2   2
#     4  12  26  45  71 105 140 184 234 290 353 425
#     4  11  27  47  74 101 135 187 241 291 352 417
#     4  11  26  48  69 104 143 181 232 299 349 412
#     4  12  24  47  71 100 143 183 228 292 356 412
#     4  12  26  45  71 103 136 183 239 283 350 425
#     4  12  24  40  68 100 136 180 230 274 350 416
#     4  12  26  45  69  99 144 182 229 290 351 411
#     4  12  26  45  70 103 145 182 230 292 353 418
#
# _framework density 22.727844000000001
#
# number of rings (size 3 to 8) (size 9 to 14) (size 15 to 20)
#    0.000    0.267    2.667    6.000    1.867   10.667 
#    0.000    0.000    0.000    0.000    0.000    0.000 
#    0.000    0.000    0.000    0.000    0.000    0.000 
#
# Total GULP energy -83790.032505 kJ/mol
# GULP energy per Si atom -5586.002167 kJ/mol
# Density = 2.267611 g / cm^3
# Si number density = 22.727844 Si / 1000 Ang^3
#
#
#
# Elastic Constant Matrix: (Units=GPa)
#
#
# Indices 1 2 3 4 5 6 
#
# 1 79.4364 8.3076 41.1408 21.4661 -11.0928 4.8971
# 2 8.3076 86.8484 22.7785 2.3348 -2.8576 13.3187
# 3 41.1408 22.7785 130.6413 23.2066 -8.1500 9.5774
# 4 21.4661 2.3348 23.2066 44.6901 -3.2106 0.3969
# 5 -11.0928 -2.8576 -8.1500 -3.2106 46.3925 3.0626
# 6 4.8971 13.3187 9.5774 0.3969 3.0626 50.0845
#
#
#
# Elastic Compliance Matrix: (Units=1/GPa)
#
#
# Indices 1 2 3 4 5 6 
#
# 1 0.016670 -0.000159 -0.003950 -0.005727 0.002950 -0.000967
# 2 -0.000159 0.012508 -0.001965 0.000515 0.000619 -0.002977
# 3 -0.003950 -0.001965 0.009896 -0.003092 0.000524 -0.000991
# 4 -0.005727 0.000515 -0.003092 0.026693 -0.000087 0.000808
# 5 0.002950 0.000619 0.000524 -0.000087 0.022512 -0.001929
# 6 -0.000967 -0.002977 -0.000991 0.000808 -0.001929 0.021153
#
#
# Mechanical properties :
#
#
# Convention : Reuss Voigt Hill
#
# Bulk Modulus (GPa) = 37.13944 49.04222 43.09083
# Shear Modulus (GPa) = 38.29780 43.21337 40.75558
#
# Velocity S-wave (km/s) = 4.10940 4.36517 4.23921
# Velocity P-wave (km/s) = 6.23640 6.85792 6.55453
#
# Compressibility (1/GPa) = 0.02692556
#
# Stress axis : x y z
#
# Youngs Moduli (GPa) = 59.98754 79.94858 101.05451
#
# Poissons Ratio (x) = 0.01274 0.39912
# Poissons Ratio (y) = 0.00956 0.19860
# Poissons Ratio (z) = 0.23692 0.15712
#
# Static dielectric constant tensor:
#      x y z
#    x 1.826210 0.015060 -0.009760 
#    y 0.015060 1.870510 -0.016450 
#    z -0.009760 -0.016450 1.799070 
# 
# From -- ./inp_files/493664.got.cif
#   From: 2010.05.17/outbox.cif.g08.bks.cpg/sg2_247_cif.got.tgz:493664.got - 2010.06.03 11:33:40.
