data_PCOD9068691
_publ_section_title
;
Structure prediction by ZEFSAII (Michael W. Deem and Ramdas Pophale) SiO2 
 PCOD9068691
Probable space group: P -1
;
_chemical_formula_sum "Si O2"
_cell_formula_units_Z 16
_cell_length_a 11.558709
_cell_length_b 14.958294
_cell_length_c 6.837869
_cell_angle_alpha 45.144319
_cell_angle_beta 98.020376
_cell_angle_gamma 77.809100
_cell_volume 744.818984
_symmetry_space_group_name_H-M "P -1"
_symmetry_group_IT_number 2
_symmetry_cell_setting 'triclinic'
loop_
_space_group_symop_operation_xyz
x,y,z
-x,-y,-z
loop_
_atom_site_type_symbol
_atom_site_label
_atom_site_fract_x
_atom_site_fract_y
_atom_site_fract_z
Si Si1 0.394033 0.615329 0.432848
Si Si2 0.546639 0.767005 0.433464
Si Si3 0.008147 0.085691 0.675460
Si Si4 0.268175 0.249224 0.831564
Si Si5 0.389346 0.963721 0.439823
Si Si6 0.005133 0.382695 0.337478
Si Si7 0.787952 0.135978 0.226018
Si Si8 0.716658 0.560027 0.118793
O O1 0.500000 0.500000 0.500000
O O2 0.458945 0.706496 0.399031
O O3 0.355792 0.535730 0.713207
O O4 0.267843 0.714018 0.125361
O O5 0.623262 0.808073 0.224020
O O6 0.451642 0.881319 0.384561
O O7 0.659285 0.649908 0.772383
O O8 0.016466 0.232026 0.496002
O O9 0.882023 0.121795 0.452383
O O10 0.130958 0.982557 0.731859
O O11 0.000000 0.000000 0.000000
O O12 0.307567 0.334129 0.869589
O O13 0.129596 0.346212 0.558632
O O14 0.267071 0.112709 0.140168
O O15 0.337161 0.879898 0.697784
O O16 0.500000 0.000000 0.500000
O O17 0.868701 0.459697 0.296760
O O18 0.000000 0.500000 0.000000
#
# Coordination Sequence:
#
# PCOD9068691 Si02
#       8
#     2   2   2   2   2   2   2   2
#     4  12  26  46  76 108 148 192 242 301 365 445
#     4  12  26  47  72 107 148 196 240 298 372 440
#     4  11  27  53  76 108 143 201 252 308 368 432
#     4  12  26  48  72 105 147 190 243 302 372 436
#     4  12  26  46  76 108 148 192 242 301 365 445
#     4  12  28  45  79 105 144 192 246 311 368 434
#     4  11  28  48  76 106 150 191 248 304 362 443
#     4  12  26  48  72 105 147 190 243 302 372 436
#
# _framework density 21.481732000000001
#
# number of rings (size 3 to 8) (size 9 to 14) (size 15 to 20)
#    0.000    0.250    3.750    4.125   12.250    1.000 
#    0.000    0.000    0.000    0.000    0.000    0.000 
#    0.000    0.000    0.000    0.000    0.000    0.000 
#
# Total GULP energy -89549.248980 kJ/mol
# GULP energy per Si atom -5596.828061 kJ/mol
# Density = 2.143284 g / cm^3
# Si number density = 21.481732 Si / 1000 Ang^3
#
#
#
# Elastic Constant Matrix: (Units=GPa)
#
#
# Indices 1 2 3 4 5 6 
#
# 1 67.4287 24.6275 -3.5163 7.0030 -2.6656 -4.7776
# 2 24.6275 94.1815 42.9056 2.1995 1.6881 -4.9820
# 3 -3.5163 42.9056 99.1659 -4.3860 6.6688 9.3896
# 4 7.0030 2.1995 -4.3860 34.8855 0.6239 2.8393
# 5 -2.6656 1.6881 6.6688 0.6239 43.7725 -2.1198
# 6 -4.7776 -4.9820 9.3896 2.8393 -2.1198 35.4247
#
#
#
# Elastic Compliance Matrix: (Units=1/GPa)
#
#
# Indices 1 2 3 4 5 6 
#
# 1 0.017492 -0.005745 0.002810 -0.002902 0.000953 0.001096
# 2 -0.005745 0.015693 -0.007395 -0.001057 0.000356 0.003498
# 3 0.002810 -0.007395 0.014048 0.002083 -0.001940 -0.004668
# 4 -0.002902 -0.001057 0.002083 0.029884 -0.001051 -0.003550
# 5 0.000953 0.000356 -0.001940 -0.001051 0.023305 0.002172
# 6 0.001096 0.003498 -0.004668 -0.003550 0.002172 0.030520
#
#
# Mechanical properties :
#
#
# Convention : Reuss Voigt Hill
#
# Bulk Modulus (GPa) = 37.63499 43.20109 40.41804
# Shear Modulus (GPa) = 31.16018 35.93383 33.54700
#
# Velocity S-wave (km/s) = 3.81273 4.09438 3.95606
# Velocity P-wave (km/s) = 6.07784 6.51968 6.30263
#
# Compressibility (1/GPa) = 0.02657102
#
# Stress axis : x y z
#
# Youngs Moduli (GPa) = 57.16828 63.72449 71.18475
#
# Poissons Ratio (x) = 0.36613 -0.20002
# Poissons Ratio (y) = 0.32846 0.52643
# Poissons Ratio (z) = -0.16064 0.47126
#
# Static dielectric constant tensor:
#      x y z
#    x 1.752940 -0.006910 0.008040 
#    y -0.006910 1.739250 -0.004510 
#    z 0.008040 -0.004510 1.776830 
# 
# From -- ./inp_files/77013.got.cif
#   From: 2010.05.17/outbox.cif.g08.bks.cpg/sg2_39_cif.got.tgz:77013.got - 2010.06.03 11:33:40.
