data_PCOD9068432
_publ_section_title
;
Structure prediction by ZEFSAII (Michael W. Deem and Ramdas Pophale) SiO2 
 PCOD9068432
Probable space group: P -1
;
_chemical_formula_sum "Si O2"
_cell_formula_units_Z 10
_cell_length_a 6.208575
_cell_length_b 13.602131
_cell_length_c 5.330470
_cell_angle_alpha 54.311919
_cell_angle_beta 90.000000
_cell_angle_gamma 89.999962
_cell_volume 365.620042
_symmetry_space_group_name_H-M "P -1"
_symmetry_group_IT_number 2
_symmetry_cell_setting 'triclinic'
loop_
_space_group_symop_operation_xyz
x,y,z
-x,-y,-z
loop_
_atom_site_type_symbol
_atom_site_label
_atom_site_fract_x
_atom_site_fract_y
_atom_site_fract_z
Si Si1 0.587634 0.124124 0.592778
Si Si2 0.809494 0.906291 0.669425
Si Si3 0.412366 0.624124 0.092779
Si Si4 0.098490 0.750000 0.250000
Si Si5 0.809494 0.593709 0.830574
O O1 0.332698 0.121941 0.534188
O O2 0.733132 0.149665 0.798174
O O3 0.651198 0.986810 0.722689
O O4 0.647046 0.250000 0.250000
O O5 0.000000 0.000000 0.500000
O O6 0.935605 0.800120 0.966892
O O7 0.266867 0.649665 0.298174
O O8 0.348802 0.486810 0.222690
O O9 0.667302 0.621941 0.034188
O O10 0.935605 0.699880 0.533108
O O11 0.000000 0.500000 0.000000
#
# Coordination Sequence:
#
# PCOD9068432 Si02
#       5
#     2   2   2   2   2
#     4  11  26  50  77 120 158 203 270 325 383 490
#     4  11  26  51  79 117 165 203 266 333 391 470
#     4  11  26  50  77 120 158 203 270 325 383 490
#     4  12  26  52  90 112 156 224 252 322 416 452
#     4  11  26  51  79 117 165 203 266 333 391 470
#
# _framework density 27.350795000000002
#
# number of rings (size 3 to 8) (size 9 to 14) (size 15 to 20)
#    0.000    0.800    4.000    1.200    5.600    3.200 
#    0.000    0.000    0.000    0.000    0.000    0.000 
#    0.000    0.000    0.000    0.000    0.000    0.000 
#
# Total GULP energy -55717.117059 kJ/mol
# GULP energy per Si atom -5571.711706 kJ/mol
# Density = 2.728854 g / cm^3
# Si number density = 27.350795 Si / 1000 Ang^3
#
#
#
# Elastic Constant Matrix: (Units=GPa)
#
#
# Indices 1 2 3 4 5 6 
#
# 1 283.0960 101.8651 91.6599 8.9912 -5.1698 -0.3562
# 2 101.8651 142.2334 14.8617 6.9511 -1.3826 -13.3054
# 3 91.6599 14.8617 94.7008 -13.6555 -5.8517 -6.9638
# 4 8.9912 6.9511 -13.6555 26.8910 -2.8690 -2.1642
# 5 -5.1698 -1.3826 -5.8517 -2.8690 51.0316 -10.7450
# 6 -0.3562 -13.3054 -6.9638 -2.1642 -10.7450 90.5320
#
#
#
# Elastic Compliance Matrix: (Units=1/GPa)
#
#
# Indices 1 2 3 4 5 6 
#
# 1 0.007992 -0.004762 -0.007977 -0.005708 -0.000876 -0.001522
# 2 -0.004762 0.010234 0.003295 0.000832 0.000605 0.001830
# 3 -0.007977 0.003295 0.019925 0.012445 0.002817 0.002617
# 4 -0.005708 0.000832 0.012445 0.045839 0.004002 0.002628
# 5 -0.000876 0.000605 0.002817 0.004002 0.020672 0.002851
# 6 -0.001522 0.001830 0.002617 0.002628 0.002851 0.011911
#
#
# Mechanical properties :
#
#
# Convention : Reuss Voigt Hill
#
# Bulk Modulus (GPa) = 51.91631 104.08927 78.00279
# Shear Modulus (GPa) = 35.24072 54.46716 44.85394
#
# Velocity S-wave (km/s) = 3.59342 4.46738 4.05402
# Velocity P-wave (km/s) = 6.01995 8.04672 7.10597
#
# Compressibility (1/GPa) = 0.01926177
#
# Stress axis : x y z
#
# Youngs Moduli (GPa) = 125.12075 97.71826 50.18905
#
# Poissons Ratio (x) = 0.46537 0.40038
# Poissons Ratio (y) = 0.59587 -0.16540
# Poissons Ratio (z) = 0.99814 -0.32203
#
# Static dielectric constant tensor:
#      x y z
#    x 2.673670 -0.051550 -0.013950 
#    y -0.051550 2.094300 0.077360 
#    z -0.013950 0.077360 2.211510 
# 
# From -- ./inp_files/4291.got.cif
#   From: 2010.05.17/outbox.cif.g08.bks.cpg/sg2_3_cif.got.tgz:4291.got - 2010.06.03 11:33:40.
