data_PCOD9068002
_publ_section_title
;
Structure prediction by ZEFSAII (Michael W. Deem and Ramdas Pophale) SiO2 
 PCOD9068002
Probable space group: P -1
;
_chemical_formula_sum "Si O2"
_cell_formula_units_Z 14
_cell_length_a 4.959521
_cell_length_b 12.149992
_cell_length_c 11.751561
_cell_angle_alpha 53.617774
_cell_angle_beta 71.149570
_cell_angle_gamma 81.825469
_cell_volume 538.382316
_symmetry_space_group_name_H-M "P -1"
_symmetry_group_IT_number 2
_symmetry_cell_setting 'triclinic'
loop_
_space_group_symop_operation_xyz
x,y,z
-x,-y,-z
loop_
_atom_site_type_symbol
_atom_site_label
_atom_site_fract_x
_atom_site_fract_y
_atom_site_fract_z
Si Si1 0.556022 0.741381 0.831053
Si Si2 0.011994 0.346161 0.545577
Si Si3 0.840267 0.529845 0.766604
Si Si4 0.328728 0.345876 0.877877
Si Si5 0.577777 0.870092 0.406586
Si Si6 0.521208 0.127294 0.831685
Si Si7 0.869557 0.110450 0.343422
O O1 0.659035 0.609051 0.833361
O O2 0.258272 0.784636 0.795148
O O3 0.803281 0.855703 0.694160
O O4 0.594817 0.722920 0.970819
O O5 0.803479 0.230831 0.707025
O O6 0.000000 0.500000 0.500000
O O7 0.967428 0.368715 0.402667
O O8 0.315847 0.278758 0.545494
O O9 0.605970 0.451210 0.765990
O O10 0.047174 0.429066 0.861170
O O11 0.309458 0.233748 0.849581
O O12 0.539263 0.931937 0.249077
O O13 0.324540 0.871263 0.530922
O O14 0.821803 0.964358 0.379302
O O15 0.500000 0.000000 0.000000
#
# Coordination Sequence:
#
# PCOD9068002 Si02
#       7
#     2   2   2   2   2   2   2
#     4  12  24  47  76 114 157 198 259 321 390 447
#     4  12  26  48  77 108 154 202 259 316 381 461
#     4  12  25  47  76 112 153 205 262 314 385 459
#     4  12  27  46  74 113 160 203 254 317 389 465
#     4  11  27  47  76 109 153 202 262 321 382 462
#     4  12  29  49  76 112 155 207 256 321 395 463
#     4  11  26  46  79 113 149 205 260 322 383 460
#
# _framework density 26.003827000000001
#
# number of rings (size 3 to 8) (size 9 to 14) (size 15 to 20)
#    0.000    0.286    2.857    5.143    6.000    2.857 
#    0.000    0.000    0.000    0.000    0.000    0.000 
#    0.000    0.000    0.000    0.000    0.000    0.000 
#
# Total GULP energy -78393.285751 kJ/mol
# GULP energy per Si atom -5599.520411 kJ/mol
# Density = 2.594464 g / cm^3
# Si number density = 26.003827 Si / 1000 Ang^3
#
#
#
# Elastic Constant Matrix: (Units=GPa)
#
#
# Indices 1 2 3 4 5 6 
#
# 1 79.6984 17.9700 23.9602 -20.4898 12.0902 -3.4176
# 2 17.9700 145.6122 30.3206 -0.4008 -0.3945 3.7181
# 3 23.9602 30.3206 180.6016 2.2294 14.9080 -0.7637
# 4 -20.4898 -0.4008 2.2294 43.9960 9.0923 6.2376
# 5 12.0902 -0.3945 14.9080 9.0923 45.4788 -8.9869
# 6 -3.4176 3.7181 -0.7637 6.2376 -8.9869 42.0990
#
#
#
# Elastic Compliance Matrix: (Units=1/GPa)
#
#
# Indices 1 2 3 4 5 6 
#
# 1 0.016620 -0.001690 -0.001545 0.009210 -0.006000 -0.001175
# 2 -0.001690 0.007312 -0.001072 -0.000788 0.000925 -0.000488
# 3 -0.001545 -0.001072 0.006051 -0.000715 -0.001465 -0.000128
# 4 0.009210 -0.000788 -0.000715 0.029756 -0.009273 -0.005584
# 5 -0.006000 0.000925 -0.001465 -0.009273 0.027228 0.006591
# 6 -0.001175 -0.000488 -0.000128 -0.005584 0.006591 0.025933
#
#
# Mechanical properties :
#
#
# Convention : Reuss Voigt Hill
#
# Bulk Modulus (GPa) = 46.79531 61.15706 53.97618
# Shear Modulus (GPa) = 38.86878 48.55885 43.71382
#
# Velocity S-wave (km/s) = 3.87037 4.32600 4.10451
# Velocity P-wave (km/s) = 6.16503 6.96577 6.57760
#
# Compressibility (1/GPa) = 0.02136966
#
# Stress axis : x y z
#
# Youngs Moduli (GPa) = 60.16685 136.75766 165.25829
#
# Poissons Ratio (x) = 0.23118 0.25525
# Poissons Ratio (y) = 0.10171 0.17717
# Poissons Ratio (z) = 0.09293 0.14661
#
# Static dielectric constant tensor:
#      x y z
#    x 2.025870 0.014790 -0.033850 
#    y 0.014790 2.045940 -0.051720 
#    z -0.033850 -0.051720 2.154630 
# 
# From -- ./inp_files/363627.got.cif
#   From: 2010.05.17/outbox.cif.g08.bks.cpg/sg2_182_cif.got.tgz:363627.got - 2010.06.03 11:33:40.
