data_PCOD9068710
_publ_section_title
;
Structure prediction by ZEFSAII (Michael W. Deem and Ramdas Pophale) SiO2 
 PCOD9068710
Probable space group: P -1
;
_chemical_formula_sum "Si O2"
_cell_formula_units_Z 14
_cell_length_a 9.020838
_cell_length_b 5.070231
_cell_length_c 17.641599
_cell_angle_alpha 70.117199
_cell_angle_beta 117.803809
_cell_angle_gamma 123.239966
_cell_volume 593.053592
_symmetry_space_group_name_H-M "P -1"
_symmetry_group_IT_number 2
_symmetry_cell_setting 'triclinic'
loop_
_space_group_symop_operation_xyz
x,y,z
-x,-y,-z
loop_
_atom_site_type_symbol
_atom_site_label
_atom_site_fract_x
_atom_site_fract_y
_atom_site_fract_z
Si Si1 0.506917 0.794516 0.253176
Si Si2 0.170039 0.772601 0.466716
Si Si3 0.451097 0.747752 0.420768
Si Si4 0.692206 0.786383 0.848901
Si Si5 0.046033 0.381339 0.806747
Si Si6 0.364436 0.632953 0.984310
Si Si7 0.936524 0.002899 0.295888
O O1 0.445584 0.723988 0.332344
O O2 0.412842 0.469176 0.216331
O O3 0.437476 0.041910 0.180219
O O4 0.732657 0.931314 0.287496
O O5 0.261166 0.716708 0.417073
O O6 0.000000 0.500000 0.500000
O O7 0.358821 0.922917 0.548387
O O8 0.074864 0.984043 0.393973
O O9 0.500000 0.500000 0.500000
O O10 0.726593 0.584619 0.942362
O O11 0.887020 0.068917 0.838823
O O12 0.213037 0.562492 0.889383
O O13 0.977370 0.641936 0.749141
O O14 0.096633 0.251789 0.754279
O O15 0.500000 0.500000 0.000000
O O16 0.500000 0.000000 0.000000
#
# Coordination Sequence:
#
# PCOD9068710 Si02
#       7
#     2   2   2   2   2   2   2
#     4  12  27  47  74 109 148 199 247 306 372 444
#     4  11  28  50  74 111 148 203 252 315 376 449
#     4  11  28  48  75 107 154 195 255 313 377 444
#     4  12  27  47  75 109 150 192 246 308 371 443
#     4  12  27  47  75 111 147 195 243 310 370 445
#     4  12  25  48  75 108 147 192 245 300 371 445
#     4  12  27  47  75 108 149 195 253 301 375 446
#
# _framework density 23.606634
#
# number of rings (size 3 to 8) (size 9 to 14) (size 15 to 20)
#    0.000    0.286    0.000    8.143   14.000    1.143 
#    0.000    4.286    0.000    0.000    0.000    0.000 
#    0.000    0.000    0.000    0.000    0.000    0.000 
#
# Total GULP energy -78431.479797 kJ/mol
# GULP energy per Si atom -5602.248557 kJ/mol
# Density = 2.355290 g / cm^3
# Si number density = 23.606634 Si / 1000 Ang^3
#
#
#
# Elastic Constant Matrix: (Units=GPa)
#
#
# Indices 1 2 3 4 5 6 
#
# 1 125.1046 45.3077 28.5944 4.7535 7.9316 16.4185
# 2 45.3077 156.6039 40.4653 -1.8891 -0.3755 -0.7304
# 3 28.5944 40.4653 108.8667 -8.4676 9.0654 8.3272
# 4 4.7535 -1.8891 -8.4676 51.3911 -0.4818 -1.4105
# 5 7.9316 -0.3755 9.0654 -0.4818 38.1249 -6.6320
# 6 16.4185 -0.7304 8.3272 -1.4105 -6.6320 47.1747
#
#
#
# Elastic Compliance Matrix: (Units=1/GPa)
#
#
# Indices 1 2 3 4 5 6 
#
# 1 0.009899 -0.002576 -0.001265 -0.001342 -0.002435 -0.003644
# 2 -0.002576 0.007778 -0.002452 0.000180 0.001487 0.001664
# 3 -0.001265 -0.002452 0.010928 0.001752 -0.002659 -0.001848
# 4 -0.001342 0.000180 0.001752 0.019902 0.000253 0.000791
# 5 -0.002435 0.001487 -0.002659 0.000253 0.028313 0.005328
# 6 -0.003644 0.001664 -0.001848 0.000791 0.005328 0.023591
#
#
# Mechanical properties :
#
#
# Convention : Reuss Voigt Hill
#
# Bulk Modulus (GPa) = 62.42537 68.81221 65.61879
# Shear Modulus (GPa) = 42.25255 45.75202 44.00228
#
# Velocity S-wave (km/s) = 4.23526 4.40716 4.32207
# Velocity P-wave (km/s) = 7.10056 7.42363 7.26389
#
# Compressibility (1/GPa) = 0.01601913
#
# Stress axis : x y z
#
# Youngs Moduli (GPa) = 101.01988 128.57195 91.50693
#
# Poissons Ratio (x) = 0.33120 0.11579
# Poissons Ratio (y) = 0.26022 0.22433
# Poissons Ratio (z) = 0.12783 0.31519
#
# Static dielectric constant tensor:
#      x y z
#    x 1.896460 0.013710 -0.041500 
#    y 0.013710 1.926000 -0.013360 
#    z -0.041500 -0.013360 2.019970 
# 
# From -- ./inp_files/553380.got.cif
#   From: 2010.05.17/outbox.cif.g08.bks.cpg/sg2_277_cif.got.tgz:553380.got - 2010.06.03 11:33:40.
