data_PCOD9068379
_publ_section_title
;
Structure prediction by ZEFSAII (Michael W. Deem and Ramdas Pophale) SiO2 
 PCOD9068379
Probable space group: P -1
;
_chemical_formula_sum "Si O2"
_cell_formula_units_Z 9
_cell_length_a 7.925023
_cell_length_b 6.970348
_cell_length_c 8.383889
_cell_angle_alpha 49.232512
_cell_angle_beta 112.564965
_cell_angle_gamma 97.640393
_cell_volume 319.291469
_symmetry_space_group_name_H-M "P -1"
_symmetry_group_IT_number 2
_symmetry_cell_setting 'triclinic'
loop_
_space_group_symop_operation_xyz
x,y,z
-x,-y,-z
loop_
_atom_site_type_symbol
_atom_site_label
_atom_site_fract_x
_atom_site_fract_y
_atom_site_fract_z
Si Si1 0.852765 0.337289 0.466631
Si Si2 0.454598 0.071129 0.153991
Si Si3 0.116410 0.926842 0.925797
Si Si4 0.279398 0.513165 0.016478
Si Si5 0.500000 0.500000 0.500000
O O1 0.806964 0.418336 0.225035
O O2 0.674002 0.384642 0.494598
O O3 0.000000 0.500000 0.500000
O O4 0.979828 0.055343 0.670144
O O5 0.569648 0.293646 0.026146
O O6 0.560836 0.784928 0.371308
O O7 0.355674 0.212407 0.198614
O O8 0.302386 0.034609 0.984489
O O9 0.165274 0.624220 0.069742
O O10 0.000000 0.000000 0.000000
#
# Coordination Sequence:
#
# PCOD9068379 Si02
#       5
#     2   2   2   2   1
#     4  12  26  50  80 114 159 204 260 322 386 466
#     4  11  26  49  79 111 158 200 265 318 384 471
#     4  12  25  50  75 112 156 203 259 327 381 468
#     4  11  27  48  82 114 152 210 259 319 397 457
#     4  12  28  48  78 116 162 200 254 324 392 448
#
# _framework density 28.187411000000001
#
# number of rings (size 3 to 8) (size 9 to 14) (size 15 to 20)
#    0.000    0.444    4.444    2.667    6.222    1.778 
#    4.000    0.000    0.000    0.000    0.000    0.000 
#    0.000    0.000    0.000    0.000    0.000    0.000 
#
# Total GULP energy -50105.359705 kJ/mol
# GULP energy per Si atom -5567.262189 kJ/mol
# Density = 2.812326 g / cm^3
# Si number density = 28.187411 Si / 1000 Ang^3
#
#
#
# Elastic Constant Matrix: (Units=GPa)
#
#
# Indices 1 2 3 4 5 6 
#
# 1 110.3540 54.5283 6.2769 24.3780 -1.2969 3.7513
# 2 54.5283 273.8245 60.2698 -36.3961 19.8588 -45.6062
# 3 6.2769 60.2698 94.3862 1.9437 23.0887 -11.5683
# 4 24.3780 -36.3961 1.9437 73.7684 -8.3235 14.6838
# 5 -1.2969 19.8588 23.0887 -8.3235 24.0419 2.0532
# 6 3.7513 -45.6062 -11.5683 14.6838 2.0532 70.4061
#
#
#
# Elastic Compliance Matrix: (Units=1/GPa)
#
#
# Indices 1 2 3 4 5 6 
#
# 1 0.012134 -0.003783 0.001317 -0.005474 0.000770 -0.001761
# 2 -0.003783 0.006152 -0.003058 0.003623 -0.001348 0.002968
# 3 0.001317 -0.003058 0.016447 -0.004462 -0.014915 0.002017
# 4 -0.005474 0.003623 -0.004462 0.018564 0.007611 -0.002188
# 5 0.000770 -0.001348 -0.014915 0.007611 0.060281 -0.006710
# 6 -0.001761 0.002968 0.002017 -0.002188 -0.006710 0.017203
#
#
# Mechanical properties :
#
#
# Convention : Reuss Voigt Hill
#
# Bulk Modulus (GPa) = 42.21850 80.07940 61.14895
# Shear Modulus (GPa) = 33.39459 57.47594 45.43526
#
# Velocity S-wave (km/s) = 3.44573 4.52050 4.01920
# Velocity P-wave (km/s) = 5.55347 7.46444 6.57871
#
# Compressibility (1/GPa) = 0.02368630
#
# Stress axis : x y z
#
# Youngs Moduli (GPa) = 82.41184 162.54880 60.79977
#
# Poissons Ratio (x) = 0.61492 -0.08008
# Poissons Ratio (y) = 0.31177 0.18591
# Poissons Ratio (z) = -0.10855 0.49704
#
# Static dielectric constant tensor:
#      x y z
#    x 2.615520 -0.109140 0.196430 
#    y -0.109140 2.138820 0.008250 
#    z 0.196430 0.008250 2.720290 
# 
# From -- ./inp_files/129183.got.cif
#   From: 2010.05.17/outbox.cif.g08.bks.cpg/sg2_65_cif.got.tgz:129183.got - 2010.06.03 11:33:40.
