data_PCOD9068104
_publ_section_title
;
Structure prediction by ZEFSAII (Michael W. Deem and Ramdas Pophale) SiO2 
 PCOD9068104
Probable space group: P -1
;
_chemical_formula_sum "Si O2"
_cell_formula_units_Z 8
_cell_length_a 9.263276
_cell_length_b 12.064521
_cell_length_c 5.297417
_cell_angle_alpha 92.916215
_cell_angle_beta 71.692415
_cell_angle_gamma 38.517475
_cell_volume 302.775578
_symmetry_space_group_name_H-M "P -1"
_symmetry_group_IT_number 2
_symmetry_cell_setting 'triclinic'
loop_
_space_group_symop_operation_xyz
x,y,z
-x,-y,-z
loop_
_atom_site_type_symbol
_atom_site_label
_atom_site_fract_x
_atom_site_fract_y
_atom_site_fract_z
Si Si1 0.102120 0.374163 0.179065
Si Si2 0.197869 0.643980 0.440580
Si Si3 0.620550 0.036070 0.563647
Si Si4 0.316859 0.779705 0.726975
O O1 0.000000 0.500000 0.500000
O O2 0.965542 0.335864 0.267696
O O3 0.440498 0.160399 0.934817
O O4 0.000000 0.500000 0.000000
O O5 0.295034 0.698667 0.516031
O O6 0.475905 0.400911 0.198193
O O7 0.953834 0.817102 0.395059
O O8 0.567629 0.177475 0.444362
O O9 0.500000 0.000000 0.500000
O O10 0.000000 0.000000 0.000000
#
# Coordination Sequence:
#
# PCOD9068104 Si02
#       4
#     2   2   2   2
#     4  12  26  48  80 116 159 208 268 336 400 477
#     4  11  26  47  76 111 158 209 262 328 406 473
#     4  12  26  49  80 117 158 211 269 334 403 481
#     4  11  26  48  74 111 162 205 271 324 406 479
#
# _framework density 26.422208000000001
#
# number of rings (size 3 to 8) (size 9 to 14) (size 15 to 20)
#    0.000    0.500    2.500    4.500    3.500    1.000 
#    0.000    0.000    0.000    0.000    0.000    0.000 
#    0.000    0.000    0.000    0.000    0.000    0.000 
#
# Total GULP energy -44889.465276 kJ/mol
# GULP energy per Si atom -5611.183160 kJ/mol
# Density = 2.636207 g / cm^3
# Si number density = 26.422208 Si / 1000 Ang^3
#
#
#
# Elastic Constant Matrix: (Units=GPa)
#
#
# Indices 1 2 3 4 5 6 
#
# 1 172.0340 60.5989 42.7670 3.0713 9.8888 25.4177
# 2 60.5989 210.3981 50.6424 30.1895 13.7714 -6.2222
# 3 42.7670 50.6424 159.1712 24.7611 -0.5941 1.1752
# 4 3.0713 30.1895 24.7611 55.2573 -10.5250 -17.1782
# 5 9.8888 13.7714 -0.5941 -10.5250 37.1659 5.0097
# 6 25.4177 -6.2222 1.1752 -17.1782 5.0097 63.9573
#
#
#
# Elastic Compliance Matrix: (Units=1/GPa)
#
#
# Indices 1 2 3 4 5 6 
#
# 1 0.007276 -0.001813 -0.001379 0.000127 -0.000854 -0.002941
# 2 -0.001813 0.006171 -0.001005 -0.003131 -0.002804 0.000718
# 3 -0.001379 -0.001005 0.007414 -0.002814 0.000122 -0.000451
# 4 0.000127 -0.003131 -0.002814 0.024177 0.007169 0.005629
# 5 -0.000854 -0.002804 0.000122 0.007169 0.030256 -0.000380
# 6 -0.002941 0.000718 -0.000451 0.005629 -0.000380 0.018424
#
#
# Mechanical properties :
#
#
# Convention : Reuss Voigt Hill
#
# Bulk Modulus (GPa) = 80.21340 94.40222 87.30781
# Shear Modulus (GPa) = 47.05084 57.11578 52.08331
#
# Velocity S-wave (km/s) = 4.22445 4.65441 4.44463
# Velocity P-wave (km/s) = 7.36335 8.04305 7.71069
#
# Compressibility (1/GPa) = 0.01246675
#
# Stress axis : x y z
#
# Youngs Moduli (GPa) = 137.44395 162.04884 134.87300
#
# Poissons Ratio (x) = 0.29378 0.18603
# Poissons Ratio (y) = 0.24917 0.13554
# Poissons Ratio (z) = 0.18958 0.16285
#
# Static dielectric constant tensor:
#      x y z
#    x 1.818230 -0.080880 -0.000540 
#    y -0.080880 2.092930 0.061800 
#    z -0.000540 0.061800 2.091510 
# 
# From -- ./inp_files/17418.got.cif
#   From: 2010.05.17/outbox.cif.g08.bks.cpg/sg2_9_cif.got.tgz:17418.got - 2010.06.03 11:33:40.
