data_PCOD9068320
_publ_section_title
;
Structure prediction by ZEFSAII (Michael W. Deem and Ramdas Pophale) SiO2 
 PCOD9068320
Probable space group: P -1
;
_chemical_formula_sum "Si O2"
_cell_formula_units_Z 14
_cell_length_a 12.591357
_cell_length_b 17.824785
_cell_length_c 7.928913
_cell_angle_alpha 132.505748
_cell_angle_beta 126.749119
_cell_angle_gamma 27.570361
_cell_volume 607.196550
_symmetry_space_group_name_H-M "P -1"
_symmetry_group_IT_number 2
_symmetry_cell_setting 'triclinic'
loop_
_space_group_symop_operation_xyz
x,y,z
-x,-y,-z
loop_
_atom_site_type_symbol
_atom_site_label
_atom_site_fract_x
_atom_site_fract_y
_atom_site_fract_z
Si Si1 0.444828 0.975175 0.201951
Si Si2 0.283037 0.571784 0.344264
Si Si3 0.994309 0.608808 0.564437
Si Si4 0.394402 0.320644 0.269403
Si Si5 0.782876 0.130071 0.610941
Si Si6 0.240925 0.643326 0.019837
Si Si7 0.207693 0.073957 0.461751
O O1 0.340963 0.977683 0.265576
O O2 0.259768 0.183823 0.343755
O O3 0.680862 0.889647 0.313570
O O4 0.493824 0.860266 0.931386
O O5 0.500000 0.500000 0.500000
O O6 0.366241 0.404055 0.199047
O O7 0.217153 0.640024 0.193257
O O8 0.065515 0.736259 0.505622
O O9 0.134634 0.488292 0.347839
O O10 0.000000 0.500000 0.500000
O O11 0.137249 0.611056 0.784961
O O12 0.561925 0.270311 0.488743
O O13 0.845899 0.191800 0.871290
O O14 0.754560 0.047321 0.569107
O O15 0.000000 0.000000 0.500000
O O16 0.500000 0.500000 0.000000
#
# Coordination Sequence:
#
# PCOD9068320 Si02
#       7
#     2   2   2   2   2   2   2
#     4  11  28  48  74 108 155 198 255 312 375 452
#     4  12  24  48  75 107 148 195 247 316 374 449
#     4  12  27  49  75 110 152 199 253 309 373 455
#     4  12  26  46  74 106 148 196 251 306 375 440
#     4  12  23  45  71 105 144 192 252 309 373 448
#     4  12  26  44  73 108 151 194 249 309 382 441
#     4  11  26  49  73 109 151 198 256 310 381 448
#
# _framework density 23.056785999999999
#
# number of rings (size 3 to 8) (size 9 to 14) (size 15 to 20)
#    0.000    0.286    5.714    1.714    4.000    2.857 
#    0.000    2.143    0.000    0.000    0.000    0.000 
#    0.000    0.000    0.000    0.000    0.000    0.000 
#
# Total GULP energy -78045.015342 kJ/mol
# GULP energy per Si atom -5574.643953 kJ/mol
# Density = 2.300431 g / cm^3
# Si number density = 23.056786 Si / 1000 Ang^3
#
#
#
# Elastic Constant Matrix: (Units=GPa)
#
#
# Indices 1 2 3 4 5 6 
#
# 1 140.5902 36.9282 32.6366 12.3635 13.5539 1.6715
# 2 36.9282 92.7901 23.5862 17.6839 12.0785 -12.5963
# 3 32.6366 23.5862 114.1064 22.2221 11.0500 -11.3509
# 4 12.3635 17.6839 22.2221 33.8719 -0.8819 6.7865
# 5 13.5539 12.0785 11.0500 -0.8819 24.4410 0.3236
# 6 1.6715 -12.5963 -11.3509 6.7865 0.3236 52.7142
#
#
#
# Elastic Compliance Matrix: (Units=1/GPa)
#
#
# Indices 1 2 3 4 5 6 
#
# 1 0.008514 -0.002704 -0.001655 -0.000439 -0.002637 -0.001200
# 2 -0.002704 0.014772 0.000386 -0.008101 -0.006331 0.004781
# 3 -0.001655 0.000386 0.011562 -0.008050 -0.004840 0.003700
# 4 -0.000439 -0.008101 -0.008050 0.041250 0.009495 -0.009024
# 5 -0.002637 -0.006331 -0.004840 0.009495 0.048090 -0.003989
# 6 -0.001200 0.004781 0.003700 -0.009024 -0.003989 0.022134
#
#
# Mechanical properties :
#
#
# Convention : Reuss Voigt Hill
#
# Bulk Modulus (GPa) = 37.17017 59.30985 48.24001
# Shear Modulus (GPa) = 30.63099 39.16113 34.89606
#
# Velocity S-wave (km/s) = 3.64882 4.12571 3.89457
# Velocity P-wave (km/s) = 5.82305 6.96237 6.41804
#
# Compressibility (1/GPa) = 0.02690329
#
# Stress axis : x y z
#
# Youngs Moduli (GPa) = 117.44913 67.69611 86.49158
#
# Poissons Ratio (x) = 0.18304 0.14313
# Poissons Ratio (y) = 0.31756 -0.03341
# Poissons Ratio (z) = 0.19436 -0.02615
#
# Static dielectric constant tensor:
#      x y z
#    x 1.886790 0.025570 -0.034780 
#    y 0.025570 1.924350 -0.059630 
#    z -0.034780 -0.059630 1.654600 
# 
# From -- ./inp_files/150857.got.cif
#   From: 2010.05.17/outbox.cif.g08.bks.cpg/sg2_76_cif.got.tgz:150857.got - 2010.06.03 11:33:40.
