data_PCOD9068359
_publ_section_title
;
Structure prediction by ZEFSAII (Michael W. Deem and Ramdas Pophale) SiO2 
 PCOD9068359
Probable space group: P -1
;
_chemical_formula_sum "Si O2"
_cell_formula_units_Z 16
_cell_length_a 23.540541
_cell_length_b 17.610781
_cell_length_c 6.518265
_cell_angle_alpha 95.930828
_cell_angle_beta 105.788801
_cell_angle_gamma 17.811474
_cell_volume 674.968054
_symmetry_space_group_name_H-M "P -1"
_symmetry_group_IT_number 2
_symmetry_cell_setting 'triclinic'
loop_
_space_group_symop_operation_xyz
x,y,z
-x,-y,-z
loop_
_atom_site_type_symbol
_atom_site_label
_atom_site_fract_x
_atom_site_fract_y
_atom_site_fract_z
Si Si1 0.013738 0.949742 0.772709
Si Si2 0.016301 0.216323 0.854827
Si Si3 0.746641 0.207780 0.263424
Si Si4 0.904745 0.551357 0.281573
Si Si5 0.303455 0.955250 0.313900
Si Si6 0.412136 0.945588 0.085946
Si Si7 0.694273 0.720113 0.474893
Si Si8 0.348220 0.423514 0.143213
O O1 0.115114 0.896223 0.739881
O O2 0.207465 0.643862 0.894624
O O3 0.790583 0.185289 0.530883
O O4 0.000000 0.000000 0.000000
O O5 0.919384 0.418871 0.739018
O O6 0.820785 0.416664 0.843762
O O7 0.114573 0.042615 0.719623
O O8 0.217934 0.982658 0.146913
O O9 0.500000 0.500000 0.000000
O O10 0.737236 0.715024 0.312598
O O11 0.000000 0.500000 0.500000
O O12 0.096185 0.254796 0.311311
O O13 0.782690 0.747047 0.029926
O O14 0.361516 0.936676 0.172932
O O15 0.515083 0.691840 0.601862
O O16 0.619133 0.730499 0.332292
O O17 0.473193 0.848758 0.885909
O O18 0.500000 0.000000 0.500000
#
# Coordination Sequence:
#
# PCOD9068359 Si02
#       8
#     2   2   2   2   2   2   2   2
#     4  11  26  49  77 106 147 189 237 299 367 440
#     4  12  26  47  70 107 146 189 244 297 365 437
#     4  11  28  48  77 110 148 188 242 304 367 436
#     4  12  23  43  65 104 144 188 248 298 356 430
#     4  12  27  44  72 105 146 191 242 303 359 430
#     4  12  24  45  71  97 146 191 240 298 366 425
#     4  12  24  43  73 103 144 193 242 296 363 430
#     4  12  26  47  72 105 143 190 240 296 365 435
#
# _framework density 23.704827000000002
#
# number of rings (size 3 to 8) (size 9 to 14) (size 15 to 20)
#    0.000    0.250    3.750    5.250    3.500    1.500 
#    0.000    0.000    0.000    0.000    0.000    0.000 
#    0.000    0.000    0.000    0.000    0.000    0.000 
#
# Total GULP energy -89481.668528 kJ/mol
# GULP energy per Si atom -5592.604283 kJ/mol
# Density = 2.365087 g / cm^3
# Si number density = 23.704827 Si / 1000 Ang^3
#
#
#
# Elastic Constant Matrix: (Units=GPa)
#
#
# Indices 1 2 3 4 5 6 
#
# 1 33.9381 16.7128 16.9903 5.5328 19.8330 3.0193
# 2 16.7128 85.8416 22.2564 9.0222 10.6341 4.4818
# 3 16.9903 22.2564 133.9647 -4.6756 53.7946 -4.0271
# 4 5.5328 9.0222 -4.6756 43.4848 4.3543 -4.2983
# 5 19.8330 10.6341 53.7946 4.3543 43.4099 -4.4118
# 6 3.0193 4.4818 -4.0271 -4.2983 -4.4118 34.9663
#
#
#
# Elastic Compliance Matrix: (Units=1/GPa)
#
#
# Indices 1 2 3 4 5 6 
#
# 1 0.046754 -0.006739 0.006052 -0.001741 -0.027663 -0.006181
# 2 -0.006739 0.013661 -0.002991 -0.002796 0.003576 -0.001406
# 3 0.006052 -0.002991 0.016537 0.003865 -0.022980 -0.000659
# 4 -0.001741 -0.002796 0.003865 0.025094 -0.005486 0.003346
# 5 -0.027663 0.003576 -0.022980 -0.005486 0.064512 0.006749
# 6 -0.006181 -0.001406 -0.000659 0.003346 0.006749 0.030500
#
#
# Mechanical properties :
#
#
# Convention : Reuss Voigt Hill
#
# Bulk Modulus (GPa) = 14.36882 40.62928 27.49905
# Shear Modulus (GPa) = 21.96719 37.55785 29.76252
#
# Velocity S-wave (km/s) = 3.04747 3.98477 3.54721
# Velocity P-wave (km/s) = 4.29622 6.19258 5.32942
#
# Compressibility (1/GPa) = 0.06959513
#
# Stress axis : x y z
#
# Youngs Moduli (GPa) = 21.38852 73.20067 60.47154
#
# Poissons Ratio (x) = 0.49332 -0.36595
# Poissons Ratio (y) = 0.14414 0.18086
# Poissons Ratio (z) = -0.12944 0.21893
#
# Static dielectric constant tensor:
#      x y z
#    x 3.097310 0.251540 -1.547730 
#    y 0.251540 1.952230 -0.329090 
#    z -1.547730 -0.329090 3.926910 
# 
# From -- ./inp_files/124837.got.cif
#   From: 2010.05.17/outbox.cif.g08.bks.cpg/sg2_63_cif.got.tgz:124837.got - 2010.06.03 11:33:40.
