data_PCOD9068061
_publ_section_title
;
Structure prediction by ZEFSAII (Michael W. Deem and Ramdas Pophale) SiO2 
 PCOD9068061
Probable space group: P -1
;
_chemical_formula_sum "Si O2"
_cell_formula_units_Z 16
_cell_length_a 15.963311
_cell_length_b 15.822423
_cell_length_c 12.872217
_cell_angle_alpha 55.971854
_cell_angle_beta 142.262197
_cell_angle_gamma 152.644718
_cell_volume 787.770647
_symmetry_space_group_name_H-M "P -1"
_symmetry_group_IT_number 2
_symmetry_cell_setting 'triclinic'
loop_
_space_group_symop_operation_xyz
x,y,z
-x,-y,-z
loop_
_atom_site_type_symbol
_atom_site_label
_atom_site_fract_x
_atom_site_fract_y
_atom_site_fract_z
Si Si1 0.106201 0.163170 0.559808
Si Si2 0.233945 0.597387 0.233239
Si Si3 0.706826 0.773295 0.079753
Si Si4 0.817729 0.078789 0.932128
Si Si5 0.366951 0.956245 0.609851
Si Si6 0.900308 0.732427 0.146457
Si Si7 0.624561 0.496128 0.699929
Si Si8 0.193517 0.818282 0.767482
O O1 0.104021 0.138487 0.696686
O O2 0.436803 0.386298 0.694712
O O3 0.926716 0.145369 0.365306
O O4 0.000000 0.000000 0.500000
O O5 0.441405 0.817950 0.333124
O O6 0.397334 0.625201 0.298595
O O7 0.050609 0.414152 0.263958
O O8 0.000000 0.500000 0.000000
O O9 0.821565 0.790350 0.078908
O O10 0.387428 0.523110 0.958007
O O11 0.717950 0.901447 0.989935
O O12 0.566220 0.996226 0.736574
O O13 0.970251 0.172454 0.905932
O O14 0.046785 0.269273 0.110196
O O15 0.239165 0.835032 0.677874
O O16 0.126656 0.828487 0.379759
O O17 0.500000 0.500000 0.500000
O O18 0.500000 0.000000 0.000000
#
# Coordination Sequence:
#
# PCOD9068061 Si02
#       8
#     2   2   2   2   2   2   2   2
#     4  12  25  42  73 105 139 180 228 290 350 412
#     4  12  25  44  69 104 143 183 219 285 354 416
#     4  11  26  47  74 101 139 182 232 292 344 404
#     4  12  26  46  73 102 138 186 231 288 344 414
#     4  12  27  45  73 102 141 185 234 278 346 424
#     4  11  26  50  69 100 140 183 241 284 339 410
#     4  12  24  42  68 106 141 173 232 282 349 415
#     4  12  25  44  67 101 144 182 221 279 353 414
#
# _framework density 20.310479000000001
#
# number of rings (size 3 to 8) (size 9 to 14) (size 15 to 20)
#    0.000    0.250    6.250    2.250    3.500    2.500 
#    0.000    0.000    0.000    0.000    0.000    0.000 
#    0.000    0.000    0.000    0.000    0.000    0.000 
#
# Total GULP energy -89541.800051 kJ/mol
# GULP energy per Si atom -5596.362503 kJ/mol
# Density = 2.026425 g / cm^3
# Si number density = 20.310479 Si / 1000 Ang^3
#
#
#
# Elastic Constant Matrix: (Units=GPa)
#
#
# Indices 1 2 3 4 5 6 
#
# 1 114.5865 60.9071 23.9099 -10.1426 12.3919 -3.4146
# 2 60.9071 97.1174 40.5672 -13.6861 0.1418 -14.8955
# 3 23.9099 40.5672 124.9877 -0.8686 2.8003 -22.7001
# 4 -10.1426 -13.6861 -0.8686 29.0204 -1.1742 1.9915
# 5 12.3919 0.1418 2.8003 -1.1742 43.5867 -8.9911
# 6 -3.4146 -14.8955 -22.7001 1.9915 -8.9911 34.4366
#
#
#
# Elastic Compliance Matrix: (Units=1/GPa)
#
#
# Indices 1 2 3 4 5 6 
#
# 1 0.014194 -0.009296 -0.000336 0.000655 -0.004818 -0.004131
# 2 -0.009296 0.019239 -0.003451 0.005485 0.004166 0.005896
# 3 -0.000336 -0.003451 0.010141 -0.001791 0.000521 0.005399
# 4 0.000655 0.005485 -0.001791 0.037300 0.000772 -0.000698
# 5 -0.004818 0.004166 0.000521 0.000772 0.026023 0.008417
# 6 -0.004131 0.005896 0.005399 -0.000698 0.008417 0.036976
#
#
# Mechanical properties :
#
#
# Convention : Reuss Voigt Hill
#
# Bulk Modulus (GPa) = 57.43719 65.27331 61.35525
# Shear Modulus (GPa) = 28.43476 35.49591 31.96534
#
# Velocity S-wave (km/s) = 3.74572 4.18504 3.97146
# Velocity P-wave (km/s) = 6.85917 7.45388 7.16270
#
# Compressibility (1/GPa) = 0.01741032
#
# Stress axis : x y z
#
# Youngs Moduli (GPa) = 70.45196 51.97750 98.60579
#
# Poissons Ratio (x) = 0.48316 0.03312
# Poissons Ratio (y) = 0.65489 0.34025
# Poissons Ratio (z) = 0.02367 0.17935
#
# Static dielectric constant tensor:
#      x y z
#    x 1.674030 -0.040190 -0.011050 
#    y -0.040190 1.658240 -0.000610 
#    z -0.011050 -0.000610 1.677370 
# 
# From -- ./inp_files/382373.got.cif
#   From: 2010.05.17/outbox.cif.g08.bks.cpg/sg2_192_cif.got.tgz:382373.got - 2010.06.03 11:33:40.
