data_PCOD9068015
_publ_section_title
;
Structure prediction by ZEFSAII (Michael W. Deem and Ramdas Pophale) SiO2 
 PCOD9068015
Probable space group: P -1
;
_chemical_formula_sum "Si O2"
_cell_formula_units_Z 15
_cell_length_a 14.989272
_cell_length_b 21.218103
_cell_length_c 11.819623
_cell_angle_alpha 31.497030
_cell_angle_beta 134.867557
_cell_angle_gamma 157.177086
_cell_volume 699.215457
_symmetry_space_group_name_H-M "P -1"
_symmetry_group_IT_number 2
_symmetry_cell_setting 'triclinic'
loop_
_space_group_symop_operation_xyz
x,y,z
-x,-y,-z
loop_
_atom_site_type_symbol
_atom_site_label
_atom_site_fract_x
_atom_site_fract_y
_atom_site_fract_z
Si Si1 0.584393 0.706167 0.283769
Si Si2 0.142954 0.258917 0.949761
Si Si3 0.449598 0.604292 0.884281
Si Si4 0.219862 0.517259 0.428823
Si Si5 0.255165 0.952510 0.652326
Si Si6 0.277609 0.552522 0.042575
Si Si7 0.754891 0.204007 0.344179
Si Si8 0.500000 0.000000 0.000000
O O1 0.500000 0.500000 0.500000
O O2 0.443272 0.640628 0.368075
O O3 0.481405 0.694426 0.102036
O O4 0.880247 0.972397 0.147823
O O5 0.199320 0.351761 0.985028
O O6 0.151153 0.377365 0.688962
O O7 0.371910 0.357649 0.977952
O O8 0.594896 0.802109 0.617098
O O9 0.391486 0.635586 0.893258
O O10 0.976042 0.320441 0.430813
O O11 0.306460 0.723956 0.221770
O O12 0.299729 0.903440 0.659073
O O13 0.958906 0.732565 0.727497
O O14 0.349751 0.962497 0.832300
O O15 0.169067 0.593800 0.908087
O O16 0.500000 0.000000 0.500000
#
# Coordination Sequence:
#
# PCOD9068015 Si02
#       8
#     2   2   2   2   2   2   2   1
#     4  12  27  46  74 106 141 192 242 299 353 424
#     4  11  27  47  72 106 143 189 240 297 356 420
#     4  11  26  47  70 102 145 187 237 294 355 428
#     4  12  26  49  71 109 148 183 245 294 356 430
#     4  12  24  47  68 103 144 184 238 290 355 424
#     4  12  24  44  71 101 140 191 234 289 364 417
#     4  12  24  44  72 103 142 185 231 292 356 417
#     4  12  26  44  76 102 146 196 228 298 356 428
#
# _framework density 21.452617
#
# number of rings (size 3 to 8) (size 9 to 14) (size 15 to 20)
#    0.000    0.267    5.333    3.600    1.867    1.067 
#    0.000    6.000    0.000    0.000    0.000    0.000 
#    0.000    0.000    0.000    0.000    0.000    0.000 
#
# Total GULP energy -83665.665162 kJ/mol
# GULP energy per Si atom -5577.711011 kJ/mol
# Density = 2.140379 g / cm^3
# Si number density = 21.452617 Si / 1000 Ang^3
#
#
#
# Elastic Constant Matrix: (Units=GPa)
#
#
# Indices 1 2 3 4 5 6 
#
# 1 34.4334 -5.3168 -6.8822 -0.4343 -4.5698 10.2862
# 2 -5.3168 108.9334 -4.8909 -6.4067 -19.4119 11.2852
# 3 -6.8822 -4.8909 68.6360 -15.6074 -8.9963 41.9511
# 4 -0.4343 -6.4067 -15.6074 42.9243 1.9875 10.4503
# 5 -4.5698 -19.4119 -8.9963 1.9875 14.7567 15.9791
# 6 10.2862 11.2852 41.9511 10.4503 15.9791 -17.4656
#
#
#
# Elastic Compliance Matrix: (Units=1/GPa)
#
#
# Indices 1 2 3 4 5 6 
#
# 1 0.026228 0.000116 -0.002493 -0.002368 -0.000862 0.007329
# 2 0.000116 0.009436 -0.002134 -0.000937 0.005403 0.005421
# 3 -0.002493 -0.002134 0.007862 0.000763 -0.008414 0.008796
# 4 -0.002368 -0.000937 0.000763 0.022723 -0.009596 0.004650
# 5 -0.000862 0.005403 -0.008414 -0.009596 0.048044 0.020987
# 6 0.007329 0.005421 0.008796 0.004650 0.020987 -0.006326
#
#
# Mechanical properties :
#
#
# Convention : Reuss Voigt Hill
#
# Bulk Modulus (GPa) = 28.98246 19.75811 24.37029
# Shear Modulus (GPa) = 38.91372 23.31593 31.11483
#
# Velocity S-wave (km/s) = 4.26366 3.30033 3.81254
# Velocity P-wave (km/s) = 6.14635 4.87371 5.54665
#
# Compressibility (1/GPa) = 0.03450363
#
# Stress axis : x y z
#
# Youngs Moduli (GPa) = 38.12766 105.97881 127.19219
#
# Poissons Ratio (x) = -0.01230 0.31706
# Poissons Ratio (y) = -0.00443 0.27147
# Poissons Ratio (z) = 0.09504 0.22620
#
# Static dielectric constant tensor:
#      x y z
#    x 1.776870 -0.012040 0.008970 
#    y -0.012040 1.762580 -0.033940 
#    z 0.008970 -0.033940 1.841540 
# 
# From -- ./inp_files/380872.got.cif
#   From: 2010.05.17/outbox.cif.g08.bks.cpg/sg2_191_cif.got.tgz:380872.got - 2010.06.03 11:33:40.
