data_PCOD9068152
_publ_section_title
;
Structure prediction by ZEFSAII (Michael W. Deem and Ramdas Pophale) SiO2 
 PCOD9068152
Probable space group: P -1
;
_chemical_formula_sum "Si O2"
_cell_formula_units_Z 14
_cell_length_a 5.239236
_cell_length_b 23.190383
_cell_length_c 25.398414
_cell_angle_alpha 170.111897
_cell_angle_beta 113.708145
_cell_angle_gamma 64.753277
_cell_volume 476.040093
_symmetry_space_group_name_H-M "P -1"
_symmetry_group_IT_number 2
_symmetry_cell_setting 'triclinic'
loop_
_space_group_symop_operation_xyz
x,y,z
-x,-y,-z
loop_
_atom_site_type_symbol
_atom_site_label
_atom_site_fract_x
_atom_site_fract_y
_atom_site_fract_z
Si Si1 0.830865 0.416088 0.862659
Si Si2 0.720367 0.228596 0.239527
Si Si3 0.349070 0.823220 0.276817
Si Si4 0.099007 0.344397 0.455305
Si Si5 0.592873 0.604342 0.279761
Si Si6 0.599105 0.351578 0.584869
Si Si7 0.116100 0.024583 0.812126
O O1 0.673567 0.460945 0.834788
O O2 0.500000 0.000000 0.500000
O O3 0.574075 0.567425 0.023472
O O4 0.000000 0.000000 0.500000
O O5 0.500000 0.500000 0.500000
O O6 0.860471 0.371272 0.328476
O O7 0.986629 0.082184 0.168757
O O8 0.500000 0.000000 0.000000
O O9 0.274389 0.160586 0.537739
O O10 0.186058 0.729092 0.985017
O O11 0.044370 0.681630 0.124269
O O12 0.376655 0.324099 0.495620
O O13 0.872604 0.308133 0.449954
O O14 0.488390 0.763000 0.469314
O O15 0.868903 0.096497 0.355231
O O16 0.664821 0.731310 0.935930
#
# Coordination Sequence:
#
# PCOD9068152 Si02
#       7
#     2   2   2   2   2   2   2
#     4   8  23  46  73 107 142 193 261 321 400 487
#     4  11  26  47  82 120 160 212 272 323 391 466
#     4   9  22  43  74 107 145 194 259 324 404 484
#     4  11  26  51  79 115 166 216 262 333 396 464
#     4  12  26  48  81 112 156 210 264 334 415 479
#     4  12  29  49  77 117 160 211 273 330 400 487
#     4  12  29  50  76 116 162 212 268 333 402 485
#
# _framework density 29.409285000000001
#
# number of rings (size 3 to 8) (size 9 to 14) (size 15 to 20)
#    0.857    0.286    0.000    3.857    0.000   17.714 
#    0.000    0.000    0.000    6.000    0.000    0.000 
#    0.000    0.000    0.000    0.000    0.000    0.000 
#
# Total GULP energy -78129.796157 kJ/mol
# GULP energy per Si atom -5580.699726 kJ/mol
# Density = 2.934235 g / cm^3
# Si number density = 29.409285 Si / 1000 Ang^3
#
#
#
# Elastic Constant Matrix: (Units=GPa)
#
#
# Indices 1 2 3 4 5 6 
#
# 1 180.5374 85.2461 74.7349 -16.7196 42.5616 24.6121
# 2 85.2461 204.9034 58.8573 -23.7143 2.3234 15.9976
# 3 74.7349 58.8573 209.7714 -34.9806 28.3484 -0.5004
# 4 -16.7196 -23.7143 -34.9806 56.3120 4.8969 6.9842
# 5 42.5616 2.3234 28.3484 4.8969 68.2602 5.4098
# 6 24.6121 15.9976 -0.5004 6.9842 5.4098 59.5784
#
#
#
# Elastic Compliance Matrix: (Units=1/GPa)
#
#
# Indices 1 2 3 4 5 6 
#
# 1 0.009242 -0.002971 -0.001596 0.001265 -0.004872 -0.002739
# 2 -0.002971 0.006550 -0.000828 0.001300 0.001949 -0.000868
# 3 -0.001596 -0.000828 0.006362 0.003204 -0.001907 0.000733
# 4 0.001265 0.001300 0.003204 0.021348 -0.003455 -0.003034
# 5 -0.004872 0.001949 -0.001907 -0.003455 0.018646 0.000185
# 6 -0.002739 -0.000868 0.000733 -0.003034 0.000185 0.018494
#
#
# Mechanical properties :
#
#
# Convention : Reuss Voigt Hill
#
# Bulk Modulus (GPa) = 88.00037 114.76542 101.38290
# Shear Modulus (GPa) = 52.50956 61.92169 57.21563
#
# Velocity S-wave (km/s) = 4.23007 4.59357 4.41556
# Velocity P-wave (km/s) = 7.33796 8.20017 7.78101
#
# Compressibility (1/GPa) = 0.01136359
#
# Stress axis : x y z
#
# Youngs Moduli (GPa) = 108.20535 152.66460 157.18752
#
# Poissons Ratio (x) = 0.45354 0.25090
# Poissons Ratio (y) = 0.32146 0.13016
# Poissons Ratio (z) = 0.17272 0.12642
#
# Static dielectric constant tensor:
#      x y z
#    x 3.253100 0.324200 0.229480 
#    y 0.324200 2.489040 0.176760 
#    z 0.229480 0.176760 2.483820 
# 
# From -- ./inp_files/622058.got.cif
#   From: 2010.05.17/outbox.cif.g08.bks.cpg/sg2_312_cif.got.tgz:622058.got - 2010.06.03 11:33:40.
