data_PCOD9068953
_publ_section_title
;
Structure prediction by ZEFSAII (Michael W. Deem and Ramdas Pophale) SiO2 
 PCOD9068953
Probable space group: P -1
;
_chemical_formula_sum "Si O2"
_cell_formula_units_Z 14
_cell_length_a 11.495107
_cell_length_b 28.497724
_cell_length_c 14.775620
_cell_angle_alpha 23.258673
_cell_angle_beta 145.613318
_cell_angle_gamma 158.689926
_cell_volume 678.559281
_symmetry_space_group_name_H-M "P -1"
_symmetry_group_IT_number 2
_symmetry_cell_setting 'triclinic'
loop_
_space_group_symop_operation_xyz
x,y,z
-x,-y,-z
loop_
_atom_site_type_symbol
_atom_site_label
_atom_site_fract_x
_atom_site_fract_y
_atom_site_fract_z
Si Si1 0.355590 0.741700 0.084476
Si Si2 0.770699 0.699391 0.056420
Si Si3 0.430756 0.434265 0.469521
Si Si4 0.044691 0.061755 0.628190
Si Si5 0.260129 0.406059 0.096782
Si Si6 0.258145 0.724901 0.258198
Si Si7 0.768757 0.053636 0.640318
O O1 0.449557 0.647085 0.322384
O O2 0.341400 0.787641 0.095378
O O3 0.989464 0.597982 0.067090
O O4 0.597319 0.911557 0.866571
O O5 0.650508 0.617814 0.224060
O O6 0.487083 0.524029 0.120125
O O7 0.090948 0.765149 0.123073
O O8 0.824724 0.863599 0.791256
O O9 0.500000 0.500000 0.500000
O O10 0.055749 0.265229 0.491622
O O11 0.051354 0.192110 0.353400
O O12 0.409855 0.172482 0.665790
O O13 0.936668 0.038057 0.704506
O O14 0.500000 0.500000 0.000000
O O15 0.000000 0.500000 0.500000
O O16 0.500000 0.000000 0.500000
#
# Coordination Sequence:
#
# PCOD9068953 Si02
#       7
#     2   2   2   2   2   2   2
#     4  12  23  42  74  98 135 188 232 282 352 419
#     4  12  25  45  72 103 138 182 234 290 354 417
#     4  12  26  45  71 106 140 182 240 294 347 422
#     4  12  25  45  70 100 142 183 231 291 349 417
#     4  12  24  46  70 100 145 185 226 291 353 416
#     4  12  21  45  71  97 138 181 228 291 349 408
#     4  12  24  46  71  99 143 190 231 289 357 413
#
# _framework density 20.631948000000001
#
# number of rings (size 3 to 8) (size 9 to 14) (size 15 to 20)
#    0.000    0.000    8.571    1.714    2.000    1.714 
#    0.000    2.857    0.000    0.000    0.000    0.000 
#    0.000    0.000    0.000    0.000    0.000    0.000 
#
# Total GULP energy -78293.027262 kJ/mol
# GULP energy per Si atom -5592.359090 kJ/mol
# Density = 2.058499 g / cm^3
# Si number density = 20.631948 Si / 1000 Ang^3
#
#
#
# Elastic Constant Matrix: (Units=GPa)
#
#
# Indices 1 2 3 4 5 6 
#
# 1 88.7045 14.3833 17.7740 -18.7914 -15.6655 -5.6715
# 2 14.3833 77.4964 18.5140 14.7577 16.7125 14.3241
# 3 17.7740 18.5140 92.8057 -16.5934 -8.4202 -4.4330
# 4 -18.7914 14.7577 -16.5934 32.4799 -0.5109 -2.0162
# 5 -15.6655 16.7125 -8.4202 -0.5109 39.4470 -4.0511
# 6 -5.6715 14.3241 -4.4330 -2.0162 -4.0511 27.5751
#
#
#
# Elastic Compliance Matrix: (Units=1/GPa)
#
#
# Indices 1 2 3 4 5 6 
#
# 1 0.025805 -0.022663 0.008613 0.031527 0.024600 0.024383
# 2 -0.022663 0.045729 -0.018346 -0.046339 -0.037018 -0.040191
# 3 0.008613 -0.018346 0.019734 0.024851 0.017667 0.018886
# 4 0.031527 -0.046339 0.024851 0.086395 0.043429 0.047248
# 5 0.024600 -0.037018 0.017667 0.043429 0.059141 0.038993
# 6 0.024383 -0.040191 0.018886 0.047248 0.038993 0.074377
#
#
# Mechanical properties :
#
#
# Convention : Reuss Voigt Hill
#
# Bulk Modulus (GPa) = 37.77086 40.03881 38.90484
# Shear Modulus (GPa) = 12.99382 33.78942 23.39162
#
# Velocity S-wave (km/s) = 2.51229 4.05127 3.37078
# Velocity P-wave (km/s) = 5.17322 6.42900 5.83499
#
# Compressibility (1/GPa) = 0.02647544
#
# Stress axis : x y z
#
# Youngs Moduli (GPa) = 38.75267 21.86782 50.67428
#
# Poissons Ratio (x) = 0.49558 -0.43644
# Poissons Ratio (y) = 0.87824 0.92967
# Poissons Ratio (z) = -0.33376 0.40119
#
# Static dielectric constant tensor:
#      x y z
#    x 1.727740 0.004090 -0.008850 
#    y 0.004090 1.741370 0.006440 
#    z -0.008850 0.006440 1.738050 
# 
# From -- ./inp_files/255693.got.cif
#   From: 2010.05.17/outbox.cif.g08.bks.cpg/sg2_128_cif.got.tgz:255693.got - 2010.06.03 11:33:40.
