data_PCOD9068781
_publ_section_title
;
Structure prediction by ZEFSAII (Michael W. Deem and Ramdas Pophale) SiO2 
 PCOD9068781
Probable space group: P -1
;
_chemical_formula_sum "Si O2"
_cell_formula_units_Z 16
_cell_length_a 10.954171
_cell_length_b 16.444774
_cell_length_c 14.218024
_cell_angle_alpha 26.836449
_cell_angle_beta 51.247965
_cell_angle_gamma 36.816317
_cell_volume 654.859238
_symmetry_space_group_name_H-M "P -1"
_symmetry_group_IT_number 2
_symmetry_cell_setting 'triclinic'
loop_
_space_group_symop_operation_xyz
x,y,z
-x,-y,-z
loop_
_atom_site_type_symbol
_atom_site_label
_atom_site_fract_x
_atom_site_fract_y
_atom_site_fract_z
Si Si1 0.325452 0.366711 0.854975
Si Si2 0.689613 0.968855 0.893684
Si Si3 0.969428 0.262328 0.562213
Si Si4 0.148263 0.753631 0.935418
Si Si5 0.698474 0.720112 0.660513
Si Si6 0.237012 0.852314 0.587198
Si Si7 0.554212 0.517555 0.609700
Si Si8 0.776770 0.707321 0.843081
O O1 0.151456 0.596719 0.627155
O O2 0.528357 0.335170 0.770930
O O3 0.285961 0.186963 0.043268
O O4 0.360163 0.320458 0.999219
O O5 0.919734 0.826091 0.974912
O O6 0.595566 0.232358 0.637464
O O7 0.500000 0.000000 0.000000
O O8 0.793790 0.390535 0.597744
O O9 0.140928 0.284860 0.471761
O O10 0.101638 0.972419 0.789093
O O11 0.209788 0.775365 0.779526
O O12 0.321386 0.464652 0.179877
O O13 0.797026 0.615470 0.824201
O O14 0.500000 0.000000 0.500000
O O15 0.432380 0.638972 0.643431
O O16 0.266398 0.044366 0.393565
O O17 0.000000 0.000000 0.500000
O O18 0.000000 0.500000 0.000000
#
# Coordination Sequence:
#
# PCOD9068781 Si02
#       8
#     2   2   2   2   2   2   2   2
#     4  12  20  33  60  94 134 169 208 260 327 390
#     4  12  20  32  55  95 139 172 206 265 335 387
#     4  12  23  40  62  99 135 173 218 271 331 397
#     4  12  22  40  64  89 130 175 223 267 327 393
#     4  12  27  46  69  95 130 176 226 278 328 390
#     4  12  21  36  61  99 136 175 212 264 330 395
#     4  12  23  34  59  99 144 169 209 271 339 387
#     4  12  21  39  66  97 131 167 219 275 324 385
#
# _framework density 24.432732999999999
#
# number of rings (size 3 to 8) (size 9 to 14) (size 15 to 20)
#    0.000    0.000    8.750    3.375    0.000    0.500 
#    0.000    0.000    0.000    3.750    0.000    0.000 
#    0.000    0.000    0.000    0.000    0.000    0.000 
#
# Total GULP energy -89118.010802 kJ/mol
# GULP energy per Si atom -5569.875675 kJ/mol
# Density = 2.437712 g / cm^3
# Si number density = 24.432733 Si / 1000 Ang^3
#
#
#
# Elastic Constant Matrix: (Units=GPa)
#
#
# Indices 1 2 3 4 5 6 
#
# 1 33.0281 15.2761 15.1891 7.4753 -13.4785 -1.1082
# 2 15.2761 152.0354 45.6462 -2.8002 -5.3233 -1.5295
# 3 15.1891 45.6462 129.7689 -2.6327 -36.5685 -10.7238
# 4 7.4753 -2.8002 -2.6327 35.9598 -8.2466 -9.1779
# 5 -13.4785 -5.3233 -36.5685 -8.2466 32.0331 -2.8802
# 6 -1.1082 -1.5295 -10.7238 -9.1779 -2.8802 30.0610
#
#
#
# Elastic Compliance Matrix: (Units=1/GPa)
#
#
# Indices 1 2 3 4 5 6 
#
# 1 0.039180 -0.003894 0.001677 -0.003848 0.016969 0.002296
# 2 -0.003894 0.007943 -0.003927 -0.000478 -0.005084 -0.001773
# 3 0.001677 -0.003927 0.015776 0.007834 0.020969 0.009891
# 4 -0.003848 -0.000478 0.007834 0.037368 0.018284 0.015789
# 5 0.016969 -0.005084 0.020969 0.018284 0.067951 0.019940
# 6 0.002296 -0.001773 0.009891 0.015789 0.019940 0.043519
#
#
# Mechanical properties :
#
#
# Convention : Reuss Voigt Hill
#
# Bulk Modulus (GPa) = 19.75829 51.89503 35.82666
# Shear Modulus (GPa) = 20.75590 35.52550 28.14070
#
# Velocity S-wave (km/s) = 2.91780 3.81729 3.39744
# Velocity P-wave (km/s) = 4.41087 6.38083 5.48502
#
# Compressibility (1/GPa) = 0.05061166
#
# Stress axis : x y z
#
# Youngs Moduli (GPa) = 25.52340 125.89603 63.38584
#
# Poissons Ratio (x) = 0.49022 -0.10631
# Poissons Ratio (y) = 0.09938 0.24893
# Poissons Ratio (z) = -0.04281 0.49441
#
# Static dielectric constant tensor:
#      x y z
#    x 8.226180 9.327250 -1.989380 
#    y 9.327250 16.050100 -3.084310 
#    z -1.989380 -3.084310 2.610030 
# 
# From -- ./inp_files/574300.got.cif
#   From: 2010.05.17/outbox.cif.g08.bks.cpg/sg2_288_cif.got.tgz:574300.got - 2010.06.03 11:33:40.
