data_PCOD9068436
_publ_section_title
;
Structure prediction by ZEFSAII (Michael W. Deem and Ramdas Pophale) SiO2 
 PCOD9068436
Probable space group: P -1
;
_chemical_formula_sum "Si O2"
_cell_formula_units_Z 12
_cell_length_a 5.227786
_cell_length_b 13.436508
_cell_length_c 12.831067
_cell_angle_alpha 147.754898
_cell_angle_beta 85.870207
_cell_angle_gamma 94.013293
_cell_volume 479.560543
_symmetry_space_group_name_H-M "P -1"
_symmetry_group_IT_number 2
_symmetry_cell_setting 'triclinic'
loop_
_space_group_symop_operation_xyz
x,y,z
-x,-y,-z
loop_
_atom_site_type_symbol
_atom_site_label
_atom_site_fract_x
_atom_site_fract_y
_atom_site_fract_z
Si Si1 0.521847 0.751706 0.188372
Si Si2 0.402243 0.113932 0.416629
Si Si3 0.057857 0.318281 0.269847
Si Si4 0.715671 0.020891 0.925551
Si Si5 0.669850 0.517915 0.782585
Si Si6 0.989388 0.700546 0.282337
O O1 0.528464 0.641038 0.981562
O O2 0.246055 0.320562 0.810753
O O3 0.750003 0.269537 0.763944
O O4 0.556636 0.969426 0.353989
O O5 0.383753 0.023286 0.224418
O O6 0.528616 0.319375 0.590819
O O7 0.122045 0.137279 0.496965
O O8 0.000000 0.500000 0.500000
O O9 0.101696 0.151401 0.202653
O O10 0.280532 0.377312 0.234538
O O11 0.847521 0.221779 0.115175
O O12 0.500000 0.000000 0.000000
O O13 0.937177 0.462444 0.782970
#
# Coordination Sequence:
#
# PCOD9068436 Si02
#       6
#     2   2   2   2   2   2
#     4  12  29  49  77 111 164 205 261 316 379 453
#     4  12  28  46  78 114 152 207 257 316 388 456
#     4  11  26  50  78 111 150 196 252 320 386 462
#     4  11  26  50  78 109 152 195 252 318 390 459
#     4  12  28  46  78 114 153 203 261 316 386 456
#     4  12  27  51  75 115 157 212 257 317 378 458
#
# _framework density 25.022908999999999
#
# number of rings (size 3 to 8) (size 9 to 14) (size 15 to 20)
#    0.000    0.333    1.667    5.000    7.000    8.000 
#    0.000    0.000    0.000    0.000    0.000    0.000 
#    0.000    0.000    0.000    0.000    0.000    0.000 
#
# Total GULP energy -67219.986489 kJ/mol
# GULP energy per Si atom -5601.665541 kJ/mol
# Density = 2.496596 g / cm^3
# Si number density = 25.022909 Si / 1000 Ang^3
#
#
#
# Elastic Constant Matrix: (Units=GPa)
#
#
# Indices 1 2 3 4 5 6 
#
# 1 130.9453 44.9220 56.2598 -2.4275 8.0584 7.4859
# 2 44.9220 135.0481 65.1320 -19.0190 12.1680 3.2242
# 3 56.2598 65.1320 191.1383 -17.5345 8.8182 19.8368
# 4 -2.4275 -19.0190 -17.5345 60.8640 5.1285 -3.7033
# 5 8.0584 12.1680 8.8182 5.1285 31.8663 7.1408
# 6 7.4859 3.2242 19.8368 -3.7033 7.1408 32.8890
#
#
#
# Elastic Compliance Matrix: (Units=1/GPa)
#
#
# Indices 1 2 3 4 5 6 
#
# 1 0.009297 -0.002186 -0.001970 -0.000863 -0.000684 -0.000662
# 2 -0.002186 0.010024 -0.002583 0.002724 -0.003476 0.002135
# 3 -0.001970 -0.002583 0.007138 0.000943 0.000149 -0.003530
# 4 -0.000863 0.002724 0.000943 0.018044 -0.004519 0.002373
# 5 -0.000684 -0.003476 0.000149 -0.004519 0.035308 -0.007768
# 6 -0.000662 0.002135 -0.003530 0.002373 -0.007768 0.034429
#
#
# Mechanical properties :
#
#
# Convention : Reuss Voigt Hill
#
# Bulk Modulus (GPa) = 77.04926 87.75104 82.40015
# Shear Modulus (GPa) = 37.86513 44.51173 41.18843
#
# Velocity S-wave (km/s) = 3.89423 4.22220 4.06153
# Velocity P-wave (km/s) = 7.14691 7.67553 7.41593
#
# Compressibility (1/GPa) = 0.01297871
#
# Stress axis : x y z
#
# Youngs Moduli (GPa) = 107.55724 99.76193 140.09280
#
# Poissons Ratio (x) = 0.21812 0.27604
# Poissons Ratio (y) = 0.23517 0.36192
# Poissons Ratio (z) = 0.21194 0.25773
#
# Static dielectric constant tensor:
#      x y z
#    x 2.055850 -0.046340 -0.009540 
#    y -0.046340 1.978600 0.047430 
#    z -0.009540 0.047430 1.996260 
# 
# From -- ./inp_files/550370.got.cif
#   From: 2010.05.17/outbox.cif.g08.bks.cpg/sg2_276_cif.got.tgz:550370.got - 2010.06.03 11:33:40.
