data_PCOD9068289
_publ_section_title
;
Structure prediction by ZEFSAII (Michael W. Deem and Ramdas Pophale) SiO2 
 PCOD9068289
Probable space group: P -1
;
_chemical_formula_sum "Si O2"
_cell_formula_units_Z 12
_cell_length_a 7.779336
_cell_length_b 10.772699
_cell_length_c 7.104523
_cell_angle_alpha 61.973686
_cell_angle_beta 84.010664
_cell_angle_gamma 60.373953
_cell_volume 450.468043
_symmetry_space_group_name_H-M "P -1"
_symmetry_group_IT_number 2
_symmetry_cell_setting 'triclinic'
loop_
_space_group_symop_operation_xyz
x,y,z
-x,-y,-z
loop_
_atom_site_type_symbol
_atom_site_label
_atom_site_fract_x
_atom_site_fract_y
_atom_site_fract_z
Si Si1 0.379131 0.964911 0.755033
Si Si2 0.748584 0.969422 0.850121
Si Si3 0.414264 0.658057 0.768786
Si Si4 0.935563 0.179168 0.550506
Si Si5 0.930419 0.588303 0.142806
Si Si6 0.263749 0.487595 0.469694
O O1 0.321676 0.958858 0.983495
O O2 0.173112 0.100612 0.584876
O O3 0.180807 0.736291 0.688355
O O4 0.446496 0.991009 0.280211
O O5 0.446511 0.793441 0.770250
O O6 0.875691 0.044261 0.699138
O O7 0.869966 0.774895 0.998250
O O8 0.525531 0.601764 0.594785
O O9 0.500000 0.500000 0.000000
O O10 0.883864 0.518408 0.663750
O O11 0.748314 0.588701 0.276580
O O12 0.000000 0.500000 0.000000
O O13 0.163098 0.679640 0.382605
#
# Coordination Sequence:
#
# PCOD9068289 Si02
#       6
#     2   2   2   2   2   2
#     4  11  26  49  80 115 167 215 271 338 425 489
#     4  11  26  48  81 117 164 211 280 347 408 501
#     4  12  29  48  81 121 166 222 280 341 418 496
#     4  12  27  50  82 116 168 215 280 341 412 495
#     4  11  26  49  83 120 167 216 274 344 422 493
#     4  11  27  50  79 122 166 216 278 343 413 498
#
# _framework density 26.638960000000001
#
# number of rings (size 3 to 8) (size 9 to 14) (size 15 to 20)
#    0.000    0.667    1.667    3.500   11.667    2.000 
#    0.000    0.000    0.000    0.000    0.000    0.000 
#    0.000    0.000    0.000    0.000    0.000    0.000 
#
# Total GULP energy -67418.271589 kJ/mol
# GULP energy per Si atom -5618.189299 kJ/mol
# Density = 2.657833 g / cm^3
# Si number density = 26.638960 Si / 1000 Ang^3
#
#
#
# Elastic Constant Matrix: (Units=GPa)
#
#
# Indices 1 2 3 4 5 6 
#
# 1 148.7223 30.8310 71.5555 -0.1801 9.3903 -6.4547
# 2 30.8310 194.7914 88.3632 14.9368 -3.6257 -20.5329
# 3 71.5555 88.3632 170.7879 9.0025 -4.6687 -8.4343
# 4 -0.1801 14.9368 9.0025 58.8628 -3.8455 0.0194
# 5 9.3903 -3.6257 -4.6687 -3.8455 44.2685 9.9520
# 6 -6.4547 -20.5329 -8.4343 0.0194 9.9520 38.5602
#
#
#
# Elastic Compliance Matrix: (Units=1/GPa)
#
#
# Indices 1 2 3 4 5 6 
#
# 1 0.008738 0.000484 -0.003923 0.000338 -0.002539 0.001517
# 2 0.000484 0.007168 -0.003701 -0.001302 -0.000757 0.003284
# 3 -0.003923 -0.003701 0.009432 -0.000403 0.001715 -0.001007
# 4 0.000338 -0.001302 -0.000403 0.017484 0.001553 -0.001135
# 5 -0.002539 -0.000757 0.001715 0.001553 0.024930 -0.006888
# 6 0.001517 0.003284 -0.001007 -0.001135 -0.006888 0.029494
#
#
# Mechanical properties :
#
#
# Convention : Reuss Voigt Hill
#
# Bulk Modulus (GPa) = 90.44578 99.53345 94.98962
# Shear Modulus (GPa) = 43.39739 49.90843 46.65291
#
# Velocity S-wave (km/s) = 4.04058 4.33310 4.18940
# Velocity P-wave (km/s) = 7.46958 7.90439 7.69006
#
# Compressibility (1/GPa) = 0.01105635
#
# Stress axis : x y z
#
# Youngs Moduli (GPa) = 114.44250 139.50805 106.01814
#
# Poissons Ratio (x) = -0.06746 0.41596
# Poissons Ratio (y) = -0.05534 0.39238
# Poissons Ratio (z) = 0.44901 0.51633
#
# Static dielectric constant tensor:
#      x y z
#    x 2.185990 0.037340 -0.032220 
#    y 0.037340 2.036040 0.003530 
#    z -0.032220 0.003530 2.079630 
# 
# From -- ./inp_files/66081.got.cif
#   From: 2010.05.17/outbox.cif.g08.bks.cpg/sg2_34_cif.got.tgz:66081.got - 2010.06.03 11:33:40.
