data_PCOD9068011
_publ_section_title
;
Structure prediction by ZEFSAII (Michael W. Deem and Ramdas Pophale) SiO2 
 PCOD9068011
Probable space group: P -1
;
_chemical_formula_sum "Si O2"
_cell_formula_units_Z 16
_cell_length_a 8.147010
_cell_length_b 11.268077
_cell_length_c 19.867645
_cell_angle_alpha 29.637022
_cell_angle_beta 126.052762
_cell_angle_gamma 134.925812
_cell_volume 636.907029
_symmetry_space_group_name_H-M "P -1"
_symmetry_group_IT_number 2
_symmetry_cell_setting 'triclinic'
loop_
_space_group_symop_operation_xyz
x,y,z
-x,-y,-z
loop_
_atom_site_type_symbol
_atom_site_label
_atom_site_fract_x
_atom_site_fract_y
_atom_site_fract_z
Si Si1 0.559398 0.432233 0.846333
Si Si2 0.051923 0.675980 0.497222
Si Si3 0.507983 0.085365 0.588600
Si Si4 0.914944 0.122879 0.221678
Si Si5 0.159506 0.559727 0.721910
Si Si6 0.265158 0.891298 0.116915
Si Si7 0.566305 0.649575 0.297907
Si Si8 0.492040 0.211522 0.132585
O O1 0.391680 0.535579 0.786328
O O2 0.529301 0.444255 0.753557
O O3 0.826499 0.614391 0.845060
O O4 0.429366 0.110289 0.994149
O O5 0.323853 0.885808 0.446513
O O6 0.047518 0.513572 0.643323
O O7 0.000000 0.500000 0.500000
O O8 0.937614 0.871892 0.386642
O O9 0.555605 0.391943 0.460078
O O10 0.244279 0.869402 0.612748
O O11 0.568013 0.963132 0.728050
O O12 0.728123 0.209910 0.162423
O O13 0.803922 0.943689 0.214418
O O14 0.994881 0.336424 0.846304
O O15 0.382067 0.713145 0.256790
O O16 0.287528 0.065412 0.101426
O O17 0.500000 0.500000 0.000000
#
# Coordination Sequence:
#
# PCOD9068011 Si02
#       8
#     2   2   2   2   2   2   2   2
#     4  12  24  51  73 110 151 201 256 306 372 449
#     4  12  22  44  75 112 148 195 246 313 377 448
#     4  12  24  45  75 110 150 193 246 310 381 445
#     4  11  26  46  82 110 147 203 254 311 376 450
#     4  12  25  44  74 109 154 194 250 309 379 446
#     4  11  28  48  71 106 152 204 247 309 376 448
#     4  11  26  47  75 113 147 197 254 314 374 447
#     4  11  28  51  72 110 152 197 252 313 379 451
#
# _framework density 25.121406
#
# number of rings (size 3 to 8) (size 9 to 14) (size 15 to 20)
#    0.000    0.500    3.750    3.375    3.500    3.500 
#    4.500    0.000    0.000    0.000    0.000    0.000 
#    0.000    0.000    0.000    0.000    0.000    0.000 
#
# Total GULP energy -89277.545806 kJ/mol
# GULP energy per Si atom -5579.846613 kJ/mol
# Density = 2.506423 g / cm^3
# Si number density = 25.121406 Si / 1000 Ang^3
#
#
#
# Elastic Constant Matrix: (Units=GPa)
#
#
# Indices 1 2 3 4 5 6 
#
# 1 61.5064 28.1020 59.0050 -27.7597 12.6579 22.7892
# 2 28.1020 118.2759 37.6095 -30.7234 -15.7336 16.4392
# 3 59.0050 37.6095 166.0960 -19.4313 8.1489 4.2758
# 4 -27.7597 -30.7234 -19.4313 48.3028 -2.5776 -7.6981
# 5 12.6579 -15.7336 8.1489 -2.5776 48.2149 0.0090
# 6 22.7892 16.4392 4.2758 -7.6981 0.0090 39.7675
#
#
#
# Elastic Compliance Matrix: (Units=1/GPa)
#
#
# Indices 1 2 3 4 5 6 
#
# 1 0.047901 -0.000603 -0.013788 0.017534 -0.009500 -0.022322
# 2 -0.000603 0.011871 -0.001898 0.006187 0.004685 -0.003161
# 3 -0.013788 -0.001898 0.010693 -0.003690 0.000995 0.006822
# 4 0.017534 0.006187 -0.003690 0.032267 -0.000235 -0.005962
# 5 -0.009500 0.004685 0.000995 -0.000235 0.024582 0.003350
# 6 -0.022322 -0.003161 0.006822 -0.005962 0.003350 0.037356
#
#
# Mechanical properties :
#
#
# Convention : Reuss Voigt Hill
#
# Bulk Modulus (GPa) = 26.39564 66.14570 46.27067
# Shear Modulus (GPa) = 23.82335 42.00115 32.91225
#
# Velocity S-wave (km/s) = 3.08284 4.09336 3.62350
# Velocity P-wave (km/s) = 4.81683 6.98057 5.99709
#
# Compressibility (1/GPa) = 0.03788504
#
# Stress axis : x y z
#
# Youngs Moduli (GPa) = 20.87653 84.23627 93.52345
#
# Poissons Ratio (x) = 0.05083 1.28949
# Poissons Ratio (y) = 0.01260 0.17754
# Poissons Ratio (z) = 0.28784 0.15991
#
# Static dielectric constant tensor:
#      x y z
#    x 2.023700 0.022590 0.047950 
#    y 0.022590 2.142520 -0.052140 
#    z 0.047950 -0.052140 2.059580 
# 
# From -- ./inp_files/589395.got.cif
#   From: 2010.05.17/outbox.cif.g08.bks.cpg/sg2_295_cif.got.tgz:589395.got - 2010.06.03 11:33:40.
