data_PCOD9068456
_publ_section_title
;
Structure prediction by ZEFSAII (Michael W. Deem and Ramdas Pophale) SiO2 
 PCOD9068456
Probable space group: P -1
;
_chemical_formula_sum "Si O2"
_cell_formula_units_Z 10
_cell_length_a 11.118431
_cell_length_b 4.828830
_cell_length_c 9.475760
_cell_angle_alpha 100.001378
_cell_angle_beta 44.348766
_cell_angle_gamma 97.896151
_cell_volume 350.156029
_symmetry_space_group_name_H-M "P -1"
_symmetry_group_IT_number 2
_symmetry_cell_setting 'triclinic'
loop_
_space_group_symop_operation_xyz
x,y,z
-x,-y,-z
loop_
_atom_site_type_symbol
_atom_site_label
_atom_site_fract_x
_atom_site_fract_y
_atom_site_fract_z
Si Si1 0.815993 0.664508 0.058178
Si Si2 0.336852 0.363578 0.207221
Si Si3 0.878347 0.962356 0.301992
Si Si4 0.444816 0.636847 0.410697
Si Si5 0.152441 0.797777 0.235567
O O1 0.622368 0.776600 0.216711
O O2 0.857144 0.692881 0.192488
O O3 0.807348 0.368758 0.959000
O O4 0.964225 0.846437 0.874655
O O5 0.383956 0.391750 0.333455
O O6 0.185859 0.574422 0.309749
O O7 0.500000 0.500000 0.000000
O O8 0.717977 0.941901 0.827213
O O9 0.707318 0.141116 0.445440
O O10 0.954993 0.884319 0.383209
O O11 0.500000 0.500000 0.500000
#
# Coordination Sequence:
#
# PCOD9068456 Si02
#       5
#     2   2   2   2   2
#     4  11  26  50  80 115 165 213 263 331 404 477
#     4  12  27  50  85 115 165 212 267 334 406 479
#     4  11  27  49  81 119 162 213 267 336 398 482
#     4  12  30  49  81 122 159 214 273 333 400 487
#     4  12  25  50  82 116 157 219 264 326 410 476
#
# _framework density 28.558693999999999
#
# number of rings (size 3 to 8) (size 9 to 14) (size 15 to 20)
#    0.000    0.400    4.000    1.800    8.400    4.800 
#    0.000    0.000    0.000    0.000    0.000    0.000 
#    0.000    0.000    0.000    0.000    0.000    0.000 
#
# Total GULP energy -56183.077579 kJ/mol
# GULP energy per Si atom -5618.307758 kJ/mol
# Density = 2.849369 g / cm^3
# Si number density = 28.558694 Si / 1000 Ang^3
#
#
#
# Elastic Constant Matrix: (Units=GPa)
#
#
# Indices 1 2 3 4 5 6 
#
# 1 297.1788 104.3383 73.2892 14.1918 8.5524 10.8845
# 2 104.3383 177.3534 58.5203 10.4424 -4.2578 16.7279
# 3 73.2892 58.5203 161.0764 7.5659 -43.8080 1.6989
# 4 14.1918 10.4424 7.5659 40.8365 2.2010 -4.7118
# 5 8.5524 -4.2578 -43.8080 2.2010 71.9586 10.5788
# 6 10.8845 16.7279 1.6989 -4.7118 10.5788 87.3528
#
#
#
# Elastic Compliance Matrix: (Units=1/GPa)
#
#
# Indices 1 2 3 4 5 6 
#
# 1 0.004636 -0.002151 -0.001773 -0.000633 -0.001745 0.000046
# 2 -0.002151 0.007664 -0.001793 -0.001009 -0.000176 -0.001198
# 3 -0.001773 -0.001793 0.009312 -0.001010 0.005861 -0.000381
# 4 -0.000633 -0.001009 -0.001010 0.025457 -0.001652 0.001865
# 5 -0.001745 -0.000176 0.005861 -0.001652 0.018026 -0.002135
# 6 0.000046 -0.001198 -0.000381 0.001865 -0.002135 0.012038
#
#
# Mechanical properties :
#
#
# Convention : Reuss Voigt Hill
#
# Bulk Modulus (GPa) = 98.26690 123.10045 110.68368
# Shear Modulus (GPa) = 54.37005 66.66031 60.51518
#
# Velocity S-wave (km/s) = 4.36799 4.83655 4.60823
# Velocity P-wave (km/s) = 7.74097 8.62482 8.19482
#
# Compressibility (1/GPa) = 0.01017637
#
# Stress axis : x y z
#
# Youngs Moduli (GPa) = 215.68096 130.47945 107.38844
#
# Poissons Ratio (x) = 0.28072 0.19044
# Poissons Ratio (y) = 0.46403 0.19257
# Poissons Ratio (z) = 0.38248 0.23398
#
# Static dielectric constant tensor:
#      x y z
#    x 2.184370 -0.033730 0.030550 
#    y -0.033730 2.179910 0.020170 
#    z 0.030550 0.020170 2.360470 
# 
# From -- ./inp_files/47764.got.cif
#   From: 2010.05.17/outbox.cif.g08.bks.cpg/sg2_24_cif.got.tgz:47764.got - 2010.06.03 11:33:40.
