data_PCOD9068534
_publ_section_title
;
Structure prediction by ZEFSAII (Michael W. Deem and Ramdas Pophale) SiO2 
 PCOD9068534
Probable space group: P -1
;
_chemical_formula_sum "Si O2"
_cell_formula_units_Z 14
_cell_length_a 9.039569
_cell_length_b 19.180302
_cell_length_c 5.163831
_cell_angle_alpha 112.945151
_cell_angle_beta 101.930528
_cell_angle_gamma 119.979990
_cell_volume 617.078939
_symmetry_space_group_name_H-M "P -1"
_symmetry_group_IT_number 2
_symmetry_cell_setting 'triclinic'
loop_
_space_group_symop_operation_xyz
x,y,z
-x,-y,-z
loop_
_atom_site_type_symbol
_atom_site_label
_atom_site_fract_x
_atom_site_fract_y
_atom_site_fract_z
Si Si1 0.138535 0.052422 0.373498
Si Si2 0.119683 0.418289 0.137331
Si Si3 0.490747 0.051324 0.324691
Si Si4 0.716541 0.268637 0.567476
Si Si5 0.291730 0.397817 0.686719
Si Si6 0.782657 0.403300 0.379451
Si Si7 0.409345 0.273650 0.686920
O O1 0.308258 0.045877 0.348449
O O2 0.244492 0.168232 0.606631
O O3 0.000000 0.000000 0.500000
O O4 0.000000 0.000000 0.000000
O O5 0.212678 0.408536 0.408428
O O6 0.228479 0.534122 0.309157
O O7 0.151580 0.375542 0.840174
O O8 0.882898 0.351169 0.946073
O O9 0.663999 0.167063 0.482268
O O10 0.500000 0.000000 0.500000
O O11 0.500000 0.000000 0.000000
O O12 0.785881 0.321544 0.391239
O O13 0.514699 0.250489 0.494755
O O14 0.317487 0.316325 0.577065
O O15 0.500000 0.500000 0.000000
O O16 0.000000 0.500000 0.500000
O O17 0.588484 0.353149 0.062287
#
# Coordination Sequence:
#
# PCOD9068534 Si02
#       7
#     2   2   2   2   2   2   2
#     4  11  27  50  75 108 146 193 252 310 377 452
#     4  12  26  44  69 102 144 188 233 293 353 438
#     4  11  27  49  80 108 147 192 252 324 381 436
#     4  11  27  45  75 105 145 192 253 300 374 446
#     4  12  26  44  64 103 146 186 233 291 362 425
#     4  12  24  44  74 108 148 192 252 296 367 444
#     4  11  27  44  77 101 145 198 244 302 373 445
#
# _framework density 22.687532999999998
#
# number of rings (size 3 to 8) (size 9 to 14) (size 15 to 20)
#    0.000    0.571    2.857    3.429   10.000    3.429 
#    0.000    0.000    0.000    0.000    0.000    0.000 
#    0.000    0.000    0.000    0.000    0.000    0.000 
#
# Total GULP energy -78107.341674 kJ/mol
# GULP energy per Si atom -5579.095834 kJ/mol
# Density = 2.263589 g / cm^3
# Si number density = 22.687533 Si / 1000 Ang^3
#
#
#
# Elastic Constant Matrix: (Units=GPa)
#
#
# Indices 1 2 3 4 5 6 
#
# 1 62.1500 43.1985 5.2889 -2.6552 7.3945 -3.5846
# 2 43.1985 185.5489 53.6931 -4.4240 7.5326 -0.3535
# 3 5.2889 53.6931 80.9575 -7.8953 5.6047 0.4557
# 4 -2.6552 -4.4240 -7.8953 53.5476 -2.3762 -2.3968
# 5 7.3945 7.5326 5.6047 -2.3762 38.8195 -6.5499
# 6 -3.5846 -0.3535 0.4557 -2.3968 -6.5499 49.4434
#
#
#
# Elastic Compliance Matrix: (Units=1/GPa)
#
#
# Indices 1 2 3 4 5 6 
#
# 1 0.019944 -0.005205 0.002426 0.000834 -0.002913 0.001041
# 2 -0.005205 0.008046 -0.005034 -0.000344 0.000089 -0.000278
# 3 0.002426 -0.005034 0.015840 0.001960 -0.001675 -0.000133
# 4 0.000834 -0.000344 0.001960 0.019069 0.000977 0.001094
# 5 -0.002913 0.000089 -0.001675 0.000977 0.027182 0.003453
# 6 0.001041 -0.000278 -0.000133 0.001094 0.003453 0.020810
#
#
# Mechanical properties :
#
#
# Convention : Reuss Voigt Hill
#
# Bulk Modulus (GPa) = 35.45626 59.22416 47.34021
# Shear Modulus (GPa) = 36.78673 43.46050 40.12361
#
# Velocity S-wave (km/s) = 4.03109 4.38152 4.20995
# Velocity P-wave (km/s) = 6.10969 7.19430 6.67406
#
# Compressibility (1/GPa) = 0.02820377
#
# Stress axis : x y z
#
# Youngs Moduli (GPa) = 50.14076 124.29008 63.13024
#
# Poissons Ratio (x) = 0.64696 -0.15318
# Poissons Ratio (y) = 0.26100 0.31781
# Poissons Ratio (z) = -0.12166 0.62570
#
# Static dielectric constant tensor:
#      x y z
#    x 2.177470 0.104820 -0.096860 
#    y 0.104820 1.935040 -0.061060 
#    z -0.096860 -0.061060 1.875260 
# 
# From -- ./inp_files/48687.got.cif
#   From: 2010.05.17/outbox.cif.g08.bks.cpg/sg2_25_cif.got.tgz:48687.got - 2010.06.03 11:33:40.
