data_PCOD9068242
_publ_section_title
;
Structure prediction by ZEFSAII (Michael W. Deem and Ramdas Pophale) SiO2 
 PCOD9068242
Probable space group: P -1
;
_chemical_formula_sum "Si O2"
_cell_formula_units_Z 14
_cell_length_a 10.498632
_cell_length_b 10.753547
_cell_length_c 5.067066
_cell_angle_alpha 100.314838
_cell_angle_beta 110.861624
_cell_angle_gamma 78.536747
_cell_volume 520.218719
_symmetry_space_group_name_H-M "P -1"
_symmetry_group_IT_number 2
_symmetry_cell_setting 'triclinic'
loop_
_space_group_symop_operation_xyz
x,y,z
-x,-y,-z
loop_
_atom_site_type_symbol
_atom_site_label
_atom_site_fract_x
_atom_site_fract_y
_atom_site_fract_z
Si Si1 0.321455 0.487455 0.094605
Si Si2 0.900553 0.907114 0.283096
Si Si3 0.283833 0.752947 0.213308
Si Si4 0.369102 0.991268 0.112402
Si Si5 0.500278 0.217123 0.236178
Si Si6 0.979802 0.765775 0.789577
Si Si7 0.852463 0.537987 0.555164
O O1 0.252659 0.452397 0.759383
O O2 0.381189 0.621197 0.139416
O O3 0.414800 0.357183 0.204042
O O4 0.214285 0.530001 0.276826
O O5 0.945011 0.787971 0.465135
O O6 0.740016 0.957761 0.179214
O O7 0.000000 0.000000 0.500000
O O8 0.932751 0.881873 0.991894
O O9 0.346022 0.761882 0.556587
O O10 0.290225 0.899953 0.196873
O O11 0.139561 0.731038 0.965134
O O12 0.425369 0.116396 0.318789
O O13 0.481106 0.877357 0.035791
O O14 0.884195 0.664510 0.771742
O O15 0.000000 0.500000 0.500000
#
# Coordination Sequence:
#
# PCOD9068242 Si02
#       7
#     2   2   2   2   2   2   2
#     4  12  29  50  81 110 156 200 253 315 379 454
#     4  12  25  46  73 115 147 197 250 316 381 449
#     4  12  27  45  77 108 151 200 252 316 370 453
#     4  11  26  48  77 105 154 199 257 317 374 450
#     4  11  27  50  73 110 149 206 259 306 379 449
#     4  12  26  44  77 109 157 192 252 312 388 448
#     4  12  26  49  76 112 151 197 247 313 385 455
#
# _framework density 26.911759
#
# number of rings (size 3 to 8) (size 9 to 14) (size 15 to 20)
#    0.000    0.286    2.857    5.143    8.000    0.571 
#    0.000    0.000    0.000    0.000    0.000    0.000 
#    0.000    0.000    0.000    0.000    0.000    0.000 
#
# Total GULP energy -78045.196777 kJ/mol
# GULP energy per Si atom -5574.656913 kJ/mol
# Density = 2.685051 g / cm^3
# Si number density = 26.911759 Si / 1000 Ang^3
#
#
#
# Elastic Constant Matrix: (Units=GPa)
#
#
# Indices 1 2 3 4 5 6 
#
# 1 66.5806 27.0399 41.9356 -13.0398 11.7737 -3.4161
# 2 27.0399 168.7885 36.4466 -1.4601 8.5566 -5.5205
# 3 41.9356 36.4466 147.0096 -6.7792 17.8709 -2.2266
# 4 -13.0398 -1.4601 -6.7792 48.6666 7.2474 4.4894
# 5 11.7737 8.5566 17.8709 7.2474 40.7375 10.7344
# 6 -3.4161 -5.5205 -2.2266 4.4894 10.7344 41.1503
#
#
#
# Elastic Compliance Matrix: (Units=1/GPa)
#
#
# Indices 1 2 3 4 5 6 
#
# 1 0.020736 -0.001977 -0.004528 0.005442 -0.005071 0.001940
# 2 -0.001977 0.006505 -0.000998 -0.000477 -0.000492 0.000835
# 3 -0.004528 -0.000998 0.008665 0.000281 -0.002485 0.000577
# 4 0.005442 -0.000477 0.000281 0.022911 -0.005497 -0.000663
# 5 -0.005071 -0.000492 -0.002485 -0.005497 0.030271 -0.007918
# 6 0.001940 0.000835 0.000577 -0.000663 -0.007918 0.026743
#
#
# Mechanical properties :
#
#
# Convention : Reuss Voigt Hill
#
# Bulk Modulus (GPa) = 47.84712 65.91368 56.88040
# Shear Modulus (GPa) = 36.28324 44.57466 40.42895
#
# Velocity S-wave (km/s) = 3.67581 4.07421 3.88013
# Velocity P-wave (km/s) = 5.98609 6.83213 6.42306
#
# Compressibility (1/GPa) = 0.02089990
#
# Stress axis : x y z
#
# Youngs Moduli (GPa) = 48.22432 153.72942 115.40298
#
# Poissons Ratio (x) = 0.30385 0.52259
# Poissons Ratio (y) = 0.09532 0.11522
# Poissons Ratio (z) = 0.21838 0.15348
#
# Static dielectric constant tensor:
#      x y z
#    x 1.088720 -0.528380 0.188220 
#    y -0.528380 2.071760 0.109920 
#    z 0.188220 0.109920 1.994850 
# 
# From -- ./inp_files/71967.got.cif
#   From: 2010.05.17/outbox.cif.g08.bks.cpg/sg2_36_cif.got.tgz:71967.got - 2010.06.03 11:33:40.
