data_PCOD9068219
_publ_section_title
;
Structure prediction by ZEFSAII (Michael W. Deem and Ramdas Pophale) SiO2 
 PCOD9068219
Probable space group: P -1
;
_chemical_formula_sum "Si O2"
_cell_formula_units_Z 10
_cell_length_a 12.243373
_cell_length_b 11.462453
_cell_length_c 12.079668
_cell_angle_alpha 155.500317
_cell_angle_beta 39.393777
_cell_angle_gamma 143.113552
_cell_volume 415.012599
_symmetry_space_group_name_H-M "P -1"
_symmetry_group_IT_number 2
_symmetry_cell_setting 'triclinic'
loop_
_space_group_symop_operation_xyz
x,y,z
-x,-y,-z
loop_
_atom_site_type_symbol
_atom_site_label
_atom_site_fract_x
_atom_site_fract_y
_atom_site_fract_z
Si Si1 0.070162 0.238424 0.249536
Si Si2 0.687277 0.270939 0.170024
Si Si3 0.056921 0.106273 0.391883
Si Si4 0.480651 0.666233 0.269678
Si Si5 0.352784 0.264887 0.564320
O O1 0.286428 0.425923 0.256714
O O2 0.000000 0.500000 0.500000
O O3 0.001666 0.092341 0.294444
O O4 0.000000 0.000000 0.000000
O O5 0.509867 0.158904 0.294438
O O6 0.626309 0.423502 0.244790
O O7 0.843131 0.548726 0.350932
O O8 0.790296 0.050860 0.860772
O O9 0.861721 0.946620 0.468774
O O10 0.610203 0.700106 0.303600
O O11 0.500000 0.000000 0.500000
O O12 0.500000 0.500000 0.000000
#
# Coordination Sequence:
#
# PCOD9068219 Si02
#       5
#     2   2   2   2   2
#     4  12  25  46  69 104 145 189 240 300 360 434
#     4  11  27  46  74 110 146 191 243 298 361 444
#     4  12  25  47  73 107 148 189 244 297 367 435
#     4  12  27  46  72 106 143 191 243 299 365 434
#     4  11  26  48  75 107 149 191 242 302 365 430
#
# _framework density 24.095652999999999
#
# number of rings (size 3 to 8) (size 9 to 14) (size 15 to 20)
#    0.000    0.400    2.000    6.000    2.800    8.000 
#    0.000    0.000    0.000    0.000    0.000    0.000 
#    0.000    0.000    0.000    0.000    0.000    0.000 
#
# Total GULP energy -55981.598658 kJ/mol
# GULP energy per Si atom -5598.159866 kJ/mol
# Density = 2.404081 g / cm^3
# Si number density = 24.095653 Si / 1000 Ang^3
#
#
#
# Elastic Constant Matrix: (Units=GPa)
#
#
# Indices 1 2 3 4 5 6 
#
# 1 147.0456 33.3546 32.0623 -3.7387 22.5519 -4.3601
# 2 33.3546 171.1316 39.5781 -23.1180 7.4056 32.8237
# 3 32.0623 39.5781 138.2449 8.0726 15.9805 4.1557
# 4 -3.7387 -23.1180 8.0726 33.8716 9.1720 4.5615
# 5 22.5519 7.4056 15.9805 9.1720 42.0934 2.0414
# 6 -4.3601 32.8237 4.1557 4.5615 2.0414 65.6568
#
#
#
# Elastic Compliance Matrix: (Units=1/GPa)
#
#
# Indices 1 2 3 4 5 6 
#
# 1 0.008001 -0.001183 -0.001169 0.001263 -0.003970 0.001232
# 2 -0.001183 0.008534 -0.002296 0.007233 -0.001346 -0.004660
# 3 -0.001169 -0.002296 0.008510 -0.003430 -0.001493 0.000816
# 4 0.001263 0.007233 -0.003430 0.038563 -0.008773 -0.005722
# 5 -0.003970 -0.001346 -0.001493 -0.008773 0.028588 0.000224
# 6 0.001232 -0.004660 0.000816 -0.005722 0.000224 0.017981
#
#
# Mechanical properties :
#
#
# Convention : Reuss Voigt Hill
#
# Bulk Modulus (GPa) = 63.48952 74.04579 68.76766
# Shear Modulus (GPa) = 40.08865 51.75284 45.92075
#
# Velocity S-wave (km/s) = 4.08331 4.63947 4.37025
# Velocity P-wave (km/s) = 6.97405 7.71338 7.35301
#
# Compressibility (1/GPa) = 0.01575063
#
# Stress axis : x y z
#
# Youngs Moduli (GPa) = 124.97854 117.17456 117.50677
#
# Poissons Ratio (x) = 0.13863 0.13735
# Poissons Ratio (y) = 0.14787 0.26974
# Poissons Ratio (z) = 0.14609 0.26898
#
# Static dielectric constant tensor:
#      x y z
#    x 1.993460 -0.167350 0.033330 
#    y -0.167350 2.216930 -0.103130 
#    z 0.033330 -0.103130 1.888820 
# 
# From -- ./inp_files/25986.got.cif
#   From: 2010.05.17/outbox.cif.g08.bks.cpg/sg2_13_cif.got.tgz:25986.got - 2010.06.03 11:33:40.
