data_PCOD9068803
_publ_section_title
;
Structure prediction by ZEFSAII (Michael W. Deem and Ramdas Pophale) SiO2 
 PCOD9068803
Probable space group: P -1
;
_chemical_formula_sum "Si O2"
_cell_formula_units_Z 16
_cell_length_a 9.398227
_cell_length_b 8.376346
_cell_length_c 15.114972
_cell_angle_alpha 101.679023
_cell_angle_beta 69.204505
_cell_angle_gamma 51.425447
_cell_volume 708.516899
_symmetry_space_group_name_H-M "P -1"
_symmetry_group_IT_number 2
_symmetry_cell_setting 'triclinic'
loop_
_space_group_symop_operation_xyz
x,y,z
-x,-y,-z
loop_
_atom_site_type_symbol
_atom_site_label
_atom_site_fract_x
_atom_site_fract_y
_atom_site_fract_z
Si Si1 0.650419 0.493258 0.367125
Si Si2 0.490186 0.556767 0.109050
Si Si3 0.771596 0.850946 0.215446
Si Si4 0.238739 0.202388 0.426129
Si Si5 0.836188 0.448997 0.141444
Si Si6 0.737864 0.193921 0.164300
Si Si7 0.790416 0.957630 0.416905
Si Si8 0.940330 0.963719 0.651554
O O1 0.717994 0.558221 0.278388
O O2 0.608478 0.365296 0.301956
O O3 0.439561 0.743776 0.493844
O O4 0.849580 0.292713 0.371110
O O5 0.661646 0.556783 0.110467
O O6 0.560692 0.355241 0.139643
O O7 0.235135 0.831689 0.212630
O O8 0.500000 0.500000 0.000000
O O9 0.913373 0.571386 0.128895
O O10 0.486134 0.059758 0.313274
O O11 0.819325 0.948714 0.141784
O O12 0.848469 0.854493 0.294179
O O13 0.000000 0.500000 0.500000
O O14 0.252523 0.159494 0.523100
O O15 0.187576 0.065064 0.382411
O O16 0.930307 0.184108 0.104376
O O17 0.984760 0.930560 0.401383
#
# Coordination Sequence:
#
# PCOD9068803 Si02
#       8
#     2   2   2   2   2   2   2   2
#     4   9  19  38  54  84 121 162 193 233 287 359
#     4   9  20  43  65  83 116 154 197 261 318 348
#     4  12  20  39  58  82 124 167 198 233 296 356
#     4  12  26  32  55  92 127 160 201 243 288 355
#     4   8  19  38  58  84 118 154 195 248 296 353
#     4   8  20  37  59  84 114 160 195 240 304 356
#     4  12  23  37  57  83 127 171 196 230 297 361
#     4  12  22  38  59  91 116 156 211 250 295 352
#
# _framework density 22.582384000000001
#
# number of rings (size 3 to 8) (size 9 to 14) (size 15 to 20)
#    1.500    0.000    3.750    2.625    5.250    0.000 
#    0.000    3.125    0.000    0.750    0.000    0.000 
#    0.000    0.000    0.000    0.000    0.000    0.000 
#
# Total GULP energy -89086.922389 kJ/mol
# GULP energy per Si atom -5567.932649 kJ/mol
# Density = 2.253099 g / cm^3
# Si number density = 22.582384 Si / 1000 Ang^3
#
#
#
# Elastic Constant Matrix: (Units=GPa)
#
#
# Indices 1 2 3 4 5 6 
#
# 1 86.7327 24.5813 15.7264 -9.2308 9.1598 21.3344
# 2 24.5813 89.4741 7.5072 -9.6917 1.8146 23.4168
# 3 15.7264 7.5072 57.5018 -11.8451 4.7274 7.2165
# 4 -9.2308 -9.6917 -11.8451 38.0728 -9.5128 8.0062
# 5 9.1598 1.8146 4.7274 -9.5128 27.0404 0.8718
# 6 21.3344 23.4168 7.2165 8.0062 0.8718 41.0864
#
#
#
# Elastic Compliance Matrix: (Units=1/GPa)
#
#
# Indices 1 2 3 4 5 6 
#
# 1 0.014742 -0.001666 -0.002033 0.003172 -0.003188 -0.006899
# 2 -0.001666 0.014421 0.000693 0.005741 0.001773 -0.008632
# 3 -0.002033 0.000693 0.019759 0.006601 -0.000358 -0.004088
# 4 0.003172 0.005741 0.006601 0.035964 0.010467 -0.013308
# 5 -0.003188 0.001773 -0.000358 0.010467 0.041759 -0.002218
# 6 -0.006899 -0.008632 -0.004088 -0.013308 -0.002218 0.036199
#
#
# Mechanical properties :
#
#
# Convention : Reuss Voigt Hill
#
# Bulk Modulus (GPa) = 23.30471 36.59315 29.94893
# Shear Modulus (GPa) = 27.29883 33.63285 30.46584
#
# Velocity S-wave (km/s) = 3.48063 3.86338 3.67699
# Velocity P-wave (km/s) = 5.14736 6.01169 5.59624
#
# Compressibility (1/GPa) = 0.04290978
#
# Stress axis : x y z
#
# Youngs Moduli (GPa) = 67.83545 69.34342 50.61075
#
# Poissons Ratio (x) = 0.11550 0.10289
# Poissons Ratio (y) = 0.11299 -0.03507
# Poissons Ratio (z) = 0.13791 -0.04806
#
# Static dielectric constant tensor:
#      x y z
#    x 1.899040 0.060410 -0.021630 
#    y 0.060410 1.860040 0.015590 
#    z -0.021630 0.015590 1.875070 
# 
# From -- ./inp_files/495432.got.cif
#   From: 2010.05.17/outbox.cif.g08.bks.cpg/sg2_248_cif.got.tgz:495432.got - 2010.06.03 11:33:40.
