data_PCOD9068637
_publ_section_title
;
Structure prediction by ZEFSAII (Michael W. Deem and Ramdas Pophale) SiO2 
 PCOD9068637
Probable space group: P -1
;
_chemical_formula_sum "Si O2"
_cell_formula_units_Z 13
_cell_length_a 10.773679
_cell_length_b 6.846844
_cell_length_c 9.206006
_cell_angle_alpha 88.432473
_cell_angle_beta 112.280758
_cell_angle_gamma 60.440490
_cell_volume 526.849126
_symmetry_space_group_name_H-M "P -1"
_symmetry_group_IT_number 2
_symmetry_cell_setting 'triclinic'
loop_
_space_group_symop_operation_xyz
x,y,z
-x,-y,-z
loop_
_atom_site_type_symbol
_atom_site_label
_atom_site_fract_x
_atom_site_fract_y
_atom_site_fract_z
Si Si1 0.841843 0.006925 0.885836
Si Si2 0.481986 0.927671 0.835091
Si Si3 0.000000 0.000000 0.500000
Si Si4 0.147108 0.136023 0.788008
Si Si5 0.925847 0.673541 0.658662
Si Si6 0.556119 0.528401 0.711058
Si Si7 0.610687 0.686154 0.434330
O O1 0.706180 0.266165 0.769085
O O2 0.875458 0.817020 0.783743
O O3 0.795092 0.951758 0.021239
O O4 0.000000 0.000000 0.000000
O O5 0.299475 0.997196 0.753523
O O6 0.491690 0.081297 0.710447
O O7 0.583395 0.655630 0.851470
O O8 0.500000 0.000000 0.000000
O O9 0.022680 0.076531 0.673716
O O10 0.028896 0.195503 0.438131
O O11 0.073419 0.409788 0.749171
O O12 0.779145 0.653671 0.539586
O O13 0.539914 0.676694 0.558429
O O14 0.399777 0.512394 0.652760
#
# Coordination Sequence:
#
# PCOD9068637 Si02
#       7
#     2   2   1   2   2   2   2
#     4  12  27  50  78 109 150 198 255 316 375 445
#     4  12  29  47  76 111 156 201 247 310 382 452
#     4  12  26  48  74 118 150 196 250 308 382 442
#     4  12  28  48  76 112 155 196 251 311 379 452
#     4  12  28  47  82 110 149 203 252 314 378 443
#     4  11  29  49  77 111 152 201 253 311 373 452
#     4  11  27  49  79 109 152 202 254 311 370 456
#
# _framework density 24.674993000000001
#
# number of rings (size 3 to 8) (size 9 to 14) (size 15 to 20)
#    0.000    0.308    3.077    3.231   12.923    2.462 
#    0.000    0.000    0.000    0.000    0.000    0.000 
#    0.000    0.000    0.000    0.000    0.000    0.000 
#
# Total GULP energy -72576.577884 kJ/mol
# GULP energy per Si atom -5582.813683 kJ/mol
# Density = 2.461883 g / cm^3
# Si number density = 24.674993 Si / 1000 Ang^3
#
#
#
# Elastic Constant Matrix: (Units=GPa)
#
#
# Indices 1 2 3 4 5 6 
#
# 1 86.7156 38.6149 13.6561 -12.7845 -3.0806 30.0803
# 2 38.6149 152.2722 52.8885 22.7189 0.9400 11.8205
# 3 13.6561 52.8885 128.1182 6.9395 -1.6667 7.2319
# 4 -12.7845 22.7189 6.9395 43.9532 1.5317 -7.0114
# 5 -3.0806 0.9400 -1.6667 1.5317 31.4487 0.0103
# 6 30.0803 11.8205 7.2319 -7.0114 0.0103 40.3569
#
#
#
# Elastic Compliance Matrix: (Units=1/GPa)
#
#
# Indices 1 2 3 4 5 6 
#
# 1 0.018529 -0.004838 0.000367 0.005950 0.001693 -0.011427
# 2 -0.004838 0.009772 -0.003225 -0.005878 -0.000651 0.000300
# 3 0.000367 -0.003225 0.009150 0.000158 0.000610 -0.000941
# 4 0.005950 -0.005878 0.000158 0.027851 -0.000590 0.002097
# 5 0.001693 -0.000651 0.000610 -0.000590 0.032045 -0.001291
# 6 -0.011427 0.000300 -0.000941 0.002097 -0.001291 0.033741
#
#
# Mechanical properties :
#
#
# Convention : Reuss Voigt Hill
#
# Bulk Modulus (GPa) = 45.33265 64.15832 54.74549
# Shear Modulus (GPa) = 32.50266 40.61486 36.55876
#
# Velocity S-wave (km/s) = 3.63330 4.06148 3.85335
# Velocity P-wave (km/s) = 6.00108 6.93196 6.48325
#
# Compressibility (1/GPa) = 0.02205915
#
# Stress axis : x y z
#
# Youngs Moduli (GPa) = 53.96804 102.33399 109.28753
#
# Poissons Ratio (x) = 0.49504 -0.04007
# Poissons Ratio (y) = 0.26107 0.35249
# Poissons Ratio (z) = -0.01979 0.33006
#
# Static dielectric constant tensor:
#      x y z
#    x 2.006170 -0.007280 0.072570 
#    y -0.007280 1.895160 0.035580 
#    z 0.072570 0.035580 1.980130 
# 
# From -- ./inp_files/48607.got.cif
#   From: 2010.05.17/outbox.cif.g08.bks.cpg/sg2_25_cif.got.tgz:48607.got - 2010.06.03 11:33:40.
