data_PCOD9068115
_publ_section_title
;
Structure prediction by ZEFSAII (Michael W. Deem and Ramdas Pophale) SiO2 
 PCOD9068115
Probable space group: P -1
;
_chemical_formula_sum "Si O2"
_cell_formula_units_Z 10
_cell_length_a 15.834097
_cell_length_b 5.015012
_cell_length_c 8.654391
_cell_angle_alpha 131.158762
_cell_angle_beta 47.886879
_cell_angle_gamma 122.962678
_cell_volume 377.274195
_symmetry_space_group_name_H-M "P -1"
_symmetry_group_IT_number 2
_symmetry_cell_setting 'triclinic'
loop_
_space_group_symop_operation_xyz
x,y,z
-x,-y,-z
loop_
_atom_site_type_symbol
_atom_site_label
_atom_site_fract_x
_atom_site_fract_y
_atom_site_fract_z
Si Si1 0.485391 0.345602 0.286018
Si Si2 0.832052 0.164515 0.129453
Si Si3 0.256054 0.856785 0.438135
Si Si4 0.960183 0.972637 0.360855
Si Si5 0.368512 0.175485 0.965053
O O1 0.500000 0.500000 0.500000
O O2 0.350471 0.176737 0.375213
O O3 0.541734 0.643618 0.208203
O O4 0.560921 0.028177 0.081901
O O5 0.772713 0.027326 0.310402
O O6 0.892442 0.570364 0.250167
O O7 0.733767 0.105223 0.096729
O O8 0.933130 0.968847 0.866949
O O9 0.136097 0.790087 0.466745
O O10 0.000000 0.000000 0.500000
O O11 0.311099 0.497513 0.226976
#
# Coordination Sequence:
#
# PCOD9068115 Si02
#       5
#     2   2   2   2   2
#     4  12  26  50  79 115 156 201 252 312 388 462
#     4  11  26  47  77 108 152 199 259 308 390 445
#     4  12  27  46  78 108 157 199 254 317 381 455
#     4  11  27  49  77 110 150 202 261 317 380 449
#     4  12  28  47  81 116 155 199 254 315 387 459
#
# _framework density 26.505918999999999
#
# number of rings (size 3 to 8) (size 9 to 14) (size 15 to 20)
#    0.000    0.400    2.000    4.800    8.400    4.800 
#    0.000    0.000    0.000    0.000    0.000    0.000 
#    0.000    0.000    0.000    0.000    0.000    0.000 
#
# Total GULP energy -56181.108726 kJ/mol
# GULP energy per Si atom -5618.110873 kJ/mol
# Density = 2.644559 g / cm^3
# Si number density = 26.505919 Si / 1000 Ang^3
#
#
#
# Elastic Constant Matrix: (Units=GPa)
#
#
# Indices 1 2 3 4 5 6 
#
# 1 153.7340 28.9374 73.4944 -7.2128 -14.8174 4.4970
# 2 28.9374 105.5717 53.5363 -3.7564 4.1850 10.8190
# 3 73.4944 53.5363 205.0688 -21.1572 3.5792 -2.5644
# 4 -7.2128 -3.7564 -21.1572 44.8100 -6.9226 6.5849
# 5 -14.8174 4.1850 3.5792 -6.9226 55.3400 -0.2042
# 6 4.4970 10.8190 -2.5644 6.5849 -0.2042 52.3027
#
#
#
# Elastic Compliance Matrix: (Units=1/GPa)
#
#
# Indices 1 2 3 4 5 6 
#
# 1 0.008264 -0.000889 -0.002735 0.000456 0.002511 -0.000708
# 2 -0.000889 0.011349 -0.002684 -0.000259 -0.000964 -0.002374
# 3 -0.002735 -0.002684 0.006820 0.002328 -0.000676 0.000829
# 4 0.000456 -0.000259 0.002328 0.024366 0.003028 -0.002927
# 5 0.002511 -0.000964 -0.000676 0.003028 0.019237 -0.000356
# 6 -0.000708 -0.002374 0.000829 -0.002927 -0.000356 0.020079
#
#
# Mechanical properties :
#
#
# Convention : Reuss Voigt Hill
#
# Bulk Modulus (GPa) = 72.37529 86.25673 79.31601
# Shear Modulus (GPa) = 46.58282 51.05098 48.81690
#
# Velocity S-wave (km/s) = 4.19674 4.39341 4.29620
# Velocity P-wave (km/s) = 7.13079 7.63866 7.38909
#
# Compressibility (1/GPa) = 0.01381687
#
# Stress axis : x y z
#
# Youngs Moduli (GPa) = 121.00929 88.11221 146.63256
#
# Poissons Ratio (x) = 0.07831 0.40108
# Poissons Ratio (y) = 0.10755 0.39355
# Poissons Ratio (z) = 0.33099 0.23649
#
# Static dielectric constant tensor:
#      x y z
#    x 2.061380 0.019310 0.022740 
#    y 0.019310 2.086330 0.058060 
#    z 0.022740 0.058060 2.082630 
# 
# From -- ./inp_files/458728.got.cif
#   From: 2010.05.17/outbox.cif.g08.bks.cpg/sg2_230_cif.got.tgz:458728.got - 2010.06.03 11:33:40.
