data_PCOD9068346
_publ_section_title
;
Structure prediction by ZEFSAII (Michael W. Deem and Ramdas Pophale) SiO2 
 PCOD9068346
Probable space group: P -1
;
_chemical_formula_sum "Si O2"
_cell_formula_units_Z 16
_cell_length_a 9.633684
_cell_length_b 5.078129
_cell_length_c 20.044911
_cell_angle_alpha 53.237235
_cell_angle_beta 54.821053
_cell_angle_gamma 78.546708
_cell_volume 625.890064
_symmetry_space_group_name_H-M "P -1"
_symmetry_group_IT_number 2
_symmetry_cell_setting 'triclinic'
loop_
_space_group_symop_operation_xyz
x,y,z
-x,-y,-z
loop_
_atom_site_type_symbol
_atom_site_label
_atom_site_fract_x
_atom_site_fract_y
_atom_site_fract_z
Si Si1 0.376584 0.630002 0.901156
Si Si2 0.230969 0.631969 0.352869
Si Si3 0.873145 0.259208 0.495186
Si Si4 0.108515 0.386284 0.906419
Si Si5 0.381495 0.652972 0.559463
Si Si6 0.575977 0.635364 0.274002
Si Si7 0.301627 0.668271 0.169362
Si Si8 0.805036 0.647835 0.889193
O O1 0.188753 0.514317 0.936184
O O2 0.502596 0.382870 0.886776
O O3 0.457797 0.998166 0.793197
O O4 0.339249 0.640381 0.988817
O O5 0.249906 0.801157 0.396876
O O6 0.379453 0.410595 0.359537
O O7 0.260141 0.640406 0.263221
O O8 0.020782 0.599957 0.413289
O O9 0.781883 0.292652 0.445662
O O10 0.000000 0.000000 0.500000
O O11 0.283813 0.422558 0.809019
O O12 0.990571 0.604150 0.869602
O O13 0.000000 0.000000 0.000000
O O14 0.500000 0.500000 0.500000
O O15 0.342327 0.402993 0.671271
O O16 0.500000 0.000000 0.500000
O O17 0.208424 0.401584 0.179205
O O18 0.246061 0.019071 0.118142
#
# Coordination Sequence:
#
# PCOD9068346 Si02
#       8
#     2   2   2   2   2   2   2   2
#     4  12  27  49  80 111 166 222 279 338 423 495
#     4  11  26  49  75 118 154 213 268 337 415 497
#     4  11  27  49  85 112 166 206 264 340 423 494
#     4  12  27  49  76 115 163 223 281 342 418 493
#     4  12  29  53  83 125 164 208 272 344 417 500
#     4  12  27  49  83 116 162 222 279 339 420 503
#     4  12  28  48  80 115 157 210 274 338 409 488
#     4  12  28  48  75 116 162 205 275 344 401 480
#
# _framework density 25.563593999999998
#
# number of rings (size 3 to 8) (size 9 to 14) (size 15 to 20)
#    0.000    0.250    3.750    3.375   10.500    0.000 
#    0.000    0.000    0.000    0.000    0.000    0.000 
#    0.000    0.000    0.000    0.000    0.000    0.000 
#
# Total GULP energy -89281.871214 kJ/mol
# GULP energy per Si atom -5580.116951 kJ/mol
# Density = 2.550541 g / cm^3
# Si number density = 25.563594 Si / 1000 Ang^3
#
#
#
# Elastic Constant Matrix: (Units=GPa)
#
#
# Indices 1 2 3 4 5 6 
#
# 1 194.5286 42.3066 20.0266 16.0649 12.5554 -19.0157
# 2 42.3066 123.6785 21.1039 25.0838 5.6553 -12.3979
# 3 20.0266 21.1039 90.5105 46.3175 9.7758 -10.6688
# 4 16.0649 25.0838 46.3175 42.7223 0.9049 2.2159
# 5 12.5554 5.6553 9.7758 0.9049 36.2879 9.3315
# 6 -19.0157 -12.3979 -10.6688 2.2159 9.3315 54.0155
#
#
#
# Elastic Compliance Matrix: (Units=1/GPa)
#
#
# Indices 1 2 3 4 5 6 
#
# 1 0.005961 -0.001311 0.000814 -0.002428 -0.002664 0.002518
# 2 -0.001311 0.010317 0.003341 -0.009307 -0.002700 0.003415
# 3 0.000814 0.003341 0.031104 -0.036305 -0.010999 0.010586
# 4 -0.002428 -0.009307 -0.036305 0.069645 0.014318 -0.015493
# 5 -0.002664 -0.002700 -0.010999 0.014318 0.034133 -0.010214
# 6 0.002518 0.003415 0.010586 -0.015493 -0.010214 0.024675
#
#
# Mechanical properties :
#
#
# Convention : Reuss Voigt Hill
#
# Bulk Modulus (GPa) = 18.84282 63.95464 41.39873
# Shear Modulus (GPa) = 26.61907 48.29050 37.45478
#
# Velocity S-wave (km/s) = 3.23040 4.35102 3.83189
# Velocity P-wave (km/s) = 4.61529 7.09323 5.98393
#
# Compressibility (1/GPa) = 0.05307061
#
# Stress axis : x y z
#
# Youngs Moduli (GPa) = 167.76758 96.92540 32.15051
#
# Poissons Ratio (x) = 0.12708 -0.02617
# Poissons Ratio (y) = 0.21996 -0.10743
# Poissons Ratio (z) = -0.13658 -0.32388
#
# Static dielectric constant tensor:
#      x y z
#    x 2.113610 0.090270 -0.123210 
#    y 0.090270 2.061000 -0.158010 
#    z -0.123210 -0.158010 2.310310 
# 
# From -- ./inp_files/553237.got.cif
#   From: 2010.05.17/outbox.cif.g08.bks.cpg/sg2_277_cif.got.tgz:553237.got - 2010.06.03 11:33:40.
