data_PCOD9068601
_publ_section_title
;
Structure prediction by ZEFSAII (Michael W. Deem and Ramdas Pophale) SiO2 
 PCOD9068601
Probable space group: P -1
;
_chemical_formula_sum "Si O2"
_cell_formula_units_Z 14
_cell_length_a 9.297978
_cell_length_b 11.165514
_cell_length_c 17.070532
_cell_angle_alpha 30.622900
_cell_angle_beta 141.748644
_cell_angle_gamma 126.464770
_cell_volume 539.931235
_symmetry_space_group_name_H-M "P -1"
_symmetry_group_IT_number 2
_symmetry_cell_setting 'triclinic'
loop_
_space_group_symop_operation_xyz
x,y,z
-x,-y,-z
loop_
_atom_site_type_symbol
_atom_site_label
_atom_site_fract_x
_atom_site_fract_y
_atom_site_fract_z
Si Si1 0.035093 0.426583 0.160422
Si Si2 0.500964 0.277643 0.353100
Si Si3 0.636299 0.700064 0.476037
Si Si4 0.781351 0.018051 0.231182
Si Si5 0.786497 0.842603 0.913353
Si Si6 0.274627 0.392414 0.820321
Si Si7 0.040985 0.806737 0.302915
O O1 0.234394 0.433207 0.175715
O O2 0.190470 0.400029 0.321411
O O3 0.930461 0.194053 0.234226
O O4 0.822541 0.667814 0.951302
O O5 0.630531 0.369610 0.283914
O O6 0.684898 0.285555 0.499097
O O7 0.500000 0.000000 0.500000
O O8 0.500000 0.500000 0.500000
O O9 0.773702 0.795490 0.410336
O O10 0.453904 0.947626 0.290949
O O11 0.506662 0.176390 0.016887
O O12 0.891662 0.937196 0.239404
O O13 0.974654 0.999801 0.884260
O O14 0.803995 0.671607 0.092368
O O15 0.071916 0.393267 0.669754
#
# Coordination Sequence:
#
# PCOD9068601 Si02
#       7
#     2   2   2   2   2   2   2
#     4  12  27  47  80 110 163 200 257 315 393 458
#     4  12  27  48  76 115 158 204 261 317 390 464
#     4  11  28  48  77 118 158 201 261 321 389 462
#     4  11  27  48  77 113 153 209 260 314 395 458
#     4  11  28  49  80 113 154 203 257 318 391 454
#     4  11  28  47  75 113 153 205 262 322 386 460
#     4  12  25  48  78 109 157 198 264 319 382 457
#
# _framework density 25.929227999999998
#
# number of rings (size 3 to 8) (size 9 to 14) (size 15 to 20)
#    0.000    0.571    2.857    2.571   12.000    4.571 
#    0.000    0.000    0.000    0.000    0.000    0.000 
#    0.000    0.000    0.000    0.000    0.000    0.000 
#
# Total GULP energy -78499.627975 kJ/mol
# GULP energy per Si atom -5607.116284 kJ/mol
# Density = 2.587021 g / cm^3
# Si number density = 25.929228 Si / 1000 Ang^3
#
#
#
# Elastic Constant Matrix: (Units=GPa)
#
#
# Indices 1 2 3 4 5 6 
#
# 1 220.7617 62.1360 48.7225 -15.9476 4.9006 5.7697
# 2 62.1360 177.5542 42.6067 -4.7742 7.9819 21.9980
# 3 48.7225 42.6067 84.6262 -13.9266 -0.7161 -3.2551
# 4 -15.9476 -4.7742 -13.9266 43.5277 2.6734 -5.0981
# 5 4.9006 7.9819 -0.7161 2.6734 59.3027 -22.2600
# 6 5.7697 21.9980 -3.2551 -5.0981 -22.2600 39.8384
#
#
#
# Elastic Compliance Matrix: (Units=1/GPa)
#
#
# Indices 1 2 3 4 5 6 
#
# 1 0.005510 -0.001243 -0.002389 0.001097 -0.000543 -0.000470
# 2 -0.001243 0.007902 -0.003767 -0.001354 -0.003412 -0.006571
# 3 -0.002389 -0.003767 0.016060 0.004365 0.002929 0.005934
# 4 0.001097 -0.001354 0.004365 0.025114 0.000726 0.004565
# 5 -0.000543 -0.003412 0.002929 0.000726 0.023069 0.015185
# 6 -0.000470 -0.006571 0.005934 0.004565 0.015185 0.038351
#
#
# Mechanical properties :
#
#
# Convention : Reuss Voigt Hill
#
# Bulk Modulus (GPa) = 68.14683 87.76362 77.95523
# Shear Modulus (GPa) = 36.84685 50.49888 43.67286
#
# Velocity S-wave (km/s) = 3.77378 4.41791 4.10849
# Velocity P-wave (km/s) = 6.73257 7.74240 7.25507
#
# Compressibility (1/GPa) = 0.01467420
#
# Stress axis : x y z
#
# Youngs Moduli (GPa) = 181.47431 126.54752 62.26601
#
# Poissons Ratio (x) = 0.15731 0.14875
# Poissons Ratio (y) = 0.22558 0.23457
# Poissons Ratio (z) = 0.43353 0.47674
#
# Static dielectric constant tensor:
#      x y z
#    x 2.015780 0.009780 -0.016380 
#    y 0.009780 1.981430 0.041900 
#    z -0.016380 0.041900 2.130260 
# 
# From -- ./inp_files/559616.got.cif
#   From: 2010.05.17/outbox.cif.g08.bks.cpg/sg2_280_cif.got.tgz:559616.got - 2010.06.03 11:33:40.
