data_PCOD9068631
_publ_section_title
;
Structure prediction by ZEFSAII (Michael W. Deem and Ramdas Pophale) SiO2 
 PCOD9068631
Probable space group: P -1
;
_chemical_formula_sum "Si O2"
_cell_formula_units_Z 12
_cell_length_a 5.181762
_cell_length_b 12.902924
_cell_length_c 9.288345
_cell_angle_alpha 130.163392
_cell_angle_beta 75.086951
_cell_angle_gamma 85.326828
_cell_volume 432.087260
_symmetry_space_group_name_H-M "P -1"
_symmetry_group_IT_number 2
_symmetry_cell_setting 'triclinic'
loop_
_space_group_symop_operation_xyz
x,y,z
-x,-y,-z
loop_
_atom_site_type_symbol
_atom_site_label
_atom_site_fract_x
_atom_site_fract_y
_atom_site_fract_z
Si Si1 0.551216 0.408175 0.764795
Si Si2 0.369367 0.405886 0.334957
Si Si3 0.085335 0.221173 0.345982
Si Si4 0.080382 0.833271 0.988949
Si Si5 0.240834 0.015594 0.350375
Si Si6 0.759074 0.779424 0.223993
O O1 0.594159 0.530221 0.765075
O O2 0.309931 0.334289 0.763507
O O3 0.812456 0.274501 0.540661
O O4 0.500000 0.500000 0.000000
O O5 0.500000 0.500000 0.500000
O O6 0.118252 0.371024 0.421744
O O7 0.589573 0.243340 0.150786
O O8 0.336130 0.117362 0.315537
O O9 0.052863 0.149647 0.134094
O O10 0.971415 0.727842 0.012734
O O11 0.049711 0.966312 0.217897
O O12 0.128992 0.121235 0.596263
O O13 0.480010 0.881913 0.270745
#
# Coordination Sequence:
#
# PCOD9068631 Si02
#       6
#     2   2   2   2   2   2
#     4  12  27  48  76 108 150 197 247 305 372 437
#     4  12  27  50  74 109 150 198 250 303 370 444
#     4  12  28  48  77 112 150 195 249 311 367 448
#     4  12  26  48  78 109 152 199 242 310 373 441
#     4  11  27  49  77 110 152 194 251 306 377 438
#     4  11  28  49  76 114 148 195 250 310 369 445
#
# _framework density 27.772169000000002
#
# number of rings (size 3 to 8) (size 9 to 14) (size 15 to 20)
#    0.000    0.333    1.667    5.500   11.667    3.333 
#    0.000    0.000    0.000    0.000    0.000    0.000 
#    0.000    0.000    0.000    0.000    0.000    0.000 
#
# Total GULP energy -66898.349980 kJ/mol
# GULP energy per Si atom -5574.862498 kJ/mol
# Density = 2.770896 g / cm^3
# Si number density = 27.772169 Si / 1000 Ang^3
#
#
#
# Elastic Constant Matrix: (Units=GPa)
#
#
# Indices 1 2 3 4 5 6 
#
# 1 58.8036 14.1478 53.8235 -22.5906 23.5124 7.4177
# 2 14.1478 140.8981 41.6320 -48.2390 5.9358 0.9651
# 3 53.8235 41.6320 198.3484 -39.5781 31.3097 19.8205
# 4 -22.5906 -48.2390 -39.5781 68.7256 9.7063 1.1417
# 5 23.5124 5.9358 31.3097 9.7063 59.8090 -6.5951
# 6 7.4177 0.9651 19.8205 1.1417 -6.5951 41.4983
#
#
#
# Elastic Compliance Matrix: (Units=1/GPa)
#
#
# Indices 1 2 3 4 5 6 
#
# 1 0.030015 0.002567 -0.003864 0.011308 -0.012515 -0.005879
# 2 0.002567 0.009845 -0.000599 0.007861 -0.003070 -0.001106
# 3 -0.003864 -0.000599 0.007793 0.003345 -0.003447 -0.003657
# 4 0.011308 0.007861 0.003345 0.027536 -0.012161 -0.006492
# 5 -0.012515 -0.003070 -0.003447 -0.012161 0.026663 0.008527
# 6 -0.005879 -0.001106 -0.003657 -0.006492 0.008527 0.028454
#
#
# Mechanical properties :
#
#
# Convention : Reuss Voigt Hill
#
# Bulk Modulus (GPa) = 22.80027 68.58406 45.69217
# Shear Modulus (GPa) = 33.62035 53.23638 43.42837
#
# Velocity S-wave (km/s) = 3.48311 4.38299 3.95870
# Velocity P-wave (km/s) = 4.94000 7.09669 6.11419
#
# Compressibility (1/GPa) = 0.04385912
#
# Stress axis : x y z
#
# Youngs Moduli (GPa) = 33.31688 101.57604 128.32063
#
# Poissons Ratio (x) = -0.26073 0.49587
# Poissons Ratio (y) = -0.08552 0.07690
# Poissons Ratio (z) = 0.12875 0.06087
#
# Static dielectric constant tensor:
#      x y z
#    x 2.160080 -0.155790 -0.639150 
#    y -0.155790 2.299850 -0.295020 
#    z -0.639150 -0.295020 0.279770 
# 
# From -- ./inp_files/131939.got.cif
#   From: 2010.05.17/outbox.cif.g08.bks.cpg/sg2_66_cif.got.tgz:131939.got - 2010.06.03 11:33:40.
