data_PCOD9068998
_publ_section_title
;
Structure prediction by ZEFSAII (Michael W. Deem and Ramdas Pophale) SiO2 
 PCOD9068998
Probable space group: P -1
;
_chemical_formula_sum "Si O2"
_cell_formula_units_Z 14
_cell_length_a 10.821121
_cell_length_b 11.905085
_cell_length_c 13.885620
_cell_angle_alpha 59.661731
_cell_angle_beta 59.690821
_cell_angle_gamma 23.991517
_cell_volume 622.964159
_symmetry_space_group_name_H-M "P -1"
_symmetry_group_IT_number 2
_symmetry_cell_setting 'triclinic'
loop_
_space_group_symop_operation_xyz
x,y,z
-x,-y,-z
loop_
_atom_site_type_symbol
_atom_site_label
_atom_site_fract_x
_atom_site_fract_y
_atom_site_fract_z
Si Si1 0.184978 0.235572 0.585264
Si Si2 0.120319 0.786841 0.339271
Si Si3 0.677526 0.229354 0.472586
Si Si4 0.216376 0.432179 0.000099
Si Si5 0.310750 0.012760 0.293378
Si Si6 0.053613 0.441181 0.759911
Si Si7 0.153738 0.034230 0.145278
O O1 0.163771 0.281472 0.688428
O O2 0.000000 0.500000 0.500000
O O3 0.979747 0.271842 0.635465
O O4 0.500000 0.000000 0.500000
O O5 0.397581 0.549247 0.413273
O O6 0.179470 0.856975 0.212105
O O7 0.803921 0.083544 0.384333
O O8 0.567428 0.192044 0.590613
O O9 0.000000 0.000000 0.500000
O O10 0.551587 0.148939 0.947144
O O11 0.117488 0.660850 0.921751
O O12 0.177572 0.439485 0.126189
O O13 0.000000 0.500000 0.000000
O O14 0.617507 0.815179 0.206554
O O15 0.134184 0.084940 0.245177
O O16 0.103464 0.289299 0.305228
#
# Coordination Sequence:
#
# PCOD9068998 Si02
#       7
#     2   2   2   2   2   2   2
#     4  12  26  49  72  97 136 186 236 280 335 417
#     4  12  26  44  65  98 143 179 225 290 340 406
#     4  12  24  38  64 100 137 174 219 275 355 425
#     4  12  23  42  65 100 138 175 230 284 341 407
#     4  12  22  38  64  99 134 170 223 283 343 411
#     4  12  25  41  69  97 131 181 233 280 338 398
#     4  12  24  40  65  99 138 176 219 285 353 401
#
# _framework density 22.473202000000001
#
# number of rings (size 3 to 8) (size 9 to 14) (size 15 to 20)
#    0.000    0.000    4.286    7.714    2.000    0.000 
#    0.000    1.429    0.000    0.000    0.000    0.000 
#    0.000    0.000    0.000    0.000    0.000    0.000 
#
# Total GULP energy -78012.589583 kJ/mol
# GULP energy per Si atom -5572.327827 kJ/mol
# Density = 2.242205 g / cm^3
# Si number density = 22.473202 Si / 1000 Ang^3
#
#
#
# Elastic Constant Matrix: (Units=GPa)
#
#
# Indices 1 2 3 4 5 6 
#
# 1 80.2008 13.5583 22.2547 -1.6187 -15.2469 9.0051
# 2 13.5583 153.9671 28.2223 5.7268 -4.5603 7.2179
# 3 22.2547 28.2223 119.6372 9.0317 -9.1688 9.8341
# 4 -1.6187 5.7268 9.0317 50.8119 9.2692 -3.1426
# 5 -15.2469 -4.5603 -9.1688 9.2692 29.9783 -2.8474
# 6 9.0051 7.2179 9.8341 -3.1426 -2.8474 19.2149
#
#
#
# Elastic Compliance Matrix: (Units=1/GPa)
#
#
# Indices 1 2 3 4 5 6 
#
# 1 0.014844 -0.000544 -0.001653 -0.000706 0.006702 -0.005029
# 2 -0.000544 0.006902 -0.001294 -0.000754 0.000446 -0.001733
# 3 -0.001653 -0.001294 0.009618 -0.002256 0.002251 -0.003697
# 4 -0.000706 -0.000754 -0.002256 0.021772 -0.007495 0.004219
# 5 0.006702 0.000446 0.002251 -0.007495 0.039860 0.000221
# 6 -0.005029 -0.001733 -0.003697 0.004219 0.000221 0.057665
#
#
# Mechanical properties :
#
#
# Convention : Reuss Voigt Hill
#
# Bulk Modulus (GPa) = 41.01036 53.54174 47.27605
# Shear Modulus (GPa) = 30.16232 39.31902 34.74067
#
# Velocity S-wave (km/s) = 3.66751 4.18736 3.93602
# Velocity P-wave (km/s) = 6.01850 6.87423 6.46055
#
# Compressibility (1/GPa) = 0.02438408
#
# Stress axis : x y z
#
# Youngs Moduli (GPa) = 67.36864 144.87734 103.97327
#
# Poissons Ratio (x) = 0.07877 0.17184
# Poissons Ratio (y) = 0.03663 0.13449
# Poissons Ratio (z) = 0.11134 0.18741
#
# Static dielectric constant tensor:
#      x y z
#    x 2.050810 0.020810 -0.069220 
#    y 0.020810 1.790850 -0.036870 
#    z -0.069220 -0.036870 1.881990 
# 
# From -- ./inp_files/519584.got.cif
#   From: 2010.05.17/outbox.cif.g08.bks.cpg/sg2_260_cif.got.tgz:519584.got - 2010.06.03 11:33:40.
