data_PCOD9068165
_publ_section_title
;
Structure prediction by ZEFSAII (Michael W. Deem and Ramdas Pophale) SiO2 
 PCOD9068165
Probable space group: P -1
;
_chemical_formula_sum "Si O2"
_cell_formula_units_Z 16
_cell_length_a 11.819001
_cell_length_b 13.889327
_cell_length_c 14.889751
_cell_angle_alpha 141.306564
_cell_angle_beta 148.937697
_cell_angle_gamma 58.588088
_cell_volume 701.294829
_symmetry_space_group_name_H-M "P -1"
_symmetry_group_IT_number 2
_symmetry_cell_setting 'triclinic'
loop_
_space_group_symop_operation_xyz
x,y,z
-x,-y,-z
loop_
_atom_site_type_symbol
_atom_site_label
_atom_site_fract_x
_atom_site_fract_y
_atom_site_fract_z
Si Si1 0.368998 0.616699 0.714734
Si Si2 0.938955 0.871481 0.282688
Si Si3 0.237839 0.167744 0.592743
Si Si4 0.151200 0.618259 0.271440
Si Si5 0.693624 0.742444 0.669253
Si Si6 0.906108 0.897008 0.749113
Si Si7 0.745871 0.285747 0.101959
Si Si8 0.041716 0.424953 0.697382
O O1 0.302251 0.432457 0.489383
O O2 0.277473 0.614257 0.752487
O O3 0.225879 0.697391 0.616970
O O4 0.659749 0.727360 0.990219
O O5 0.119016 0.787860 0.358148
O O6 0.000000 0.000000 0.500000
O O7 0.000763 0.988141 0.321874
O O8 0.204760 0.323813 0.730109
O O9 0.242678 0.185696 0.502517
O O10 0.470203 0.159688 0.790056
O O11 0.440265 0.673955 0.501958
O O12 0.015823 0.535896 0.213295
O O13 0.000000 0.500000 0.000000
O O14 0.714745 0.842755 0.662353
O O15 0.928632 0.894011 0.989646
O O16 0.092839 0.813125 0.835825
O O17 0.844929 0.417550 0.181271
#
# Coordination Sequence:
#
# PCOD9068165 Si02
#       8
#     2   2   2   2   2   2   2   2
#     4  12  24  46  77 104 151 189 241 309 360 437
#     4  12  25  48  70 110 141 187 246 297 357 434
#     4  12  26  44  79 109 143 191 247 306 366 420
#     4  12  27  47  71 104 152 193 241 301 362 441
#     4  11  26  48  70 103 154 190 231 308 369 420
#     4  11  26  50  75 107 146 193 245 305 359 439
#     4  12  24  48  79 110 145 187 253 306 357 431
#     4  12  26  43  76 111 140 198 245 298 375 425
#
# _framework density 22.814941999999999
#
# number of rings (size 3 to 8) (size 9 to 14) (size 15 to 20)
#    0.000    0.250    6.250    2.250    3.500    2.000 
#    0.000    3.125    0.000    0.000    0.000    0.000 
#    0.000    0.000    0.000    0.000    0.000    0.000 
#
# Total GULP energy -89432.480192 kJ/mol
# GULP energy per Si atom -5589.530012 kJ/mol
# Density = 2.276301 g / cm^3
# Si number density = 22.814942 Si / 1000 Ang^3
#
#
#
# Elastic Constant Matrix: (Units=GPa)
#
#
# Indices 1 2 3 4 5 6 
#
# 1 123.7497 5.6946 12.4278 4.5666 -20.8518 8.7466
# 2 5.6946 59.6524 15.0182 10.6207 -10.4614 -7.3713
# 3 12.4278 15.0182 63.1294 0.8010 -7.8898 -5.4024
# 4 4.5666 10.6207 0.8010 35.4321 4.8892 -6.9150
# 5 -20.8518 -10.4614 -7.8898 4.8892 40.9983 -3.4520
# 6 8.7466 -7.3713 -5.4024 -6.9150 -3.4520 34.5545
#
#
#
# Elastic Compliance Matrix: (Units=1/GPa)
#
#
# Indices 1 2 3 4 5 6 
#
# 1 0.009257 0.000427 -0.001534 -0.002412 0.004598 -0.002515
# 2 0.000427 0.020138 -0.003848 -0.006211 0.005601 0.002903
# 3 -0.001534 -0.003848 0.017485 0.001255 0.001682 0.002720
# 4 -0.002412 -0.006211 0.001255 0.032232 -0.005964 0.005336
# 5 0.004598 0.005601 0.001682 -0.005964 0.029365 0.002034
# 6 -0.002515 0.002903 0.002720 0.005336 0.002034 0.031892
#
#
# Mechanical properties :
#
#
# Convention : Reuss Voigt Hill
#
# Bulk Modulus (GPa) = 27.04803 34.75698 30.90251
# Shear Modulus (GPa) = 30.75011 36.42304 33.58657
#
# Velocity S-wave (km/s) = 3.67523 3.99990 3.84100
# Velocity P-wave (km/s) = 5.46726 6.04977 5.76587
#
# Compressibility (1/GPa) = 0.03697127
#
# Stress axis : x y z
#
# Youngs Moduli (GPa) = 108.03002 49.65637 57.19206
#
# Poissons Ratio (x) = -0.02122 0.08773
# Poissons Ratio (y) = -0.04618 0.22006
# Poissons Ratio (z) = 0.16572 0.19107
#
# Static dielectric constant tensor:
#      x y z
#    x 1.903950 0.016680 0.022790 
#    y 0.016680 1.888650 -0.013160 
#    z 0.022790 -0.013160 1.879900 
# 
# From -- ./inp_files/522547.got.cif
#   From: 2010.05.17/outbox.cif.g08.bks.cpg/sg2_262_cif.got.tgz:522547.got - 2010.06.03 11:33:40.
