data_PCOD9068596
_publ_section_title
;
Structure prediction by ZEFSAII (Michael W. Deem and Ramdas Pophale) SiO2 
 PCOD9068596
Probable space group: P -1
;
_chemical_formula_sum "Si O2"
_cell_formula_units_Z 13
_cell_length_a 9.263419
_cell_length_b 14.485802
_cell_length_c 6.280527
_cell_angle_alpha 117.052236
_cell_angle_beta 131.121721
_cell_angle_gamma 54.318711
_cell_volume 512.186438
_symmetry_space_group_name_H-M "P -1"
_symmetry_group_IT_number 2
_symmetry_cell_setting 'triclinic'
loop_
_space_group_symop_operation_xyz
x,y,z
-x,-y,-z
loop_
_atom_site_type_symbol
_atom_site_label
_atom_site_fract_x
_atom_site_fract_y
_atom_site_fract_z
Si Si1 0.258275 0.054821 0.886009
Si Si2 0.406381 0.394555 0.524612
Si Si3 0.789745 0.441028 0.854111
Si Si4 0.000000 0.500000 0.500000
Si Si5 0.995586 0.750539 0.489532
Si Si6 0.800725 0.098137 0.027856
Si Si7 0.646227 0.804157 0.529268
O O1 0.136574 0.138084 0.665099
O O2 0.199292 0.952782 0.791110
O O3 0.250224 0.125480 0.167346
O O4 0.500000 0.000000 0.000000
O O5 0.631674 0.397961 0.768524
O O6 0.338925 0.439403 0.266133
O O7 0.244349 0.472193 0.627567
O O8 0.414271 0.270555 0.441473
O O9 0.899578 0.352262 0.677565
O O10 0.960426 0.450170 0.182917
O O11 0.833199 0.727688 0.465605
O O12 0.162006 0.787053 0.807464
O O13 0.573050 0.122882 0.728986
O O14 0.000000 0.000000 0.000000
#
# Coordination Sequence:
#
# PCOD9068596 Si02
#       7
#     2   2   2   1   2   2   2
#     4  12  25  47  75 109 151 198 247 311 367 437
#     4  11  27  48  75 109 150 191 243 308 371 448
#     4  11  28  49  76 112 146 193 249 305 371 450
#     4  12  24  50  78 102 148 188 238 308 372 428
#     4  12  27  48  75 110 148 199 249 303 377 439
#     4  12  26  47  75 108 152 199 248 308 365 438
#     4  12  27  48  73 110 151 197 248 304 373 440
#
# _framework density 25.381381999999999
#
# number of rings (size 3 to 8) (size 9 to 14) (size 15 to 20)
#    0.000    0.308    3.077    4.615    4.308    7.385 
#    0.000    0.000    0.000    0.000    0.000    0.000 
#    0.000    0.000    0.000    0.000    0.000    0.000 
#
# Total GULP energy -72697.328196 kJ/mol
# GULP energy per Si atom -5592.102169 kJ/mol
# Density = 2.532361 g / cm^3
# Si number density = 25.381382 Si / 1000 Ang^3
#
#
#
# Elastic Constant Matrix: (Units=GPa)
#
#
# Indices 1 2 3 4 5 6 
#
# 1 157.6591 19.3358 14.0635 21.1338 18.3204 9.4938
# 2 19.3358 54.5714 8.2857 -6.0071 1.7259 33.6588
# 3 14.0635 8.2857 116.6289 18.1285 13.7338 6.1149
# 4 21.1338 -6.0071 18.1285 44.9294 -0.2906 -11.7843
# 5 18.3204 1.7259 13.7338 -0.2906 32.3454 9.1443
# 6 9.4938 33.6588 6.1149 -11.7843 9.1443 62.9872
#
#
#
# Elastic Compliance Matrix: (Units=1/GPa)
#
#
# Indices 1 2 3 4 5 6 
#
# 1 0.007797 -0.003471 0.000479 -0.004220 -0.004618 0.000514
# 2 -0.003471 0.029407 -0.001881 0.002325 0.005565 -0.015382
# 3 0.000479 -0.001881 0.009882 -0.004558 -0.004337 -0.000250
# 4 -0.004220 0.002325 -0.004558 0.027604 0.003166 0.004541
# 5 -0.004618 0.005565 -0.004337 0.003166 0.036980 -0.006633
# 6 0.000514 -0.015382 -0.000250 0.004541 -0.006633 0.025855
#
#
# Mechanical properties :
#
#
# Convention : Reuss Voigt Hill
#
# Bulk Modulus (GPa) = 26.77995 45.80326 36.29160
# Shear Modulus (GPa) = 31.30534 47.19735 39.25135
#
# Velocity S-wave (km/s) = 3.51579 4.31690 3.93677
# Velocity P-wave (km/s) = 5.20144 6.55230 5.91556
#
# Compressibility (1/GPa) = 0.03734138
#
# Stress axis : x y z
#
# Youngs Moduli (GPa) = 128.25348 34.00555 101.19061
#
# Poissons Ratio (x) = 0.11803 -0.04849
# Poissons Ratio (y) = 0.44515 0.19032
# Poissons Ratio (z) = -0.06145 0.06396
#
# Static dielectric constant tensor:
#      x y z
#    x 1.964110 0.027320 0.001090 
#    y 0.027320 2.136290 0.032080 
#    z 0.001090 0.032080 2.026900 
# 
# From -- ./inp_files/40394.got.cif
#   From: 2010.05.17/outbox.cif.g08.bks.cpg/sg2_21_cif.got.tgz:40394.got - 2010.06.03 11:33:40.
