data_PCOD9068824
_publ_section_title
;
Structure prediction by ZEFSAII (Michael W. Deem and Ramdas Pophale) SiO2 
 PCOD9068824
Probable space group: P -1
;
_chemical_formula_sum "Si O2"
_cell_formula_units_Z 16
_cell_length_a 8.438853
_cell_length_b 15.641093
_cell_length_c 13.132053
_cell_angle_alpha 26.350918
_cell_angle_beta 94.994478
_cell_angle_gamma 104.745534
_cell_volume 702.736218
_symmetry_space_group_name_H-M "P -1"
_symmetry_group_IT_number 2
_symmetry_cell_setting 'triclinic'
loop_
_space_group_symop_operation_xyz
x,y,z
-x,-y,-z
loop_
_atom_site_type_symbol
_atom_site_label
_atom_site_fract_x
_atom_site_fract_y
_atom_site_fract_z
Si Si1 0.901068 0.909964 0.196207
Si Si2 0.170649 0.044013 0.249870
Si Si3 0.605437 0.178244 0.527624
Si Si4 0.377723 0.376284 0.218682
Si Si5 0.060239 0.398003 0.900168
Si Si6 0.410121 0.962239 0.927056
Si Si7 0.004131 0.736351 0.752948
Si Si8 0.278793 0.534260 0.260574
O O1 0.769561 0.666624 0.453647
O O2 0.037950 0.928679 0.274032
O O3 0.780606 0.034460 0.082891
O O4 0.000000 0.000000 0.000000
O O5 0.352386 0.024194 0.270244
O O6 0.111518 0.915448 0.489719
O O7 0.169534 0.273101 0.994012
O O8 0.450539 0.199938 0.434626
O O9 0.783634 0.379464 0.301682
O O10 0.538883 0.158189 0.659700
O O11 0.189314 0.292565 0.250308
O O12 0.356745 0.486890 0.207303
O O13 0.500000 0.500000 0.000000
O O14 0.906034 0.447116 0.791326
O O15 0.959526 0.229212 0.162890
O O16 0.388578 0.745099 0.103404
O O17 0.500000 0.000000 0.000000
O O18 0.000000 0.500000 0.000000
#
# Coordination Sequence:
#
# PCOD9068824 Si02
#       8
#     2   2   2   2   2   2   2   2
#     4  12  25  48  76 106 143 193 248 306 364 440
#     4  12  24  44  69 106 142 193 245 298 355 441
#     4  12  25  45  69 104 151 184 237 311 358 426
#     4  12  23  43  73 106 155 195 234 298 369 426
#     4  12  25  43  75 104 140 197 250 286 362 439
#     4  12  29  49  74 109 147 187 245 314 377 426
#     4  12  20  43  69 100 147 195 238 295 353 435
#     4  12  26  50  77 106 148 198 244 302 366 441
#
# _framework density 22.768146999999999
#
# number of rings (size 3 to 8) (size 9 to 14) (size 15 to 20)
#    0.000    0.000    8.750    1.125    1.750    2.000 
#    0.000    1.250    0.000    0.000    0.000    0.000 
#    0.000    0.000    0.000    0.000    0.000    0.000 
#
# Total GULP energy -89197.347425 kJ/mol
# GULP energy per Si atom -5574.834214 kJ/mol
# Density = 2.271633 g / cm^3
# Si number density = 22.768147 Si / 1000 Ang^3
#
#
#
# Elastic Constant Matrix: (Units=GPa)
#
#
# Indices 1 2 3 4 5 6 
#
# 1 114.2960 17.3451 34.3549 -1.4216 20.8705 -27.7469
# 2 17.3451 59.7363 50.7552 -1.7924 0.1723 -14.9181
# 3 34.3549 50.7552 125.4278 12.9649 -6.0020 -18.3363
# 4 -1.4216 -1.7924 12.9649 51.3935 -11.9636 5.5141
# 5 20.8705 0.1723 -6.0020 -11.9636 50.9720 2.9557
# 6 -27.7469 -14.9181 -18.3363 5.5141 2.9557 35.0723
#
#
#
# Elastic Compliance Matrix: (Units=1/GPa)
#
#
# Indices 1 2 3 4 5 6 
#
# 1 0.013049 0.000954 -0.002629 -0.001572 -0.006614 0.010159
# 2 0.000954 0.027237 -0.010680 0.002628 -0.001499 0.006469
# 3 -0.002629 -0.010680 0.013599 -0.003545 0.001830 0.000890
# 4 -0.001572 0.002628 -0.003545 0.022398 0.005822 -0.005992
# 5 -0.006614 -0.001499 0.001830 0.005822 0.024371 -0.007882
# 6 0.010159 0.006469 0.000890 -0.005992 -0.007882 0.041373
#
#
# Mechanical properties :
#
#
# Convention : Reuss Voigt Hill
#
# Bulk Modulus (GPa) = 34.27756 56.04117 45.15937
# Shear Modulus (GPa) = 28.33463 40.62121 34.47792
#
# Velocity S-wave (km/s) = 3.53155 4.22847 3.89563
# Velocity P-wave (km/s) = 5.63178 6.96471 6.33341
#
# Compressibility (1/GPa) = 0.02917360
#
# Stress axis : x y z
#
# Youngs Moduli (GPa) = 76.63338 36.71530 73.53602
#
# Poissons Ratio (x) = -0.03502 0.19332
# Poissons Ratio (y) = -0.07309 0.78539
# Poissons Ratio (z) = 0.20146 0.39213
#
# Static dielectric constant tensor:
#      x y z
#    x 1.972310 -0.119330 0.048020 
#    y -0.119330 2.071430 -0.042340 
#    z 0.048020 -0.042340 2.091500 
# 
# From -- ./inp_files/398181.got.cif
#   From: 2010.05.17/outbox.cif.g08.bks.cpg/sg2_200_cif.got.tgz:398181.got - 2010.06.03 11:33:40.
