data_PCOD9068139
_publ_section_title
;
Structure prediction by ZEFSAII (Michael W. Deem and Ramdas Pophale) SiO2 
 PCOD9068139
Probable space group: P -1
;
_chemical_formula_sum "Si O2"
_cell_formula_units_Z 16
_cell_length_a 18.312839
_cell_length_b 9.416045
_cell_length_c 5.422143
_cell_angle_alpha 99.198307
_cell_angle_beta 87.250461
_cell_angle_gamma 51.747319
_cell_volume 711.635368
_symmetry_space_group_name_H-M "P -1"
_symmetry_group_IT_number 2
_symmetry_cell_setting 'triclinic'
loop_
_space_group_symop_operation_xyz
x,y,z
-x,-y,-z
loop_
_atom_site_type_symbol
_atom_site_label
_atom_site_fract_x
_atom_site_fract_y
_atom_site_fract_z
Si Si1 0.608945 0.836081 0.369577
Si Si2 0.677923 0.895993 0.867446
Si Si3 0.241582 0.833953 0.618668
Si Si4 0.385851 0.728244 0.214591
Si Si5 0.957815 0.436343 0.298034
Si Si6 0.417113 0.463804 0.746692
Si Si7 0.852429 0.762790 0.057123
Si Si8 0.054317 0.881624 0.705398
O O1 0.661868 0.828351 0.600697
O O2 0.617066 0.655754 0.283794
O O3 0.500000 0.000000 0.500000
O O4 0.639283 0.872590 0.118799
O O5 0.624275 0.115891 0.905234
O O6 0.790113 0.774594 0.853286
O O7 0.278119 0.832549 0.343478
O O8 0.338785 0.650970 0.663717
O O9 0.157265 0.827206 0.661067
O O10 0.207301 0.026734 0.787833
O O11 0.471069 0.664111 0.371995
O O12 0.414792 0.541398 0.035892
O O13 0.871536 0.618248 0.218861
O O14 0.937326 0.302096 0.357573
O O15 0.000000 0.500000 0.500000
O O16 0.044797 0.309968 0.057088
O O17 0.000000 0.000000 0.500000
O O18 0.000000 0.000000 0.000000
#
# Coordination Sequence:
#
# PCOD9068139 Si02
#       8
#     2   2   2   2   2   2   2   2
#     4  12  28  49  73 111 156 202 252 322 389 450
#     4  12  27  48  79 107 154 203 258 314 385 462
#     4  12  26  48  80 108 158 203 264 316 391 464
#     4  11  26  48  77 111 153 210 262 321 382 465
#     4  11  27  50  79 112 152 202 251 323 389 467
#     4  11  27  46  75 113 156 202 267 320 389 458
#     4  11  26  47  78 111 148 201 263 313 388 467
#     4  12  29  52  80 114 157 198 255 323 391 459
#
# _framework density 22.483422999999998
#
# number of rings (size 3 to 8) (size 9 to 14) (size 15 to 20)
#    0.000    0.500    3.750    2.250   12.250    1.000 
#    0.000    0.000    0.000    0.000    0.000    0.000 
#    0.000    0.000    0.000    0.000    0.000    0.000 
#
# Total GULP energy -89415.197572 kJ/mol
# GULP energy per Si atom -5588.449848 kJ/mol
# Density = 2.243225 g / cm^3
# Si number density = 22.483423 Si / 1000 Ang^3
#
#
#
# Elastic Constant Matrix: (Units=GPa)
#
#
# Indices 1 2 3 4 5 6 
#
# 1 166.5591 84.6201 62.8441 -6.4259 2.4807 8.7846
# 2 84.6201 173.2225 46.7526 -21.6627 14.9315 23.9870
# 3 62.8441 46.7526 105.1560 -1.8748 1.4420 15.0871
# 4 -6.4259 -21.6627 -1.8748 30.6739 -0.0287 11.9316
# 5 2.4807 14.9315 1.4420 -0.0287 48.4005 2.2705
# 6 8.7846 23.9870 15.0871 11.9316 2.2705 49.8742
#
#
#
# Elastic Compliance Matrix: (Units=1/GPa)
#
#
# Indices 1 2 3 4 5 6 
#
# 1 0.009459 -0.004080 -0.004168 -0.001924 0.000804 0.001981
# 2 -0.004080 0.010129 -0.001055 0.008465 -0.002610 -0.005740
# 3 -0.004168 -0.001055 0.012860 0.000224 0.000283 -0.002715
# 4 -0.001924 0.008465 0.000224 0.043700 -0.001829 -0.014171
# 5 0.000804 -0.002610 0.000283 -0.001829 0.021392 0.000492
# 6 0.001981 -0.005740 -0.002715 -0.014171 0.000492 0.026651
#
#
# Mechanical properties :
#
#
# Convention : Reuss Voigt Hill
#
# Bulk Modulus (GPa) = 72.24972 92.59679 82.42326
# Shear Modulus (GPa) = 33.91879 42.50445 38.21162
#
# Velocity S-wave (km/s) = 3.88830 4.35268 4.12703
# Velocity P-wave (km/s) = 7.23622 8.15690 7.71032
#
# Compressibility (1/GPa) = 0.01384088
#
# Stress axis : x y z
#
# Youngs Moduli (GPa) = 105.72261 98.72609 77.76349
#
# Poissons Ratio (x) = 0.40279 0.32415
# Poissons Ratio (y) = 0.43133 0.08204
# Poissons Ratio (z) = 0.44070 0.10415
#
# Static dielectric constant tensor:
#      x y z
#    x 1.832830 -0.030490 -0.026400 
#    y -0.030490 1.832200 -0.019900 
#    z -0.026400 -0.019900 1.952430 
# 
# From -- ./inp_files/107179.got.cif
#   From: 2010.05.17/outbox.cif.g08.bks.cpg/sg2_54_cif.got.tgz:107179.got - 2010.06.03 11:33:40.
