data_PCOD9068269
_publ_section_title
;
Structure prediction by ZEFSAII (Michael W. Deem and Ramdas Pophale) SiO2 
 PCOD9068269
Probable space group: P -1
;
_chemical_formula_sum "Si O2"
_cell_formula_units_Z 13
_cell_length_a 11.435010
_cell_length_b 8.508659
_cell_length_c 8.351059
_cell_angle_alpha 105.775056
_cell_angle_beta 90.864821
_cell_angle_gamma 40.154562
_cell_volume 479.302830
_symmetry_space_group_name_H-M "P -1"
_symmetry_group_IT_number 2
_symmetry_cell_setting 'triclinic'
loop_
_space_group_symop_operation_xyz
x,y,z
-x,-y,-z
loop_
_atom_site_type_symbol
_atom_site_label
_atom_site_fract_x
_atom_site_fract_y
_atom_site_fract_z
Si Si1 0.776727 0.932047 0.818670
Si Si2 0.825256 0.318674 0.610608
Si Si3 0.513692 0.443969 0.795411
Si Si4 0.500000 0.000000 0.000000
Si Si5 0.385212 0.096822 0.681934
Si Si6 0.839159 0.349075 0.255505
Si Si7 0.990575 0.598751 0.201319
O O1 0.647748 0.133883 0.725655
O O2 0.513023 0.946006 0.797609
O O3 0.636017 0.017785 0.976135
O O4 0.934279 0.902579 0.844312
O O5 0.635974 0.434167 0.691852
O O6 0.812436 0.413866 0.461747
O O7 0.882057 0.381331 0.771432
O O8 0.000000 0.000000 0.500000
O O9 0.303325 0.643005 0.779754
O O10 0.500000 0.500000 0.000000
O O11 0.077370 0.380449 0.275695
O O12 0.253730 0.404410 0.784264
O O13 0.228320 0.127965 0.686614
O O14 0.500000 0.000000 0.500000
O O15 0.000000 0.500000 0.000000
#
# Coordination Sequence:
#
# PCOD9068269 Si02
#       7
#     2   2   2   1   2   2   2
#     4  11  26  48  78 116 158 207 281 330 415 490
#     4  12  29  53  80 118 169 217 270 352 419 490
#     4  12  29  49  82 115 164 219 273 330 428 502
#     4  12  24  46  78 112 172 204 272 352 408 484
#     4  11  27  43  81 118 158 210 284 336 412 486
#     4  11  27  50  78 113 160 214 276 338 410 495
#     4  11  27  50  82 115 161 219 274 341 413 488
#
# _framework density 27.122731000000002
#
# number of rings (size 3 to 8) (size 9 to 14) (size 15 to 20)
#    0.000    0.615    4.615    0.462   12.923    3.077 
#    0.000    0.000    0.000    0.000    0.000    0.000 
#    0.000    0.000    0.000    0.000    0.000    0.000 
#
# Total GULP energy -72503.801206 kJ/mol
# GULP energy per Si atom -5577.215477 kJ/mol
# Density = 2.706100 g / cm^3
# Si number density = 27.122731 Si / 1000 Ang^3
#
#
#
# Elastic Constant Matrix: (Units=GPa)
#
#
# Indices 1 2 3 4 5 6 
#
# 1 172.2864 49.9018 72.5601 1.3543 -33.4550 -56.9134
# 2 49.9018 106.2790 43.6857 3.3621 -3.7700 -39.7380
# 3 72.5601 43.6857 186.7326 -11.2188 -21.3150 -34.3428
# 4 1.3543 3.3621 -11.2188 27.6753 -11.0874 -6.2377
# 5 -33.4550 -3.7700 -21.3150 -11.0874 51.5841 16.3794
# 6 -56.9134 -39.7380 -34.3428 -6.2377 16.3794 63.9592
#
#
#
# Elastic Compliance Matrix: (Units=1/GPa)
#
#
# Indices 1 2 3 4 5 6 
#
# 1 0.009698 -0.001551 -0.001749 0.001934 0.003998 0.005891
# 2 -0.001551 0.013275 -0.001806 -0.002123 -0.003315 0.006539
# 3 -0.001749 -0.001806 0.007169 0.004365 0.002315 0.001003
# 4 0.001934 -0.002123 0.004365 0.043375 0.010897 0.004185
# 5 0.003998 -0.003315 0.002315 0.010897 0.025937 -0.002838
# 6 0.005891 0.006539 0.001003 0.004185 -0.002838 0.026614
#
#
# Mechanical properties :
#
#
# Convention : Reuss Voigt Hill
#
# Bulk Modulus (GPa) = 50.18127 88.62145 69.40136
# Shear Modulus (GPa) = 34.98444 48.58709 41.78577
#
# Velocity S-wave (km/s) = 3.59535 4.23706 3.92933
# Velocity P-wave (km/s) = 5.98140 7.52875 6.79924
#
# Compressibility (1/GPa) = 0.01992775
#
# Stress axis : x y z
#
# Youngs Moduli (GPa) = 103.11924 75.33236 139.49899
#
# Poissons Ratio (x) = 0.11684 0.24403
# Poissons Ratio (y) = 0.15993 0.25195
# Poissons Ratio (z) = 0.18039 0.13606
#
# Static dielectric constant tensor:
#      x y z
#    x 2.411270 0.108580 0.109120 
#    y 0.108580 2.316200 0.107640 
#    z 0.109120 0.107640 2.067020 
# 
# From -- ./inp_files/259545.got.cif
#   From: 2010.05.17/outbox.cif.g08.bks.cpg/sg2_130_cif.got.tgz:259545.got - 2010.06.03 11:33:40.
