data_PCOD9068694
_publ_section_title
;
Structure prediction by ZEFSAII (Michael W. Deem and Ramdas Pophale) SiO2 
 PCOD9068694
Probable space group: P -1
;
_chemical_formula_sum "Si O2"
_cell_formula_units_Z 14
_cell_length_a 5.161265
_cell_length_b 5.040532
_cell_length_c 21.790945
_cell_angle_alpha 89.024505
_cell_angle_beta 113.489597
_cell_angle_gamma 92.477463
_cell_volume 519.438969
_symmetry_space_group_name_H-M "P -1"
_symmetry_group_IT_number 2
_symmetry_cell_setting 'triclinic'
loop_
_space_group_symop_operation_xyz
x,y,z
-x,-y,-z
loop_
_atom_site_type_symbol
_atom_site_label
_atom_site_fract_x
_atom_site_fract_y
_atom_site_fract_z
Si Si1 0.844547 0.245135 0.956186
Si Si2 0.241773 0.314921 0.497525
Si Si3 0.335525 0.978075 0.867706
Si Si4 0.250060 0.936020 0.611674
Si Si5 0.787182 0.612535 0.846001
Si Si6 0.712853 0.584742 0.698027
Si Si7 0.095631 0.114953 0.719903
O O1 0.857540 0.335292 0.885689
O O2 0.510361 0.165030 0.931403
O O3 0.000000 0.500000 0.000000
O O4 0.000000 0.000000 0.000000
O O5 0.500000 0.500000 0.500000
O O6 0.000000 0.500000 0.500000
O O7 0.078168 0.152345 0.428814
O O8 0.324129 0.107382 0.558184
O O9 0.070403 0.801038 0.867528
O O10 0.559822 0.769289 0.863519
O O11 0.244239 0.151261 0.799591
O O12 0.436190 0.680770 0.637994
O O13 0.286537 0.099736 0.677581
O O14 0.667121 0.563517 0.766882
O O15 0.863632 0.331070 0.688247
O O16 0.942838 0.826998 0.712088
#
# Coordination Sequence:
#
# PCOD9068694 Si02
#       7
#     2   2   2   2   2   2   2
#     4  12  28  51  82 117 162 223 276 331 406 497
#     4  11  30  53  83 114 170 220 272 336 410 492
#     4  11  27  53  81 121 167 212 271 347 414 488
#     4  11  28  51  82 123 164 210 284 334 414 495
#     4  11  27  53  81 121 167 212 271 347 414 488
#     4  11  28  48  84 123 164 213 274 345 422 489
#     4  11  28  48  84 123 164 213 274 345 422 489
#
# _framework density 26.952154
#
# number of rings (size 3 to 8) (size 9 to 14) (size 15 to 20)
#    0.000    0.857    2.857    0.000   16.000    2.286 
#    0.000    2.143    0.000    0.000    0.000    0.000 
#    0.000    0.000    0.000    0.000    0.000    0.000 
#
# Total GULP energy -78644.388457 kJ/mol
# GULP energy per Si atom -5617.456318 kJ/mol
# Density = 2.689081 g / cm^3
# Si number density = 26.952154 Si / 1000 Ang^3
#
#
#
# Elastic Constant Matrix: (Units=GPa)
#
#
# Indices 1 2 3 4 5 6 
#
# 1 145.4429 55.6570 33.9603 -18.8556 22.0911 2.7177
# 2 55.6570 150.8503 61.9889 -25.7522 14.6792 16.9187
# 3 33.9603 61.9889 178.6445 -31.7371 28.7589 9.2694
# 4 -18.8556 -25.7522 -31.7371 64.6960 -3.9414 12.0851
# 5 22.0911 14.6792 28.7589 -3.9414 42.0614 5.0347
# 6 2.7177 16.9187 9.2694 12.0851 5.0347 55.5340
#
#
#
# Elastic Compliance Matrix: (Units=1/GPa)
#
#
# Indices 1 2 3 4 5 6 
#
# 1 0.008574 -0.002697 0.000058 0.001151 -0.003549 0.000464
# 2 -0.002697 0.009210 -0.002152 0.002372 0.000237 -0.002852
# 3 0.000058 -0.002152 0.007521 0.002758 -0.004063 -0.000834
# 4 0.001151 0.002372 0.002758 0.019024 -0.000901 -0.005297
# 5 -0.003549 0.000237 -0.004063 -0.000901 0.028441 -0.001603
# 6 0.000464 -0.002852 -0.000834 -0.005297 -0.001603 0.020291
#
#
# Mechanical properties :
#
#
# Convention : Reuss Voigt Hill
#
# Bulk Modulus (GPa) = 63.60660 86.46113 75.03386
# Shear Modulus (GPa) = 46.34576 54.01373 50.17974
#
# Velocity S-wave (km/s) = 4.15125 4.48153 4.31955
# Velocity P-wave (km/s) = 6.82849 7.67645 7.26485
#
# Compressibility (1/GPa) = 0.01572164
#
# Stress axis : x y z
#
# Youngs Moduli (GPa) = 116.63434 108.57414 132.96348
#
# Poissons Ratio (x) = 0.29286 -0.00768
# Poissons Ratio (y) = 0.31460 0.28615
# Poissons Ratio (z) = -0.00673 0.23366
#
# Static dielectric constant tensor:
#      x y z
#    x 2.108080 0.002170 -0.042850 
#    y 0.002170 2.111450 0.076260 
#    z -0.042850 0.076260 2.113990 
# 
# From -- ./inp_files/10485.got.cif
#   From: 2010.05.17/outbox.cif.g08.bks.cpg/sg2_6_cif.got.tgz:10485.got - 2010.06.03 11:33:40.
