data_PCOD9068409
_publ_section_title
;
Structure prediction by ZEFSAII (Michael W. Deem and Ramdas Pophale) SiO2 
 PCOD9068409
Probable space group: P -1
;
_chemical_formula_sum "Si O2"
_cell_formula_units_Z 16
_cell_length_a 14.232440
_cell_length_b 8.919741
_cell_length_c 17.593900
_cell_angle_alpha 140.863040
_cell_angle_beta 29.662041
_cell_angle_gamma 141.116826
_cell_volume 657.520756
_symmetry_space_group_name_H-M "P -1"
_symmetry_group_IT_number 2
_symmetry_cell_setting 'triclinic'
loop_
_space_group_symop_operation_xyz
x,y,z
-x,-y,-z
loop_
_atom_site_type_symbol
_atom_site_label
_atom_site_fract_x
_atom_site_fract_y
_atom_site_fract_z
Si Si1 0.053978 0.856501 0.803830
Si Si2 0.561120 0.390055 0.322476
Si Si3 0.777222 0.996320 0.658227
Si Si4 0.115508 0.799086 0.039032
Si Si5 0.810326 0.357132 0.525979
Si Si6 0.458637 0.849225 0.598589
Si Si7 0.354182 0.565495 0.067257
Si Si8 0.298823 0.168784 0.189365
O O1 0.109335 0.738680 0.642241
O O2 0.258640 0.892346 0.722021
O O3 0.844359 0.663462 0.908606
O O4 0.982795 0.085416 0.913654
O O5 0.578831 0.677744 0.404657
O O6 0.612852 0.325574 0.345426
O O7 0.330885 0.240791 0.410934
O O8 0.663510 0.222775 0.135728
O O9 0.737190 0.241155 0.751729
O O10 0.706200 0.984278 0.790918
O O11 0.000000 0.000000 0.500000
O O12 0.139954 0.978991 0.166984
O O13 0.000000 0.500000 0.000000
O O14 0.734145 0.587701 0.653811
O O15 0.000000 0.500000 0.500000
O O16 0.630206 0.121200 0.594392
O O17 0.500000 0.500000 0.000000
O O18 0.503970 0.694924 0.945042
#
# Coordination Sequence:
#
# PCOD9068409 Si02
#       8
#     2   2   2   2   2   2   2   2
#     4  12  26  51  77 118 152 208 262 323 392 472
#     4  11  26  50  74 109 155 207 254 321 398 456
#     4  12  27  47  80 115 155 201 267 323 389 468
#     4  12  27  47  79 108 163 200 255 322 403 468
#     4  12  25  45  79 110 153 203 260 315 387 460
#     4  11  28  49  77 110 158 206 263 319 389 475
#     4  12  24  48  77 111 158 197 257 324 386 467
#     4  12  27  47  78 118 152 208 259 324 392 463
#
# _framework density 24.333834
#
# number of rings (size 3 to 8) (size 9 to 14) (size 15 to 20)
#    0.000    0.250    3.750    3.750    7.000    3.500 
#    0.000    0.000    0.000    0.000    0.000    0.000 
#    0.000    0.000    0.000    0.000    0.000    0.000 
#
# Total GULP energy -89247.086756 kJ/mol
# GULP energy per Si atom -5577.942922 kJ/mol
# Density = 2.427845 g / cm^3
# Si number density = 24.333834 Si / 1000 Ang^3
#
#
#
# Elastic Constant Matrix: (Units=GPa)
#
#
# Indices 1 2 3 4 5 6 
#
# 1 139.1776 65.6179 44.3951 -1.6858 -31.9105 10.3985
# 2 65.6179 149.3804 29.0965 11.7066 -23.2907 15.9158
# 3 44.3951 29.0965 90.7200 10.4693 -19.7864 -6.8674
# 4 -1.6858 11.7066 10.4693 48.6546 -2.1622 -7.4526
# 5 -31.9105 -23.2907 -19.7864 -2.1622 42.1684 -0.0706
# 6 10.3985 15.9158 -6.8674 -7.4526 -0.0706 31.2268
#
#
#
# Elastic Compliance Matrix: (Units=1/GPa)
#
#
# Indices 1 2 3 4 5 6 
#
# 1 0.011324 -0.003338 -0.003769 0.001856 0.005048 -0.002444
# 2 -0.003338 0.009364 -0.000945 -0.002767 0.002053 -0.004525
# 3 -0.003769 -0.000945 0.014480 -0.002197 0.003315 0.004405
# 4 0.001856 -0.002767 -0.002197 0.022631 0.000016 0.005710
# 5 0.005048 0.002053 0.003315 0.000016 0.030221 -0.001926
# 6 -0.002444 -0.004525 0.004405 0.005710 -0.001926 0.037471
#
#
# Mechanical properties :
#
#
# Convention : Reuss Voigt Hill
#
# Bulk Modulus (GPa) = 52.45652 73.05521 62.75587
# Shear Modulus (GPa) = 33.79525 40.42118 37.10822
#
# Velocity S-wave (km/s) = 3.73073 4.08009 3.90931
# Velocity P-wave (km/s) = 6.33732 7.23073 6.79872
#
# Compressibility (1/GPa) = 0.01906341
#
# Stress axis : x y z
#
# Youngs Moduli (GPa) = 88.31184 106.79562 69.05846
#
# Poissons Ratio (x) = 0.35648 0.26028
# Poissons Ratio (y) = 0.29478 0.06527
# Poissons Ratio (z) = 0.33285 0.10094
#
# Static dielectric constant tensor:
#      x y z
#    x 2.073660 0.077560 -0.145670 
#    y 0.077560 1.854550 -0.265320 
#    z -0.145670 -0.265320 2.252430 
# 
# From -- ./inp_files/572923.got.cif
#   From: 2010.05.17/outbox.cif.g08.bks.cpg/sg2_287_cif.got.tgz:572923.got - 2010.06.03 11:33:40.
