data_PCOD9068204
_publ_section_title
;
Structure prediction by ZEFSAII (Michael W. Deem and Ramdas Pophale) SiO2 
 PCOD9068204
Probable space group: P -1
;
_chemical_formula_sum "Si O2"
_cell_formula_units_Z 13
_cell_length_a 18.396645
_cell_length_b 8.489482
_cell_length_c 6.931099
_cell_angle_alpha 64.129127
_cell_angle_beta 125.771719
_cell_angle_gamma 138.385777
_cell_volume 583.273616
_symmetry_space_group_name_H-M "P -1"
_symmetry_group_IT_number 2
_symmetry_cell_setting 'triclinic'
loop_
_space_group_symop_operation_xyz
x,y,z
-x,-y,-z
loop_
_atom_site_type_symbol
_atom_site_label
_atom_site_fract_x
_atom_site_fract_y
_atom_site_fract_z
Si Si1 0.365301 0.534395 0.269921
Si Si2 0.907776 0.531643 0.789224
Si Si3 0.000000 0.000000 0.500000
Si Si4 0.301110 0.835865 0.047849
Si Si5 0.865622 0.293705 0.488037
Si Si6 0.890844 0.946099 0.744416
Si Si7 0.438938 0.344441 0.181908
O O1 0.376547 0.760509 0.144686
O O2 0.233826 0.317354 0.270615
O O3 0.464176 0.599679 0.542683
O O4 0.376233 0.427261 0.151532
O O5 0.807391 0.385681 0.874088
O O6 0.843285 0.412433 0.547821
O O7 0.976120 0.801733 0.712684
O O8 0.000000 0.500000 0.000000
O O9 0.073885 0.978749 0.465115
O O10 0.362481 0.073996 0.136712
O O11 0.238436 0.835393 0.762869
O O12 0.000000 0.500000 0.500000
O O13 0.868118 0.112149 0.695655
O O14 0.000000 0.000000 0.000000
O O15 0.500000 0.500000 0.000000
#
# Coordination Sequence:
#
# PCOD9068204 Si02
#       7
#     2   2   1   2   2   2   2
#     4  11  26  48  74 106 143 192 247 307 371 435
#     4  12  24  43  67 103 152 194 242 296 363 446
#     4  12  24  38  68 102 138 196 230 278 368 442
#     4  12  25  47  72 105 150 191 242 315 364 438
#     4  12  23  40  64  99 145 193 238 286 366 435
#     4  12  24  42  69 104 147 184 239 296 359 447
#     4  11  27  50  77 103 140 193 254 312 369 435
#
# _framework density 22.287994999999999
#
# number of rings (size 3 to 8) (size 9 to 14) (size 15 to 20)
#    0.000    0.308    4.615    4.154    0.000    5.538 
#    0.000    0.000    0.000    0.000    0.000    0.000 
#    0.000    0.000    0.000    0.000    0.000    0.000 
#
# Total GULP energy -72391.409964 kJ/mol
# GULP energy per Si atom -5568.569997 kJ/mol
# Density = 2.223727 g / cm^3
# Si number density = 22.287995 Si / 1000 Ang^3
#
#
#
# Elastic Constant Matrix: (Units=GPa)
#
#
# Indices 1 2 3 4 5 6 
#
# 1 112.0318 45.6327 40.2506 3.8255 -1.5552 -25.8473
# 2 45.6327 103.8946 52.5102 -10.9923 14.6191 -29.7371
# 3 40.2506 52.5102 108.5766 2.2094 3.2354 -13.6568
# 4 3.8255 -10.9923 2.2094 46.8602 -8.4978 0.4190
# 5 -1.5552 14.6191 3.2354 -8.4978 45.3383 -7.5089
# 6 -25.8473 -29.7371 -13.6568 0.4190 -7.5089 40.1893
#
#
#
# Elastic Compliance Matrix: (Units=1/GPa)
#
#
# Indices 1 2 3 4 5 6 
#
# 1 0.012368 -0.003152 -0.002444 -0.001274 0.002241 0.005223
# 2 -0.003152 0.017294 -0.006170 0.003958 -0.003171 0.008039
# 3 -0.002444 -0.006170 0.012916 -0.001774 0.000377 -0.001660
# 4 -0.001274 0.003958 -0.001774 0.023064 0.003446 0.001910
# 5 0.002241 -0.003171 0.000377 0.003446 0.024395 0.003745
# 6 0.005223 0.008039 -0.001660 0.001910 0.003745 0.034306
#
#
# Mechanical properties :
#
#
# Convention : Reuss Voigt Hill
#
# Bulk Modulus (GPa) = 52.50693 66.81000 59.65847
# Shear Modulus (GPa) = 32.42038 38.88488 35.65263
#
# Velocity S-wave (km/s) = 3.81808 4.18144 4.00388
# Velocity P-wave (km/s) = 6.56098 7.30434 6.94262
#
# Compressibility (1/GPa) = 0.01904511
#
# Stress axis : x y z
#
# Youngs Moduli (GPa) = 80.85506 57.82406 77.42057
#
# Poissons Ratio (x) = 0.18225 0.18925
# Poissons Ratio (y) = 0.25484 0.47770
# Poissons Ratio (z) = 0.19765 0.35679
#
# Static dielectric constant tensor:
#      x y z
#    x 1.922150 -0.022540 -0.120910 
#    y -0.022540 1.803260 0.080360 
#    z -0.120910 0.080360 1.781950 
# 
# From -- ./inp_files/106422.got.cif
#   From: 2010.05.17/outbox.cif.g08.bks.cpg/sg2_54_cif.got.tgz:106422.got - 2010.06.03 11:33:40.
