data_PCOD9068607
_publ_section_title
;
Structure prediction by ZEFSAII (Michael W. Deem and Ramdas Pophale) SiO2 
 PCOD9068607
Probable space group: P -1
;
_chemical_formula_sum "Si O2"
_cell_formula_units_Z 12
_cell_length_a 4.975428
_cell_length_b 9.611494
_cell_length_c 12.500292
_cell_angle_alpha 60.282259
_cell_angle_beta 70.397196
_cell_angle_gamma 80.483938
_cell_volume 489.068686
_symmetry_space_group_name_H-M "P -1"
_symmetry_group_IT_number 2
_symmetry_cell_setting 'triclinic'
loop_
_space_group_symop_operation_xyz
x,y,z
-x,-y,-z
loop_
_atom_site_type_symbol
_atom_site_label
_atom_site_fract_x
_atom_site_fract_y
_atom_site_fract_z
Si Si1 0.059319 0.304217 0.309970
Si Si2 0.488011 0.920223 0.208295
Si Si3 0.396571 0.900197 0.655422
Si Si4 0.794749 0.825115 0.003426
Si Si5 0.304445 0.607521 0.062341
Si Si6 0.241076 0.616960 0.465279
O O1 0.905521 0.181535 0.297368
O O2 0.876684 0.300579 0.443392
O O3 0.377334 0.242988 0.309291
O O4 0.090936 0.484965 0.196139
O O5 0.752638 0.888535 0.105579
O O6 0.330714 0.754798 0.319294
O O7 0.581920 0.994212 0.281028
O O8 0.282628 0.037804 0.123774
O O9 0.500000 0.000000 0.500000
O O10 0.533353 0.699652 0.068999
O O11 0.096588 0.736400 0.985102
O O12 0.500000 0.500000 0.000000
O O13 0.500000 0.500000 0.500000
O O14 0.000000 0.500000 0.500000
#
# Coordination Sequence:
#
# PCOD9068607 Si02
#       6
#     2   2   2   2   2   2
#     4  12  26  47  74 112 149 192 256 303 376 445
#     4  11  27  48  78 110 155 195 255 309 379 455
#     4  12  26  47  74 112 151 199 244 309 375 445
#     4  11  27  49  76 113 149 204 249 312 377 447
#     4  12  26  50  76 110 153 199 256 310 375 450
#     4  12  26  45  74 108 147 195 240 313 379 440
#
# _framework density 24.536432000000001
#
# number of rings (size 3 to 8) (size 9 to 14) (size 15 to 20)
#    0.000    0.333    1.667    6.000    0.000    9.333 
#    0.000    0.000    0.000    0.000    0.000    0.000 
#    0.000    0.000    0.000    0.000    0.000    0.000 
#
# Total GULP energy -67367.092710 kJ/mol
# GULP energy per Si atom -5613.924392 kJ/mol
# Density = 2.448059 g / cm^3
# Si number density = 24.536432 Si / 1000 Ang^3
#
#
#
# Elastic Constant Matrix: (Units=GPa)
#
#
# Indices 1 2 3 4 5 6 
#
# 1 111.0766 32.6945 39.2066 -2.9905 -4.0200 3.2668
# 2 32.6945 119.8503 74.6364 4.7710 6.1407 2.6841
# 3 39.2066 74.6364 168.3792 0.1761 0.6284 3.8301
# 4 -2.9905 4.7710 0.1761 59.9266 4.9940 -3.4110
# 5 -4.0200 6.1407 0.6284 4.9940 34.2127 3.6794
# 6 3.2668 2.6841 3.8301 -3.4110 3.6794 48.1746
#
#
#
# Elastic Compliance Matrix: (Units=1/GPa)
#
#
# Indices 1 2 3 4 5 6 
#
# 1 0.010189 -0.001925 -0.001513 0.000505 0.001556 -0.000546
# 2 -0.001925 0.012059 -0.004887 -0.000864 -0.002170 -0.000048
# 3 -0.001513 -0.004887 0.008463 0.000225 0.000546 -0.000324
# 4 0.000505 -0.000864 0.000225 0.017062 -0.002430 0.001390
# 5 0.001556 -0.002170 0.000546 -0.002430 0.030417 -0.002523
# 6 -0.000546 -0.000048 -0.000324 0.001390 -0.002523 0.021114
#
#
# Mechanical properties :
#
#
# Convention : Reuss Voigt Hill
#
# Bulk Modulus (GPa) = 71.11975 76.93124 74.02550
# Shear Modulus (GPa) = 41.44519 45.31403 43.37961
#
# Velocity S-wave (km/s) = 4.11436 4.30211 4.20928
# Velocity P-wave (km/s) = 7.18463 7.48996 7.33888
#
# Compressibility (1/GPa) = 0.01406079
#
# Stress axis : x y z
#
# Youngs Moduli (GPa) = 98.14057 82.92733 118.16661
#
# Poissons Ratio (x) = 0.15962 0.17882
# Poissons Ratio (y) = 0.18890 0.57747
# Poissons Ratio (z) = 0.14852 0.40526
#
# Static dielectric constant tensor:
#      x y z
#    x 1.867660 -0.007810 -0.000440 
#    y -0.007810 1.890550 0.002290 
#    z -0.000440 0.002290 1.990760 
# 
# From -- ./inp_files/360047.got.cif
#   From: 2010.05.17/outbox.cif.g08.bks.cpg/sg2_181_cif.got.tgz:360047.got - 2010.06.03 11:33:40.
