data_PCOD9068838
_publ_section_title
;
Structure prediction by ZEFSAII (Michael W. Deem and Ramdas Pophale) SiO2 
 PCOD9068838
Probable space group: P -1
;
_chemical_formula_sum "Si O2"
_cell_formula_units_Z 16
_cell_length_a 8.008037
_cell_length_b 20.377792
_cell_length_c 16.013117
_cell_angle_alpha 29.706202
_cell_angle_beta 142.188393
_cell_angle_gamma 136.209874
_cell_volume 788.390989
_symmetry_space_group_name_H-M "P -1"
_symmetry_group_IT_number 2
_symmetry_cell_setting 'triclinic'
loop_
_space_group_symop_operation_xyz
x,y,z
-x,-y,-z
loop_
_atom_site_type_symbol
_atom_site_label
_atom_site_fract_x
_atom_site_fract_y
_atom_site_fract_z
Si Si1 0.806002 0.051667 0.744214
Si Si2 0.639951 0.663125 0.214438
Si Si3 0.130861 0.210099 0.008699
Si Si4 0.521601 0.192306 0.715091
Si Si5 0.727590 0.534103 0.121173
Si Si6 0.423716 0.070170 0.041470
Si Si7 0.749646 0.318792 0.492087
Si Si8 0.309415 0.442339 0.411320
O O1 0.736009 0.201922 0.545781
O O2 0.622384 0.988365 0.818898
O O3 0.118869 0.060481 0.892028
O O4 0.790048 0.940396 0.789292
O O5 0.719518 0.723175 0.089020
O O6 0.454131 0.523772 0.300527
O O7 0.932568 0.649108 0.389308
O O8 0.489882 0.773523 0.084346
O O9 0.215305 0.310256 0.005944
O O10 0.806791 0.205140 0.865223
O O11 0.598072 0.256479 0.583428
O O12 0.324133 0.285499 0.578285
O O13 0.424705 0.035815 0.833650
O O14 0.651051 0.448789 0.269320
O O15 0.009582 0.481588 0.262192
O O16 0.500000 0.500000 0.000000
O O17 0.500000 0.500000 0.500000
#
# Coordination Sequence:
#
# PCOD9068838 Si02
#       8
#     2   2   2   2   2   2   2   2
#     4   7  12  24  50  77 100 123 162 207 242 298
#     4   9  16  30  56  80 100 126 166 213 249 297
#     4   9  16  32  54  78 100 132 168 203 252 297
#     4   9  16  30  56  80 100 126 166 213 249 297
#     4  12  25  37  47  69 108 143 169 204 251 300
#     4   7  12  24  46  82 106 116 150 212 265 284
#     4   9  16  32  54  78 100 132 168 203 252 297
#     4  12  21  33  49  77 104 132 171 210 250 289
#
# _framework density 20.294498999999998
#
# number of rings (size 3 to 8) (size 9 to 14) (size 15 to 20)
#    0.000    2.750    2.500    3.750    0.000    2.000 
#    0.000    5.000    0.000    0.000    0.000    5.250 
#    0.000    0.000    0.000    0.000    0.000    0.000 
#
# Total GULP energy -89223.375393 kJ/mol
# GULP energy per Si atom -5576.460962 kJ/mol
# Density = 2.024831 g / cm^3
# Si number density = 20.294499 Si / 1000 Ang^3
#
#
#
# Elastic Constant Matrix: (Units=GPa)
#
#
# Indices 1 2 3 4 5 6 
#
# 1 63.3342 16.0482 15.9340 0.9566 7.7177 -4.2380
# 2 16.0482 88.1849 39.7320 -16.6368 23.1191 -31.7969
# 3 15.9340 39.7320 38.3443 -8.3921 16.7554 -11.3565
# 4 0.9566 -16.6368 -8.3921 32.9691 -5.8019 9.1448
# 5 7.7177 23.1191 16.7554 -5.8019 25.4472 -19.0749
# 6 -4.2380 -31.7969 -11.3565 9.1448 -19.0749 27.5754
#
#
#
# Elastic Compliance Matrix: (Units=1/GPa)
#
#
# Indices 1 2 3 4 5 6 
#
# 1 0.017862 -0.000500 -0.007031 -0.002568 -0.001714 -0.001062
# 2 -0.000500 0.037269 -0.034836 0.001856 0.022001 0.043154
# 3 -0.007031 -0.034836 0.073641 0.005681 -0.047791 -0.045865
# 4 -0.002568 0.001856 0.005681 0.034946 -0.004788 -0.010816
# 5 -0.001714 0.022001 -0.047791 -0.004788 0.115186 0.086690
# 6 -0.001062 0.043154 -0.045865 -0.010816 0.086690 0.130526
#
#
# Mechanical properties :
#
#
# Convention : Reuss Voigt Hill
#
# Bulk Modulus (GPa) = 22.70888 37.03243 29.87065
# Shear Modulus (GPa) = 9.82617 25.07497 17.45057
#
# Velocity S-wave (km/s) = 2.20279 3.51886 2.93553
# Velocity P-wave (km/s) = 4.20520 5.89889 5.12253
#
# Compressibility (1/GPa) = 0.04403564
#
# Stress axis : x y z
#
# Youngs Moduli (GPa) = 55.98593 26.83212 13.57931
#
# Poissons Ratio (x) = 0.01343 0.09548
# Poissons Ratio (y) = 0.02802 0.47305
# Poissons Ratio (z) = 0.39365 0.93473
#
# Static dielectric constant tensor:
#      x y z
#    x 1.819300 -0.024460 -0.004250 
#    y -0.024460 1.727520 -0.078210 
#    z -0.004250 -0.078210 1.704230 
# 
# From -- ./inp_files/207060.got.cif
#   From: 2010.05.17/outbox.cif.g08.bks.cpg/sg2_104_cif.got.tgz:207060.got - 2010.06.03 11:33:40.
