data_PCOD9068558
_publ_section_title
;
Structure prediction by ZEFSAII (Michael W. Deem and Ramdas Pophale) SiO2 
 PCOD9068558
Probable space group: P -1
;
_chemical_formula_sum "Si O2"
_cell_formula_units_Z 14
_cell_length_a 6.611735
_cell_length_b 17.413338
_cell_length_c 12.595754
_cell_angle_alpha 144.598539
_cell_angle_beta 49.054894
_cell_angle_gamma 121.995107
_cell_volume 634.521914
_symmetry_space_group_name_H-M "P -1"
_symmetry_group_IT_number 2
_symmetry_cell_setting 'triclinic'
loop_
_space_group_symop_operation_xyz
x,y,z
-x,-y,-z
loop_
_atom_site_type_symbol
_atom_site_label
_atom_site_fract_x
_atom_site_fract_y
_atom_site_fract_z
Si Si1 0.150947 0.871821 0.759378
Si Si2 0.204017 0.341861 0.478851
Si Si3 0.146452 0.452105 0.287948
Si Si4 0.767619 0.485196 0.147702
Si Si5 0.407824 0.033098 0.450297
Si Si6 0.234491 0.765552 0.842099
Si Si7 0.142015 0.817149 0.156345
O O1 0.369824 0.905283 0.633514
O O2 0.272237 0.812414 0.760761
O O3 0.935327 0.780978 0.669619
O O4 0.000000 0.000000 0.000000
O O5 0.217362 0.376648 0.636904
O O6 0.516886 0.334421 0.331839
O O7 0.012076 0.461540 0.644646
O O8 0.459950 0.474905 0.203962
O O9 0.000000 0.500000 0.500000
O O10 0.056004 0.302054 0.135295
O O11 0.818698 0.341216 0.023849
O O12 0.000000 0.500000 0.000000
O O13 0.158748 0.134791 0.661870
O O14 0.500000 0.000000 0.500000
O O15 0.316901 0.898338 0.271466
O O16 0.223709 0.858729 0.054230
#
# Coordination Sequence:
#
# PCOD9068558 Si02
#       7
#     2   2   2   2   2   2   2
#     4  12  28  45  76 108 147 192 247 303 367 436
#     4  12  25  44  74 107 146 189 246 303 367 428
#     4  12  23  44  73 105 145 187 234 300 370 430
#     4  12  29  44  73 111 150 192 245 309 372 439
#     4  11  28  50  71 103 147 198 244 300 365 445
#     4  12  25  46  75 110 145 188 248 307 365 439
#     4  11  27  46  75 103 147 193 245 300 373 431
#
# _framework density 22.063858
#
# number of rings (size 3 to 8) (size 9 to 14) (size 15 to 20)
#    0.000    0.286    4.286    3.000   10.000    4.000 
#    0.000    0.000    0.000    0.000    0.000    0.000 
#    0.000    0.000    0.000    0.000    0.000    0.000 
#
# Total GULP energy -78134.903103 kJ/mol
# GULP energy per Si atom -5581.064507 kJ/mol
# Density = 2.201364 g / cm^3
# Si number density = 22.063858 Si / 1000 Ang^3
#
#
#
# Elastic Constant Matrix: (Units=GPa)
#
#
# Indices 1 2 3 4 5 6 
#
# 1 154.2616 72.5016 71.6763 -15.9539 9.8990 10.7357
# 2 72.5016 100.2401 48.5230 -24.1785 2.4616 4.7695
# 3 71.6763 48.5230 146.7392 -18.1982 18.0941 14.2959
# 4 -15.9539 -24.1785 -18.1982 49.3057 3.8411 -3.5807
# 5 9.8990 2.4616 18.0941 3.8411 48.9879 1.7222
# 6 10.7357 4.7695 14.2959 -3.5807 1.7222 22.0715
#
#
#
# Elastic Compliance Matrix: (Units=1/GPa)
#
#
# Indices 1 2 3 4 5 6 
#
# 1 0.011135 -0.006674 -0.003062 -0.000902 -0.000640 -0.002087
# 2 -0.006674 0.016965 -0.001915 0.005518 0.000713 0.001660
# 3 -0.003062 -0.001915 0.009902 0.001662 -0.002932 -0.004012
# 4 -0.000902 0.005518 0.001662 0.023676 -0.002643 0.002217
# 5 -0.000640 0.000713 -0.002932 -0.002643 0.021799 -0.000074
# 6 -0.002087 0.001660 -0.004012 0.002217 -0.000074 0.048928
#
#
# Mechanical properties :
#
#
# Convention : Reuss Voigt Hill
#
# Bulk Modulus (GPa) = 68.02647 87.40474 77.71561
# Shear Modulus (GPa) = 31.13200 37.97570 34.55385
#
# Velocity S-wave (km/s) = 3.76040 4.15320 3.96167
# Velocity P-wave (km/s) = 7.05356 7.91828 7.49840
#
# Compressibility (1/GPa) = 0.01470016
#
# Stress axis : x y z
#
# Youngs Moduli (GPa) = 89.80833 58.94583 100.98900
#
# Poissons Ratio (x) = 0.39341 0.30919
# Poissons Ratio (y) = 0.59938 0.19341
# Poissons Ratio (z) = 0.27495 0.11289
#
# Static dielectric constant tensor:
#      x y z
#    x 2.305740 -0.646940 0.631630 
#    y -0.646940 2.547190 -0.606790 
#    z 0.631630 -0.606790 2.365510 
# 
# From -- ./inp_files/109938.got.cif
#   From: 2010.05.17/outbox.cif.g08.bks.cpg/sg2_55_cif.got.tgz:109938.got - 2010.06.03 11:33:40.
