data_PCOD9068343
_publ_section_title
;
Structure prediction by ZEFSAII (Michael W. Deem and Ramdas Pophale) SiO2 
 PCOD9068343
Probable space group: P -1
;
_chemical_formula_sum "Si O2"
_cell_formula_units_Z 14
_cell_length_a 8.674625
_cell_length_b 9.944497
_cell_length_c 9.060409
_cell_angle_alpha 106.545382
_cell_angle_beta 65.697401
_cell_angle_gamma 71.281171
_cell_volume 590.767265
_symmetry_space_group_name_H-M "P -1"
_symmetry_group_IT_number 2
_symmetry_cell_setting 'triclinic'
loop_
_space_group_symop_operation_xyz
x,y,z
-x,-y,-z
loop_
_atom_site_type_symbol
_atom_site_label
_atom_site_fract_x
_atom_site_fract_y
_atom_site_fract_z
Si Si1 0.871644 0.937752 0.443945
Si Si2 0.102947 0.312052 0.441776
Si Si3 0.475288 0.770803 0.846510
Si Si4 0.533877 0.803561 0.177278
Si Si5 0.157958 0.081310 0.893272
Si Si6 0.164141 0.699492 0.695075
Si Si7 0.454926 0.446736 0.684780
O O1 0.934236 0.754526 0.412250
O O2 0.881204 0.948943 0.268311
O O3 0.649004 0.049312 0.621331
O O4 0.000000 0.000000 0.500000
O O5 0.328519 0.245355 0.303606
O O6 0.000000 0.500000 0.500000
O O7 0.005705 0.251866 0.340381
O O8 0.475037 0.602612 0.769413
O O9 0.303465 0.921225 0.876475
O O10 0.477600 0.804031 0.029440
O O11 0.725600 0.819258 0.122315
O O12 0.566289 0.642167 0.194657
O O13 0.954115 0.181600 0.088813
O O14 0.266798 0.520537 0.674546
O O15 0.352188 0.677598 0.522916
#
# Coordination Sequence:
#
# PCOD9068343 Si02
#       7
#     2   2   2   2   2   2   2
#     4  12  30  47  74 115 154 194 255 318 375 440
#     4  12  25  47  78 107 155 198 249 307 380 448
#     4  12  26  49  79 111 149 203 249 307 375 450
#     4  12  26  50  76 111 153 198 252 312 370 446
#     4  12  28  50  81 105 154 204 254 302 379 456
#     4  11  26  49  75 111 149 201 247 307 381 446
#     4  11  28  46  80 111 158 191 251 314 378 437
#
# _framework density 23.697996
#
# number of rings (size 3 to 8) (size 9 to 14) (size 15 to 20)
#    0.000    0.286    4.286    3.000   10.000    2.286 
#    0.000    0.000    0.000    0.000    0.000    0.000 
#    0.000    0.000    0.000    0.000    0.000    0.000 
#
# Total GULP energy -78411.225097 kJ/mol
# GULP energy per Si atom -5600.801793 kJ/mol
# Density = 2.364406 g / cm^3
# Si number density = 23.697996 Si / 1000 Ang^3
#
#
#
# Elastic Constant Matrix: (Units=GPa)
#
#
# Indices 1 2 3 4 5 6 
#
# 1 134.1015 61.8353 61.1245 -11.0379 -11.3977 -8.7818
# 2 61.8353 183.4971 63.2949 -26.7558 -2.8072 2.0691
# 3 61.1245 63.2949 155.3991 -6.7948 6.8773 -10.7701
# 4 -11.0379 -26.7558 -6.7948 41.4108 -14.8847 2.0438
# 5 -11.3977 -2.8072 6.8773 -14.8847 50.4635 -1.8738
# 6 -8.7818 2.0691 -10.7701 2.0438 -1.8738 32.7019
#
#
#
# Elastic Compliance Matrix: (Units=1/GPa)
#
#
# Indices 1 2 3 4 5 6 
#
# 1 0.010454 -0.002104 -0.003179 0.002010 0.003343 0.001959
# 2 -0.002104 0.007685 -0.002307 0.004692 0.001576 -0.002014
# 3 -0.003179 -0.002307 0.008804 -0.001909 -0.002529 0.002166
# 4 0.002010 0.004692 -0.001909 0.031115 0.010088 -0.001752
# 5 0.003343 0.001576 -0.002529 0.010088 0.024006 0.000710
# 6 0.001959 -0.002014 0.002166 -0.001752 0.000710 0.032096
#
#
# Mechanical properties :
#
#
# Convention : Reuss Voigt Hill
#
# Bulk Modulus (GPa) = 85.01267 93.94526 89.47897
# Shear Modulus (GPa) = 37.52005 44.03143 40.77574
#
# Velocity S-wave (km/s) = 3.98333 4.31516 4.15256
# Velocity P-wave (km/s) = 7.55693 8.03469 7.79947
#
# Compressibility (1/GPa) = 0.01176295
#
# Stress axis : x y z
#
# Youngs Moduli (GPa) = 95.65378 130.11679 113.58781
#
# Poissons Ratio (x) = 0.27377 0.36114
# Poissons Ratio (y) = 0.20126 0.26203
# Poissons Ratio (z) = 0.30412 0.30016
#
# Static dielectric constant tensor:
#      x y z
#    x 1.978450 0.047070 0.052040 
#    y 0.047070 1.980190 0.044610 
#    z 0.052040 0.044610 1.866190 
# 
# From -- ./inp_files/189133.got.cif
#   From: 2010.05.17/outbox.cif.g08.bks.cpg/sg2_95_cif.got.tgz:189133.got - 2010.06.03 11:33:40.
