data_PCOD9068632
_publ_section_title
;
Structure prediction by ZEFSAII (Michael W. Deem and Ramdas Pophale) SiO2 
 PCOD9068632
Probable space group: P -1
;
_chemical_formula_sum "Si O2"
_cell_formula_units_Z 15
_cell_length_a 23.807700
_cell_length_b 9.180301
_cell_length_c 5.793312
_cell_angle_alpha 100.238558
_cell_angle_beta 94.084532
_cell_angle_gamma 144.653952
_cell_volume 666.838104
_symmetry_space_group_name_H-M "P -1"
_symmetry_group_IT_number 2
_symmetry_cell_setting 'triclinic'
loop_
_space_group_symop_operation_xyz
x,y,z
-x,-y,-z
loop_
_atom_site_type_symbol
_atom_site_label
_atom_site_fract_x
_atom_site_fract_y
_atom_site_fract_z
Si Si1 0.323343 0.168942 0.864234
Si Si2 0.550171 0.067773 0.783033
Si Si3 0.483205 0.340441 0.253487
Si Si4 0.244263 0.284580 0.012217
Si Si5 0.862253 0.402770 0.627900
Si Si6 0.063801 0.886306 0.491133
Si Si7 0.000000 0.500000 0.000000
Si Si8 0.893620 0.796357 0.771009
O O1 0.407470 0.431541 0.790387
O O2 0.285462 0.210001 0.047404
O O3 0.227515 0.884721 0.615449
O O4 0.391764 0.196513 0.018900
O O5 0.500000 0.000000 0.500000
O O6 0.551204 0.893241 0.727518
O O7 0.660655 0.395395 0.913646
O O8 0.500000 0.000000 0.000000
O O9 0.500000 0.500000 0.500000
O O10 0.170502 0.097095 0.718285
O O11 0.170729 0.208244 0.146627
O O12 0.907000 0.418729 0.869376
O O13 0.829344 0.501075 0.682979
O O14 0.966178 0.651558 0.568900
O O15 0.074763 0.070529 0.430384
O O16 0.047323 0.721552 0.256562
O O17 0.000000 0.000000 0.000000
#
# Coordination Sequence:
#
# PCOD9068632 Si02
#       8
#     2   2   2   2   2   2   1   2
#     4  11  27  49  77 110 154 203 263 328 412 473
#     4  12  29  53  86 120 161 210 273 340 414 486
#     4  11  27  51  79 113 155 202 270 337 405 492
#     4  12  27  48  77 112 156 209 255 332 401 480
#     4  12  27  47  73 110 154 202 259 327 393 482
#     4  12  26  45  73 108 157 200 263 316 397 476
#     4  12  24  44  74 106 148 202 258 314 400 470
#     4  12  27  46  73 110 152 203 258 315 389 472
#
# _framework density 22.494216000000002
#
# number of rings (size 3 to 8) (size 9 to 14) (size 15 to 20)
#    0.000    0.267    5.333    1.600    9.333    2.133 
#    2.400    0.000    0.000    0.000    0.000    0.000 
#    0.000    0.000    0.000    0.000    0.000    0.000 
#
# Total GULP energy -83628.143337 kJ/mol
# GULP energy per Si atom -5575.209556 kJ/mol
# Density = 2.244302 g / cm^3
# Si number density = 22.494216 Si / 1000 Ang^3
#
#
#
# Elastic Constant Matrix: (Units=GPa)
#
#
# Indices 1 2 3 4 5 6 
#
# 1 106.6512 32.8404 36.3680 9.9610 -22.3235 -6.3877
# 2 32.8404 86.9008 64.5718 21.5275 12.0149 4.1805
# 3 36.3680 64.5718 108.6153 38.3627 -2.4223 1.3616
# 4 9.9610 21.5275 38.3627 36.3779 -3.3039 -1.6338
# 5 -22.3235 12.0149 -2.4223 -3.3039 44.3409 8.7229
# 6 -6.3877 4.1805 1.3616 -1.6338 8.7229 38.6808
#
#
#
# Elastic Compliance Matrix: (Units=1/GPa)
#
#
# Indices 1 2 3 4 5 6 
#
# 1 0.013158 -0.005249 -0.001942 0.002319 0.007892 0.001127
# 2 -0.005249 0.024616 -0.012937 -0.000423 -0.009882 -0.000861
# 3 -0.001942 -0.012937 0.023360 -0.016240 0.002803 -0.001063
# 4 0.002319 -0.000423 -0.016240 0.044627 0.003299 0.002141
# 5 0.007892 -0.009882 0.002803 0.003299 0.030480 -0.004462
# 6 0.001127 -0.000861 -0.001063 0.002141 -0.004462 0.027266
#
#
# Mechanical properties :
#
#
# Convention : Reuss Voigt Hill
#
# Bulk Modulus (GPa) = 47.89810 63.30306 55.60058
# Shear Modulus (GPa) = 23.72797 35.10572 29.41684
#
# Velocity S-wave (km/s) = 3.25137 3.95480 3.62021
# Velocity P-wave (km/s) = 5.95272 7.00407 6.49969
#
# Compressibility (1/GPa) = 0.02087765
#
# Stress axis : x y z
#
# Youngs Moduli (GPa) = 76.00143 40.62343 42.80825
#
# Poissons Ratio (x) = 0.21323 0.08315
# Poissons Ratio (y) = 0.39892 0.55381
# Poissons Ratio (z) = 0.14762 0.52554
#
# Static dielectric constant tensor:
#      x y z
#    x 2.004400 0.135620 -0.140040 
#    y 0.135620 2.051860 -0.260290 
#    z -0.140040 -0.260290 2.004020 
# 
# From -- ./inp_files/122601.got.cif
#   From: 2010.05.17/outbox.cif.g08.bks.cpg/sg2_62_cif.got.tgz:122601.got - 2010.06.03 11:33:40.
