data_PCOD9068125
_publ_section_title
;
Structure prediction by ZEFSAII (Michael W. Deem and Ramdas Pophale) SiO2 
 PCOD9068125
Probable space group: P -1
;
_chemical_formula_sum "Si O2"
_cell_formula_units_Z 11
_cell_length_a 11.931859
_cell_length_b 13.918269
_cell_length_c 11.813652
_cell_angle_alpha 21.628161
_cell_angle_beta 135.214983
_cell_angle_gamma 138.054908
_cell_volume 482.006846
_symmetry_space_group_name_H-M "P -1"
_symmetry_group_IT_number 2
_symmetry_cell_setting 'triclinic'
loop_
_space_group_symop_operation_xyz
x,y,z
-x,-y,-z
loop_
_atom_site_type_symbol
_atom_site_label
_atom_site_fract_x
_atom_site_fract_y
_atom_site_fract_z
Si Si1 0.110820 0.303291 0.786726
Si Si2 0.643083 0.856592 0.285126
Si Si3 0.777658 0.762901 0.806138
Si Si4 0.628043 0.680171 0.226511
Si Si5 0.571874 0.151259 0.270355
Si Si6 0.000000 0.000000 0.500000
O O1 0.253567 0.409563 0.676945
O O2 0.000000 0.500000 0.500000
O O3 0.178514 0.279150 0.986691
O O4 0.000000 0.000000 0.000000
O O5 0.712280 0.803968 0.269402
O O6 0.535450 0.566871 0.581101
O O7 0.803821 0.987813 0.335466
O O8 0.500000 0.000000 0.000000
O O9 0.713968 0.026123 0.472095
O O10 0.925768 0.823640 0.754961
O O11 0.638806 0.476114 0.986459
O O12 0.566168 0.896725 0.873908
O O13 0.500000 0.000000 0.500000
#
# Coordination Sequence:
#
# PCOD9068125 Si02
#       6
#     2   2   2   2   2   1
#     4  12  28  47  73 110 154 204 258 326 394 465
#     4  11  26  50  78 114 153 210 258 334 389 477
#     4  12  27  46  75 112 150 207 257 323 391 471
#     4  11  26  47  77 111 155 201 269 320 398 472
#     4  12  25  48  77 112 153 200 262 325 395 461
#     4  12  26  50  76 112 160 202 270 318 402 458
#
# _framework density 22.821252000000001
#
# number of rings (size 3 to 8) (size 9 to 14) (size 15 to 20)
#    0.000    0.364    3.636    3.818    5.091    0.727 
#    3.273    0.000    0.000    0.000    0.000    0.000 
#    0.000    0.000    0.000    0.000    0.000    0.000 
#
# Total GULP energy -61288.273434 kJ/mol
# GULP energy per Si atom -5571.661221 kJ/mol
# Density = 2.276931 g / cm^3
# Si number density = 22.821252 Si / 1000 Ang^3
#
#
#
# Elastic Constant Matrix: (Units=GPa)
#
#
# Indices 1 2 3 4 5 6 
#
# 1 142.3013 35.4059 32.2183 24.2996 -37.8366 -11.4954
# 2 35.4059 98.6165 31.0530 25.2887 -0.9681 -12.5900
# 3 32.2183 31.0530 85.1251 35.4310 5.6346 -22.4000
# 4 24.2996 25.2887 35.4310 39.2269 1.3183 -1.9885
# 5 -37.8366 -0.9681 5.6346 1.3183 52.4605 10.6884
# 6 -11.4954 -12.5900 -22.4000 -1.9885 10.6884 34.9275
#
#
#
# Elastic Compliance Matrix: (Units=1/GPa)
#
#
# Indices 1 2 3 4 5 6 
#
# 1 0.010984 -0.002413 -0.003349 -0.002631 0.008758 -0.002233
# 2 -0.002413 0.013261 0.000355 -0.007070 -0.002275 0.004507
# 3 -0.003349 0.000355 0.026970 -0.021338 -0.008369 0.017669
# 4 -0.002631 -0.007070 -0.021338 0.050131 0.002033 -0.014867
# 5 0.008758 -0.002275 -0.008369 0.002033 0.028618 -0.011947
# 6 -0.002233 0.004507 0.017669 -0.014867 -0.011947 0.043661
#
#
# Mechanical properties :
#
#
# Convention : Reuss Voigt Hill
#
# Bulk Modulus (GPa) = 24.75234 58.15526 41.45380
# Shear Modulus (GPa) = 25.26448 40.48070 32.87259
#
# Velocity S-wave (km/s) = 3.33086 4.21624 3.79943
# Velocity P-wave (km/s) = 5.06582 7.01716 6.11976
#
# Compressibility (1/GPa) = 0.04040022
#
# Stress axis : x y z
#
# Youngs Moduli (GPa) = 91.04528 75.40932 37.07839
#
# Poissons Ratio (x) = 0.18198 0.12417
# Poissons Ratio (y) = 0.21972 -0.01317
# Poissons Ratio (z) = 0.30491 -0.02678
#
# Static dielectric constant tensor:
#      x y z
#    x 1.873300 -0.031730 0.014730 
#    y -0.031730 1.914150 0.015100 
#    z 0.014730 0.015100 1.874990 
# 
# From -- ./inp_files/21076.got.cif
#   From: 2010.05.17/outbox.cif.g08.bks.cpg/sg2_11_cif.got.tgz:21076.got - 2010.06.03 11:33:40.
