data_PCOD9068244
_publ_section_title
;
Structure prediction by ZEFSAII (Michael W. Deem and Ramdas Pophale) SiO2 
 PCOD9068244
Probable space group: P -1
;
_chemical_formula_sum "Si O2"
_cell_formula_units_Z 15
_cell_length_a 10.028163
_cell_length_b 5.326422
_cell_length_c 18.212287
_cell_angle_alpha 128.172303
_cell_angle_beta 131.959195
_cell_angle_gamma 70.080525
_cell_volume 564.306010
_symmetry_space_group_name_H-M "P -1"
_symmetry_group_IT_number 2
_symmetry_cell_setting 'triclinic'
loop_
_space_group_symop_operation_xyz
x,y,z
-x,-y,-z
loop_
_atom_site_type_symbol
_atom_site_label
_atom_site_fract_x
_atom_site_fract_y
_atom_site_fract_z
Si Si1 0.501413 0.384466 0.062341
Si Si2 0.123255 0.328781 0.677501
Si Si3 0.309457 0.762595 0.609729
Si Si4 0.538184 0.992844 0.599641
Si Si5 0.119828 0.266340 0.263637
Si Si6 0.323331 0.271535 0.189451
Si Si7 0.140880 0.279710 0.980450
Si Si8 0.000000 0.500000 0.500000
O O1 0.679549 0.538242 0.197225
O O2 0.316101 0.473184 0.044352
O O3 0.500000 0.500000 0.000000
O O4 0.500000 0.000000 0.000000
O O5 0.971118 0.420248 0.692979
O O6 0.088954 0.484918 0.615448
O O7 0.136180 0.943109 0.606130
O O8 0.485946 0.840103 0.738104
O O9 0.201482 0.418105 0.522473
O O10 0.375925 0.865571 0.572342
O O11 0.619044 0.342815 0.723576
O O12 0.500000 0.000000 0.500000
O O13 0.698779 0.776185 0.634103
O O14 0.181613 0.237798 0.197309
O O15 0.959930 0.971682 0.159128
O O16 0.229152 0.125859 0.055597
O O17 0.000000 0.500000 0.000000
#
# Coordination Sequence:
#
# PCOD9068244 Si02
#       8
#     2   2   2   2   2   2   2   1
#     4  12  30  52  80 120 165 214 268 339 414 487
#     4  12  29  48  78 114 161 208 266 334 413 483
#     4  11  27  49  74 113 147 210 252 330 401 486
#     4  11  26  48  77 108 152 199 258 320 397 472
#     4  11  27  46  77 114 147 203 261 326 394 482
#     4  11  26  48  78 109 154 200 260 327 401 476
#     4  12  25  49  78 116 150 208 266 331 398 487
#     4  12  28  50  78 110 154 202 272 324 404 488
#
# _framework density 26.581320000000002
#
# number of rings (size 3 to 8) (size 9 to 14) (size 15 to 20)
#    0.000    0.533    2.667    3.200   13.067    2.133 
#    0.000    0.000    0.000    0.000    0.000    0.000 
#    0.000    0.000    0.000    0.000    0.000    0.000 
#
# Total GULP energy -83949.341031 kJ/mol
# GULP energy per Si atom -5596.622735 kJ/mol
# Density = 2.652082 g / cm^3
# Si number density = 26.581320 Si / 1000 Ang^3
#
#
#
# Elastic Constant Matrix: (Units=GPa)
#
#
# Indices 1 2 3 4 5 6 
#
# 1 173.7413 29.4708 46.8983 -39.4149 16.9687 -13.7661
# 2 29.4708 107.9348 37.9191 -15.5178 -1.5636 -19.9044
# 3 46.8983 37.9191 147.6267 -25.8498 16.0979 2.0570
# 4 -39.4149 -15.5178 -25.8498 51.4467 9.0299 -7.2923
# 5 16.9687 -1.5636 16.0979 9.0299 49.4105 -7.1351
# 6 -13.7661 -19.9044 2.0570 -7.2923 -7.1351 53.7584
#
#
#
# Elastic Compliance Matrix: (Units=1/GPa)
#
#
# Indices 1 2 3 4 5 6 
#
# 1 0.008085 -0.000558 -0.000965 0.006455 -0.003322 0.002335
# 2 -0.000558 0.011561 -0.002684 0.002080 0.001738 0.004753
# 3 -0.000965 -0.002684 0.008726 0.003209 -0.003413 -0.001592
# 4 0.006455 0.002080 0.003209 0.028706 -0.007696 0.005173
# 5 -0.003322 0.001738 -0.003413 -0.007696 0.024256 0.002099
# 6 0.002335 0.004753 -0.001592 0.005173 0.002099 0.022001
#
#
# Mechanical properties :
#
#
# Convention : Reuss Voigt Hill
#
# Bulk Modulus (GPa) = 50.10552 73.09770 61.60161
# Shear Modulus (GPa) = 42.22947 51.92408 47.07678
#
# Velocity S-wave (km/s) = 3.99016 4.42453 4.21295
# Velocity P-wave (km/s) = 6.33398 7.32539 6.84765
#
# Compressibility (1/GPa) = 0.01995788
#
# Stress axis : x y z
#
# Youngs Moduli (GPa) = 123.69113 86.49948 114.59989
#
# Poissons Ratio (x) = 0.04826 0.11060
# Poissons Ratio (y) = 0.06900 0.30757
# Poissons Ratio (z) = 0.11937 0.23215
#
# Static dielectric constant tensor:
#      x y z
#    x 3.349150 2.523380 1.171740 
#    y 2.523380 7.309900 2.466500 
#    z 1.171740 2.466500 3.021980 
# 
# From -- ./inp_files/53258.got.cif
#   From: 2010.05.17/outbox.cif.g08.bks.cpg/sg2_27_cif.got.tgz:53258.got - 2010.06.03 11:33:40.
