data_PCOD9068230
_publ_section_title
;
Structure prediction by ZEFSAII (Michael W. Deem and Ramdas Pophale) SiO2 
 PCOD9068230
Probable space group: P -1
;
_chemical_formula_sum "Si O2"
_cell_formula_units_Z 12
_cell_length_a 8.924959
_cell_length_b 7.510458
_cell_length_c 10.448574
_cell_angle_alpha 42.669768
_cell_angle_beta 80.989764
_cell_angle_gamma 92.903274
_cell_volume 454.227331
_symmetry_space_group_name_H-M "P -1"
_symmetry_group_IT_number 2
_symmetry_cell_setting 'triclinic'
loop_
_space_group_symop_operation_xyz
x,y,z
-x,-y,-z
loop_
_atom_site_type_symbol
_atom_site_label
_atom_site_fract_x
_atom_site_fract_y
_atom_site_fract_z
Si Si1 0.281839 0.539257 0.735417
Si Si2 0.681696 0.650606 0.912655
Si Si3 0.984390 0.731556 0.279349
Si Si4 0.409572 0.261226 0.546523
Si Si5 0.174516 0.815799 0.953357
Si Si6 0.822346 0.962275 0.506000
O O1 0.176488 0.401954 0.705036
O O2 0.451376 0.723046 0.580832
O O3 0.194647 0.751065 0.696232
O O4 0.297518 0.321374 0.953728
O O5 0.728503 0.911690 0.679663
O O6 0.500000 0.500000 0.000000
O O7 0.798925 0.473368 0.938392
O O8 0.000000 0.500000 0.500000
O O9 0.952988 0.023961 0.170117
O O10 0.119879 0.782781 0.126416
O O11 0.500000 0.500000 0.500000
O O12 0.264773 0.259260 0.469356
O O13 0.340272 0.012830 0.782447
O O14 0.000000 0.000000 0.500000
#
# Coordination Sequence:
#
# PCOD9068230 Si02
#       6
#     2   2   2   2   2   2
#     4  12  26  47  76 111 155 196 263 319 378 473
#     4  12  26  47  78 112 151 205 260 315 394 451
#     4  11  28  49  77 114 156 206 255 322 396 458
#     4  12  25  50  74 108 157 201 249 321 385 453
#     4  11  26  48  76 109 156 200 263 315 383 472
#     4  12  28  46  78 112 151 202 256 317 387 459
#
# _framework density 26.418491
#
# number of rings (size 3 to 8) (size 9 to 14) (size 15 to 20)
#    0.000    0.333    5.000    2.500    7.000    2.667 
#    0.000    4.167    0.000    0.000    0.000    0.000 
#    0.000    0.000    0.000    0.000    0.000    0.000 
#
# Total GULP energy -67053.858109 kJ/mol
# GULP energy per Si atom -5587.821509 kJ/mol
# Density = 2.635836 g / cm^3
# Si number density = 26.418491 Si / 1000 Ang^3
#
#
#
# Elastic Constant Matrix: (Units=GPa)
#
#
# Indices 1 2 3 4 5 6 
#
# 1 157.6851 50.3912 52.4112 18.3071 -13.2726 27.3390
# 2 50.3912 86.5350 2.7716 -1.7317 15.0627 13.6207
# 3 52.4112 2.7716 170.4881 33.3987 -3.1716 16.2642
# 4 18.3071 -1.7317 33.3987 43.5170 -1.1521 2.5179
# 5 -13.2726 15.0627 -3.1716 -1.1521 66.1661 2.7856
# 6 27.3390 13.6207 16.2642 2.5179 2.7856 59.6005
#
#
#
# Elastic Compliance Matrix: (Units=1/GPa)
#
#
# Indices 1 2 3 4 5 6 
#
# 1 0.010009 -0.005967 -0.002163 -0.002544 0.003331 -0.002685
# 2 -0.005967 0.016033 0.001163 0.002196 -0.004706 -0.001117
# 3 -0.002163 0.001163 0.007548 -0.004782 -0.000373 -0.001114
# 4 -0.002544 0.002196 -0.004782 0.027738 -0.000792 0.000835
# 5 0.003331 -0.004706 -0.000373 -0.000792 0.016868 -0.001106
# 6 -0.002685 -0.001117 -0.001114 0.000835 -0.001106 0.018586
#
#
# Mechanical properties :
#
#
# Convention : Reuss Voigt Hill
#
# Bulk Modulus (GPa) = 50.88247 69.53956 60.21102
# Shear Modulus (GPa) = 42.63722 54.46567 48.55145
#
# Velocity S-wave (km/s) = 4.02172 4.54547 4.29159
# Velocity P-wave (km/s) = 6.39278 7.34355 6.88460
#
# Compressibility (1/GPa) = 0.01965313
#
# Stress axis : x y z
#
# Youngs Moduli (GPa) = 99.90830 62.37300 132.48990
#
# Poissons Ratio (x) = 0.37220 0.28663
# Poissons Ratio (y) = 0.59619 -0.15404
# Poissons Ratio (z) = 0.21614 -0.07252
#
# Static dielectric constant tensor:
#      x y z
#    x 2.050740 -0.052300 -0.013880 
#    y -0.052300 2.278090 0.033500 
#    z -0.013880 0.033500 2.085860 
# 
# From -- ./inp_files/373297.got.cif
#   From: 2010.05.17/outbox.cif.g08.bks.cpg/sg2_187_cif.got.tgz:373297.got - 2010.06.03 11:33:40.
