data_PCOD9068806
_publ_section_title
;
Structure prediction by ZEFSAII (Michael W. Deem and Ramdas Pophale) SiO2 
 PCOD9068806
Probable space group: P -1
;
_chemical_formula_sum "Si O2"
_cell_formula_units_Z 16
_cell_length_a 10.566316
_cell_length_b 9.828836
_cell_length_c 10.052571
_cell_angle_alpha 135.142453
_cell_angle_beta 85.321855
_cell_angle_gamma 92.943270
_cell_volume 733.901473
_symmetry_space_group_name_H-M "P -1"
_symmetry_group_IT_number 2
_symmetry_cell_setting 'triclinic'
loop_
_space_group_symop_operation_xyz
x,y,z
-x,-y,-z
loop_
_atom_site_type_symbol
_atom_site_label
_atom_site_fract_x
_atom_site_fract_y
_atom_site_fract_z
Si Si1 0.538381 0.367895 0.029395
Si Si2 0.706103 0.786230 0.118377
Si Si3 0.889686 0.467020 0.771083
Si Si4 0.073986 0.818566 0.934142
Si Si5 0.632265 0.908587 0.485079
Si Si6 0.807117 0.203082 0.816929
Si Si7 0.510049 0.366909 0.533027
Si Si8 0.790233 0.205404 0.363243
O O1 0.506844 0.490371 0.244394
O O2 0.500000 0.500000 0.000000
O O3 0.437629 0.193245 0.911269
O O4 0.684278 0.312738 0.964272
O O5 0.689275 0.774933 0.271015
O O6 0.791083 0.974100 0.219658
O O7 0.767743 0.602193 0.913147
O O8 0.900219 0.334198 0.810459
O O9 0.870271 0.328147 0.548739
O O10 0.995159 0.625405 0.839703
O O11 0.173259 0.757603 0.767467
O O12 0.126728 0.884228 0.118850
O O13 0.000000 0.000000 0.000000
O O14 0.595634 0.792613 0.539822
O O15 0.500000 0.000000 0.500000
O O16 0.738060 0.061647 0.620882
O O17 0.500000 0.500000 0.500000
O O18 0.646373 0.266040 0.449479
#
# Coordination Sequence:
#
# PCOD9068806 Si02
#       8
#     2   2   2   2   2   2   2   2
#     4  12  20  39  71 106 142 180 223 287 364 433
#     4  12  22  40  76 106 139 179 236 286 360 427
#     4  12  24  48  76  98 135 194 247 293 351 413
#     4  12  29  49  69 101 147 194 248 297 348 412
#     4  12  21  41  70 109 142 181 229 289 358 436
#     4  12  24  44  75 108 143 189 238 298 352 426
#     4  12  24  38  65 110 148 180 226 286 363 438
#     4  12  24  46  72 100 138 193 233 296 361 411
#
# _framework density 21.801290999999999
#
# number of rings (size 3 to 8) (size 9 to 14) (size 15 to 20)
#    0.000    0.000    8.750    1.500    0.000    2.000 
#    0.000    7.500    0.000    0.000    0.000    0.000 
#    0.000    0.000    0.000    0.000    0.000    0.000 
#
# Total GULP energy -89368.266847 kJ/mol
# GULP energy per Si atom -5585.516678 kJ/mol
# Density = 2.175167 g / cm^3
# Si number density = 21.801291 Si / 1000 Ang^3
#
#
#
# Elastic Constant Matrix: (Units=GPa)
#
#
# Indices 1 2 3 4 5 6 
#
# 1 34.1027 26.8600 3.7526 -3.2409 13.4484 15.8004
# 2 26.8600 130.1854 30.2743 -19.5375 15.5752 15.2687
# 3 3.7526 30.2743 109.2834 -4.1365 8.4341 9.6970
# 4 -3.2409 -19.5375 -4.1365 39.4838 8.1794 -1.4702
# 5 13.4484 15.5752 8.4341 8.1794 31.1424 -6.7484
# 6 15.8004 15.2687 9.6970 -1.4702 -6.7484 43.3234
#
#
#
# Elastic Compliance Matrix: (Units=1/GPa)
#
#
# Indices 1 2 3 4 5 6 
#
# 1 0.057030 -0.004993 0.004278 0.008112 -0.030731 -0.024509
# 2 -0.004993 0.010831 -0.002077 0.005612 -0.004619 -0.002060
# 3 0.004278 -0.002077 0.010335 0.001251 -0.004769 -0.003842
# 4 0.008112 0.005612 0.001251 0.032075 -0.016525 -0.006702
# 5 -0.030731 -0.004619 -0.004769 -0.016525 0.058178 0.022404
# 6 -0.024509 -0.002060 -0.003842 -0.006702 0.022404 0.036869
#
#
# Mechanical properties :
#
#
# Convention : Reuss Voigt Hill
#
# Bulk Modulus (GPa) = 13.77172 43.92725 28.84948
# Shear Modulus (GPa) = 21.26701 36.96889 29.11795
#
# Velocity S-wave (km/s) = 3.12668 4.12238 3.65856
# Velocity P-wave (km/s) = 4.40062 6.54609 5.57749
#
# Compressibility (1/GPa) = 0.07261257
#
# Stress axis : x y z
#
# Youngs Moduli (GPa) = 17.53466 92.32751 96.75516
#
# Poissons Ratio (x) = 0.46098 -0.41395
# Poissons Ratio (y) = 0.08755 0.20099
# Poissons Ratio (z) = -0.07502 0.19179
#
# Static dielectric constant tensor:
#      x y z
#    x 1.895450 -0.032390 0.018630 
#    y -0.032390 1.891110 0.037190 
#    z 0.018630 0.037190 1.804650 
# 
# From -- ./inp_files/245878.got.cif
#   From: 2010.05.17/outbox.cif.g08.bks.cpg/sg2_123_cif.got.tgz:245878.got - 2010.06.03 11:33:40.
