data_PCOD9068600
_publ_section_title
;
Structure prediction by ZEFSAII (Michael W. Deem and Ramdas Pophale) SiO2 
 PCOD9068600
Probable space group: P -1
;
_chemical_formula_sum "Si O2"
_cell_formula_units_Z 9
_cell_length_a 9.002023
_cell_length_b 9.626650
_cell_length_c 4.760931
_cell_angle_alpha 79.532858
_cell_angle_beta 58.335631
_cell_angle_gamma 74.456527
_cell_volume 337.895500
_symmetry_space_group_name_H-M "P -1"
_symmetry_group_IT_number 2
_symmetry_cell_setting 'triclinic'
loop_
_space_group_symop_operation_xyz
x,y,z
-x,-y,-z
loop_
_atom_site_type_symbol
_atom_site_label
_atom_site_fract_x
_atom_site_fract_y
_atom_site_fract_z
Si Si1 0.751134 0.354113 0.459363
Si Si2 0.000000 0.500000 0.500000
Si Si3 0.642510 0.618596 0.045868
Si Si4 0.334198 0.081904 0.815855
Si Si5 0.171778 0.970894 0.534672
O O1 0.925191 0.374975 0.446573
O O2 0.716602 0.474559 0.207541
O O3 0.566438 0.371077 0.812009
O O4 0.784201 0.195085 0.355078
O O5 0.791583 0.598907 0.664383
O O6 0.653203 0.758372 0.167098
O O7 0.500000 0.000000 0.500000
O O8 0.173180 0.072806 0.763382
O O9 0.314477 0.997056 0.151121
O O10 0.000000 0.000000 0.500000
#
# Coordination Sequence:
#
# PCOD9068600 Si02
#       5
#     2   1   2   2   2
#     4  11  27  48  77 112 155 207 261 322 392 468
#     4  12  26  44  78 110 154 196 266 314 394 450
#     4  11  27  50  77 112 155 208 259 326 388 476
#     4  12  27  51  80 113 159 203 262 321 402 461
#     4  12  28  50  80 117 157 205 262 327 391 472
#
# _framework density 26.635453999999999
#
# number of rings (size 3 to 8) (size 9 to 14) (size 15 to 20)
#    0.000    0.444    2.222    4.000    9.333    0.000 
#    0.000    0.000    0.000    0.000    0.000    0.000 
#    0.000    0.000    0.000    0.000    0.000    0.000 
#
# Total GULP energy -50220.853068 kJ/mol
# GULP energy per Si atom -5580.094785 kJ/mol
# Density = 2.657483 g / cm^3
# Si number density = 26.635454 Si / 1000 Ang^3
#
#
#
# Elastic Constant Matrix: (Units=GPa)
#
#
# Indices 1 2 3 4 5 6 
#
# 1 134.8668 14.6616 14.2237 -21.5318 -13.0156 27.6832
# 2 14.6616 168.9772 35.2893 -27.3927 19.5150 3.1870
# 3 14.2237 35.2893 60.3099 4.5503 15.2648 1.2416
# 4 -21.5318 -27.3927 4.5503 38.7960 1.2892 -5.4854
# 5 -13.0156 19.5150 15.2648 1.2892 46.4088 5.8060
# 6 27.6832 3.1870 1.2416 -5.4854 5.8060 46.7660
#
#
#
# Elastic Compliance Matrix: (Units=1/GPa)
#
#
# Indices 1 2 3 4 5 6 
#
# 1 0.010381 0.000449 -0.004197 0.005567 0.004699 -0.005995
# 2 0.000449 0.008222 -0.004943 0.006746 -0.001935 0.000337
# 3 -0.004197 -0.004943 0.022692 -0.007964 -0.006604 0.002104
# 4 0.005567 0.006746 -0.007964 0.034619 0.000323 0.000477
# 5 0.004699 -0.001935 -0.006604 0.000323 0.026560 -0.005734
# 6 -0.005995 0.000337 0.002104 0.000477 -0.005734 0.025621
#
#
# Mechanical properties :
#
#
# Convention : Reuss Voigt Hill
#
# Bulk Modulus (GPa) = 41.81726 54.72255 48.26991
# Shear Modulus (GPa) = 32.58430 46.39277 39.48853
#
# Velocity S-wave (km/s) = 3.50143 4.17798 3.85457
# Velocity P-wave (km/s) = 5.66397 6.62296 6.16215
#
# Compressibility (1/GPa) = 0.02391357
#
# Stress axis : x y z
#
# Youngs Moduli (GPa) = 96.32757 121.62433 44.06825
#
# Poissons Ratio (x) = -0.05455 0.18494
# Poissons Ratio (y) = -0.04321 0.21782
# Poissons Ratio (z) = 0.40425 0.60117
#
# Static dielectric constant tensor:
#      x y z
#    x 2.127110 0.036560 -0.133100 
#    y 0.036560 2.034070 -0.031960 
#    z -0.133100 -0.031960 2.312040 
# 
# From -- ./inp_files/16594.got.cif
#   From: 2010.05.17/outbox.cif.g08.bks.cpg/sg2_9_cif.got.tgz:16594.got - 2010.06.03 11:33:40.
