data_PCOD9068766
_publ_section_title
;
Structure prediction by ZEFSAII (Michael W. Deem and Ramdas Pophale) SiO2 
 PCOD9068766
Probable space group: P -1
;
_chemical_formula_sum "Si O2"
_cell_formula_units_Z 9
_cell_length_a 15.087493
_cell_length_b 8.268876
_cell_length_c 4.413548
_cell_angle_alpha 90.000336
_cell_angle_beta 96.797527
_cell_angle_gamma 145.294675
_cell_volume 306.648811
_symmetry_space_group_name_H-M "P -1"
_symmetry_group_IT_number 2
_symmetry_cell_setting 'triclinic'
loop_
_space_group_symop_operation_xyz
x,y,z
-x,-y,-z
loop_
_atom_site_type_symbol
_atom_site_label
_atom_site_fract_x
_atom_site_fract_y
_atom_site_fract_z
Si Si1 0.000000 0.000000 0.500000
Si Si2 0.807799 0.539411 0.891035
Si Si3 0.484932 0.727399 0.988626
Si Si4 0.711275 0.066913 0.580378
Si Si5 0.807797 0.883984 0.891044
O O1 0.077806 0.261352 0.777433
O O2 0.077798 0.972050 0.777433
O O3 0.630922 0.592305 0.960766
O O4 0.630920 0.300456 0.960748
O O5 0.800321 0.361345 0.716532
O O6 0.658427 0.987641 0.212528
O O7 0.173841 0.260759 0.304568
O O8 0.533972 0.800959 0.660339
O O9 0.800317 0.039608 0.716531
#
# Coordination Sequence:
#
# PCOD9068766 Si02
#       5
#     1   2   2   2   2
#     4   6  16  38  48  86  98 148 180 218 260 308
#     4   8  19  33  56  78 112 139 179 221 257 323
#     4   9  22  33  56  83 112 133 178 218 270 315
#     4  12  18  37  56  83 106 144 170 222 272 312
#     4   8  19  33  56  78 112 139 179 221 257 323
#
# _framework density 29.349537000000002
#
# number of rings (size 3 to 8) (size 9 to 14) (size 15 to 20)
#    2.667    0.000    0.000    2.667    0.000    0.889 
#    0.000    0.000    0.000   50.667    0.000    0.000 
#    0.000    0.000    0.000    0.000    0.000    0.000 
#
# Total GULP energy -50308.520445 kJ/mol
# GULP energy per Si atom -5589.835605 kJ/mol
# Density = 2.928274 g / cm^3
# Si number density = 29.349537 Si / 1000 Ang^3
#
#
#
# Elastic Constant Matrix: (Units=GPa)
#
#
# Indices 1 2 3 4 5 6 
#
# 1 189.8237 66.7038 74.6250 14.1522 11.3426 -28.1432
# 2 66.7038 140.2092 58.4340 8.4296 0.2119 -26.6456
# 3 74.6250 58.4340 236.9573 17.4977 14.6397 -17.1578
# 4 14.1522 8.4296 17.4977 66.9518 9.1933 -8.9913
# 5 11.3426 0.2119 14.6397 9.1933 58.7330 -3.9124
# 6 -28.1432 -26.6456 -17.1578 -8.9913 -3.9124 48.4404
#
#
#
# Elastic Compliance Matrix: (Units=1/GPa)
#
#
# Indices 1 2 3 4 5 6 
#
# 1 0.007038 -0.002323 -0.001406 -0.000428 -0.000789 0.002170
# 2 -0.002323 0.009482 -0.001419 -0.000007 0.000998 0.003443
# 3 -0.001406 -0.001419 0.005123 -0.000740 -0.000884 0.000008
# 4 -0.000428 -0.000007 -0.000740 0.015806 -0.002057 0.002253
# 5 -0.000789 0.000998 -0.000884 -0.002057 0.017773 0.000832
# 6 0.002170 0.003443 0.000008 0.002253 0.000832 0.024287
#
#
# Mechanical properties :
#
#
# Convention : Reuss Voigt Hill
#
# Bulk Modulus (GPa) = 88.12811 107.39063 97.75937
# Shear Modulus (GPa) = 53.42731 59.30686 56.36708
#
# Velocity S-wave (km/s) = 4.27122 4.50011 4.38716
# Velocity P-wave (km/s) = 7.37677 7.97941 7.68400
#
# Compressibility (1/GPa) = 0.01134712
#
# Stress axis : x y z
#
# Youngs Moduli (GPa) = 142.08874 105.46638 195.20917
#
# Poissons Ratio (x) = 0.24499 0.27449
# Poissons Ratio (y) = 0.33006 0.27691
# Poissons Ratio (z) = 0.19980 0.14961
#
# Static dielectric constant tensor:
#      x y z
#    x 2.437380 0.280220 -0.078790 
#    y 0.280220 2.687080 -0.102550 
#    z -0.078790 -0.102550 2.091920 
# 
# From -- ./inp_files/86644.got.cif
#   From: 2010.05.17/outbox.cif.g08.bks.cpg/sg2_44_cif.got.tgz:86644.got - 2010.06.03 11:33:40.
