data_PCOD9068314
_publ_section_title
;
Structure prediction by ZEFSAII (Michael W. Deem and Ramdas Pophale) SiO2 
 PCOD9068314
Probable space group: P -1
;
_chemical_formula_sum "Si O2"
_cell_formula_units_Z 13
_cell_length_a 5.430180
_cell_length_b 17.884174
_cell_length_c 9.439154
_cell_angle_alpha 131.702465
_cell_angle_beta 63.973893
_cell_angle_gamma 132.718209
_cell_volume 502.696528
_symmetry_space_group_name_H-M "P -1"
_symmetry_group_IT_number 2
_symmetry_cell_setting 'triclinic'
loop_
_space_group_symop_operation_xyz
x,y,z
-x,-y,-z
loop_
_atom_site_type_symbol
_atom_site_label
_atom_site_fract_x
_atom_site_fract_y
_atom_site_fract_z
Si Si1 0.390443 0.166652 0.957220
Si Si2 0.211591 0.128636 0.522973
Si Si3 0.651741 0.019543 0.832825
Si Si4 0.311540 0.261556 0.392956
Si Si5 0.807523 0.531731 0.291275
Si Si6 0.433508 0.650471 0.085215
Si Si7 0.000000 0.500000 0.500000
O O1 0.294500 0.200019 0.171159
O O2 0.562727 0.098290 0.864365
O O3 0.630718 0.281946 0.938631
O O4 0.043044 0.086562 0.858440
O O5 0.118512 0.161768 0.440635
O O6 0.301371 0.238924 0.741770
O O7 0.490594 0.109557 0.369750
O O8 0.000000 0.000000 0.500000
O O9 0.500000 0.000000 0.000000
O O10 0.194635 0.351222 0.541101
O O11 0.710659 0.357824 0.447846
O O12 0.133946 0.568540 0.167165
O O13 0.790455 0.473986 0.372431
O O14 0.503659 0.434525 0.136425
#
# Coordination Sequence:
#
# PCOD9068314 Si02
#       7
#     2   2   2   2   2   2   1
#     4  12  28  48  81 112 159 208 266 326 399 469
#     4  12  27  50  76 114 160 207 262 326 402 472
#     4  12  28  49  76 116 156 211 266 325 389 480
#     4  12  28  47  81 113 151 213 264 330 394 487
#     4  11  27  48  77 111 155 200 269 325 403 467
#     4  11  26  49  72 117 155 206 256 333 398 473
#     4  12  24  50  74 112 150 204 262 326 390 476
#
# _framework density 25.860534000000001
#
# number of rings (size 3 to 8) (size 9 to 14) (size 15 to 20)
#    0.000    0.308    6.154    0.923    6.462    1.231 
#    0.000    0.000    0.000    0.000    0.000    0.000 
#    0.000    0.000    0.000    0.000    0.000    0.000 
#
# Total GULP energy -72378.894443 kJ/mol
# GULP energy per Si atom -5567.607265 kJ/mol
# Density = 2.580167 g / cm^3
# Si number density = 25.860534 Si / 1000 Ang^3
#
#
#
# Elastic Constant Matrix: (Units=GPa)
#
#
# Indices 1 2 3 4 5 6 
#
# 1 104.8685 42.2860 58.8818 10.2342 4.1200 -31.1100
# 2 42.2860 150.8358 33.4017 -10.2461 15.3198 -32.3655
# 3 58.8818 33.4017 185.1496 3.7611 18.1731 -17.6296
# 4 10.2342 -10.2461 3.7611 47.0419 -8.0896 12.7785
# 5 4.1200 15.3198 18.1731 -8.0896 29.3407 10.9466
# 6 -31.1100 -32.3655 -17.6296 12.7785 10.9466 51.0535
#
#
#
# Elastic Compliance Matrix: (Units=1/GPa)
#
#
# Indices 1 2 3 4 5 6 
#
# 1 0.016034 -0.001388 -0.003089 -0.007506 -0.005764 0.010938
# 2 -0.001388 0.009147 0.000197 -0.000870 -0.007497 0.006846
# 3 -0.003089 0.000197 0.007093 -0.001335 -0.005232 0.002148
# 4 -0.007506 -0.000870 -0.001335 0.030288 0.016955 -0.016803
# 5 -0.005764 -0.007497 -0.005232 0.016955 0.056589 -0.026448
# 6 0.010938 0.006846 0.002148 -0.016803 -0.026448 0.041211
#
#
# Mechanical properties :
#
#
# Convention : Reuss Voigt Hill
#
# Bulk Modulus (GPa) = 42.17232 78.88808 60.53020
# Shear Modulus (GPa) = 28.27642 45.90619 37.09131
#
# Velocity S-wave (km/s) = 3.31028 4.21782 3.79130
# Velocity P-wave (km/s) = 5.56359 7.36827 6.52859
#
# Compressibility (1/GPa) = 0.02371224
#
# Stress axis : x y z
#
# Youngs Moduli (GPa) = 62.36824 109.33095 140.98316
#
# Poissons Ratio (x) = 0.15180 0.43549
# Poissons Ratio (y) = 0.08659 -0.02774
# Poissons Ratio (z) = 0.19265 -0.02151
#
# Static dielectric constant tensor:
#      x y z
#    x 2.078450 0.127380 0.023260 
#    y 0.127380 2.105400 0.079780 
#    z 0.023260 0.079780 2.213480 
# 
# From -- ./inp_files/138168.got.cif
#   From: 2010.05.17/outbox.cif.g08.bks.cpg/sg2_70_cif.got.tgz:138168.got - 2010.06.03 11:33:40.
