data_PCOD9068667
_publ_section_title
;
Structure prediction by ZEFSAII (Michael W. Deem and Ramdas Pophale) SiO2 
 PCOD9068667
Probable space group: P -1
;
_chemical_formula_sum "Si O2"
_cell_formula_units_Z 12
_cell_length_a 12.696606
_cell_length_b 4.989622
_cell_length_c 8.677352
_cell_angle_alpha 75.311757
_cell_angle_beta 118.494515
_cell_angle_gamma 112.331127
_cell_volume 445.126057
_symmetry_space_group_name_H-M "P -1"
_symmetry_group_IT_number 2
_symmetry_cell_setting 'triclinic'
loop_
_space_group_symop_operation_xyz
x,y,z
-x,-y,-z
loop_
_atom_site_type_symbol
_atom_site_label
_atom_site_fract_x
_atom_site_fract_y
_atom_site_fract_z
Si Si1 0.899770 0.476304 0.564761
Si Si2 0.523510 0.887057 0.362150
Si Si3 0.319965 0.660481 0.802640
Si Si4 0.949831 0.923038 0.779195
Si Si5 0.245724 0.018700 0.969138
Si Si6 0.689196 0.706868 0.719947
O O1 0.767972 0.375553 0.403612
O O2 0.923569 0.787426 0.611505
O O3 0.000000 0.500000 0.500000
O O4 0.923164 0.231452 0.728810
O O5 0.647341 0.790623 0.510829
O O6 0.416754 0.595650 0.279252
O O7 0.500000 0.000000 0.500000
O O8 0.553852 0.115877 0.210356
O O9 0.309099 0.335770 0.891444
O O10 0.267370 0.795332 0.891835
O O11 0.832614 0.695268 0.818630
O O12 0.095405 0.956566 0.900689
O O13 0.305896 0.059820 0.175848
#
# Coordination Sequence:
#
# PCOD9068667 Si02
#       6
#     2   2   2   2   2   2
#     4  12  21  39  68 104 141 181 233 276 341 422
#     4  11  27  51  74  97 136 196 245 283 341 426
#     4  12  26  45  75 104 142 186 235 292 348 414
#     4  12  23  43  72 105 143 185 228 287 349 424
#     4  12  27  45  71 114 144 177 229 297 365 407
#     4  11  28  46  72 103 143 189 234 289 351 420
#
# _framework density 26.958653999999999
#
# number of rings (size 3 to 8) (size 9 to 14) (size 15 to 20)
#    0.000    0.333    5.000    3.000    7.000    1.333 
#    0.000    3.333    0.000    0.000    0.000    0.000 
#    0.000    0.000    0.000    0.000    0.000    0.000 
#
# Total GULP energy -67206.955447 kJ/mol
# GULP energy per Si atom -5600.579621 kJ/mol
# Density = 2.689730 g / cm^3
# Si number density = 26.958654 Si / 1000 Ang^3
#
#
#
# Elastic Constant Matrix: (Units=GPa)
#
#
# Indices 1 2 3 4 5 6 
#
# 1 108.7441 18.5608 36.2715 9.4580 -3.0826 15.6500
# 2 18.5608 111.2009 41.6419 10.1631 4.0300 10.8113
# 3 36.2715 41.6419 123.6320 18.7739 6.4248 10.6312
# 4 9.4580 10.1631 18.7739 42.7717 -7.3263 -6.7264
# 5 -3.0826 4.0300 6.4248 -7.3263 23.0218 5.3067
# 6 15.6500 10.8113 10.6312 -6.7264 5.3067 61.3656
#
#
#
# Elastic Compliance Matrix: (Units=1/GPa)
#
#
# Indices 1 2 3 4 5 6 
#
# 1 0.010715 -0.000523 -0.002733 -0.001002 0.002546 -0.002497
# 2 -0.000523 0.010501 -0.002985 -0.001482 -0.001258 -0.001253
# 3 -0.002733 -0.002985 0.010816 -0.004246 -0.004036 -0.000767
# 4 -0.001002 -0.001482 -0.004246 0.027980 0.009406 0.003506
# 5 0.002546 -0.001258 -0.004036 0.009406 0.048790 -0.002917
# 6 -0.002497 -0.001253 -0.000767 0.003506 -0.002917 0.017923
#
#
# Mechanical properties :
#
#
# Convention : Reuss Voigt Hill
#
# Bulk Modulus (GPa) = 51.15081 59.61392 55.38237
# Shear Modulus (GPa) = 34.31127 41.90533 38.10830
#
# Velocity S-wave (km/s) = 3.57141 3.94690 3.76384
# Velocity P-wave (km/s) = 6.00180 6.55224 6.28305
#
# Compressibility (1/GPa) = 0.01955003
#
# Stress axis : x y z
#
# Youngs Moduli (GPa) = 93.32313 95.23092 92.45266
#
# Poissons Ratio (x) = 0.04981 0.25267
# Poissons Ratio (y) = 0.04881 0.27600
# Poissons Ratio (z) = 0.25505 0.28430
#
# Static dielectric constant tensor:
#      x y z
#    x 1.346360 -1.076360 -0.942070 
#    y -1.076360 0.785630 -1.303560 
#    z -0.942070 -1.303560 1.022690 
# 
# From -- ./inp_files/25730.got.cif
#   From: 2010.05.17/outbox.cif.g08.bks.cpg/sg2_13_cif.got.tgz:25730.got - 2010.06.03 11:33:40.
