data_PCOD9068832
_publ_section_title
;
Structure prediction by ZEFSAII (Michael W. Deem and Ramdas Pophale) SiO2 
 PCOD9068832
Probable space group: P -1
;
_chemical_formula_sum "Si O2"
_cell_formula_units_Z 15
_cell_length_a 8.854442
_cell_length_b 20.033383
_cell_length_c 13.300972
_cell_angle_alpha 156.322294
_cell_angle_beta 130.164602
_cell_angle_gamma 49.921260
_cell_volume 713.139845
_symmetry_space_group_name_H-M "P -1"
_symmetry_group_IT_number 2
_symmetry_cell_setting 'triclinic'
loop_
_space_group_symop_operation_xyz
x,y,z
-x,-y,-z
loop_
_atom_site_type_symbol
_atom_site_label
_atom_site_fract_x
_atom_site_fract_y
_atom_site_fract_z
Si Si1 0.137057 0.234838 0.440892
Si Si2 0.014640 0.013171 0.813101
Si Si3 0.889712 0.360657 0.311154
Si Si4 0.915116 0.511259 0.865725
Si Si5 0.500000 0.000000 0.000000
Si Si6 0.521713 0.353413 0.724481
Si Si7 0.493079 0.400074 0.546484
Si Si8 0.024636 0.844532 0.370771
O O1 0.372656 0.221055 0.500814
O O2 0.069071 0.083001 0.262774
O O3 0.014221 0.276799 0.343982
O O4 0.077573 0.400234 0.712374
O O5 0.252253 0.014499 0.924238
O O6 0.984174 0.912286 0.559490
O O7 0.893761 0.203744 0.021482
O O8 0.672794 0.462018 0.387648
O O9 0.000000 0.500000 0.500000
O O10 0.714367 0.433824 0.664825
O O11 0.000000 0.500000 0.000000
O O12 0.886898 0.707307 0.095368
O O13 0.526791 0.793235 0.746665
O O14 0.461420 0.428972 0.692937
O O15 0.747338 0.254557 0.675205
O O16 0.500000 0.500000 0.000000
O O17 0.000000 0.000000 0.500000
#
# Coordination Sequence:
#
# PCOD9068832 Si02
#       8
#     2   2   2   2   1   2   2   2
#     4  12  24  45  75 102 140 186 233 290 351 423
#     4  12  26  48  70 100 146 182 237 288 350 420
#     4  12  27  43  69 107 143 181 233 292 346 414
#     4  12  22  48  72 102 136 185 236 285 352 422
#     4  12  20  44  74  96 136 190 228 276 354 412
#     4  12  23  42  74 101 136 185 230 280 362 410
#     4  12  25  45  73 103 143 188 231 290 352 423
#     4  12  28  46  72 105 139 185 234 297 349 415
#
# _framework density 21.033743000000001
#
# number of rings (size 3 to 8) (size 9 to 14) (size 15 to 20)
#    0.000    0.000    9.333    0.400    3.733    1.600 
#    2.400    1.333    0.000    0.000    0.000    0.000 
#    0.000    0.000    0.000    0.000    0.000    0.000 
#
# Total GULP energy -83659.355857 kJ/mol
# GULP energy per Si atom -5577.290390 kJ/mol
# Density = 2.098587 g / cm^3
# Si number density = 21.033743 Si / 1000 Ang^3
#
#
#
# Elastic Constant Matrix: (Units=GPa)
#
#
# Indices 1 2 3 4 5 6 
#
# 1 68.3679 8.5410 26.0333 1.0137 22.6454 -3.0501
# 2 8.5410 44.1217 21.7100 12.8712 7.4298 -2.1521
# 3 26.0333 21.7100 140.4457 27.5433 16.4957 -3.2140
# 4 1.0137 12.8712 27.5433 31.2340 -2.8354 2.8903
# 5 22.6454 7.4298 16.4957 -2.8354 57.6840 1.7728
# 6 -3.0501 -2.1521 -3.2140 2.8903 1.7728 37.5142
#
#
#
# Elastic Compliance Matrix: (Units=1/GPa)
#
#
# Indices 1 2 3 4 5 6 
#
# 1 0.017861 -0.001585 -0.002681 0.001775 -0.005993 0.001278
# 2 -0.001585 0.027361 -0.001485 -0.010401 -0.003058 0.002259
# 3 -0.002681 -0.001485 0.009706 -0.008155 -0.001971 0.001250
# 4 0.001775 -0.010401 -0.008155 0.044364 0.005304 -0.004820
# 5 -0.005993 -0.003058 -0.001971 0.005304 0.020975 -0.002231
# 6 0.001278 0.002259 0.001250 -0.004820 -0.002231 0.027474
#
#
# Mechanical properties :
#
#
# Convention : Reuss Voigt Hill
#
# Bulk Modulus (GPa) = 23.02682 40.61155 31.81918
# Shear Modulus (GPa) = 28.78210 38.39649 33.58930
#
# Velocity S-wave (km/s) = 3.70317 4.27719 4.00049
# Velocity P-wave (km/s) = 5.40888 6.61379 6.04145
#
# Compressibility (1/GPa) = 0.04342763
#
# Stress axis : x y z
#
# Youngs Moduli (GPa) = 55.98677 36.54775 103.02856
#
# Poissons Ratio (x) = 0.05792 0.27620
# Poissons Ratio (y) = 0.08872 0.15301
# Poissons Ratio (z) = 0.15009 0.05428
#
# Static dielectric constant tensor:
#      x y z
#    x 1.772050 0.002520 -0.014530 
#    y 0.002520 1.773100 -0.032890 
#    z -0.014530 -0.032890 1.796290 
# 
# From -- ./inp_files/185388.got.cif
#   From: 2010.05.17/outbox.cif.g08.bks.cpg/sg2_93_cif.got.tgz:185388.got - 2010.06.03 11:33:40.
