data_PCOD9068513
_publ_section_title
;
Structure prediction by ZEFSAII (Michael W. Deem and Ramdas Pophale) SiO2 
 PCOD9068513
Probable space group: P -1
;
_chemical_formula_sum "Si O2"
_cell_formula_units_Z 12
_cell_length_a 6.932165
_cell_length_b 8.077642
_cell_length_c 12.639383
_cell_angle_alpha 67.130905
_cell_angle_beta 137.685273
_cell_angle_gamma 106.451154
_cell_volume 438.996684
_symmetry_space_group_name_H-M "P -1"
_symmetry_group_IT_number 2
_symmetry_cell_setting 'triclinic'
loop_
_space_group_symop_operation_xyz
x,y,z
-x,-y,-z
loop_
_atom_site_type_symbol
_atom_site_label
_atom_site_fract_x
_atom_site_fract_y
_atom_site_fract_z
Si Si1 0.584717 0.761240 0.085806
Si Si2 0.576746 0.828782 0.840488
Si Si3 0.831360 0.051456 0.716457
Si Si4 0.103210 0.588252 0.629908
Si Si5 0.335455 0.294179 0.405617
Si Si6 0.840630 0.371806 0.884543
O O1 0.742376 0.567298 0.199785
O O2 0.886386 0.740574 0.014186
O O3 0.431903 0.804340 0.901989
O O4 0.836942 0.903718 0.162195
O O5 0.677451 0.005936 0.776926
O O6 0.361934 0.732330 0.695188
O O7 0.338852 0.769590 0.431174
O O8 0.783721 0.874625 0.669129
O O9 0.379197 0.745774 0.107598
O O10 0.000000 0.500000 0.500000
O O11 0.844474 0.682330 0.565119
O O12 0.303278 0.487736 0.288614
O O13 0.000000 0.500000 0.000000
#
# Coordination Sequence:
#
# PCOD9068513 Si02
#       6
#     2   2   2   2   2   2
#     4  12  27  47  84 117 153 210 275 318 397 478
#     4  12  26  54  76 118 163 206 265 334 393 471
#     4  11  28  49  78 119 167 204 259 331 411 464
#     4  12  28  49  83 118 153 214 274 318 396 482
#     4  11  26  53  77 116 168 206 259 338 396 467
#     4  12  23  48  84 108 155 213 265 325 386 470
#
# _framework density 27.335056000000002
#
# number of rings (size 3 to 8) (size 9 to 14) (size 15 to 20)
#    0.000    0.333    5.000    2.000    7.000    3.333 
#    3.000    0.000    0.000    0.000    0.000    0.000 
#    0.000    0.000    0.000    0.000    0.000    0.000 
#
# Total GULP energy -67272.806962 kJ/mol
# GULP energy per Si atom -5606.067247 kJ/mol
# Density = 2.727284 g / cm^3
# Si number density = 27.335056 Si / 1000 Ang^3
#
#
#
# Elastic Constant Matrix: (Units=GPa)
#
#
# Indices 1 2 3 4 5 6 
#
# 1 177.2668 68.8553 72.7121 5.0574 -14.4440 1.7073
# 2 68.8553 112.0859 57.5727 9.6068 -6.9355 19.1747
# 3 72.7121 57.5727 152.2656 -13.6100 -7.9381 8.4773
# 4 5.0574 9.6068 -13.6100 64.6539 -3.5159 3.5618
# 5 -14.4440 -6.9355 -7.9381 -3.5159 45.2328 -1.9209
# 6 1.7073 19.1747 8.4773 3.5618 -1.9209 65.8285
#
#
#
# Elastic Compliance Matrix: (Units=1/GPa)
#
#
# Indices 1 2 3 4 5 6 
#
# 1 0.008334 -0.003882 -0.002554 -0.000597 0.001627 0.001323
# 2 -0.003882 0.013816 -0.003388 -0.002279 -0.000036 -0.003365
# 3 -0.002554 -0.003388 0.009353 0.002715 0.000505 -0.000283
# 4 -0.000597 -0.002279 0.002715 0.016518 0.001198 -0.000529
# 5 0.001627 -0.000036 0.000505 0.001198 0.022825 0.000504
# 6 0.001323 -0.003365 -0.000283 -0.000529 0.000504 0.016217
#
#
# Mechanical properties :
#
#
# Convention : Reuss Voigt Hill
#
# Bulk Modulus (GPa) = 84.36128 93.32206 88.84167
# Shear Modulus (GPa) = 45.18264 51.30825 48.24544
#
# Velocity S-wave (km/s) = 4.07002 4.33715 4.20571
# Velocity P-wave (km/s) = 7.28119 7.70035 7.49370
#
# Compressibility (1/GPa) = 0.01185378
#
# Stress axis : x y z
#
# Youngs Moduli (GPa) = 119.99611 72.38190 106.91774
#
# Poissons Ratio (x) = 0.28099 0.27306
# Poissons Ratio (y) = 0.46583 0.36226
# Poissons Ratio (z) = 0.30646 0.24524
#
# Static dielectric constant tensor:
#      x y z
#    x 2.298690 -0.119350 -0.165020 
#    y -0.119350 2.162180 0.112990 
#    z -0.165020 0.112990 2.248520 
# 
# From -- ./inp_files/375914.got.cif
#   From: 2010.05.17/outbox.cif.g08.bks.cpg/sg2_188_cif.got.tgz:375914.got - 2010.06.03 11:33:40.
