data_PCOD9068480
_publ_section_title
;
Structure prediction by ZEFSAII (Michael W. Deem and Ramdas Pophale) SiO2 
 PCOD9068480
Probable space group: P -1
;
_chemical_formula_sum "Si O2"
_cell_formula_units_Z 11
_cell_length_a 5.749660
_cell_length_b 14.119955
_cell_length_c 14.664696
_cell_angle_alpha 28.585876
_cell_angle_beta 61.337465
_cell_angle_gamma 51.414005
_cell_volume 437.856088
_symmetry_space_group_name_H-M "P -1"
_symmetry_group_IT_number 2
_symmetry_cell_setting 'triclinic'
loop_
_space_group_symop_operation_xyz
x,y,z
-x,-y,-z
loop_
_atom_site_type_symbol
_atom_site_label
_atom_site_fract_x
_atom_site_fract_y
_atom_site_fract_z
Si Si1 0.208597 0.360163 0.662847
Si Si2 0.117743 0.949387 0.233559
Si Si3 0.720291 0.824950 0.847335
Si Si4 0.254905 0.238544 0.475892
Si Si5 0.629875 0.424502 0.140373
Si Si6 0.000000 0.000000 0.000000
O O1 0.558539 0.274235 0.651756
O O2 0.000000 0.500000 0.500000
O O3 0.028463 0.526837 0.637864
O O4 0.184958 0.135154 0.868424
O O5 0.976196 0.979791 0.134641
O O6 0.915023 0.910112 0.381941
O O7 0.171785 0.148301 0.095266
O O8 0.009714 0.730830 0.805468
O O9 0.493568 0.078592 0.642481
O O10 0.595703 0.645139 0.015318
O O11 0.452184 0.301542 0.318644
O O12 0.500000 0.500000 0.000000
#
# Coordination Sequence:
#
# PCOD9068480 Si02
#       6
#     2   2   2   2   2   1
#     4  12  26  48  74 114 153 200 255 311 382 464
#     4  12  26  50  77 114 160 197 255 317 379 460
#     4  11  26  51  77 110 154 200 259 318 379 451
#     4  12  27  47  79 112 152 204 251 316 387 452
#     4  11  28  52  78 111 151 203 261 319 381 451
#     4  12  28  48  72 112 158 200 254 308 376 458
#
# _framework density 25.122409000000001
#
# number of rings (size 3 to 8) (size 9 to 14) (size 15 to 20)
#    0.000    0.364    3.636    2.727    7.636    5.818 
#    0.000    0.000    0.000    0.000    0.000    0.000 
#    0.000    0.000    0.000    0.000    0.000    0.000 
#
# Total GULP energy -61236.016073 kJ/mol
# GULP energy per Si atom -5566.910552 kJ/mol
# Density = 2.506523 g / cm^3
# Si number density = 25.122409 Si / 1000 Ang^3
#
#
#
# Elastic Constant Matrix: (Units=GPa)
#
#
# Indices 1 2 3 4 5 6 
#
# 1 101.2890 45.1928 51.9703 -1.0845 -18.9807 8.6204
# 2 45.1928 106.3269 49.3385 -12.1186 1.7068 -19.3895
# 3 51.9703 49.3385 116.0790 38.2570 -29.1798 -9.9893
# 4 -1.0845 -12.1186 38.2570 41.8876 -4.9034 -14.9468
# 5 -18.9807 1.7068 -29.1798 -4.9034 36.4508 0.9140
# 6 8.6204 -19.3895 -9.9893 -14.9468 0.9140 67.5155
#
#
#
# Elastic Compliance Matrix: (Units=1/GPa)
#
#
# Indices 1 2 3 4 5 6 
#
# 1 0.015891 -0.004629 -0.005321 0.003243 0.004756 -0.003492
# 2 -0.004629 0.030661 -0.026757 0.035605 -0.020817 0.013602
# 3 -0.005321 -0.026757 0.044748 -0.049676 0.027916 -0.011760
# 4 0.003243 0.035605 -0.049676 0.083879 -0.029000 0.021423
# 5 0.004756 -0.020817 0.027916 -0.029000 0.049571 -0.009546
# 6 -0.003492 0.013602 -0.011760 0.021423 -0.009546 0.022296
#
#
# Mechanical properties :
#
#
# Convention : Reuss Voigt Hill
#
# Bulk Modulus (GPa) = 55.90851 68.52200 62.21526
# Shear Modulus (GPa) = 15.31761 40.98367 28.15064
#
# Velocity S-wave (km/s) = 2.47193 4.04339 3.35108
# Velocity P-wave (km/s) = 5.51815 7.00950 6.30806
#
# Compressibility (1/GPa) = 0.01788637
#
# Stress axis : x y z
#
# Youngs Moduli (GPa) = 62.92745 32.61482 22.34748
#
# Poissons Ratio (x) = 0.15097 0.11891
# Poissons Ratio (y) = 0.29128 0.59795
# Poissons Ratio (z) = 0.33484 0.87267
#
# Static dielectric constant tensor:
#      x y z
#    x 2.013650 -0.035820 -0.008450 
#    y -0.035820 2.071560 -0.023230 
#    z -0.008450 -0.023230 1.978820 
# 
# From -- ./inp_files/75057.got.cif
#   From: 2010.05.17/outbox.cif.g08.bks.cpg/sg2_38_cif.got.tgz:75057.got - 2010.06.03 11:33:40.
