data_PCOD9068850
_publ_section_title
;
Structure prediction by ZEFSAII (Michael W. Deem and Ramdas Pophale) SiO2 
 PCOD9068850
Probable space group: P -1
;
_chemical_formula_sum "Si O2"
_cell_formula_units_Z 16
_cell_length_a 9.788178
_cell_length_b 13.352241
_cell_length_c 7.381889
_cell_angle_alpha 90.609406
_cell_angle_beta 133.341888
_cell_angle_gamma 87.165864
_cell_volume 700.430135
_symmetry_space_group_name_H-M "P -1"
_symmetry_group_IT_number 2
_symmetry_cell_setting 'triclinic'
loop_
_space_group_symop_operation_xyz
x,y,z
-x,-y,-z
loop_
_atom_site_type_symbol
_atom_site_label
_atom_site_fract_x
_atom_site_fract_y
_atom_site_fract_z
Si Si1 0.847739 0.117992 0.424652
Si Si2 0.211689 0.943688 0.001395
Si Si3 0.265737 0.266957 0.536762
Si Si4 0.507309 0.738916 0.883535
Si Si5 0.609323 0.963470 0.414493
Si Si6 0.460113 0.618249 0.476054
Si Si7 0.907108 0.270632 0.010797
Si Si8 0.837762 0.839176 0.026866
O O1 0.900801 0.063855 0.285601
O O2 0.694142 0.209395 0.245919
O O3 0.033543 0.157424 0.679955
O O4 0.742939 0.046000 0.465747
O O5 0.154150 0.048930 0.047117
O O6 0.424172 0.951973 0.123537
O O7 0.188893 0.837452 0.072163
O O8 0.296289 0.148882 0.507209
O O9 0.386955 0.327931 0.505755
O O10 0.364209 0.285495 0.822082
O O11 0.040520 0.292384 0.304826
O O12 0.473725 0.655643 0.697994
O O13 0.627370 0.818794 0.886177
O O14 0.500000 0.000000 0.500000
O O15 0.500000 0.500000 0.500000
O O16 0.256777 0.651513 0.203072
O O17 0.066102 0.249284 0.003581
#
# Coordination Sequence:
#
# PCOD9068850 Si02
#       8
#     2   2   2   2   2   2   2   2
#     4  12  22  39  61  98 146 186 230 270 318 400
#     4  12  22  37  61 100 144 191 226 263 324 399
#     4  12  25  46  71 102 139 181 228 285 339 406
#     4  12  24  46  71 101 140 181 227 286 344 404
#     4  12  21  36  62  94 144 192 226 265 324 395
#     4  12  28  52  76  99 129 173 232 299 363 413
#     4  12  24  45  68 102 140 181 229 281 335 407
#     4  12  23  38  66 102 143 187 226 266 328 405
#
# _framework density 22.843108000000001
#
# number of rings (size 3 to 8) (size 9 to 14) (size 15 to 20)
#    0.000    0.000    6.250    5.625    0.000    1.000 
#    0.000    0.625    0.000    0.000    0.000    0.000 
#    0.000    0.000    0.000    0.000    0.000    0.000 
#
# Total GULP energy -89467.110486 kJ/mol
# GULP energy per Si atom -5591.694405 kJ/mol
# Density = 2.279112 g / cm^3
# Si number density = 22.843108 Si / 1000 Ang^3
#
#
#
# Elastic Constant Matrix: (Units=GPa)
#
#
# Indices 1 2 3 4 5 6 
#
# 1 76.6145 35.7593 22.9400 -2.5186 8.8531 -6.1946
# 2 35.7593 117.3099 71.9574 -13.3630 -1.2946 -21.5816
# 3 22.9400 71.9574 166.7662 -6.5384 12.9239 -24.1848
# 4 -2.5186 -13.3630 -6.5384 29.8420 -8.0150 1.6186
# 5 8.8531 -1.2946 12.9239 -8.0150 52.5634 -0.6951
# 6 -6.1946 -21.5816 -24.1848 1.6186 -0.6951 21.6269
#
#
#
# Elastic Compliance Matrix: (Units=1/GPa)
#
#
# Indices 1 2 3 4 5 6 
#
# 1 0.015695 -0.005230 0.000201 -0.001781 -0.003099 -0.000466
# 2 -0.005230 0.015185 -0.004697 0.005805 0.003402 0.008077
# 3 0.000201 -0.004697 0.008917 -0.001077 -0.002435 0.005344
# 4 -0.001781 0.005805 -0.001077 0.037368 0.006425 0.001488
# 5 -0.003099 0.003402 -0.002435 0.006425 0.021209 -0.000016
# 6 -0.000466 0.008077 0.005344 0.001488 -0.000016 0.060030
#
#
# Mechanical properties :
#
#
# Convention : Reuss Voigt Hill
#
# Bulk Modulus (GPa) = 49.15546 69.11155 59.13350
# Shear Modulus (GPa) = 27.07995 36.14203 31.61099
#
# Velocity S-wave (km/s) = 3.44681 3.98198 3.72402
# Velocity P-wave (km/s) = 6.11605 7.17371 6.66589
#
# Compressibility (1/GPa) = 0.02034362
#
# Stress axis : x y z
#
# Youngs Moduli (GPa) = 63.71300 65.85602 112.14304
#
# Poissons Ratio (x) = 0.34443 -0.02249
# Poissons Ratio (y) = 0.33322 0.52676
# Poissons Ratio (z) = -0.01278 0.30934
#
# Static dielectric constant tensor:
#      x y z
#    x 1.854630 0.013290 -0.038460 
#    y 0.013290 1.816420 0.014980 
#    z -0.038460 0.014980 2.107200 
# 
# From -- ./inp_files/258723.got.cif
#   From: 2010.05.17/outbox.cif.g08.bks.cpg/sg2_130_cif.got.tgz:258723.got - 2010.06.03 11:33:40.
