data_PCOD9068927
_publ_section_title
;
Structure prediction by ZEFSAII (Michael W. Deem and Ramdas Pophale) SiO2 
 PCOD9068927
Probable space group: P -1
;
_chemical_formula_sum "Si O2"
_cell_formula_units_Z 14
_cell_length_a 14.504009
_cell_length_b 24.999288
_cell_length_c 14.376628
_cell_angle_alpha 156.045852
_cell_angle_beta 159.837959
_cell_angle_gamma 21.942683
_cell_volume 632.599206
_symmetry_space_group_name_H-M "P -1"
_symmetry_group_IT_number 2
_symmetry_cell_setting 'triclinic'
loop_
_space_group_symop_operation_xyz
x,y,z
-x,-y,-z
loop_
_atom_site_type_symbol
_atom_site_label
_atom_site_fract_x
_atom_site_fract_y
_atom_site_fract_z
Si Si1 0.837393 0.606597 0.661983
Si Si2 0.667608 0.556341 0.818770
Si Si3 0.961498 0.011154 0.369334
Si Si4 0.341509 0.154371 0.277683
Si Si5 0.244608 0.821736 0.954799
Si Si6 0.207923 0.263850 0.522031
Si Si7 0.212617 0.664710 0.250443
O O1 0.830312 0.683858 0.680742
O O2 0.506159 0.624092 0.398686
O O3 0.091060 0.432394 0.640715
O O4 0.923228 0.694477 0.960558
O O5 0.500000 0.500000 0.500000
O O6 0.716219 0.469276 0.824149
O O7 0.459207 0.734608 0.930532
O O8 0.000000 0.500000 0.000000
O O9 0.297608 0.901706 0.472404
O O10 0.856008 0.184061 0.519842
O O11 0.730293 0.958412 0.028564
O O12 0.000000 0.000000 0.500000
O O13 0.241080 0.165329 0.306039
O O14 0.478556 0.796300 0.219837
O O15 0.047014 0.739151 0.658172
O O16 0.000000 0.000000 0.000000
#
# Coordination Sequence:
#
# PCOD9068927 Si02
#       7
#     2   2   2   2   2   2   2
#     4  12  21  43  69 100 136 184 227 270 342 419
#     4  12  26  47  73 104 134 178 243 300 356 426
#     4  12  23  42  63 100 144 188 229 279 343 412
#     4  12  25  40  69 106 143 185 234 280 339 426
#     4  12  27  50  76 101 142 190 238 303 369 419
#     4  12  25  46  71 104 141 182 237 288 351 424
#     4  12  24  41  72  94 137 186 223 278 353 413
#
# _framework density 22.130915000000002
#
# number of rings (size 3 to 8) (size 9 to 14) (size 15 to 20)
#    0.000    0.000    5.714    4.714    0.000    3.429 
#    0.000    4.286    0.000    0.000    0.000    0.000 
#    0.000    0.000    0.000    0.000    0.000    0.000 
#
# Total GULP energy -78378.834851 kJ/mol
# GULP energy per Si atom -5598.488204 kJ/mol
# Density = 2.208054 g / cm^3
# Si number density = 22.130915 Si / 1000 Ang^3
#
#
#
# Elastic Constant Matrix: (Units=GPa)
#
#
# Indices 1 2 3 4 5 6 
#
# 1 56.6237 21.3380 18.5677 -1.8423 -5.5413 -18.6502
# 2 21.3380 133.0854 22.9655 8.1137 -2.3430 -1.6198
# 3 18.5677 22.9655 94.5607 -8.7353 0.5815 -0.0943
# 4 -1.8423 8.1137 -8.7353 40.2289 -6.9998 2.4696
# 5 -5.5413 -2.3430 0.5815 -6.9998 34.1670 1.3396
# 6 -18.6502 -1.6198 -0.0943 2.4696 1.3396 25.8717
#
#
#
# Elastic Compliance Matrix: (Units=1/GPa)
#
#
# Indices 1 2 3 4 5 6 
#
# 1 0.026986 -0.003285 -0.004469 0.000380 0.003560 0.019011
# 2 -0.003285 0.008422 -0.001599 -0.002150 -0.000305 -0.001625
# 3 -0.004469 -0.001599 0.012108 0.002911 -0.000305 -0.003540
# 4 0.000380 -0.002150 0.002911 0.027068 0.005517 -0.002719
# 5 0.003560 -0.000305 -0.000305 0.005517 0.030944 0.000417
# 6 0.019011 -0.001625 -0.003540 -0.002719 0.000417 0.052480
#
#
# Mechanical properties :
#
#
# Convention : Reuss Voigt Hill
#
# Bulk Modulus (GPa) = 34.70800 45.55691 40.13246
# Shear Modulus (GPa) = 26.83594 34.81342 30.82468
#
# Velocity S-wave (km/s) = 3.48602 3.97049 3.73612
# Velocity P-wave (km/s) = 5.64979 6.45365 6.06506
#
# Compressibility (1/GPa) = 0.02881180
#
# Stress axis : x y z
#
# Youngs Moduli (GPa) = 37.05598 118.73052 82.58791
#
# Poissons Ratio (x) = 0.39000 0.36908
# Poissons Ratio (y) = 0.12172 0.13205
# Poissons Ratio (z) = 0.16560 0.18983
#
# Static dielectric constant tensor:
#      x y z
#    x 1.799980 -0.016040 -0.013530 
#    y -0.016040 1.842180 0.045160 
#    z -0.013530 0.045160 1.786110 
# 
# From -- ./inp_files/77083.got.cif
#   From: 2010.05.17/outbox.cif.g08.bks.cpg/sg2_39_cif.got.tgz:77083.got - 2010.06.03 11:33:40.
