data_PCOD9068041
_publ_section_title
;
Structure prediction by ZEFSAII (Michael W. Deem and Ramdas Pophale) SiO2 
 PCOD9068041
Probable space group: P -1
;
_chemical_formula_sum "Si O2"
_cell_formula_units_Z 12
_cell_length_a 8.355410
_cell_length_b 9.328379
_cell_length_c 15.759575
_cell_angle_alpha 138.343593
_cell_angle_beta 33.885153
_cell_angle_gamma 129.813170
_cell_volume 454.518590
_symmetry_space_group_name_H-M "P -1"
_symmetry_group_IT_number 2
_symmetry_cell_setting 'triclinic'
loop_
_space_group_symop_operation_xyz
x,y,z
-x,-y,-z
loop_
_atom_site_type_symbol
_atom_site_label
_atom_site_fract_x
_atom_site_fract_y
_atom_site_fract_z
Si Si1 0.875499 0.273722 0.019751
Si Si2 0.315046 0.529888 0.509855
Si Si3 0.004325 0.093113 0.444938
Si Si4 0.233895 0.663353 0.086705
Si Si5 0.838429 0.844211 0.930868
Si Si6 0.518168 0.763458 0.351873
O O1 0.182073 0.231218 0.824894
O O2 0.698108 0.354807 0.052472
O O3 0.001165 0.458763 0.113626
O O4 0.744879 0.041827 0.000843
O O5 0.500000 0.500000 0.500000
O O6 0.244999 0.280118 0.407911
O O7 0.445964 0.623410 0.405700
O O8 0.061609 0.687133 0.719113
O O9 0.729302 0.231843 0.608079
O O10 0.065229 0.879843 0.271362
O O11 0.000000 0.000000 0.500000
O O12 0.538407 0.705425 0.019444
O O13 0.000000 0.000000 0.000000
O O14 0.500000 0.000000 0.500000
#
# Coordination Sequence:
#
# PCOD9068041 Si02
#       6
#     2   2   2   2   2   2
#     4  11  26  47  79 104 152 200 246 315 374 455
#     4  12  27  47  75 107 148 199 252 310 370 448
#     4  12  27  45  77 110 150 195 247 311 375 457
#     4  11  26  47  72 110 148 195 250 303 385 448
#     4  12  27  46  72 111 153 195 247 313 381 449
#     4  12  23  48  73 106 146 189 257 299 371 441
#
# _framework density 26.401561000000001
#
# number of rings (size 3 to 8) (size 9 to 14) (size 15 to 20)
#    0.000    0.333    3.333    4.000    4.667    6.000 
#    0.000    0.000    0.000    0.000    0.000    0.000 
#    0.000    0.000    0.000    0.000    0.000    0.000 
#
# Total GULP energy -66980.255914 kJ/mol
# GULP energy per Si atom -5581.687993 kJ/mol
# Density = 2.634147 g / cm^3
# Si number density = 26.401561 Si / 1000 Ang^3
#
#
#
# Elastic Constant Matrix: (Units=GPa)
#
#
# Indices 1 2 3 4 5 6 
#
# 1 107.3673 25.6608 19.1195 -11.6573 -18.8785 3.8303
# 2 25.6608 187.3451 27.5733 33.6819 4.9141 -7.2594
# 3 19.1195 27.5733 144.3742 1.4017 8.5031 22.4551
# 4 -11.6573 33.6819 1.4017 40.2149 10.9003 13.2225
# 5 -18.8785 4.9141 8.5031 10.9003 41.7733 7.9072
# 6 3.8303 -7.2594 22.4551 13.2225 7.9072 45.7263
#
#
#
# Elastic Compliance Matrix: (Units=1/GPa)
#
#
# Indices 1 2 3 4 5 6 
#
# 1 0.011718 -0.002735 -0.000840 0.005496 0.005009 -0.003459
# 2 -0.002735 0.007742 -0.001772 -0.008715 -0.000444 0.004925
# 3 -0.000840 -0.001772 0.008195 0.002999 -0.001712 -0.004807
# 4 0.005496 -0.008715 0.002999 0.039526 -0.004781 -0.013920
# 5 0.005009 -0.000444 -0.001712 -0.004781 0.028454 -0.003187
# 6 -0.003459 0.004925 -0.004807 -0.013920 -0.003187 0.029878
#
#
# Mechanical properties :
#
#
# Convention : Reuss Voigt Hill
#
# Bulk Modulus (GPa) = 58.95348 64.86599 61.90973
# Shear Modulus (GPa) = 35.24578 49.99177 42.61878
#
# Velocity S-wave (km/s) = 3.65771 4.35618 4.02213
# Velocity P-wave (km/s) = 6.34165 7.06569 6.71344
#
# Compressibility (1/GPa) = 0.01696253
#
# Stress axis : x y z
#
# Youngs Moduli (GPa) = 85.33959 129.15971 122.02023
#
# Poissons Ratio (x) = 0.35324 0.10248
# Poissons Ratio (y) = 0.23340 0.21619
# Poissons Ratio (z) = 0.07167 0.22883
#
# Static dielectric constant tensor:
#      x y z
#    x 2.825990 0.272910 -0.331050 
#    y 0.272910 2.199560 -0.055970 
#    z -0.331050 -0.055970 2.296690 
# 
# From -- ./inp_files/556647.got.cif
#   From: 2010.05.17/outbox.cif.g08.bks.cpg/sg2_279_cif.got.tgz:556647.got - 2010.06.03 11:33:40.
