data_PCOD9068329
_publ_section_title
;
Structure prediction by ZEFSAII (Michael W. Deem and Ramdas Pophale) SiO2 
 PCOD9068329
Probable space group: P -1
;
_chemical_formula_sum "Si O2"
_cell_formula_units_Z 16
_cell_length_a 15.014916
_cell_length_b 11.788065
_cell_length_c 9.036965
_cell_angle_alpha 80.857603
_cell_angle_beta 147.948501
_cell_angle_gamma 110.986699
_cell_volume 757.988766
_symmetry_space_group_name_H-M "P -1"
_symmetry_group_IT_number 2
_symmetry_cell_setting 'triclinic'
loop_
_space_group_symop_operation_xyz
x,y,z
-x,-y,-z
loop_
_atom_site_type_symbol
_atom_site_label
_atom_site_fract_x
_atom_site_fract_y
_atom_site_fract_z
Si Si1 0.816466 0.368653 0.755126
Si Si2 0.791975 0.351521 0.374915
Si Si3 0.520500 0.106043 0.889711
Si Si4 0.595695 0.728520 0.761593
Si Si5 0.812049 0.871578 0.740245
Si Si6 0.994162 0.211573 0.202276
Si Si7 0.352895 0.003490 0.171346
Si Si8 0.142398 0.367949 0.677744
O O1 0.794300 0.334158 0.557585
O O2 0.622645 0.364293 0.542742
O O3 0.861512 0.270383 0.935735
O O4 0.000000 0.500000 0.000000
O O5 0.793102 0.487594 0.315401
O O6 0.971201 0.344677 0.552223
O O7 0.617417 0.241896 0.074115
O O8 0.328681 0.085851 0.550800
O O9 0.640800 0.084739 0.934085
O O10 0.500000 0.000000 0.000000
O O11 0.705906 0.792884 0.752550
O O12 0.596801 0.851097 0.825140
O O13 0.703561 0.661022 0.014178
O O14 0.857636 0.779162 0.714624
O O15 0.000000 0.000000 0.000000
O O16 0.078659 0.279608 0.460674
O O17 0.859481 0.063255 0.063024
O O18 0.500000 0.000000 0.500000
#
# Coordination Sequence:
#
# PCOD9068329 Si02
#       8
#     2   2   2   2   2   2   2   2
#     4  12  26  48  77 103 144 199 243 298 371 442
#     4  11  26  49  74 105 152 192 251 304 373 436
#     4  12  27  43  74 108 146 197 243 306 376 436
#     4  12  27  46  77 110 148 191 250 304 370 439
#     4  12  27  46  70 111 152 190 245 306 369 444
#     4  12  24  45  73 105 148 193 243 302 370 438
#     4  12  22  45  73 104 148 188 245 300 367 439
#     4  11  27  48  76 108 146 194 250 309 361 445
#
# _framework density 21.108492999999999
#
# number of rings (size 3 to 8) (size 9 to 14) (size 15 to 20)
#    0.000    0.250    6.250    1.500    7.000    2.000 
#    0.000    1.875    0.000    0.000    0.000    0.000 
#    0.000    0.000    0.000    0.000    0.000    0.000 
#
# Total GULP energy -89478.418273 kJ/mol
# GULP energy per Si atom -5592.401142 kJ/mol
# Density = 2.106045 g / cm^3
# Si number density = 21.108493 Si / 1000 Ang^3
#
#
#
# Elastic Constant Matrix: (Units=GPa)
#
#
# Indices 1 2 3 4 5 6 
#
# 1 144.6229 23.1445 65.3468 6.5725 -5.2364 3.2087
# 2 23.1445 69.1400 49.3617 3.8335 11.9468 3.5952
# 3 65.3468 49.3617 130.5582 -12.3981 14.0145 8.2791
# 4 6.5725 3.8335 -12.3981 54.2234 0.4728 1.2451
# 5 -5.2364 11.9468 14.0145 0.4728 31.3282 -0.9599
# 6 3.2087 3.5952 8.2791 1.2451 -0.9599 32.2657
#
#
#
# Elastic Compliance Matrix: (Units=1/GPa)
#
#
# Indices 1 2 3 4 5 6 
#
# 1 0.009685 0.000176 -0.005641 -0.002528 0.004134 0.000685
# 2 0.000176 0.020950 -0.007819 -0.003244 -0.004424 -0.000352
# 3 -0.005641 -0.007819 0.014544 0.004662 -0.004618 -0.002617
# 4 -0.002528 -0.003244 0.004662 0.020090 -0.001618 -0.001407
# 5 0.004134 -0.004424 -0.004618 -0.001618 0.036462 0.002414
# 6 0.000685 -0.000352 -0.002617 -0.001407 0.002414 0.031761
#
#
# Mechanical properties :
#
#
# Convention : Reuss Voigt Hill
#
# Bulk Modulus (GPa) = 53.74003 68.89190 61.31596
# Shear Modulus (GPa) = 30.07260 37.32801 33.70031
#
# Velocity S-wave (km/s) = 3.77857 4.20978 3.99999
# Velocity P-wave (km/s) = 6.67466 7.50584 7.10242
#
# Compressibility (1/GPa) = 0.01860810
#
# Stress axis : x y z
#
# Youngs Moduli (GPa) = 103.25583 47.73332 68.75869
#
# Poissons Ratio (x) = -0.00838 0.38787
# Poissons Ratio (y) = -0.01813 0.53766
# Poissons Ratio (z) = 0.58247 0.37325
#
# Static dielectric constant tensor:
#      x y z
#    x 1.988440 -0.047240 0.018890 
#    y -0.047240 1.761830 0.040060 
#    z 0.018890 0.040060 1.732050 
# 
# From -- ./inp_files/217924.got.cif
#   From: 2010.05.17/outbox.cif.g08.bks.cpg/sg2_109_cif.got.tgz:217924.got - 2010.06.03 11:33:40.
