data_PCOD9068302
_publ_section_title
;
Structure prediction by ZEFSAII (Michael W. Deem and Ramdas Pophale) SiO2 
 PCOD9068302
Probable space group: P -1
;
_chemical_formula_sum "Si O2"
_cell_formula_units_Z 14
_cell_length_a 6.429563
_cell_length_b 17.923548
_cell_length_c 7.114137
_cell_angle_alpha 99.824584
_cell_angle_beta 45.384166
_cell_angle_gamma 79.601947
_cell_volume 519.646333
_symmetry_space_group_name_H-M "P -1"
_symmetry_group_IT_number 2
_symmetry_cell_setting 'triclinic'
loop_
_space_group_symop_operation_xyz
x,y,z
-x,-y,-z
loop_
_atom_site_type_symbol
_atom_site_label
_atom_site_fract_x
_atom_site_fract_y
_atom_site_fract_z
Si Si1 0.928873 0.200778 0.441077
Si Si2 0.783044 0.453686 0.064278
Si Si3 0.909028 0.423413 0.546969
Si Si4 0.161724 0.706811 0.819181
Si Si5 0.464192 0.128991 0.597719
Si Si6 0.651023 0.003102 0.122830
Si Si7 0.534093 0.748075 0.903202
O O1 0.293708 0.190328 0.195128
O O2 0.812052 0.132542 0.407994
O O3 0.191210 0.221510 0.863761
O O4 0.762381 0.223316 0.756256
O O5 0.877488 0.409105 0.781821
O O6 0.000000 0.500000 0.000000
O O7 0.443274 0.533322 0.294894
O O8 0.788705 0.382284 0.170352
O O9 0.000000 0.500000 0.500000
O O10 0.195499 0.342378 0.243589
O O11 0.228236 0.719888 0.566233
O O12 0.411308 0.734026 0.776927
O O13 0.416761 0.066501 0.749682
O O14 0.427408 0.092474 0.403970
O O15 0.500000 0.000000 0.000000
O O16 0.000000 0.000000 0.000000
#
# Coordination Sequence:
#
# PCOD9068302 Si02
#       7
#     2   2   2   2   2   2   2
#     4  12  29  51  81 125 164 222 281 356 433 517
#     4  11  28  49  79 109 168 226 295 366 436 518
#     4  11  26  49  69 113 157 224 290 358 442 508
#     4  12  28  52  78 128 163 228 295 359 442 525
#     4  11  28  52  88 134 176 225 300 355 445 547
#     4  11  28  59  92 137 186 236 292 363 453 547
#     4  12  29  50  81 113 175 219 287 366 435 520
#
# _framework density 26.941403000000001
#
# number of rings (size 3 to 8) (size 9 to 14) (size 15 to 20)
#    0.000    0.571    2.857    1.714   10.000    7.429 
#    0.000    0.714    0.000    0.000    0.000    0.000 
#    0.000    0.000    0.000    0.000    0.000    0.000 
#
# Total GULP energy -78254.560553 kJ/mol
# GULP energy per Si atom -5589.611468 kJ/mol
# Density = 2.688008 g / cm^3
# Si number density = 26.941403 Si / 1000 Ang^3
#
#
#
# Elastic Constant Matrix: (Units=GPa)
#
#
# Indices 1 2 3 4 5 6 
#
# 1 175.3768 49.8837 42.8982 -19.9449 -20.5798 15.6999
# 2 49.8837 120.1981 48.7560 -21.3461 14.6320 27.1476
# 3 42.8982 48.7560 135.1228 -6.2954 12.4969 -3.6413
# 4 -19.9449 -21.3461 -6.2954 60.4947 5.4726 1.9769
# 5 -20.5798 14.6320 12.4969 5.4726 42.9259 -17.4556
# 6 15.6999 27.1476 -3.6413 1.9769 -17.4556 54.8251
#
#
#
# Elastic Compliance Matrix: (Units=1/GPa)
#
#
# Indices 1 2 3 4 5 6 
#
# 1 0.007714 -0.003348 -0.001710 0.000630 0.005717 0.001133
# 2 -0.003348 0.016048 -0.003733 0.005540 -0.011164 -0.010990
# 3 -0.001710 -0.003733 0.009422 -0.000887 -0.001101 0.002645
# 4 0.000630 0.005540 -0.000887 0.019333 -0.006076 -0.005614
# 5 0.005717 -0.011164 -0.001101 -0.006076 0.037424 0.015952
# 6 0.001133 -0.010990 0.002645 -0.005614 0.015952 0.028814
#
#
# Mechanical properties :
#
#
# Convention : Reuss Voigt Hill
#
# Bulk Modulus (GPa) = 64.09293 79.30816 71.70054
# Shear Modulus (GPa) = 35.32594 50.92647 43.12621
#
# Velocity S-wave (km/s) = 3.62500 4.35244 4.00527
# Velocity P-wave (km/s) = 6.43135 7.39996 6.93259
#
# Compressibility (1/GPa) = 0.01560234
#
# Stress axis : x y z
#
# Youngs Moduli (GPa) = 129.64186 62.31215 106.12967
#
# Poissons Ratio (x) = 0.20860 0.18146
# Poissons Ratio (y) = 0.43400 0.39623
# Poissons Ratio (z) = 0.22167 0.23264
#
# Static dielectric constant tensor:
#      x y z
#    x 2.265920 0.018620 0.004450 
#    y 0.018620 2.029340 0.159690 
#    z 0.004450 0.159690 2.138490 
# 
# From -- ./inp_files/11227.got.cif
#   From: 2010.05.17/outbox.cif.g08.bks.cpg/sg2_6_cif.got.tgz:11227.got - 2010.06.03 11:33:40.
