data_PCOD9068951
_publ_section_title
;
Structure prediction by ZEFSAII (Michael W. Deem and Ramdas Pophale) SiO2 
 PCOD9068951
Probable space group: P -1
;
_chemical_formula_sum "Si O2"
_cell_formula_units_Z 15
_cell_length_a 23.791119
_cell_length_b 14.761628
_cell_length_c 11.758706
_cell_angle_alpha 152.129802
_cell_angle_beta 27.276563
_cell_angle_gamma 158.482303
_cell_volume 652.810975
_symmetry_space_group_name_H-M "P -1"
_symmetry_group_IT_number 2
_symmetry_cell_setting 'triclinic'
loop_
_space_group_symop_operation_xyz
x,y,z
-x,-y,-z
loop_
_atom_site_type_symbol
_atom_site_label
_atom_site_fract_x
_atom_site_fract_y
_atom_site_fract_z
Si Si1 0.893874 0.757983 0.602335
Si Si2 0.364247 0.201006 0.949234
Si Si3 0.357476 0.764100 0.079406
Si Si4 0.390663 0.073936 0.013643
Si Si5 0.108379 0.448818 0.855355
Si Si6 0.816778 0.327616 0.397807
Si Si7 0.227912 0.271377 0.626944
Si Si8 0.000000 0.500000 0.500000
O O1 0.801038 0.845527 0.818663
O O2 0.950861 0.702365 0.325888
O O3 0.781481 0.495483 0.588434
O O4 0.045329 0.989250 0.665280
O O5 0.397318 0.156165 0.964845
O O6 0.500000 0.500000 0.000000
O O7 0.335949 0.984451 0.680312
O O8 0.186321 0.701474 0.321950
O O9 0.444455 0.833199 0.121740
O O10 0.299266 0.490602 0.836014
O O11 0.500000 0.000000 0.000000
O O12 0.341073 0.209564 0.327170
O O13 0.248904 0.759691 0.927317
O O14 0.194721 0.370496 0.686176
O O15 0.958735 0.383701 0.122672
O O16 0.902348 0.432831 0.481968
#
# Coordination Sequence:
#
# PCOD9068951 Si02
#       8
#     2   2   2   2   2   2   2   1
#     4  12  24  42  78 105 143 193 249 315 373 447
#     4  12  28  45  64 108 147 192 252 307 379 455
#     4  12  27  51  76 110 155 204 256 315 379 457
#     4  12  25  45  77 107 148 197 243 317 384 442
#     4  12  21  44  76 113 139 188 253 311 381 443
#     4  12  25  47  74 103 150 192 246 322 372 448
#     4  12  23  44  75 113 143 191 255 307 379 455
#     4  12  28  50  78 106 150 206 254 302 390 456
#
# _framework density 22.977554000000001
#
# number of rings (size 3 to 8) (size 9 to 14) (size 15 to 20)
#    0.000    0.000    8.000    2.000    1.867    2.667 
#    2.400    1.333    0.000    0.000    0.000    0.000 
#    0.000    0.000    0.000    0.000    0.000    0.000 
#
# Total GULP energy -83724.176719 kJ/mol
# GULP energy per Si atom -5581.611781 kJ/mol
# Density = 2.292526 g / cm^3
# Si number density = 22.977554 Si / 1000 Ang^3
#
#
#
# Elastic Constant Matrix: (Units=GPa)
#
#
# Indices 1 2 3 4 5 6 
#
# 1 122.9229 37.9424 21.4821 13.0477 -6.1379 5.3312
# 2 37.9424 144.9830 38.5055 13.8922 -8.9255 3.0314
# 3 21.4821 38.5055 59.4861 4.3504 -3.8956 1.8185
# 4 13.0477 13.8922 4.3504 45.9892 6.6375 -8.9962
# 5 -6.1379 -8.9255 -3.8956 6.6375 34.3839 1.4355
# 6 5.3312 3.0314 1.8185 -8.9962 1.4355 43.6968
#
#
#
# Elastic Compliance Matrix: (Units=1/GPa)
#
#
# Indices 1 2 3 4 5 6 
#
# 1 0.009384 -0.001536 -0.002058 -0.002532 0.001596 -0.001526
# 2 -0.001536 0.008959 -0.004930 -0.002234 0.001955 -0.000753
# 3 -0.002058 -0.004930 0.020807 -0.000062 0.000735 -0.000310
# 4 -0.002532 -0.002234 -0.000062 0.025174 -0.006143 0.005851
# 5 0.001596 0.001955 0.000735 -0.006143 0.031256 -0.002652
# 6 -0.001526 -0.000753 -0.000310 0.005851 -0.002652 0.024428
#
#
# Mechanical properties :
#
#
# Convention : Reuss Voigt Hill
#
# Bulk Modulus (GPa) = 45.24587 58.13912 51.69250
# Shear Modulus (GPa) = 34.62046 40.11143 37.36594
#
# Velocity S-wave (km/s) = 3.88584 4.18266 4.03698
# Velocity P-wave (km/s) = 6.31404 6.97737 6.65398
#
# Compressibility (1/GPa) = 0.02210147
#
# Stress axis : x y z
#
# Youngs Moduli (GPa) = 106.56733 111.62114 48.06059
#
# Poissons Ratio (x) = 0.17150 0.09890
# Poissons Ratio (y) = 0.16373 0.23693
# Poissons Ratio (z) = 0.21930 0.55028
#
# Static dielectric constant tensor:
#      x y z
#    x 1.814430 -0.005830 -0.005580 
#    y -0.005830 1.914560 -0.034210 
#    z -0.005580 -0.034210 1.907630 
# 
# From -- ./inp_files/475209.got.cif
#   From: 2010.05.17/outbox.cif.g08.bks.cpg/sg2_238_cif.got.tgz:475209.got - 2010.06.03 11:33:40.
