data_PCOD9068032
_publ_section_title
;
Structure prediction by ZEFSAII (Michael W. Deem and Ramdas Pophale) SiO2 
 PCOD9068032
Probable space group: P -1
;
_chemical_formula_sum "Si O2"
_cell_formula_units_Z 14
_cell_length_a 5.441686
_cell_length_b 24.671308
_cell_length_c 17.087593
_cell_angle_alpha 159.436297
_cell_angle_beta 53.183708
_cell_angle_gamma 117.005902
_cell_volume 596.568902
_symmetry_space_group_name_H-M "P -1"
_symmetry_group_IT_number 2
_symmetry_cell_setting 'triclinic'
loop_
_space_group_symop_operation_xyz
x,y,z
-x,-y,-z
loop_
_atom_site_type_symbol
_atom_site_label
_atom_site_fract_x
_atom_site_fract_y
_atom_site_fract_z
Si Si1 0.078824 0.943450 0.624129
Si Si2 0.761412 0.402586 0.418437
Si Si3 0.627096 0.321128 0.503851
Si Si4 0.852017 0.261935 0.041574
Si Si5 0.828294 0.859782 0.714094
Si Si6 0.204360 0.122178 0.631462
Si Si7 0.863547 0.381215 0.915163
O O1 0.408400 0.979420 0.593784
O O2 0.169873 0.758198 0.323385
O O3 0.988152 0.935525 0.719946
O O4 0.789587 0.087093 0.824468
O O5 0.780511 0.320359 0.388002
O O6 0.869788 0.286167 0.164534
O O7 0.401807 0.552797 0.682497
O O8 0.000000 0.500000 0.500000
O O9 0.318064 0.264570 0.469499
O O10 0.907210 0.213728 0.366301
O O11 0.467027 0.502193 0.819227
O O12 0.117093 0.215273 0.857647
O O13 0.500000 0.000000 0.000000
O O14 0.100310 0.267433 0.783017
O O15 0.000000 0.000000 0.500000
O O16 0.000000 0.500000 0.000000
#
# Coordination Sequence:
#
# PCOD9068032 Si02
#       7
#     2   2   2   2   2   2   2
#     4  12  28  46  81 111 164 205 271 335 408 485
#     4  11  28  45  77 107 156 208 266 334 399 480
#     4  12  28  50  80 113 158 207 271 327 405 480
#     4  11  26  47  71 115 149 202 267 326 402 476
#     4  12  29  53  80 115 158 212 265 333 403 488
#     4  12  27  48  79 115 155 211 271 334 410 485
#     4  12  26  47  76 114 158 209 266 335 406 480
#
# _framework density 23.467531000000001
#
# number of rings (size 3 to 8) (size 9 to 14) (size 15 to 20)
#    0.000    0.286    4.286    2.571   12.000    1.143 
#    0.000    0.000    0.000    0.000    0.000    0.000 
#    0.000    0.000    0.000    0.000    0.000    0.000 
#
# Total GULP energy -78160.536972 kJ/mol
# GULP energy per Si atom -5582.895498 kJ/mol
# Density = 2.341412 g / cm^3
# Si number density = 23.467531 Si / 1000 Ang^3
#
#
#
# Elastic Constant Matrix: (Units=GPa)
#
#
# Indices 1 2 3 4 5 6 
#
# 1 94.8540 70.5169 29.0447 5.4053 -0.2512 -21.5636
# 2 70.5169 178.7418 45.8770 -14.5625 1.8195 -32.9039
# 3 29.0447 45.8770 107.8902 -16.9857 14.6973 -20.7341
# 4 5.4053 -14.5625 -16.9857 59.7363 -4.6137 2.3005
# 5 -0.2512 1.8195 14.6973 -4.6137 35.0902 14.8641
# 6 -21.5636 -32.9039 -20.7341 2.3005 14.8641 48.6432
#
#
#
# Elastic Compliance Matrix: (Units=1/GPa)
#
#
# Indices 1 2 3 4 5 6 
#
# 1 0.016171 -0.005652 -0.001894 -0.003525 -0.000468 0.002848
# 2 -0.005652 0.008907 -0.001146 0.002144 -0.001128 0.003275
# 3 -0.001894 -0.001146 0.012892 0.002741 -0.007561 0.006062
# 4 -0.003525 0.002144 0.002741 0.018463 0.001225 -0.000192
# 5 -0.000468 -0.001128 -0.007561 0.001225 0.038690 -0.016074
# 6 0.002848 0.003275 0.006062 -0.000192 -0.016074 0.031540
#
#
# Mechanical properties :
#
#
# Convention : Reuss Voigt Hill
#
# Bulk Modulus (GPa) = 48.57285 74.70700 61.63993
# Shear Modulus (GPa) = 33.13235 44.43044 38.78139
#
# Velocity S-wave (km/s) = 3.76152 4.35590 4.06957
# Velocity P-wave (km/s) = 6.29350 7.56318 6.95737
#
# Compressibility (1/GPa) = 0.02058763
#
# Stress axis : x y z
#
# Youngs Moduli (GPa) = 61.83751 112.26521 77.56677
#
# Poissons Ratio (x) = 0.63452 0.14692
# Poissons Ratio (y) = 0.34950 0.08886
# Poissons Ratio (z) = 0.11713 0.12861
#
# Static dielectric constant tensor:
#      x y z
#    x 2.036440 0.053430 -0.149050 
#    y 0.053430 1.638200 0.691300 
#    z -0.149050 0.691300 -0.136550 
# 
# From -- ./inp_files/551249.got.cif
#   From: 2010.05.17/outbox.cif.g08.bks.cpg/sg2_276_cif.got.tgz:551249.got - 2010.06.03 11:33:40.
