data_PCOD9068069
_publ_section_title
;
Structure prediction by ZEFSAII (Michael W. Deem and Ramdas Pophale) SiO2 
 PCOD9068069
Probable space group: P -1
;
_chemical_formula_sum "Si O2"
_cell_formula_units_Z 14
_cell_length_a 9.579778
_cell_length_b 5.170900
_cell_length_c 17.399148
_cell_angle_alpha 62.625844
_cell_angle_beta 125.079965
_cell_angle_gamma 119.797305
_cell_volume 593.372053
_symmetry_space_group_name_H-M "P -1"
_symmetry_group_IT_number 2
_symmetry_cell_setting 'triclinic'
loop_
_space_group_symop_operation_xyz
x,y,z
-x,-y,-z
loop_
_atom_site_type_symbol
_atom_site_label
_atom_site_fract_x
_atom_site_fract_y
_atom_site_fract_z
Si Si1 0.602075 0.617388 0.935094
Si Si2 0.334229 0.723399 0.387933
Si Si3 0.707365 0.293990 0.277788
Si Si4 0.833060 0.207891 0.008602
Si Si5 0.274583 0.010178 0.489050
Si Si6 0.007917 0.151818 0.771320
Si Si7 0.884213 0.817045 0.367889
O O1 0.472779 0.679455 0.820058
O O2 0.500000 0.500000 0.000000
O O3 0.681902 0.352187 0.969637
O O4 0.751691 0.945566 0.955132
O O5 0.299375 0.360578 0.419083
O O6 0.541728 0.914408 0.413623
O O7 0.294811 0.791772 0.455065
O O8 0.192781 0.841007 0.279807
O O9 0.746108 0.975753 0.333477
O O10 0.766073 0.476453 0.351285
O O11 0.860524 0.499257 0.238918
O O12 0.910062 0.036387 0.120965
O O13 0.000000 0.500000 0.000000
O O14 0.064963 0.875615 0.466186
O O15 0.031228 0.045715 0.706638
#
# Coordination Sequence:
#
# PCOD9068069 Si02
#       7
#     2   2   2   2   2   2   2
#     4  12  22  40  59  80 102 143 189 228 265 330
#     4   9  16  23  40  63  95 139 157 197 254 328
#     4  10  18  28  50  73  93 129 172 212 249 310
#     4  12  26  39  55  80 113 143 181 231 275 312
#     4   9  14  24  37  64 101 129 156 197 263 312
#     4   9  19  30  49  69 102 134 175 206 266 310
#     4   9  15  27  43  74  98 129 160 214 259 307
#
# _framework density 23.593969999999999
#
# number of rings (size 3 to 8) (size 9 to 14) (size 15 to 20)
#    0.857    1.143    2.857    2.571    0.000    0.000 
#    0.000    0.000    0.000    0.000    0.000    0.000 
#    0.000    6.857    0.000    0.000    0.000    0.429 
#
# Total GULP energy -78162.150207 kJ/mol
# GULP energy per Si atom -5583.010729 kJ/mol
# Density = 2.354027 g / cm^3
# Si number density = 23.593970 Si / 1000 Ang^3
#
#
#
# Elastic Constant Matrix: (Units=GPa)
#
#
# Indices 1 2 3 4 5 6 
#
# 1 72.2533 14.0936 42.2864 -7.1411 27.3316 -8.1557
# 2 14.0936 124.2974 33.1394 8.9273 15.3444 -9.9364
# 3 42.2864 33.1394 171.1570 20.6422 50.4678 -12.2773
# 4 -7.1411 8.9273 20.6422 30.2587 -0.4052 15.2726
# 5 27.3316 15.3444 50.4678 -0.4052 40.1632 -6.1738
# 6 -8.1557 -9.9364 -12.2773 15.2726 -6.1738 36.7236
#
#
#
# Elastic Compliance Matrix: (Units=1/GPa)
#
#
# Indices 1 2 3 4 5 6 
#
# 1 0.020003 -0.000969 -0.002931 0.007704 -0.009733 -0.001640
# 2 -0.000969 0.009100 0.000039 -0.004956 -0.002311 0.003933
# 3 -0.002931 0.000039 0.012224 -0.012516 -0.012500 0.006550
# 4 0.007704 -0.004956 -0.012516 0.058421 0.008876 -0.026618
# 5 -0.009733 -0.002311 -0.012500 0.008876 0.047799 -0.002622
# 6 -0.001640 0.003933 0.006550 -0.026618 -0.002622 0.040749
#
#
# Mechanical properties :
#
#
# Convention : Reuss Voigt Hill
#
# Bulk Modulus (GPa) = 29.75793 60.74960 45.25376
# Shear Modulus (GPa) = 24.12874 39.97500 32.05187
#
# Velocity S-wave (km/s) = 3.20138 4.12064 3.68975
# Velocity P-wave (km/s) = 5.12884 6.96013 6.11345
#
# Compressibility (1/GPa) = 0.03360449
#
# Stress axis : x y z
#
# Youngs Moduli (GPa) = 49.99311 109.88460 81.80326
#
# Poissons Ratio (x) = 0.10653 0.23976
# Poissons Ratio (y) = 0.04846 -0.00318
# Poissons Ratio (z) = 0.14653 -0.00427
#
# Static dielectric constant tensor:
#      x y z
#    x 1.888190 0.047610 -0.023320 
#    y 0.047610 1.839050 0.064980 
#    z -0.023320 0.064980 1.867100 
# 
# From -- ./inp_files/585570.got.cif
#   From: 2010.05.17/outbox.cif.g08.bks.cpg/sg2_293_cif.got.tgz:585570.got - 2010.06.03 11:33:40.
