data_PCOD9068248
_publ_section_title
;
Structure prediction by ZEFSAII (Michael W. Deem and Ramdas Pophale) SiO2 
 PCOD9068248
Probable space group: P -1
;
_chemical_formula_sum "Si O2"
_cell_formula_units_Z 15
_cell_length_a 11.534388
_cell_length_b 8.735546
_cell_length_c 10.813878
_cell_angle_alpha 124.235444
_cell_angle_beta 113.064344
_cell_angle_gamma 41.006182
_cell_volume 589.974246
_symmetry_space_group_name_H-M "P -1"
_symmetry_group_IT_number 2
_symmetry_cell_setting 'triclinic'
loop_
_space_group_symop_operation_xyz
x,y,z
-x,-y,-z
loop_
_atom_site_type_symbol
_atom_site_label
_atom_site_fract_x
_atom_site_fract_y
_atom_site_fract_z
Si Si1 0.631309 0.737810 0.521071
Si Si2 0.924676 0.595118 0.746694
Si Si3 0.378630 0.346735 0.995001
Si Si4 0.500000 0.500000 0.500000
Si Si5 0.881722 0.974656 0.508754
Si Si6 0.737246 0.908340 0.063914
Si Si7 0.984896 0.096886 0.820660
Si Si8 0.788966 0.395299 0.191875
O O1 0.763499 0.739805 0.648820
O O2 0.576099 0.638118 0.554133
O O3 0.725243 0.517291 0.355512
O O4 0.500000 0.000000 0.500000
O O5 0.834721 0.709430 0.897171
O O6 0.058028 0.626561 0.800867
O O7 0.052106 0.292565 0.626425
O O8 0.374734 0.416672 0.884454
O O9 0.560890 0.196167 0.073863
O O10 0.339219 0.168627 0.911590
O O11 0.202771 0.620203 0.101039
O O12 0.685912 0.244318 0.520885
O O13 0.930590 0.967971 0.667590
O O14 0.000000 0.000000 0.500000
O O15 0.881909 0.891321 0.179728
O O16 0.116800 0.899453 0.895298
#
# Coordination Sequence:
#
# PCOD9068248 Si02
#       8
#     2   2   2   1   2   2   2   2
#     4  12  27  49  77 122 159 207 266 331 397 476
#     4  12  25  51  79 112 162 209 260 331 398 470
#     4  11  26  48  77 110 153 208 258 322 389 471
#     4  12  28  50  82 118 156 214 260 330 400 476
#     4  12  26  48  79 116 153 199 265 324 391 469
#     4  11  27  49  77 111 153 206 265 314 393 474
#     4  12  26  49  73 111 153 200 258 318 387 468
#     4  12  26  48  76 112 158 204 259 325 396 465
#
# _framework density 25.424835999999999
#
# number of rings (size 3 to 8) (size 9 to 14) (size 15 to 20)
#    0.000    0.267    4.000    3.600    3.733    2.667 
#    4.800    0.000    0.000    0.000    0.000    0.000 
#    0.000    0.000    0.000    0.000    0.000    0.000 
#
# Total GULP energy -83646.983183 kJ/mol
# GULP energy per Si atom -5576.465546 kJ/mol
# Density = 2.536697 g / cm^3
# Si number density = 25.424836 Si / 1000 Ang^3
#
#
#
# Elastic Constant Matrix: (Units=GPa)
#
#
# Indices 1 2 3 4 5 6 
#
# 1 12.4552 -15.2191 20.7477 -3.8003 37.4245 5.9399
# 2 -15.2191 201.5414 57.5384 -5.2732 32.3257 -0.1518
# 3 20.7477 57.5384 73.5831 1.3592 8.3328 -9.1574
# 4 -3.8003 -5.2732 1.3592 29.7151 11.1385 10.9831
# 5 37.4245 32.3257 8.3328 11.1385 7.5818 -17.1905
# 6 5.9399 -0.1518 -9.1574 10.9831 -17.1905 34.8529
#
#
#
# Elastic Compliance Matrix: (Units=1/GPa)
#
#
# Indices 1 2 3 4 5 6 
#
# 1 0.007520 -0.002836 -0.000457 -0.011605 0.020202 0.012207
# 2 -0.002836 0.004951 -0.003231 -0.001758 0.004207 0.002285
# 3 -0.000457 -0.003231 0.017176 0.002897 -0.010175 -0.001355
# 4 -0.011605 -0.001758 0.002897 0.031338 0.005432 -0.004465
# 5 0.020202 0.004207 -0.010175 0.005432 0.002244 -0.006703
# 6 0.012207 0.002285 -0.001355 -0.004465 -0.006703 0.024366
#
#
# Mechanical properties :
#
#
# Convention : Reuss Voigt Hill
#
# Bulk Modulus (GPa) = 60.24772 45.96819 53.10795
# Shear Modulus (GPa) = 47.09132 29.39748 38.24440
#
# Velocity S-wave (km/s) = 4.30836 3.40406 3.88263
# Velocity P-wave (km/s) = 6.96399 5.79391 6.40572
#
# Compressibility (1/GPa) = 0.01659814
#
# Stress axis : x y z
#
# Youngs Moduli (GPa) = 132.97654 201.98159 58.22224
#
# Poissons Ratio (x) = 0.57289 0.02659
# Poissons Ratio (y) = 0.37717 0.18813
# Poissons Ratio (z) = 0.06072 0.65265
#
# Static dielectric constant tensor:
#      x y z
#    x 2.023550 0.040970 -0.073100 
#    y 0.040970 1.905690 -0.103680 
#    z -0.073100 -0.103680 2.184590 
# 
# From -- ./inp_files/420083.got.cif
#   From: 2010.05.17/outbox.cif.g08.bks.cpg/sg2_211_cif.got.tgz:420083.got - 2010.06.03 11:33:40.
