data_PCOD9068654
_publ_section_title
;
Structure prediction by ZEFSAII (Michael W. Deem and Ramdas Pophale) SiO2 
 PCOD9068654
Probable space group: P -1
;
_chemical_formula_sum "Si O2"
_cell_formula_units_Z 16
_cell_length_a 8.536166
_cell_length_b 13.705687
_cell_length_c 6.525445
_cell_angle_alpha 111.877059
_cell_angle_beta 104.020035
_cell_angle_gamma 89.702111
_cell_volume 684.279986
_symmetry_space_group_name_H-M "P -1"
_symmetry_group_IT_number 2
_symmetry_cell_setting 'triclinic'
loop_
_space_group_symop_operation_xyz
x,y,z
-x,-y,-z
loop_
_atom_site_type_symbol
_atom_site_label
_atom_site_fract_x
_atom_site_fract_y
_atom_site_fract_z
Si Si1 0.442385 0.915734 0.587906
Si Si2 0.773147 0.495216 0.658494
Si Si3 0.937457 0.738363 0.566144
Si Si4 0.697190 0.676250 0.087732
Si Si5 0.621282 0.323002 0.756161
Si Si6 0.873239 0.422410 0.237672
Si Si7 0.729011 0.845878 0.894926
Si Si8 0.105857 0.967505 0.698476
O O1 0.390272 0.801196 0.385084
O O2 0.584544 0.897595 0.778140
O O3 0.288805 0.956656 0.679650
O O4 0.500000 0.000000 0.500000
O O5 0.673173 0.388053 0.618941
O O6 0.768605 0.493077 0.406864
O O7 0.969385 0.512698 0.760147
O O8 0.709380 0.585001 0.851939
O O9 0.857757 0.696456 0.294816
O O10 0.052505 0.662389 0.656053
O O11 0.032925 0.852534 0.653310
O O12 0.793268 0.760973 0.693263
O O13 0.545605 0.651925 0.171051
O O14 0.678630 0.783384 0.037915
O O15 0.763130 0.362477 0.988193
O O16 0.873709 0.935899 0.060505
O O17 0.000000 0.000000 0.500000
#
# Coordination Sequence:
#
# PCOD9068654 Si02
#       8
#     2   2   2   2   2   2   2   2
#     4  12  28  50  76 110 151 192 246 305 371 442
#     4  11  27  50  73 111 152 194 251 311 372 441
#     4  12  26  47  73 111 148 196 248 306 369 442
#     4  12  27  48  75 109 154 194 248 307 370 441
#     4  12  28  48  77 109 149 200 250 305 371 446
#     4  11  28  46  78 110 148 198 251 307 377 436
#     4  12  26  50  72 107 155 196 243 306 367 442
#     4  12  26  45  77 109 145 196 246 302 370 439
#
# _framework density 23.382241
#
# number of rings (size 3 to 8) (size 9 to 14) (size 15 to 20)
#    0.000    0.250    3.750    3.750   14.000    0.500 
#    0.000    0.000    0.000    0.000    0.000    0.000 
#    0.000    0.000    0.000    0.000    0.000    0.000 
#
# Total GULP energy -89622.681732 kJ/mol
# GULP energy per Si atom -5601.417608 kJ/mol
# Density = 2.332902 g / cm^3
# Si number density = 23.382241 Si / 1000 Ang^3
#
#
#
# Elastic Constant Matrix: (Units=GPa)
#
#
# Indices 1 2 3 4 5 6 
#
# 1 72.6480 31.6854 7.0972 -11.4539 -12.9831 7.6003
# 2 31.6854 122.4916 -0.6775 0.3616 -11.5356 23.5751
# 3 7.0972 -0.6775 44.8404 10.5841 -2.4698 -5.7729
# 4 -11.4539 0.3616 10.5841 46.9867 -2.4441 -0.2611
# 5 -12.9831 -11.5356 -2.4698 -2.4441 47.6371 -2.4932
# 6 7.6003 23.5751 -5.7729 -0.2611 -2.4932 49.8860
#
#
#
# Elastic Compliance Matrix: (Units=1/GPa)
#
#
# Indices 1 2 3 4 5 6 
#
# 1 0.017559 -0.004023 -0.004039 0.005414 0.003826 -0.001022
# 2 -0.004023 0.010093 0.000604 -0.001159 0.001108 -0.004037
# 3 -0.004039 0.000604 0.024922 -0.006577 0.000167 0.003188
# 4 0.005414 -0.001159 -0.006577 0.024195 0.002053 -0.000809
# 5 0.003826 0.001108 0.000167 0.002053 0.022419 0.000044
# 6 -0.001022 -0.004037 0.003188 -0.000809 0.000044 0.022476
#
#
# Mechanical properties :
#
#
# Convention : Reuss Voigt Hill
#
# Bulk Modulus (GPa) = 26.55529 35.13223 30.84376
# Shear Modulus (GPa) = 33.52739 42.36029 37.94384
#
# Velocity S-wave (km/s) = 3.79077 4.26096 4.03272
# Velocity P-wave (km/s) = 5.52645 6.26622 5.90792
#
# Compressibility (1/GPa) = 0.03765729
#
# Stress axis : x y z
#
# Youngs Moduli (GPa) = 56.95206 99.08125 40.12580
#
# Poissons Ratio (x) = 0.39864 0.16206
# Poissons Ratio (y) = 0.22914 -0.02424
# Poissons Ratio (z) = 0.23001 -0.05987
#
# Static dielectric constant tensor:
#      x y z
#    x 1.869510 -0.008610 -0.053960 
#    y -0.008610 1.894580 0.002950 
#    z -0.053960 0.002950 1.929480 
# 
# From -- ./inp_files/40027.got.cif
#   From: 2010.05.17/outbox.cif.g08.bks.cpg/sg2_21_cif.got.tgz:40027.got - 2010.06.03 11:33:40.
