data_PCOD9068208
_publ_section_title
;
Structure prediction by ZEFSAII (Michael W. Deem and Ramdas Pophale) SiO2 
 PCOD9068208
Probable space group: P -1
;
_chemical_formula_sum "Si O2"
_cell_formula_units_Z 10
_cell_length_a 18.059738
_cell_length_b 8.995039
_cell_length_c 6.634991
_cell_angle_alpha 55.831562
_cell_angle_beta 48.800538
_cell_angle_gamma 29.004568
_cell_volume 392.924295
_symmetry_space_group_name_H-M "P -1"
_symmetry_group_IT_number 2
_symmetry_cell_setting 'triclinic'
loop_
_space_group_symop_operation_xyz
x,y,z
-x,-y,-z
loop_
_atom_site_type_symbol
_atom_site_label
_atom_site_fract_x
_atom_site_fract_y
_atom_site_fract_z
Si Si1 0.025368 0.708460 0.091678
Si Si2 0.638819 0.660109 0.420350
Si Si3 0.527992 0.174788 0.780667
Si Si4 0.746387 0.254329 0.878976
Si Si5 0.153090 0.147837 0.334215
O O1 0.031342 0.484495 0.217588
O O2 0.954475 0.831308 0.352855
O O3 0.215668 0.483610 0.878556
O O4 0.902783 0.990319 0.945175
O O5 0.526923 0.701260 0.443752
O O6 0.740894 0.426118 0.600289
O O7 0.500000 0.000000 0.500000
O O8 0.714550 0.956978 0.670531
O O9 0.409262 0.467397 0.913655
O O10 0.500000 0.000000 0.000000
O O11 0.748159 0.084014 0.852139
#
# Coordination Sequence:
#
# PCOD9068208 Si02
#       5
#     2   2   2   2   2
#     4  11  26  48  74 109 149 190 245 300 365 428
#     4  12  26  48  76 106 147 196 243 296 366 435
#     4  12  25  49  74 105 147 195 243 295 362 437
#     4  12  26  45  77 110 146 192 247 297 363 431
#     4  11  26  49  75 107 149 189 246 303 360 430
#
# _framework density 25.450195999999998
#
# number of rings (size 3 to 8) (size 9 to 14) (size 15 to 20)
#    0.000    0.400    4.000    3.000    0.000   14.400 
#    0.000    0.000    0.000    0.000    0.000    0.000 
#    0.000    0.000    0.000    0.000    0.000    0.000 
#
# Total GULP energy -55985.045828 kJ/mol
# GULP energy per Si atom -5598.504583 kJ/mol
# Density = 2.539227 g / cm^3
# Si number density = 25.450196 Si / 1000 Ang^3
#
#
#
# Elastic Constant Matrix: (Units=GPa)
#
#
# Indices 1 2 3 4 5 6 
#
# 1 76.3192 59.6381 56.9561 13.9185 3.6850 16.1898
# 2 59.6381 195.7493 83.6988 5.5585 4.3311 -11.5031
# 3 56.9561 83.6988 105.7776 5.3743 16.2798 -0.0058
# 4 13.9185 5.5585 5.3743 57.8484 0.4219 17.1805
# 5 3.6850 4.3311 16.2798 0.4219 35.3220 9.5785
# 6 16.1898 -11.5031 -0.0058 17.1805 9.5785 39.7457
#
#
#
# Elastic Compliance Matrix: (Units=1/GPa)
#
#
# Indices 1 2 3 4 5 6 
#
# 1 0.029525 -0.004093 -0.013793 -0.001155 0.007747 -0.014580
# 2 -0.004093 0.008599 -0.004612 -0.000719 0.000317 0.004390
# 3 -0.013793 -0.004612 0.022085 -0.000237 -0.010016 0.006803
# 4 -0.001155 -0.000719 -0.000237 0.020355 0.002557 -0.009153
# 5 0.007747 0.000317 -0.010016 0.002557 0.035501 -0.012726
# 6 -0.014580 0.004390 0.006803 -0.009153 -0.012726 0.039394
#
#
# Mechanical properties :
#
#
# Convention : Reuss Voigt Hill
#
# Bulk Modulus (GPa) = 65.74199 86.49246 76.11723
# Shear Modulus (GPa) = 24.32790 38.42009 31.37399
#
# Velocity S-wave (km/s) = 3.09512 3.88960 3.51488
# Velocity P-wave (km/s) = 6.21778 7.36415 6.81511
#
# Compressibility (1/GPa) = 0.01521098
#
# Stress axis : x y z
#
# Youngs Moduli (GPa) = 33.87012 116.29231 45.28051
#
# Poissons Ratio (x) = 0.47595 0.62458
# Poissons Ratio (y) = 0.13862 0.20885
# Poissons Ratio (z) = 0.46719 0.53639
#
# Static dielectric constant tensor:
#      x y z
#    x 2.022880 0.027990 -0.038000 
#    y 0.027990 1.979610 -0.059010 
#    z -0.038000 -0.059010 2.090080 
# 
# From -- ./inp_files/16851.got.cif
#   From: 2010.05.17/outbox.cif.g08.bks.cpg/sg2_9_cif.got.tgz:16851.got - 2010.06.03 11:33:40.
