data_PCOD9068215
_publ_section_title
;
Structure prediction by ZEFSAII (Michael W. Deem and Ramdas Pophale) SiO2 
 PCOD9068215
Probable space group: P -1
;
_chemical_formula_sum "Si O2"
_cell_formula_units_Z 13
_cell_length_a 8.771314
_cell_length_b 10.583079
_cell_length_c 7.146363
_cell_angle_alpha 79.958296
_cell_angle_beta 71.114560
_cell_angle_gamma 57.567189
_cell_volume 529.764532
_symmetry_space_group_name_H-M "P -1"
_symmetry_group_IT_number 2
_symmetry_cell_setting 'triclinic'
loop_
_space_group_symop_operation_xyz
x,y,z
-x,-y,-z
loop_
_atom_site_type_symbol
_atom_site_label
_atom_site_fract_x
_atom_site_fract_y
_atom_site_fract_z
Si Si1 0.258429 0.399146 0.249612
Si Si2 0.235246 0.658956 0.756938
Si Si3 0.145695 0.846755 0.376686
Si Si4 0.089518 0.162059 0.876237
Si Si5 0.825486 0.584439 0.298228
Si Si6 0.500000 0.500000 0.000000
Si Si7 0.579062 0.104867 0.004356
O O1 0.268229 0.377796 0.472037
O O2 0.295431 0.529255 0.135699
O O3 0.043830 0.455159 0.267333
O O4 0.402099 0.252391 0.117890
O O5 0.230353 0.718030 0.534787
O O6 0.046584 0.782565 0.903745
O O7 0.406229 0.623309 0.833666
O O8 0.021902 0.828328 0.270327
O O9 0.316631 0.853342 0.207190
O O10 0.000000 0.000000 0.500000
O O11 0.175047 0.270040 0.807861
O O12 0.256880 0.992592 0.886344
O O13 0.742304 0.504868 0.228550
O O14 0.500000 0.000000 0.000000
#
# Coordination Sequence:
#
# PCOD9068215 Si02
#       7
#     2   2   2   2   2   1   2
#     4  11  26  48  74 119 153 204 263 323 392 466
#     4  12  27  51  81 120 153 211 267 326 400 466
#     4  12  28  51  82 112 161 220 258 314 411 477
#     4  12  26  53  81 116 161 209 264 324 394 480
#     4  11  26  50  84 106 160 214 257 320 402 473
#     4  12  28  46  78 112 160 192 268 338 374 460
#     4  12  29  48  80 121 161 204 263 336 385 467
#
# _framework density 24.539204000000002
#
# number of rings (size 3 to 8) (size 9 to 14) (size 15 to 20)
#    0.000    0.308    3.077    4.615    8.615    2.462 
#    0.000    0.000    0.000    0.000    0.000    0.000 
#    0.000    0.000    0.000    0.000    0.000    0.000 
#
# Total GULP energy -72662.807119 kJ/mol
# GULP energy per Si atom -5589.446701 kJ/mol
# Density = 2.448335 g / cm^3
# Si number density = 24.539204 Si / 1000 Ang^3
#
#
#
# Elastic Constant Matrix: (Units=GPa)
#
#
# Indices 1 2 3 4 5 6 
#
# 1 91.2858 40.4481 70.8527 -10.2694 -18.0990 -28.4792
# 2 40.4481 114.1930 57.5638 -0.7013 -11.0915 -9.2958
# 3 70.8527 57.5638 174.6900 -20.4198 -4.1641 -12.0545
# 4 -10.2694 -0.7013 -20.4198 34.3513 -10.8357 -10.0071
# 5 -18.0990 -11.0915 -4.1641 -10.8357 55.0281 0.9730
# 6 -28.4792 -9.2958 -12.0545 -10.0071 0.9730 45.1195
#
#
#
# Elastic Compliance Matrix: (Units=1/GPa)
#
#
# Indices 1 2 3 4 5 6 
#
# 1 0.025779 -0.003505 -0.006656 0.011263 0.009202 0.016071
# 2 -0.003505 0.011273 -0.002672 -0.002620 0.000422 -0.001194
# 3 -0.006656 -0.002672 0.009470 0.002658 -0.001459 -0.001601
# 4 0.011263 -0.002620 0.002658 0.042401 0.011436 0.016437
# 5 0.009202 0.000422 -0.001459 0.011436 0.023293 0.007540
# 6 0.016071 -0.001194 -0.001601 0.016437 0.007540 0.035117
#
#
# Mechanical properties :
#
#
# Convention : Reuss Voigt Hill
#
# Bulk Modulus (GPa) = 47.94538 79.76646 63.85592
# Shear Modulus (GPa) = 27.78562 40.98674 34.38618
#
# Velocity S-wave (km/s) = 3.36861 4.09131 3.74742
# Velocity P-wave (km/s) = 5.89158 7.40910 6.69348
#
# Compressibility (1/GPa) = 0.02085707
#
# Stress axis : x y z
#
# Youngs Moduli (GPa) = 38.79129 88.70664 105.59694
#
# Poissons Ratio (x) = 0.31089 0.70285
# Poissons Ratio (y) = 0.13595 0.28214
# Poissons Ratio (z) = 0.25819 0.23701
#
# Static dielectric constant tensor:
#      x y z
#    x 1.867290 -0.129770 -0.097470 
#    y -0.129770 1.821920 -0.148200 
#    z -0.097470 -0.148200 1.819760 
# 
# From -- ./inp_files/42028.got.cif
#   From: 2010.05.17/outbox.cif.g08.bks.cpg/sg2_22_cif.got.tgz:42028.got - 2010.06.03 11:33:40.
