data_PCOD9068533
_publ_section_title
;
Structure prediction by ZEFSAII (Michael W. Deem and Ramdas Pophale) SiO2 
 PCOD9068533
Probable space group: P -1
;
_chemical_formula_sum "Si O2"
_cell_formula_units_Z 14
_cell_length_a 5.093296
_cell_length_b 13.293638
_cell_length_c 13.965251
_cell_angle_alpha 46.611713
_cell_angle_beta 97.506309
_cell_angle_gamma 117.744285
_cell_volume 581.261859
_symmetry_space_group_name_H-M "P -1"
_symmetry_group_IT_number 2
_symmetry_cell_setting 'triclinic'
loop_
_space_group_symop_operation_xyz
x,y,z
-x,-y,-z
loop_
_atom_site_type_symbol
_atom_site_label
_atom_site_fract_x
_atom_site_fract_y
_atom_site_fract_z
Si Si1 0.507012 0.709267 0.745320
Si Si2 0.635355 0.389748 0.547266
Si Si3 0.399913 0.017084 0.288184
Si Si4 0.303932 0.161055 0.016788
Si Si5 0.836804 0.508799 0.889432
Si Si6 0.644883 0.925106 0.126572
Si Si7 0.753234 0.846397 0.468136
O O1 0.657405 0.601774 0.841987
O O2 0.714774 0.824494 0.593669
O O3 0.139037 0.604853 0.772393
O O4 0.531965 0.819258 0.763910
O O5 0.500000 0.500000 0.500000
O O6 0.523457 0.225537 0.710813
O O7 0.511671 0.322686 0.479499
O O8 0.000000 0.500000 0.500000
O O9 0.662156 0.978193 0.350485
O O10 0.072629 0.886543 0.406917
O O11 0.374708 0.037938 0.159836
O O12 0.576089 0.337691 0.945012
O O13 0.267025 0.156678 0.903513
O O14 0.947720 0.080320 0.085584
O O15 0.000000 0.500000 0.000000
O O16 0.500000 0.000000 0.000000
#
# Coordination Sequence:
#
# PCOD9068533 Si02
#       7
#     2   2   2   2   2   2   2
#     4  12  27  45  72 109 148 192 243 300 374 441
#     4  12  29  48  74 109 151 189 247 316 379 435
#     4  12  24  47  74 105 145 191 246 302 360 455
#     4  11  27  44  76 102 147 188 258 296 373 440
#     4  12  27  46  72 108 151 192 240 309 373 434
#     4  11  27  49  78 107 144 203 259 308 372 450
#     4  12  26  46  74 103 144 197 242 296 373 447
#
# _framework density 24.085532000000001
#
# number of rings (size 3 to 8) (size 9 to 14) (size 15 to 20)
#    0.000    0.286    2.857    4.714   10.000    0.000 
#    0.000    0.000    0.000    0.000    0.000    0.000 
#    0.000    0.000    0.000    0.000    0.000    0.000 
#
# Total GULP energy -78260.775646 kJ/mol
# GULP energy per Si atom -5590.055403 kJ/mol
# Density = 2.403071 g / cm^3
# Si number density = 24.085532 Si / 1000 Ang^3
#
#
#
# Elastic Constant Matrix: (Units=GPa)
#
#
# Indices 1 2 3 4 5 6 
#
# 1 127.0976 16.8569 27.9027 -23.6857 6.2784 18.2212
# 2 16.8569 87.5781 14.8534 -24.0690 -16.1511 26.4067
# 3 27.9027 14.8534 88.6362 -1.6561 -11.8857 7.1415
# 4 -23.6857 -24.0690 -1.6561 48.1015 -1.1079 -13.7309
# 5 6.2784 -16.1511 -11.8857 -1.1079 55.9876 -8.9825
# 6 18.2212 26.4067 7.1415 -13.7309 -8.9825 44.0641
#
#
#
# Elastic Compliance Matrix: (Units=1/GPa)
#
#
# Indices 1 2 3 4 5 6 
#
# 1 0.009763 0.000206 -0.003082 0.003942 -0.002070 -0.002855
# 2 0.000206 0.016020 -0.001645 0.006189 0.003277 -0.006823
# 3 -0.003082 -0.001645 0.012829 -0.001797 0.002583 0.000147
# 4 0.003942 0.006189 -0.001797 0.026886 0.002097 0.003758
# 5 -0.002070 0.003277 0.002583 0.002097 0.020147 0.003234
# 6 -0.002855 -0.006823 0.000147 0.003758 0.003234 0.029770
#
#
# Mechanical properties :
#
#
# Convention : Reuss Voigt Hill
#
# Bulk Modulus (GPa) = 33.81711 46.94866 40.38288
# Shear Modulus (GPa) = 37.22635 45.87723 41.55179
#
# Velocity S-wave (km/s) = 3.93566 4.36909 4.15803
# Velocity P-wave (km/s) = 5.89267 6.70722 6.31309
#
# Compressibility (1/GPa) = 0.02957083
#
# Stress axis : x y z
#
# Youngs Moduli (GPa) = 102.42360 62.42189 77.95007
#
# Poissons Ratio (x) = -0.01285 0.24023
# Poissons Ratio (y) = -0.02109 0.12820
# Poissons Ratio (z) = 0.31566 0.10266
#
# Static dielectric constant tensor:
#      x y z
#    x 2.062820 -0.081660 -0.009460 
#    y -0.081660 1.965470 -0.006270 
#    z -0.009460 -0.006270 1.966810 
# 
# From -- ./inp_files/484291.got.cif
#   From: 2010.05.17/outbox.cif.g08.bks.cpg/sg2_243_cif.got.tgz:484291.got - 2010.06.03 11:33:40.
