data_PCOD9068718
_publ_section_title
;
Structure prediction by ZEFSAII (Michael W. Deem and Ramdas Pophale) SiO2 
 PCOD9068718
Probable space group: P -1
;
_chemical_formula_sum "Si O2"
_cell_formula_units_Z 12
_cell_length_a 15.997674
_cell_length_b 8.262028
_cell_length_c 14.658005
_cell_angle_alpha 80.786940
_cell_angle_beta 161.555595
_cell_angle_gamma 107.751927
_cell_volume 527.454505
_symmetry_space_group_name_H-M "P -1"
_symmetry_group_IT_number 2
_symmetry_cell_setting 'triclinic'
loop_
_space_group_symop_operation_xyz
x,y,z
-x,-y,-z
loop_
_atom_site_type_symbol
_atom_site_label
_atom_site_fract_x
_atom_site_fract_y
_atom_site_fract_z
Si Si1 0.073062 0.507327 0.230910
Si Si2 0.212881 0.976125 0.648219
Si Si3 0.224874 0.442983 0.789500
Si Si4 0.149920 0.208216 0.249598
Si Si5 0.751049 0.764144 0.859535
Si Si6 0.574377 0.304946 0.854276
O O1 0.012272 0.350528 0.103940
O O2 0.430688 0.649190 0.587881
O O3 0.930613 0.646760 0.067054
O O4 0.917154 0.371116 0.169295
O O5 0.989018 0.774634 0.394076
O O6 0.368341 0.117157 0.713527
O O7 0.000000 0.000000 0.500000
O O8 0.500000 0.000000 0.000000
O O9 0.000000 0.500000 0.500000
O O10 0.500000 0.500000 0.000000
O O11 0.367368 0.541355 0.023069
O O12 0.293748 0.233934 0.296302
O O13 0.396733 0.280128 0.578769
O O14 0.926033 0.984270 0.049355
#
# Coordination Sequence:
#
# PCOD9068718 Si02
#       6
#     2   2   2   2   2   2
#     4  12  27  48  75 112 154 196 252 312 368 447
#     4  12  26  49  73 101 144 189 237 304 373 431
#     4  12  26  50  74 103 142 191 241 300 376 440
#     4  11  28  49  77 112 156 194 260 305 369 453
#     4  11  28  49  77 109 154 210 239 306 387 433
#     4  12  29  45  77 113 144 193 253 307 366 444
#
# _framework density 22.750776999999999
#
# number of rings (size 3 to 8) (size 9 to 14) (size 15 to 20)
#    0.000    0.333    5.000    1.000   11.667    1.333 
#    0.000    0.000    0.000    0.000    0.000    0.000 
#    0.000    0.000    0.000    0.000    0.000    0.000 
#
# Total GULP energy -67025.924814 kJ/mol
# GULP energy per Si atom -5585.493734 kJ/mol
# Density = 2.269900 g / cm^3
# Si number density = 22.750777 Si / 1000 Ang^3
#
#
#
# Elastic Constant Matrix: (Units=GPa)
#
#
# Indices 1 2 3 4 5 6 
#
# 1 105.2392 13.5880 67.9090 17.0232 5.2132 -2.8525
# 2 13.5880 137.6517 77.5864 38.4736 4.5498 -5.3559
# 3 67.9090 77.5864 174.8926 15.0398 23.3752 -5.8664
# 4 17.0232 38.4736 15.0398 62.7845 0.0973 0.8313
# 5 5.2132 4.5498 23.3752 0.0973 56.6498 10.6295
# 6 -2.8525 -5.3559 -5.8664 0.8313 10.6295 40.4919
#
#
#
# Elastic Compliance Matrix: (Units=1/GPa)
#
#
# Indices 1 2 3 4 5 6 
#
# 1 0.014153 0.003718 -0.006914 -0.004465 0.001211 0.000261
# 2 0.003718 0.012578 -0.006542 -0.007161 0.001208 0.000808
# 3 -0.006914 -0.006542 0.011599 0.003094 -0.003870 0.001280
# 4 -0.004465 -0.007161 0.003094 0.020801 -0.000099 -0.001215
# 5 0.001211 0.001208 -0.003870 -0.000099 0.020089 -0.005587
# 6 0.000261 0.000808 0.001280 -0.001215 -0.005587 0.026499
#
#
# Mechanical properties :
#
#
# Convention : Reuss Voigt Hill
#
# Bulk Modulus (GPa) = 53.04014 81.77226 67.40620
# Shear Modulus (GPa) = 38.02868 49.23191 43.63030
#
# Velocity S-wave (km/s) = 4.09287 4.65689 4.38396
# Velocity P-wave (km/s) = 6.76015 8.05830 7.43760
#
# Compressibility (1/GPa) = 0.01885365
#
# Stress axis : x y z
#
# Youngs Moduli (GPa) = 70.65730 79.50257 86.21662
#
# Poissons Ratio (x) = -0.29558 0.59609
# Poissons Ratio (y) = -0.26270 0.56404
# Poissons Ratio (z) = 0.48851 0.52012
#
# Static dielectric constant tensor:
#      x y z
#    x 1.863170 0.023530 0.015210 
#    y 0.023530 1.920060 -0.055290 
#    z 0.015210 -0.055290 1.827860 
# 
# From -- ./inp_files/526595.got.cif
#   From: 2010.05.17/outbox.cif.g08.bks.cpg/sg2_264_cif.got.tgz:526595.got - 2010.06.03 11:33:40.
