data_PCOD9068191
_publ_section_title
;
Structure prediction by ZEFSAII (Michael W. Deem and Ramdas Pophale) SiO2 
 PCOD9068191
Probable space group: P -1
;
_chemical_formula_sum "Si O2"
_cell_formula_units_Z 13
_cell_length_a 13.938626
_cell_length_b 6.720450
_cell_length_c 16.431999
_cell_angle_alpha 125.448795
_cell_angle_beta 154.689518
_cell_angle_gamma 48.646279
_cell_volume 493.254057
_symmetry_space_group_name_H-M "P -1"
_symmetry_group_IT_number 2
_symmetry_cell_setting 'triclinic'
loop_
_space_group_symop_operation_xyz
x,y,z
-x,-y,-z
loop_
_atom_site_type_symbol
_atom_site_label
_atom_site_fract_x
_atom_site_fract_y
_atom_site_fract_z
Si Si1 0.500000 0.000000 0.000000
Si Si2 0.778969 0.580497 0.788048
Si Si3 0.679725 0.172381 0.875160
Si Si4 0.771592 0.356955 0.283145
Si Si5 0.522757 0.272637 0.609407
Si Si6 0.007544 0.455198 0.236588
Si Si7 0.815665 0.789052 0.309782
O O1 0.364821 0.817786 0.894923
O O2 0.414949 0.940996 0.819414
O O3 0.614675 0.417159 0.645610
O O4 0.896225 0.526823 0.775322
O O5 0.651333 0.893884 0.782885
O O6 0.000000 0.500000 0.000000
O O7 0.430832 0.388507 0.768910
O O8 0.704273 0.229127 0.812655
O O9 0.899541 0.227302 0.100360
O O10 0.842196 0.501634 0.296447
O O11 0.992268 0.181970 0.471331
O O12 0.245736 0.428953 0.464305
O O13 0.500000 0.000000 0.500000
O O14 0.808686 0.722050 0.187487
#
# Coordination Sequence:
#
# PCOD9068191 Si02
#       7
#     1   2   2   2   2   2   2
#     4  12  24  48  74 104 144 190 246 294 368 422
#     4  12  26  46  73 108 146 192 235 294 364 426
#     4  12  25  46  73 104 147 186 242 296 353 433
#     4  11  26  50  73 108 146 191 243 304 360 430
#     4  12  25  47  70 105 146 186 238 295 356 432
#     4  12  24  46  71 105 143 186 237 292 356 429
#     4  11  26  48  73 107 145 190 243 301 363 429
#
# _framework density 26.355585999999999
#
# number of rings (size 3 to 8) (size 9 to 14) (size 15 to 20)
#    0.000    0.308    6.154    2.769    0.000    2.462 
#    8.308    0.000    0.000    0.000    0.000    0.000 
#    0.000    0.000    0.000    0.000    0.000    0.000 
#
# Total GULP energy -72415.875664 kJ/mol
# GULP energy per Si atom -5570.451974 kJ/mol
# Density = 2.629560 g / cm^3
# Si number density = 26.355586 Si / 1000 Ang^3
#
#
#
# Elastic Constant Matrix: (Units=GPa)
#
#
# Indices 1 2 3 4 5 6 
#
# 1 75.5803 29.1097 23.2134 10.4219 -1.2484 1.1884
# 2 29.1097 102.3178 24.5405 13.5609 4.6227 6.7107
# 3 23.2134 24.5405 167.2644 8.8169 2.9369 21.1415
# 4 10.4219 13.5609 8.8169 64.8474 13.3531 -1.7136
# 5 -1.2484 4.6227 2.9369 13.3531 42.2374 0.6450
# 6 1.1884 6.7107 21.1415 -1.7136 0.6450 37.6406
#
#
#
# Elastic Compliance Matrix: (Units=1/GPa)
#
#
# Indices 1 2 3 4 5 6 
#
# 1 0.015493 -0.003921 -0.001640 -0.001736 0.001534 0.001026
# 2 -0.003921 0.011428 -0.000850 -0.001518 -0.000805 -0.001492
# 3 -0.001640 -0.000850 0.006824 -0.000541 -0.000203 -0.003651
# 4 -0.001736 -0.001518 -0.000541 0.017225 -0.005316 0.001505
# 5 0.001534 -0.000805 -0.000203 -0.005316 0.025511 -0.000470
# 6 0.001026 -0.001492 -0.003651 0.001505 -0.000470 0.028928
#
#
# Mechanical properties :
#
#
# Convention : Reuss Voigt Hill
#
# Bulk Modulus (GPa) = 47.79170 55.43221 51.61195
# Shear Modulus (GPa) = 39.93393 46.83168 43.38281
#
# Velocity S-wave (km/s) = 3.89678 4.21992 4.06156
# Velocity P-wave (km/s) = 6.19833 6.69490 6.45140
#
# Compressibility (1/GPa) = 0.02092414
#
# Stress axis : x y z
#
# Youngs Moduli (GPa) = 64.54343 87.50259 146.53292
#
# Poissons Ratio (x) = 0.34311 0.24032
# Poissons Ratio (y) = 0.25308 0.12453
# Poissons Ratio (z) = 0.10585 0.07436
#
# Static dielectric constant tensor:
#      x y z
#    x 2.436330 0.058550 0.203370 
#    y 0.058550 2.372130 -0.127380 
#    z 0.203370 -0.127380 2.290870 
# 
# From -- ./inp_files/511220.got.cif
#   From: 2010.05.17/outbox.cif.g08.bks.cpg/sg2_256_cif.got.tgz:511220.got - 2010.06.03 11:33:40.
