data_PCOD9068267
_publ_section_title
;
Structure prediction by ZEFSAII (Michael W. Deem and Ramdas Pophale) SiO2 
 PCOD9068267
Probable space group: P -1
;
_chemical_formula_sum "Si O2"
_cell_formula_units_Z 12
_cell_length_a 9.875018
_cell_length_b 10.893664
_cell_length_c 10.557515
_cell_angle_alpha 106.098502
_cell_angle_beta 149.162915
_cell_angle_gamma 57.671023
_cell_volume 446.455247
_symmetry_space_group_name_H-M "P -1"
_symmetry_group_IT_number 2
_symmetry_cell_setting 'triclinic'
loop_
_space_group_symop_operation_xyz
x,y,z
-x,-y,-z
loop_
_atom_site_type_symbol
_atom_site_label
_atom_site_fract_x
_atom_site_fract_y
_atom_site_fract_z
Si Si1 0.246478 0.194233 0.387596
Si Si2 0.489326 0.155271 0.039690
Si Si3 0.399875 0.266147 0.272386
Si Si4 0.084300 0.500710 0.420481
Si Si5 0.824813 0.062175 0.024778
Si Si6 0.744943 0.326361 0.745136
O O1 0.430605 0.167482 0.394292
O O2 0.004575 0.386589 0.260859
O O3 0.499800 0.137399 0.694269
O O4 0.039830 0.125720 0.185813
O O5 0.569463 0.175961 0.252176
O O6 0.729835 0.121368 0.109551
O O7 0.144366 0.321255 0.767947
O O8 0.500000 0.000000 0.000000
O O9 0.550238 0.354160 0.466982
O O10 0.011854 0.359874 0.964541
O O11 0.000000 0.500000 0.500000
O O12 0.465221 0.411319 0.654763
O O13 0.017071 0.871193 0.118217
#
# Coordination Sequence:
#
# PCOD9068267 Si02
#       6
#     2   2   2   2   2   2
#     4  11  26  49  82 119 153 218 264 327 390 481
#     4  12  28  53  80 123 163 210 263 336 401 469
#     4  11  26  48  78 114 159 204 264 323 397 468
#     4  11  26  51  81 119 162 207 270 330 395 472
#     4  12  26  50  85 115 164 206 275 319 398 479
#     4  11  26  48  79 116 155 213 259 322 396 470
#
# _framework density 26.878392999999999
#
# number of rings (size 3 to 8) (size 9 to 14) (size 15 to 20)
#    0.000    0.667    3.333    3.000    0.000   16.667 
#    3.000    0.000    0.000    1.000    0.000    0.000 
#    0.000    0.000    0.000    0.000    0.000    0.000 
#
# Total GULP energy -67107.257990 kJ/mol
# GULP energy per Si atom -5592.271499 kJ/mol
# Density = 2.681722 g / cm^3
# Si number density = 26.878393 Si / 1000 Ang^3
#
#
#
# Elastic Constant Matrix: (Units=GPa)
#
#
# Indices 1 2 3 4 5 6 
#
# 1 152.1713 57.2273 46.9992 35.6750 -21.8433 -36.1979
# 2 57.2273 183.6288 78.5103 -0.4604 2.9171 -3.4143
# 3 46.9992 78.5103 186.5101 23.8532 -4.6369 -3.7416
# 4 35.6750 -0.4604 23.8532 73.1972 -3.3310 -9.2122
# 5 -21.8433 2.9171 -4.6369 -3.3310 50.8833 26.8387
# 6 -36.1979 -3.4143 -3.7416 -9.2122 26.8387 70.7581
#
#
#
# Elastic Compliance Matrix: (Units=1/GPa)
#
#
# Indices 1 2 3 4 5 6 
#
# 1 0.009957 -0.002791 -0.000683 -0.004100 0.002236 0.003541
# 2 -0.002791 0.007535 -0.002796 0.002206 -0.001566 -0.000331
# 3 -0.000683 -0.002796 0.006972 -0.002006 0.000712 -0.000647
# 4 -0.004100 0.002206 -0.002006 0.016334 -0.001270 0.000511
# 5 0.002236 -0.001566 0.000712 -0.001270 0.025237 -0.008632
# 6 0.003541 -0.000331 -0.000647 0.000511 -0.008632 0.019235
#
#
# Mechanical properties :
#
#
# Convention : Reuss Voigt Hill
#
# Bulk Modulus (GPa) = 83.86941 98.64264 91.25603
# Shear Modulus (GPa) = 49.12310 61.60594 55.36452
#
# Velocity S-wave (km/s) = 4.27969 4.79270 4.54344
# Velocity P-wave (km/s) = 7.46271 8.21011 7.84532
#
# Compressibility (1/GPa) = 0.01192330
#
# Stress axis : x y z
#
# Youngs Moduli (GPa) = 100.43637 132.70760 143.42726
#
# Poissons Ratio (x) = 0.37036 0.09799
# Poissons Ratio (y) = 0.28030 0.40108
# Poissons Ratio (z) = 0.06862 0.37110
#
# Static dielectric constant tensor:
#      x y z
#    x 2.145960 0.025860 -0.027380 
#    y 0.025860 2.189950 -0.109750 
#    z -0.027380 -0.109750 2.241460 
# 
# From -- ./inp_files/265546.got.cif
#   From: 2010.05.17/outbox.cif.g08.bks.cpg/sg2_133_cif.got.tgz:265546.got - 2010.06.03 11:33:40.
