data_PCOD9068914
_publ_section_title
;
Structure prediction by ZEFSAII (Michael W. Deem and Ramdas Pophale) SiO2 
 PCOD9068914
Probable space group: P -1
;
_chemical_formula_sum "Si O2"
_cell_formula_units_Z 16
_cell_length_a 28.055391
_cell_length_b 11.355985
_cell_length_c 17.124338
_cell_angle_alpha 156.788645
_cell_angle_beta 158.766899
_cell_angle_gamma 33.349509
_cell_volume 769.991819
_symmetry_space_group_name_H-M "P -1"
_symmetry_group_IT_number 2
_symmetry_cell_setting 'triclinic'
loop_
_space_group_symop_operation_xyz
x,y,z
-x,-y,-z
loop_
_atom_site_type_symbol
_atom_site_label
_atom_site_fract_x
_atom_site_fract_y
_atom_site_fract_z
Si Si1 0.774550 0.146688 0.889362
Si Si2 0.953874 0.963774 0.317747
Si Si3 0.211664 0.622564 0.781097
Si Si4 0.500532 0.217445 0.272571
Si Si5 0.405351 0.258533 0.758092
Si Si6 0.963614 0.990508 0.848326
Si Si7 0.207788 0.169922 0.725011
Si Si8 0.783541 0.325218 0.693033
O O1 0.672354 0.966526 0.562087
O O2 0.735549 0.184795 0.943977
O O3 0.805778 0.486941 0.109723
O O4 0.902450 0.970322 0.974012
O O5 0.861536 0.193200 0.281101
O O6 0.861089 0.638430 0.970682
O O7 0.000000 0.000000 0.500000
O O8 0.090761 0.028753 0.518041
O O9 0.315092 0.450220 0.788297
O O10 0.106172 0.345754 0.482479
O O11 0.500000 0.500000 0.500000
O O12 0.627983 0.302601 0.462006
O O13 0.524379 0.935641 0.190842
O O14 0.356742 0.165721 0.981702
O O15 0.500000 0.500000 0.000000
O O16 0.865623 0.237494 0.839845
O O17 0.000000 0.000000 0.000000
O O18 0.196871 0.947442 0.499679
#
# Coordination Sequence:
#
# PCOD9068914 Si02
#       8
#     2   2   2   2   2   2   2   2
#     4  12  24  46  78 106 139 188 241 297 358 426
#     4  12  28  44  71 110 149 182 234 303 362 417
#     4  12  25  47  73 105 142 186 240 294 358 424
#     4  12  25  46  72  98 146 194 236 285 360 434
#     4  12  29  47  73 107 143 190 243 296 354 428
#     4  12  21  41  75 102 137 182 238 289 354 422
#     4  12  25  45  74 106 142 191 239 295 358 425
#     4  12  26  45  69 107 143 186 242 294 354 430
#
# _framework density 20.779442
#
# number of rings (size 3 to 8) (size 9 to 14) (size 15 to 20)
#    0.000    0.000    6.250    3.375    3.500    1.500 
#    0.000    0.000    0.000    0.000    0.000    0.000 
#    0.000    0.000    0.000    0.000    0.000    0.000 
#
# Total GULP energy -89430.945302 kJ/mol
# GULP energy per Si atom -5589.434081 kJ/mol
# Density = 2.073215 g / cm^3
# Si number density = 20.779442 Si / 1000 Ang^3
#
#
#
# Elastic Constant Matrix: (Units=GPa)
#
#
# Indices 1 2 3 4 5 6 
#
# 1 123.0379 39.2528 35.5633 -0.4444 -5.2505 -9.7018
# 2 39.2528 133.3685 28.0736 -12.0214 17.4627 2.5900
# 3 35.5633 28.0736 77.3372 6.8554 16.2148 0.2074
# 4 -0.4444 -12.0214 6.8554 33.1916 3.2191 -3.4043
# 5 -5.2505 17.4627 16.2148 3.2191 40.3276 3.9134
# 6 -9.7018 2.5900 0.2074 -3.4043 3.9134 32.1892
#
#
#
# Elastic Compliance Matrix: (Units=1/GPa)
#
#
# Indices 1 2 3 4 5 6 
#
# 1 0.010848 -0.002779 -0.004890 0.000041 0.004287 0.003008
# 2 -0.002779 0.009597 -0.001711 0.004121 -0.004094 -0.000665
# 3 -0.004890 -0.001711 0.017507 -0.003776 -0.006531 -0.001054
# 4 0.000041 0.004121 -0.003776 0.033085 -0.003251 0.003600
# 5 0.004287 -0.004094 -0.006531 -0.003251 0.030242 -0.002357
# 6 0.003008 -0.000665 -0.001054 0.003600 -0.002357 0.032700
#
#
# Mechanical properties :
#
#
# Convention : Reuss Voigt Hill
#
# Bulk Modulus (GPa) = 52.10676 59.94700 56.02688
# Shear Modulus (GPa) = 31.41954 36.53192 33.97573
#
# Velocity S-wave (km/s) = 3.89273 4.19750 4.04798
# Velocity P-wave (km/s) = 6.73313 7.23904 6.99066
#
# Compressibility (1/GPa) = 0.01919137
#
# Stress axis : x y z
#
# Youngs Moduli (GPa) = 92.18288 104.20452 57.12030
#
# Poissons Ratio (x) = 0.28963 0.27932
# Poissons Ratio (y) = 0.25622 0.09771
# Poissons Ratio (z) = 0.45078 0.17825
#
# Static dielectric constant tensor:
#      x y z
#    x 1.858650 -0.041430 0.152220 
#    y -0.041430 2.030740 -0.428430 
#    z 0.152220 -0.428430 2.417400 
# 
# From -- ./inp_files/306213.got.cif
#   From: 2010.05.17/outbox.cif.g08.bks.cpg/sg2_154_cif.got.tgz:306213.got - 2010.06.03 11:33:40.
