data_PCOD9068552
_publ_section_title
;
Structure prediction by ZEFSAII (Michael W. Deem and Ramdas Pophale) SiO2 
 PCOD9068552
Probable space group: P -1
;
_chemical_formula_sum "Si O2"
_cell_formula_units_Z 10
_cell_length_a 14.319139
_cell_length_b 13.681703
_cell_length_c 9.583419
_cell_angle_alpha 139.984497
_cell_angle_beta 140.951076
_cell_angle_gamma 21.332729
_cell_volume 422.824911
_symmetry_space_group_name_H-M "P -1"
_symmetry_group_IT_number 2
_symmetry_cell_setting 'triclinic'
loop_
_space_group_symop_operation_xyz
x,y,z
-x,-y,-z
loop_
_atom_site_type_symbol
_atom_site_label
_atom_site_fract_x
_atom_site_fract_y
_atom_site_fract_z
Si Si1 0.583395 0.459003 0.715773
Si Si2 0.029347 0.842788 0.625994
Si Si3 0.206557 0.189535 0.903063
Si Si4 0.439326 0.903255 0.130358
Si Si5 0.156712 0.214729 0.422280
O O1 0.500000 0.500000 0.500000
O O2 0.331051 0.614987 0.682629
O O3 0.847022 0.147724 0.732839
O O4 0.398053 0.379810 0.045305
O O5 0.009486 0.766774 0.664222
O O6 0.893014 0.851579 0.362573
O O7 0.215384 0.116163 0.987931
O O8 0.000000 0.500000 0.000000
O O9 0.500000 0.000000 0.000000
O O10 0.619614 0.900733 0.344943
O O11 0.308443 0.004790 0.241372
O O12 0.000000 0.500000 0.500000
#
# Coordination Sequence:
#
# PCOD9068552 Si02
#       5
#     2   2   2   2   2
#     4  12  28  48  73 112 152 187 242 306 373 435
#     4  12  27  47  77 108 146 195 243 300 373 436
#     4  12  24  42  75 110 140 188 249 302 356 426
#     4  11  27  46  73 107 150 195 241 310 362 431
#     4  11  27  49  75 105 149 196 254 300 358 438
#
# _framework density 23.650452999999999
#
# number of rings (size 3 to 8) (size 9 to 14) (size 15 to 20)
#    0.000    0.400    4.000    3.000    8.400    1.600 
#    0.000    0.000    0.000    0.000    0.000    0.000 
#    0.000    0.000    0.000    0.000    0.000    0.000 
#
# Total GULP energy -56044.622989 kJ/mol
# GULP energy per Si atom -5604.462299 kJ/mol
# Density = 2.359662 g / cm^3
# Si number density = 23.650453 Si / 1000 Ang^3
#
#
#
# Elastic Constant Matrix: (Units=GPa)
#
#
# Indices 1 2 3 4 5 6 
#
# 1 132.2974 34.2738 13.5103 17.5732 -15.3648 -9.7027
# 2 34.2738 110.7765 17.4493 30.3444 -1.0529 9.9722
# 3 13.5103 17.4493 106.5236 34.0820 -4.8017 7.8510
# 4 17.5732 30.3444 34.0820 36.9916 2.5371 11.2444
# 5 -15.3648 -1.0529 -4.8017 2.5371 31.7583 -4.7667
# 6 -9.7027 9.9722 7.8510 11.2444 -4.7667 55.6056
#
#
#
# Elastic Compliance Matrix: (Units=1/GPa)
#
#
# Indices 1 2 3 4 5 6 
#
# 1 0.009555 -0.001948 0.000712 -0.005016 0.005578 0.003409
# 2 -0.001948 0.012322 0.001679 -0.010577 0.000474 -0.000607
# 3 0.000712 0.001679 0.013987 -0.015258 0.003925 0.001270
# 4 -0.005016 -0.010577 -0.015258 0.055634 -0.010881 -0.009007
# 5 0.005578 0.000474 0.003925 -0.010881 0.036515 0.005665
# 6 0.003409 -0.000607 0.001270 -0.009007 0.005665 0.020815
#
#
# Mechanical properties :
#
#
# Convention : Reuss Voigt Hill
#
# Bulk Modulus (GPa) = 27.21096 53.34051 40.27573
# Shear Modulus (GPa) = 31.21241 43.82870 37.52056
#
# Velocity S-wave (km/s) = 3.63676 4.30954 3.98736
# Velocity P-wave (km/s) = 5.40048 6.88226 6.18590
#
# Compressibility (1/GPa) = 0.03674990
#
# Stress axis : x y z
#
# Youngs Moduli (GPa) = 104.65959 81.15593 71.49348
#
# Poissons Ratio (x) = 0.15811 -0.05093
# Poissons Ratio (y) = 0.20390 -0.12003
# Poissons Ratio (z) = -0.07456 -0.13625
#
# Static dielectric constant tensor:
#      x y z
#    x 1.883340 0.035480 0.000190 
#    y 0.035480 1.921430 0.023400 
#    z 0.000190 0.023400 1.892530 
# 
# From -- ./inp_files/50315.got.cif
#   From: 2010.05.17/outbox.cif.g08.bks.cpg/sg2_26_cif.got.tgz:50315.got - 2010.06.03 11:33:40.
