data_PCOD9068959
_publ_section_title
;
Structure prediction by ZEFSAII (Michael W. Deem and Ramdas Pophale) SiO2 
 PCOD9068959
Probable space group: P -1
;
_chemical_formula_sum "Si O2"
_cell_formula_units_Z 14
_cell_length_a 19.285945
_cell_length_b 9.083155
_cell_length_c 11.653700
_cell_angle_alpha 131.052121
_cell_angle_beta 25.778354
_cell_angle_gamma 138.323238
_cell_volume 589.446210
_symmetry_space_group_name_H-M "P -1"
_symmetry_group_IT_number 2
_symmetry_cell_setting 'triclinic'
loop_
_space_group_symop_operation_xyz
x,y,z
-x,-y,-z
loop_
_atom_site_type_symbol
_atom_site_label
_atom_site_fract_x
_atom_site_fract_y
_atom_site_fract_z
Si Si1 0.249883 0.790539 0.013467
Si Si2 0.328009 0.259639 0.145645
Si Si3 0.292039 0.822851 0.230696
Si Si4 0.914429 0.679316 0.286668
Si Si5 0.592099 0.262122 0.462357
Si Si6 0.025168 0.973244 0.815733
Si Si7 0.722003 0.626632 0.947377
O O1 0.211827 0.741498 0.179563
O O2 0.071797 0.721021 0.164625
O O3 0.369363 0.057696 0.972089
O O4 0.366244 0.708950 0.721412
O O5 0.217241 0.243095 0.414471
O O6 0.203277 0.233186 0.208172
O O7 0.500000 0.500000 0.000000
O O8 0.191571 0.931029 0.508391
O O9 0.290949 0.608374 0.177678
O O10 0.500000 0.000000 0.000000
O O11 0.784409 0.419697 0.318300
O O12 0.973537 0.826320 0.158407
O O13 0.500000 0.000000 0.500000
O O14 0.459875 0.360460 0.745672
O O15 0.854408 0.748634 0.915008
O O16 0.000000 0.000000 0.000000
#
# Coordination Sequence:
#
# PCOD9068959 Si02
#       7
#     2   2   2   2   2   2   2
#     4  12  25  45  77 107 151 200 253 310 372 454
#     4  12  21  45  76 105 143 194 252 309 366 453
#     4  12  28  51  76 110 151 206 251 304 389 452
#     4  12  24  48  77 110 148 196 256 314 379 448
#     4  12  25  46  74 113 149 193 252 317 380 445
#     4  12  28  50  77 113 152 197 252 318 379 449
#     4  12  26  48  72 111 154 195 251 309 379 456
#
# _framework density 23.751106
#
# number of rings (size 3 to 8) (size 9 to 14) (size 15 to 20)
#    0.000    0.000    5.714    3.857    4.000    0.571 
#    2.571    0.000    0.000    0.000    0.000    0.000 
#    0.000    0.000    0.000    0.000    0.000    0.000 
#
# Total GULP energy -78320.485393 kJ/mol
# GULP energy per Si atom -5594.320385 kJ/mol
# Density = 2.369705 g / cm^3
# Si number density = 23.751106 Si / 1000 Ang^3
#
#
#
# Elastic Constant Matrix: (Units=GPa)
#
#
# Indices 1 2 3 4 5 6 
#
# 1 116.8527 32.7270 57.3551 4.1308 18.7676 10.0998
# 2 32.7270 104.9292 21.3500 3.4048 -10.3421 6.7981
# 3 57.3551 21.3500 141.1357 20.8975 14.5922 2.7139
# 4 4.1308 3.4048 20.8975 35.4529 7.1931 -4.3148
# 5 18.7676 -10.3421 14.5922 7.1931 50.9485 -2.1136
# 6 10.0998 6.7981 2.7139 -4.3148 -2.1136 46.2425
#
#
#
# Elastic Compliance Matrix: (Units=1/GPa)
#
#
# Indices 1 2 3 4 5 6 
#
# 1 0.012447 -0.003367 -0.004367 0.002099 -0.004396 -0.001972
# 2 -0.003367 0.011151 -0.000510 -0.001247 0.003792 -0.000817
# 3 -0.004367 -0.000510 0.009749 -0.005078 -0.000572 -0.000043
# 4 0.002099 -0.001247 -0.005078 0.032234 -0.004005 0.002847
# 5 -0.004396 0.003792 -0.000572 -0.004005 0.022792 0.001104
# 6 -0.001972 -0.000817 -0.000043 0.002847 0.001104 0.022495
#
#
# Mechanical properties :
#
#
# Convention : Reuss Voigt Hill
#
# Bulk Modulus (GPa) = 59.31900 65.08687 62.20293
# Shear Modulus (GPa) = 37.60082 43.29449 40.44765
#
# Velocity S-wave (km/s) = 3.98316 4.27411 4.13119
# Velocity P-wave (km/s) = 6.79585 7.19865 7.00015
#
# Compressibility (1/GPa) = 0.01685801
#
# Stress axis : x y z
#
# Youngs Moduli (GPa) = 80.34332 89.67480 102.57281
#
# Poissons Ratio (x) = 0.30194 0.44795
# Poissons Ratio (y) = 0.27052 0.05235
# Poissons Ratio (z) = 0.35087 0.04577
#
# Static dielectric constant tensor:
#      x y z
#    x 1.992330 -0.030120 -0.017260 
#    y -0.030120 1.943250 0.014790 
#    z -0.017260 0.014790 1.936430 
# 
# From -- ./inp_files/470118.got.cif
#   From: 2010.05.17/outbox.cif.g08.bks.cpg/sg2_236_cif.got.tgz:470118.got - 2010.06.03 11:33:40.
