data_PCOD9068612
_publ_section_title
;
Structure prediction by ZEFSAII (Michael W. Deem and Ramdas Pophale) SiO2 
 PCOD9068612
Probable space group: P -1
;
_chemical_formula_sum "Si O2"
_cell_formula_units_Z 9
_cell_length_a 8.963843
_cell_length_b 6.619388
_cell_length_c 8.320323
_cell_angle_alpha 121.307697
_cell_angle_beta 96.788075
_cell_angle_gamma 116.165603
_cell_volume 337.514220
_symmetry_space_group_name_H-M "P -1"
_symmetry_group_IT_number 2
_symmetry_cell_setting 'triclinic'
loop_
_space_group_symop_operation_xyz
x,y,z
-x,-y,-z
loop_
_atom_site_type_symbol
_atom_site_label
_atom_site_fract_x
_atom_site_fract_y
_atom_site_fract_z
Si Si1 0.500000 0.500000 0.500000
Si Si2 0.205392 0.616281 0.918570
Si Si3 0.080138 0.960578 0.233107
Si Si4 0.838368 0.168891 0.289979
Si Si5 0.495142 0.757460 0.291359
O O1 0.438931 0.502044 0.303185
O O2 0.716301 0.754622 0.583253
O O3 0.281660 0.780826 0.827550
O O4 0.040584 0.273004 0.736311
O O5 0.115978 0.771331 0.044236
O O6 0.349235 0.654711 0.084666
O O7 0.950696 0.048773 0.189542
O O8 0.000000 0.500000 0.500000
O O9 0.695460 0.939622 0.308357
O O10 0.500000 0.000000 0.500000
#
# Coordination Sequence:
#
# PCOD9068612 Si02
#       5
#     1   2   2   2   2
#     4  12  26  46  78 108 150 202 250 310 384 440
#     4  11  27  51  79 115 153 203 255 315 385 457
#     4  11  27  48  81 109 156 201 253 316 380 458
#     4  12  28  49  80 115 154 202 258 316 381 461
#     4  12  27  49  76 113 156 202 254 318 383 452
#
# _framework density 26.665543
#
# number of rings (size 3 to 8) (size 9 to 14) (size 15 to 20)
#    0.000    0.444    2.222    4.000   12.444    6.222 
#    0.000    0.000    0.000    0.000    0.000    0.000 
#    0.000    0.000    0.000    0.000    0.000    0.000 
#
# Total GULP energy -50172.145155 kJ/mol
# GULP energy per Si atom -5574.682795 kJ/mol
# Density = 2.660485 g / cm^3
# Si number density = 26.665543 Si / 1000 Ang^3
#
#
#
# Elastic Constant Matrix: (Units=GPa)
#
#
# Indices 1 2 3 4 5 6 
#
# 1 123.3646 53.8266 63.4079 18.1092 25.8797 3.9914
# 2 53.8266 193.9121 64.9303 -30.9799 36.1316 9.8566
# 3 63.4079 64.9303 99.0698 -1.2658 36.7658 -4.1286
# 4 18.1092 -30.9799 -1.2658 50.7342 -8.2260 13.5486
# 5 25.8797 36.1316 36.7658 -8.2260 45.1927 0.3014
# 6 3.9914 9.8566 -4.1286 13.5486 0.3014 44.2399
#
#
#
# Elastic Compliance Matrix: (Units=1/GPa)
#
#
# Indices 1 2 3 4 5 6 
#
# 1 0.014103 -0.002518 -0.006713 -0.007296 -0.001936 0.000910
# 2 -0.002518 0.008648 -0.003717 0.007020 -0.001142 -0.004189
# 3 -0.006713 -0.003717 0.020912 -0.002175 -0.010620 0.004124
# 4 -0.007296 0.007020 -0.002175 0.030291 0.005918 -0.010426
# 5 -0.001936 -0.001142 -0.010620 0.005918 0.033883 -0.002605
# 6 0.000910 -0.004189 0.004124 -0.010426 -0.002605 0.027051
#
#
# Mechanical properties :
#
#
# Convention : Reuss Voigt Hill
#
# Bulk Modulus (GPa) = 56.28633 86.74180 71.51407
# Shear Modulus (GPa) = 29.99307 43.64548 36.81928
#
# Velocity S-wave (km/s) = 3.35742 4.05010 3.71992
# Velocity P-wave (km/s) = 6.01530 7.38046 6.73257
#
# Compressibility (1/GPa) = 0.01776630
#
# Stress axis : x y z
#
# Youngs Moduli (GPa) = 70.90893 115.63486 47.82015
#
# Poissons Ratio (x) = 0.29118 0.32100
# Poissons Ratio (y) = 0.17855 0.17775
# Poissons Ratio (z) = 0.47599 0.42983
#
# Static dielectric constant tensor:
#      x y z
#    x 2.057610 -0.040310 -0.049820 
#    y -0.040310 2.101390 -0.055430 
#    z -0.049820 -0.055430 2.133990 
# 
# From -- ./inp_files/143663.got.cif
#   From: 2010.05.17/outbox.cif.g08.bks.cpg/sg2_72_cif.got.tgz:143663.got - 2010.06.03 11:33:40.
