data_PCOD9068652
_publ_section_title
;
Structure prediction by ZEFSAII (Michael W. Deem and Ramdas Pophale) SiO2 
 PCOD9068652
Probable space group: P -1
;
_chemical_formula_sum "Si O2"
_cell_formula_units_Z 12
_cell_length_a 5.087974
_cell_length_b 13.342259
_cell_length_c 9.497039
_cell_angle_alpha 113.061052
_cell_angle_beta 73.040626
_cell_angle_gamma 72.130523
_cell_volume 498.220941
_symmetry_space_group_name_H-M "P -1"
_symmetry_group_IT_number 2
_symmetry_cell_setting 'triclinic'
loop_
_space_group_symop_operation_xyz
x,y,z
-x,-y,-z
loop_
_atom_site_type_symbol
_atom_site_label
_atom_site_fract_x
_atom_site_fract_y
_atom_site_fract_z
Si Si1 0.306600 0.926251 0.502570
Si Si2 0.698923 0.462542 0.305123
Si Si3 0.704365 0.028390 0.155825
Si Si4 0.209339 0.352550 0.793628
Si Si5 0.329880 0.199254 0.071362
Si Si6 0.582452 0.356187 0.996486
O O1 0.242699 0.929130 0.679251
O O2 0.508711 0.785465 0.346489
O O3 0.500000 0.000000 0.500000
O O4 0.000000 0.000000 0.500000
O O5 0.500000 0.500000 0.500000
O O6 0.788769 0.566315 0.294698
O O7 0.515757 0.444195 0.190904
O O8 0.007305 0.327958 0.196753
O O9 0.672966 0.903764 0.088355
O O10 0.414210 0.136495 0.176772
O O11 0.000000 0.000000 0.000000
O O12 0.313159 0.400097 0.943940
O O13 0.900728 0.339642 0.867339
O O14 0.590453 0.233707 0.992804
#
# Coordination Sequence:
#
# PCOD9068652 Si02
#       6
#     2   2   2   2   2   2
#     4  12  30  50  78 117 159 204 270 327 394 474
#     4  12  30  50  82 120 159 208 268 336 400 473
#     4  11  28  50  82 117 160 213 264 329 403 478
#     4  12  29  50  81 116 161 212 265 329 401 477
#     4  11  27  49  87 113 163 207 274 321 411 470
#     4  12  26  54  78 113 159 214 263 325 400 479
#
# _framework density 24.085698000000001
#
# number of rings (size 3 to 8) (size 9 to 14) (size 15 to 20)
#    0.000    0.333    1.667    4.000   18.667    2.000 
#    0.000    0.000    0.000    0.000    0.000    0.000 
#    0.000    0.000    0.000    0.000    0.000    0.000 
#
# Total GULP energy -67295.738172 kJ/mol
# GULP energy per Si atom -5607.978181 kJ/mol
# Density = 2.403088 g / cm^3
# Si number density = 24.085698 Si / 1000 Ang^3
#
#
#
# Elastic Constant Matrix: (Units=GPa)
#
#
# Indices 1 2 3 4 5 6 
#
# 1 169.8342 67.9161 56.3961 -7.9186 -2.6307 1.0184
# 2 67.9161 192.6406 60.3339 4.5049 -17.5296 -0.3021
# 3 56.3961 60.3339 163.6175 -20.4813 -5.8875 0.4971
# 4 -7.9186 4.5049 -20.4813 35.1843 0.2707 -1.8061
# 5 -2.6307 -17.5296 -5.8875 0.2707 34.4058 -8.0857
# 6 1.0184 -0.3021 0.4971 -1.8061 -8.0857 55.4789
#
#
#
# Elastic Compliance Matrix: (Units=1/GPa)
#
#
# Indices 1 2 3 4 5 6 
#
# 1 0.007335 -0.002178 -0.001635 0.000973 -0.000890 -0.000230
# 2 -0.002178 0.006937 -0.002015 -0.002551 0.003154 0.000472
# 3 -0.001635 -0.002015 0.007995 0.004549 0.000210 0.000126
# 4 0.000973 -0.002551 0.004549 0.031665 -0.000488 0.000887
# 5 -0.000890 0.003154 0.000210 -0.000488 0.031734 0.004641
# 6 -0.000230 0.000472 0.000126 0.000887 0.004641 0.018736
#
#
# Mechanical properties :
#
#
# Convention : Reuss Voigt Hill
#
# Bulk Modulus (GPa) = 94.23062 99.48718 96.85890
# Shear Modulus (GPa) = 41.80815 47.77689 44.79252
#
# Velocity S-wave (km/s) = 4.17082 4.45862 4.31712
# Velocity P-wave (km/s) = 7.89952 8.24020 8.07165
#
# Compressibility (1/GPa) = 0.01061226
#
# Stress axis : x y z
#
# Youngs Moduli (GPa) = 136.33520 144.14729 125.08268
#
# Poissons Ratio (x) = 0.31397 0.20445
# Poissons Ratio (y) = 0.29696 0.25200
# Poissons Ratio (z) = 0.22284 0.29041
#
# Static dielectric constant tensor:
#      x y z
#    x 2.009430 -0.019590 0.091650 
#    y -0.019590 1.971930 0.013450 
#    z 0.091650 0.013450 2.093780 
# 
# From -- ./inp_files/130939.got.cif
#   From: 2010.05.17/outbox.cif.g08.bks.cpg/sg2_66_cif.got.tgz:130939.got - 2010.06.03 11:33:40.
