data_PCOD9068746
_publ_section_title
;
Structure prediction by ZEFSAII (Michael W. Deem and Ramdas Pophale) SiO2 
 PCOD9068746
Probable space group: P -1
;
_chemical_formula_sum "Si O2"
_cell_formula_units_Z 16
_cell_length_a 18.032119
_cell_length_b 11.957181
_cell_length_c 4.928346
_cell_angle_alpha 109.173893
_cell_angle_beta 112.365252
_cell_angle_gamma 35.162142
_cell_volume 565.619224
_symmetry_space_group_name_H-M "P -1"
_symmetry_group_IT_number 2
_symmetry_cell_setting 'triclinic'
loop_
_space_group_symop_operation_xyz
x,y,z
-x,-y,-z
loop_
_atom_site_type_symbol
_atom_site_label
_atom_site_fract_x
_atom_site_fract_y
_atom_site_fract_z
Si Si1 0.221587 0.844406 0.598874
Si Si2 0.702237 0.016239 0.803609
Si Si3 0.419475 0.647220 0.260985
Si Si4 0.874175 0.691546 0.312940
Si Si5 0.976433 0.157656 0.189698
Si Si6 0.510077 0.077208 0.823839
Si Si7 0.273011 0.523550 0.669416
Si Si8 0.064462 0.609649 0.109963
O O1 0.276260 0.795575 0.329220
O O2 0.265971 0.663202 0.629545
O O3 0.270683 0.892227 0.910290
O O4 0.065394 0.049351 0.500683
O O5 0.782563 0.858118 0.548690
O O6 0.845076 0.600361 0.056353
O O7 0.573919 0.218596 0.629395
O O8 0.648454 0.986281 0.923426
O O9 0.500000 0.500000 0.500000
O O10 0.500000 0.500000 0.000000
O O11 0.000000 0.500000 0.500000
O O12 0.943231 0.694363 0.182850
O O13 0.819180 0.346264 0.099503
O O14 0.007496 0.230967 0.098788
O O15 0.000000 0.000000 0.000000
O O16 0.395895 0.308560 0.792029
O O17 0.500000 0.000000 0.500000
O O18 0.500000 0.000000 0.000000
O O19 0.170417 0.559578 0.391364
#
# Coordination Sequence:
#
# PCOD9068746 Si02
#       8
#     2   2   2   2   2   2   2   2
#     4  12  30  54  95 143 186 238 307 394 480 559
#     4  12  32  57  94 132 185 237 322 382 469 560
#     4  12  28  53  85 128 182 235 299 378 463 544
#     4  11  29  53  89 128 185 248 304 392 452 557
#     4  12  29  50  89 137 189 238 299 384 478 572
#     4  12  35  63  91 129 182 253 316 381 460 555
#     4  12  30  54  92 131 190 240 305 389 470 558
#     4  11  28  55  85 132 191 239 319 369 480 548
#
# _framework density 28.287579999999998
#
# number of rings (size 3 to 8) (size 9 to 14) (size 15 to 20)
#    0.000    0.250    2.500    1.875   14.000    3.000 
#    4.500    0.000    0.000    0.000    0.000    0.000 
#    0.000    0.000    0.000    0.000    0.000    0.000 
#
# Total GULP energy -89322.852848 kJ/mol
# GULP energy per Si atom -5582.678303 kJ/mol
# Density = 2.822320 g / cm^3
# Si number density = 28.287580 Si / 1000 Ang^3
#
#
#
# Elastic Constant Matrix: (Units=GPa)
#
#
# Indices 1 2 3 4 5 6 
#
# 1 163.8401 60.0415 66.0105 21.4292 -16.5442 34.8586
# 2 60.0415 290.5463 71.6162 23.2493 -27.6129 25.1369
# 3 66.0105 71.6162 165.0037 22.0901 -41.9031 16.5931
# 4 21.4292 23.2493 22.0901 55.8728 12.4124 -11.6835
# 5 -16.5442 -27.6129 -41.9031 12.4124 69.4997 -1.7209
# 6 34.8586 25.1369 16.5931 -11.6835 -1.7209 49.0384
#
#
#
# Elastic Compliance Matrix: (Units=1/GPa)
#
#
# Indices 1 2 3 4 5 6 
#
# 1 0.009120 -0.000360 -0.001856 -0.004343 0.001520 -0.006652
# 2 -0.000360 0.004193 -0.000856 -0.001998 0.001371 -0.002032
# 3 -0.001856 -0.000856 0.009417 -0.004380 0.005622 -0.002275
# 4 -0.004343 -0.001998 -0.004380 0.026534 -0.008920 0.011602
# 5 0.001520 0.001371 0.005622 -0.008920 0.020151 -0.005103
# 6 -0.006652 -0.002032 -0.002275 0.011602 -0.005103 0.029517
#
#
# Mechanical properties :
#
#
# Convention : Reuss Voigt Hill
#
# Bulk Modulus (GPa) = 60.29008 112.74737 86.51872
# Shear Modulus (GPa) = 45.20612 62.99698 54.10155
#
# Velocity S-wave (km/s) = 4.00195 4.72425 4.37802
# Velocity P-wave (km/s) = 6.53557 8.34878 7.49719
#
# Compressibility (1/GPa) = 0.01658648
#
# Stress axis : x y z
#
# Youngs Moduli (GPa) = 109.65134 238.48971 106.18718
#
# Poissons Ratio (x) = 0.08578 0.19708
# Poissons Ratio (y) = 0.03944 0.09092
# Poissons Ratio (z) = 0.20351 0.20419
#
# Static dielectric constant tensor:
#      x y z
#    x 2.436700 0.190130 -0.555650 
#    y 0.190130 3.020470 -1.363310 
#    z -0.555650 -1.363310 5.538120 
# 
# From -- ./inp_files/118653.got.cif
#   From: 2010.05.17/outbox.cif.g08.bks.cpg/sg2_60_cif.got.tgz:118653.got - 2010.06.03 11:33:40.
