data_PCOD9068047
_publ_section_title
;
Structure prediction by ZEFSAII (Michael W. Deem and Ramdas Pophale) SiO2 
 PCOD9068047
Probable space group: P -1
;
_chemical_formula_sum "Si O2"
_cell_formula_units_Z 12
_cell_length_a 14.182807
_cell_length_b 13.263102
_cell_length_c 9.472148
_cell_angle_alpha 124.386650
_cell_angle_beta 51.412698
_cell_angle_gamma 159.067795
_cell_volume 496.569522
_symmetry_space_group_name_H-M "P -1"
_symmetry_group_IT_number 2
_symmetry_cell_setting 'triclinic'
loop_
_space_group_symop_operation_xyz
x,y,z
-x,-y,-z
loop_
_atom_site_type_symbol
_atom_site_label
_atom_site_fract_x
_atom_site_fract_y
_atom_site_fract_z
Si Si1 0.160536 0.065337 0.601344
Si Si2 0.656187 0.373594 0.015963
Si Si3 0.709565 0.577544 0.863156
Si Si4 0.420872 0.711097 0.488543
Si Si5 0.133156 0.673605 0.368856
Si Si6 0.990506 0.175011 0.746627
O O1 0.052453 0.890995 0.430418
O O2 0.977360 0.864756 0.750875
O O3 0.473081 0.307319 0.533235
O O4 0.122801 0.171069 0.681638
O O5 0.771118 0.579752 0.960652
O O6 0.723794 0.303215 0.834118
O O7 0.815988 0.541925 0.146960
O O8 0.325952 0.093672 0.115880
O O9 0.580010 0.345948 0.713305
O O10 0.500000 0.500000 0.000000
O O11 0.121753 0.500494 0.617535
O O12 0.648060 0.022772 0.551581
O O13 0.000000 0.500000 0.500000
#
# Coordination Sequence:
#
# PCOD9068047 Si02
#       6
#     2   2   2   2   2   2
#     4  11  26  47  73 104 145 190 226 294 363 421
#     4  12  26  46  71 108 138 186 240 293 341 422
#     4  12  25  43  76 108 141 175 237 296 352 412
#     4  12  25  44  71 104 141 183 237 282 355 414
#     4  12  25  43  72 102 145 187 230 292 351 407
#     4  11  28  46  73 102 148 184 235 288 363 418
#
# _framework density 24.165797999999999
#
# number of rings (size 3 to 8) (size 9 to 14) (size 15 to 20)
#    0.000    0.333    5.000    2.500    7.000    2.667 
#    0.000    5.000    0.000    0.000    0.000    0.000 
#    0.000    0.000    0.000    0.000    0.000    0.000 
#
# Total GULP energy -67273.168437 kJ/mol
# GULP energy per Si atom -5606.097370 kJ/mol
# Density = 2.411080 g / cm^3
# Si number density = 24.165798 Si / 1000 Ang^3
#
#
#
# Elastic Constant Matrix: (Units=GPa)
#
#
# Indices 1 2 3 4 5 6 
#
# 1 109.1165 34.0600 33.2629 -14.4134 -24.6343 34.0483
# 2 34.0600 75.7895 3.1679 4.7759 -3.8491 10.5020
# 3 33.2629 3.1679 103.7533 -2.6026 -16.3941 9.8625
# 4 -14.4134 4.7759 -2.6026 40.1884 5.7382 6.1681
# 5 -24.6343 -3.8491 -16.3941 5.7382 43.7198 4.9028
# 6 34.0483 10.5020 9.8625 6.1681 4.9028 30.2208
#
#
#
# Elastic Compliance Matrix: (Units=1/GPa)
#
#
# Indices 1 2 3 4 5 6 
#
# 1 0.028818 -0.008133 -0.002776 0.014029 0.016483 -0.034273
# 2 -0.008133 0.016362 0.001142 -0.005123 -0.002553 0.004564
# 3 -0.002776 0.001142 0.011051 -0.000644 0.002901 -0.001215
# 4 0.014029 -0.005123 -0.000644 0.033014 0.005280 -0.021410
# 5 0.016483 -0.002553 0.002901 0.005280 0.035180 -0.025415
# 6 -0.034273 0.004564 -0.001215 -0.021410 -0.025415 0.079007
#
#
# Mechanical properties :
#
#
# Convention : Reuss Voigt Hill
#
# Bulk Modulus (GPa) = 27.24975 47.73788 37.49381
# Shear Modulus (GPa) = 21.25850 37.37035 29.31442
#
# Velocity S-wave (km/s) = 2.96918 3.93671 3.48667
# Velocity P-wave (km/s) = 4.80160 6.36088 5.63543
#
# Compressibility (1/GPa) = 0.03669759
#
# Stress axis : x y z
#
# Youngs Moduli (GPa) = 34.70015 61.11598 90.48833
#
# Poissons Ratio (x) = 0.49704 0.25123
# Poissons Ratio (y) = 0.28221 -0.10334
# Poissons Ratio (z) = 0.09634 -0.06979
#
# Static dielectric constant tensor:
#      x y z
#    x 1.926470 -0.038860 0.032740 
#    y -0.038860 1.935090 -0.029320 
#    z 0.032740 -0.029320 1.903810 
# 
# From -- ./inp_files/77468.got.cif
#   From: 2010.05.17/outbox.cif.g08.bks.cpg/sg2_39_cif.got.tgz:77468.got - 2010.06.03 11:33:40.
