data_PCOD9068373
_publ_section_title
;
Structure prediction by ZEFSAII (Michael W. Deem and Ramdas Pophale) SiO2 
 PCOD9068373
Probable space group: P -1
;
_chemical_formula_sum "Si O2"
_cell_formula_units_Z 11
_cell_length_a 5.244218
_cell_length_b 10.648190
_cell_length_c 8.544340
_cell_angle_alpha 116.113231
_cell_angle_beta 95.963883
_cell_angle_gamma 91.374317
_cell_volume 424.806629
_symmetry_space_group_name_H-M "P -1"
_symmetry_group_IT_number 2
_symmetry_cell_setting 'triclinic'
loop_
_space_group_symop_operation_xyz
x,y,z
-x,-y,-z
loop_
_atom_site_type_symbol
_atom_site_label
_atom_site_fract_x
_atom_site_fract_y
_atom_site_fract_z
Si Si1 0.222889 0.454026 0.379120
Si Si2 0.673931 0.043690 0.385187
Si Si3 0.500000 0.000000 0.000000
Si Si4 0.967521 0.769279 0.288585
Si Si5 0.873876 0.265555 0.074966
Si Si6 0.446605 0.472881 0.804076
O O1 0.500000 0.500000 0.500000
O O2 0.279183 0.536234 0.265737
O O3 0.000000 0.500000 0.500000
O O4 0.127049 0.300343 0.219160
O O5 0.839600 0.180192 0.532819
O O6 0.500000 0.000000 0.500000
O O7 0.848010 0.913110 0.305071
O O8 0.539962 0.057440 0.218261
O O9 0.271542 0.882990 0.980651
O O10 0.745157 0.664631 0.292688
O O11 0.065416 0.718234 0.097753
O O12 0.688098 0.386789 0.174450
O O13 0.500000 0.500000 0.000000
#
# Coordination Sequence:
#
# PCOD9068373 Si02
#       6
#     2   2   1   2   2   2
#     4  12  28  50  74 120 164 206 271 339 412 488
#     4  11  26  51  75 113 162 219 271 333 412 495
#     4  12  28  48  80 112 168 210 276 340 408 494
#     4  11  26  49  78 116 158 212 282 336 410 498
#     4  12  27  50  78 121 163 219 277 339 422 494
#     4  12  26  48  84 112 160 216 270 344 415 492
#
# _framework density 25.894134999999999
#
# number of rings (size 3 to 8) (size 9 to 14) (size 15 to 20)
#    0.000    0.364    5.455    1.636    2.545    2.182 
#    0.000    0.000    0.000    0.000    0.000    0.000 
#    0.000    0.000    0.000    0.000    0.000    0.000 
#
# Total GULP energy -61288.319071 kJ/mol
# GULP energy per Si atom -5571.665370 kJ/mol
# Density = 2.583520 g / cm^3
# Si number density = 25.894135 Si / 1000 Ang^3
#
#
#
# Elastic Constant Matrix: (Units=GPa)
#
#
# Indices 1 2 3 4 5 6 
#
# 1 94.5531 49.2381 69.0526 10.6424 -2.4068 28.3775
# 2 49.2381 139.0787 59.1509 24.3381 8.4514 60.6645
# 3 69.0526 59.1509 225.2733 -4.4601 17.9219 41.4142
# 4 10.6424 24.3381 -4.4601 67.6950 21.7380 3.1899
# 5 -2.4068 8.4514 17.9219 21.7380 62.3133 6.5788
# 6 28.3775 60.6645 41.4142 3.1899 6.5788 63.3124
#
#
#
# Elastic Compliance Matrix: (Units=1/GPa)
#
#
# Indices 1 2 3 4 5 6 
#
# 1 0.016049 -0.002727 -0.004146 -0.002803 0.003379 -0.002079
# 2 -0.002727 0.014517 -0.000959 -0.004638 0.001080 -0.011939
# 3 -0.004146 -0.000959 0.006448 0.002301 -0.002551 -0.001291
# 4 -0.002803 -0.004638 0.002301 0.019172 -0.007250 0.003982
# 5 0.003379 0.001080 -0.002551 -0.007250 0.019564 -0.002549
# 6 -0.002079 -0.011939 -0.001291 0.003982 -0.002549 0.029075
#
#
# Mechanical properties :
#
#
# Convention : Reuss Voigt Hill
#
# Bulk Modulus (GPa) = 46.83613 90.42092 68.62853
# Shear Modulus (GPa) = 39.18364 57.42837 48.30601
#
# Velocity S-wave (km/s) = 3.89424 4.71448 4.32385
# Velocity P-wave (km/s) = 6.19249 8.03930 7.17556
#
# Compressibility (1/GPa) = 0.02135104
#
# Stress axis : x y z
#
# Youngs Moduli (GPa) = 62.30894 68.88484 155.09848
#
# Poissons Ratio (x) = 0.18783 0.64299
# Poissons Ratio (y) = 0.16990 0.14871
# Poissons Ratio (z) = 0.25831 0.06605
#
# Static dielectric constant tensor:
#      x y z
#    x 2.077530 -0.072650 -0.185500 
#    y -0.072650 1.926760 -0.085870 
#    z -0.185500 -0.085870 1.688750 
# 
# From -- ./inp_files/132584.got.cif
#   From: 2010.05.17/outbox.cif.g08.bks.cpg/sg2_67_cif.got.tgz:132584.got - 2010.06.03 11:33:40.
