data_PCOD9068821
_publ_section_title
;
Structure prediction by ZEFSAII (Michael W. Deem and Ramdas Pophale) SiO2 
 PCOD9068821
Probable space group: P -1
;
_chemical_formula_sum "Si O2"
_cell_formula_units_Z 14
_cell_length_a 12.845658
_cell_length_b 11.618217
_cell_length_c 9.762063
_cell_angle_alpha 105.322698
_cell_angle_beta 50.629579
_cell_angle_gamma 144.965457
_cell_volume 529.035995
_symmetry_space_group_name_H-M "P -1"
_symmetry_group_IT_number 2
_symmetry_cell_setting 'triclinic'
loop_
_space_group_symop_operation_xyz
x,y,z
-x,-y,-z
loop_
_atom_site_type_symbol
_atom_site_label
_atom_site_fract_x
_atom_site_fract_y
_atom_site_fract_z
Si Si1 0.097492 0.359839 0.625580
Si Si2 0.805014 0.568169 0.997687
Si Si3 0.989732 0.936052 0.824779
Si Si4 0.794046 0.938730 0.591978
Si Si5 0.630247 0.085884 0.066391
Si Si6 0.500000 0.500000 0.500000
Si Si7 0.548189 0.311673 0.832820
Si Si8 0.000000 0.500000 0.000000
O O1 0.266873 0.399728 0.585056
O O2 0.259701 0.529752 0.411810
O O3 0.832448 0.079326 0.704700
O O4 0.969461 0.359889 0.836699
O O5 0.508463 0.356342 0.259883
O O6 0.699142 0.450762 0.896608
O O7 0.963163 0.815426 0.925233
O O8 0.976377 0.598719 0.937136
O O9 0.058358 0.913748 0.624421
O O10 0.251611 0.224462 0.694139
O O11 0.703169 0.787444 0.000238
O O12 0.000000 0.000000 0.500000
O O13 0.641308 0.205518 0.194414
O O14 0.500000 0.000000 0.000000
O O15 0.552993 0.902939 0.140537
#
# Coordination Sequence:
#
# PCOD9068821 Si02
#       8
#     2   2   2   2   2   1   2   1
#     4  12  26  43  74 109 149 195 243 314 378 446
#     4  12  25  47  75 111 148 198 257 308 378 449
#     4  12  26  42  74 114 152 196 247 309 384 451
#     4  12  20  42  73 107 147 191 244 305 373 455
#     4  12  26  54  73 106 154 202 256 315 375 447
#     4  12  26  44  64 116 158 188 240 314 382 448
#     4  12  24  47  78 113 147 198 255 313 382 452
#     4  12  30  50  76 104 152 204 254 314 374 452
#
# _framework density 26.463228000000001
#
# number of rings (size 3 to 8) (size 9 to 14) (size 15 to 20)
#    0.000    0.000    8.571    1.286    4.000    1.143 
#    0.000    1.429    0.000    0.000    0.000    0.000 
#    0.000    0.000    0.000    0.000    0.000    0.000 
#
# Total GULP energy -78037.321320 kJ/mol
# GULP energy per Si atom -5574.094380 kJ/mol
# Density = 2.640300 g / cm^3
# Si number density = 26.463228 Si / 1000 Ang^3
#
#
#
# Elastic Constant Matrix: (Units=GPa)
#
#
# Indices 1 2 3 4 5 6 
#
# 1 188.1331 80.8552 45.6034 -29.8062 -0.1457 -32.1621
# 2 80.8552 144.5207 42.2576 -29.0042 23.7122 1.1685
# 3 45.6034 42.2576 120.9793 -13.2189 18.1792 -24.3080
# 4 -29.8062 -29.0042 -13.2189 50.1878 -11.3262 4.0021
# 5 -0.1457 23.7122 18.1792 -11.3262 36.5944 -25.1483
# 6 -32.1621 1.1685 -24.3080 4.0021 -25.1483 51.9103
#
#
#
# Elastic Compliance Matrix: (Units=1/GPa)
#
#
# Indices 1 2 3 4 5 6 
#
# 1 0.013828 -0.010082 -0.000581 0.005557 0.021225 0.018376
# 2 -0.010082 0.017167 -0.002593 -0.000440 -0.023058 -0.018984
# 3 -0.000581 -0.002593 0.010367 0.000464 -0.000335 0.004355
# 4 0.005557 -0.000440 0.000464 0.025522 0.013710 0.008345
# 5 0.021225 -0.023058 -0.000335 0.013710 0.082932 0.052632
# 6 0.018376 -0.018984 0.004355 0.008345 0.052632 0.057971
#
#
# Mechanical properties :
#
#
# Convention : Reuss Voigt Hill
#
# Bulk Modulus (GPa) = 67.34555 87.89615 77.62085
# Shear Modulus (GPa) = 20.89884 46.73296 33.81590
#
# Velocity S-wave (km/s) = 2.81326 4.20689 3.57857
# Velocity P-wave (km/s) = 6.00471 7.54213 6.81690
#
# Compressibility (1/GPa) = 0.01484879
#
# Stress axis : x y z
#
# Youngs Moduli (GPa) = 72.31934 58.25179 96.46270
#
# Poissons Ratio (x) = 0.58730 0.05600
# Poissons Ratio (y) = 0.72913 0.25017
# Poissons Ratio (z) = 0.04199 0.15107
#
# Static dielectric constant tensor:
#      x y z
#    x 1.957860 0.038880 -0.034320 
#    y 0.038880 2.591870 0.277320 
#    z -0.034320 0.277320 2.255690 
# 
# From -- ./inp_files/425947.got.cif
#   From: 2010.05.17/outbox.cif.g08.bks.cpg/sg2_213_cif.got.tgz:425947.got - 2010.06.03 11:33:40.
