data_PCOD9068598
_publ_section_title
;
Structure prediction by ZEFSAII (Michael W. Deem and Ramdas Pophale) SiO2 
 PCOD9068598
Probable space group: P -1
;
_chemical_formula_sum "Si O2"
_cell_formula_units_Z 15
_cell_length_a 9.502775
_cell_length_b 21.116941
_cell_length_c 5.073456
_cell_angle_alpha 103.858266
_cell_angle_beta 79.605839
_cell_angle_gamma 41.673636
_cell_volume 545.980108
_symmetry_space_group_name_H-M "P -1"
_symmetry_group_IT_number 2
_symmetry_cell_setting 'triclinic'
loop_
_space_group_symop_operation_xyz
x,y,z
-x,-y,-z
loop_
_atom_site_type_symbol
_atom_site_label
_atom_site_fract_x
_atom_site_fract_y
_atom_site_fract_z
Si Si1 0.940554 0.088059 0.910774
Si Si2 0.239588 0.058972 0.214951
Si Si3 0.500000 0.500000 0.500000
Si Si4 0.626723 0.121726 0.753179
Si Si5 0.015621 0.717583 0.595887
Si Si6 0.421355 0.672087 0.953237
Si Si7 0.886924 0.698052 0.119128
Si Si8 0.753840 0.552970 0.237219
O O1 0.689370 0.137156 0.011994
O O2 0.828495 0.189494 0.868730
O O3 0.146337 0.956150 0.611223
O O4 0.093921 0.068964 0.060945
O O5 0.040873 0.193321 0.433359
O O6 0.338906 0.968752 0.302247
O O7 0.500000 0.000000 0.000000
O O8 0.396268 0.607486 0.796273
O O9 0.694543 0.410601 0.590673
O O10 0.365083 0.242589 0.833187
O O11 0.879256 0.718213 0.446199
O O12 0.898835 0.752806 0.962047
O O13 0.633281 0.619811 0.619481
O O14 0.542383 0.632559 0.161375
O O15 0.147249 0.558972 0.852779
O O16 0.000000 0.500000 0.000000
#
# Coordination Sequence:
#
# PCOD9068598 Si02
#       8
#     2   2   1   2   2   2   2   2
#     4  11  27  49  73 112 150 204 252 314 383 457
#     4  12  25  46  74 108 147 202 254 317 374 450
#     4  12  24  50  74 112 154 198 242 320 374 448
#     4  11  27  48  76 105 156 199 256 314 381 451
#     4  12  27  44  78 107 152 195 249 315 376 449
#     4  12  27  47  79 110 151 200 244 310 379 449
#     4  12  25  49  73 112 148 198 253 310 379 444
#     4  12  26  48  75 110 150 196 252 306 371 452
#
# _framework density 27.473526
#
# number of rings (size 3 to 8) (size 9 to 14) (size 15 to 20)
#    0.000    0.267    5.333    2.400    3.733    4.267 
#    0.000    0.000    0.000    0.000    0.000    0.000 
#    0.000    0.000    0.000    0.000    0.000    0.000 
#
# Total GULP energy -83645.026469 kJ/mol
# GULP energy per Si atom -5576.335098 kJ/mol
# Density = 2.741099 g / cm^3
# Si number density = 27.473526 Si / 1000 Ang^3
#
#
#
# Elastic Constant Matrix: (Units=GPa)
#
#
# Indices 1 2 3 4 5 6 
#
# 1 99.8145 49.0046 18.2422 2.2189 8.0560 -19.0643
# 2 49.0046 219.7464 36.5163 20.0560 9.4141 -23.8569
# 3 18.2422 36.5163 39.6983 1.0278 7.1039 -9.1584
# 4 2.2189 20.0560 1.0278 50.9469 5.7106 9.6910
# 5 8.0560 9.4141 7.1039 5.7106 33.2948 1.7549
# 6 -19.0643 -23.8569 -9.1584 9.6910 1.7549 73.9183
#
#
#
# Elastic Compliance Matrix: (Units=1/GPa)
#
#
# Indices 1 2 3 4 5 6 
#
# 1 0.012050 -0.001885 -0.002970 0.000075 -0.001876 0.002166
# 2 -0.001885 0.006053 -0.004355 -0.002454 0.000029 0.001249
# 3 -0.002970 -0.004355 0.031844 0.001458 -0.005184 0.001706
# 4 0.000075 -0.002454 0.001458 0.021551 -0.003156 -0.003342
# 5 -0.001876 0.000029 -0.005184 -0.003156 0.032205 -0.001468
# 6 0.002166 0.001249 0.001706 -0.003342 -0.001468 0.015175
#
#
# Mechanical properties :
#
#
# Convention : Reuss Voigt Hill
#
# Bulk Modulus (GPa) = 31.71842 62.97617 47.34729
# Shear Modulus (GPa) = 33.82764 48.66507 41.24635
#
# Velocity S-wave (km/s) = 3.51277 4.21330 3.87888
# Velocity P-wave (km/s) = 5.29366 6.82945 6.11000
#
# Compressibility (1/GPa) = 0.03152742
#
# Stress axis : x y z
#
# Youngs Moduli (GPa) = 82.98516 165.20450 31.40278
#
# Poissons Ratio (x) = 0.31143 0.09326
# Poissons Ratio (y) = 0.15644 0.13677
# Poissons Ratio (z) = 0.24645 0.71950
#
# Static dielectric constant tensor:
#      x y z
#    x 2.008560 0.026660 -0.094230 
#    y 0.026660 2.073920 -0.052190 
#    z -0.094230 -0.052190 2.253560 
# 
# From -- ./inp_files/53473.got.cif
#   From: 2010.05.17/outbox.cif.g08.bks.cpg/sg2_27_cif.got.tgz:53473.got - 2010.06.03 11:33:40.
