data_PCOD9068949
_publ_section_title
;
Structure prediction by ZEFSAII (Michael W. Deem and Ramdas Pophale) SiO2 
 PCOD9068949
Probable space group: P -1
;
_chemical_formula_sum "Si O2"
_cell_formula_units_Z 13
_cell_length_a 12.378866
_cell_length_b 11.437448
_cell_length_c 9.357333
_cell_angle_alpha 123.385616
_cell_angle_beta 138.874131
_cell_angle_gamma 35.588218
_cell_volume 500.333570
_symmetry_space_group_name_H-M "P -1"
_symmetry_group_IT_number 2
_symmetry_cell_setting 'triclinic'
loop_
_space_group_symop_operation_xyz
x,y,z
-x,-y,-z
loop_
_atom_site_type_symbol
_atom_site_label
_atom_site_fract_x
_atom_site_fract_y
_atom_site_fract_z
Si Si1 0.261266 0.144491 0.668160
Si Si2 0.216915 0.527825 0.472480
Si Si3 0.500000 0.500000 0.000000
Si Si4 0.502093 0.293070 0.045141
Si Si5 0.947715 0.964280 0.076539
Si Si6 0.216929 0.206833 0.343846
Si Si7 0.586101 0.252601 0.426094
O O1 0.146472 0.232433 0.456620
O O2 0.047919 0.244833 0.633632
O O3 0.428004 0.906465 0.673403
O O4 0.400434 0.200820 0.877918
O O5 0.176553 0.388678 0.373456
O O6 0.358078 0.455374 0.416414
O O7 0.378596 0.489259 0.733692
O O8 0.330255 0.515006 0.958498
O O9 0.588522 0.274214 0.275009
O O10 0.712612 0.185220 0.061613
O O11 0.171619 0.849640 0.324327
O O12 0.879586 0.846919 0.900140
O O13 0.000000 0.000000 0.000000
O O14 0.500000 0.000000 0.500000
#
# Coordination Sequence:
#
# PCOD9068949 Si02
#       7
#     2   2   1   2   2   2   2
#     4  12  25  46  78 109 144 194 245 303 360 438
#     4  12  27  45  75 110 143 193 248 301 364 433
#     4  12  26  46  72 106 144 190 252 292 358 438
#     4  12  27  47  73 110 150 194 242 305 366 437
#     4  12  23  43  78 106 142 198 247 295 361 438
#     4  12  21  44  75 111 142 193 252 296 358 432
#     4  12  27  49  74 110 153 189 241 305 374 429
#
# _framework density 25.982666999999999
#
# number of rings (size 3 to 8) (size 9 to 14) (size 15 to 20)
#    0.000    0.000    6.154    3.231    2.154    1.231 
#    0.000    1.538    0.000    0.000    0.000    0.000 
#    0.000    0.000    0.000    0.000    0.000    0.000 
#
# Total GULP energy -72782.059150 kJ/mol
# GULP energy per Si atom -5598.619935 kJ/mol
# Density = 2.592353 g / cm^3
# Si number density = 25.982667 Si / 1000 Ang^3
#
#
#
# Elastic Constant Matrix: (Units=GPa)
#
#
# Indices 1 2 3 4 5 6 
#
# 1 124.5382 27.6234 83.4191 -1.2651 -21.5057 -20.6613
# 2 27.6234 81.3164 39.3149 19.4508 11.4109 -14.5910
# 3 83.4191 39.3149 180.8413 31.9844 -15.1729 7.9496
# 4 -1.2651 19.4508 31.9844 45.3868 11.7117 19.2709
# 5 -21.5057 11.4109 -15.1729 11.7117 47.9646 4.7899
# 6 -20.6613 -14.5910 7.9496 19.2709 4.7899 64.5651
#
#
#
# Elastic Compliance Matrix: (Units=1/GPa)
#
#
# Indices 1 2 3 4 5 6 
#
# 1 0.014143 -0.002432 -0.006477 0.003604 0.003648 0.003427
# 2 -0.002432 0.017671 -0.002043 -0.007568 -0.004699 0.006074
# 3 -0.006477 -0.002043 0.010416 -0.006444 0.002659 -0.002091
# 4 0.003604 -0.007568 -0.006444 0.035796 -0.006366 -0.009975
# 5 0.003648 -0.004699 0.002659 -0.006366 0.026023 -0.000252
# 6 0.003427 0.006074 -0.002091 -0.009975 -0.000252 0.021211
#
#
# Mechanical properties :
#
#
# Convention : Reuss Voigt Hill
#
# Bulk Modulus (GPa) = 49.19687 76.37898 62.78792
# Shear Modulus (GPa) = 32.48028 47.33922 39.90975
#
# Velocity S-wave (km/s) = 3.53948 4.27307 3.92345
# Velocity P-wave (km/s) = 5.97323 7.33522 6.68898
#
# Compressibility (1/GPa) = 0.02032650
#
# Stress axis : x y z
#
# Youngs Moduli (GPa) = 70.70659 56.59034 96.00291
#
# Poissons Ratio (x) = 0.13762 0.62183
# Poissons Ratio (y) = 0.17195 0.19610
# Poissons Ratio (z) = 0.45798 0.11560
#
# Static dielectric constant tensor:
#      x y z
#    x 2.019160 -0.201480 0.076110 
#    y -0.201480 1.533310 0.121130 
#    z 0.076110 0.121130 1.923320 
# 
# From -- ./inp_files/263226.got.cif
#   From: 2010.05.17/outbox.cif.g08.bks.cpg/sg2_132_cif.got.tgz:263226.got - 2010.06.03 11:33:40.
