data_PCOD9068251
_publ_section_title
;
Structure prediction by ZEFSAII (Michael W. Deem and Ramdas Pophale) SiO2 
 PCOD9068251
Probable space group: P -1
;
_chemical_formula_sum "Si O2"
_cell_formula_units_Z 13
_cell_length_a 11.305309
_cell_length_b 9.108887
_cell_length_c 8.752807
_cell_angle_alpha 65.976629
_cell_angle_beta 127.155654
_cell_angle_gamma 79.693115
_cell_volume 532.841221
_symmetry_space_group_name_H-M "P -1"
_symmetry_group_IT_number 2
_symmetry_cell_setting 'triclinic'
loop_
_space_group_symop_operation_xyz
x,y,z
-x,-y,-z
loop_
_atom_site_type_symbol
_atom_site_label
_atom_site_fract_x
_atom_site_fract_y
_atom_site_fract_z
Si Si1 0.473151 0.869269 0.259159
Si Si2 0.238429 0.845905 0.584889
Si Si3 0.187373 0.482508 0.168399
Si Si4 0.408091 0.260722 0.941069
Si Si5 0.000000 0.500000 0.500000
Si Si6 0.979915 0.264456 0.340160
Si Si7 0.799856 0.201110 0.769026
O O1 0.639824 0.735175 0.562801
O O2 0.532032 0.801978 0.160019
O O3 0.320362 0.835609 0.199734
O O4 0.401952 0.096836 0.102125
O O5 0.095395 0.818454 0.565755
O O6 0.272560 0.771061 0.470488
O O7 0.432465 0.734377 0.864949
O O8 0.133207 0.083329 0.427451
O O9 0.187145 0.625606 0.233028
O O10 0.185129 0.573120 0.965607
O O11 0.000000 0.500000 0.000000
O O12 0.202034 0.450168 0.703936
O O13 0.072407 0.348652 0.472437
O O14 0.000000 0.000000 0.000000
#
# Coordination Sequence:
#
# PCOD9068251 Si02
#       7
#     2   2   2   2   1   2   2
#     4  11  27  50  78 109 158 199 259 315 384 456
#     4  11  26  50  78 111 159 202 254 309 392 456
#     4  12  26  49  76 112 155 199 258 321 382 448
#     4  11  26  50  77 113 149 207 250 322 382 454
#     4  12  28  46  82 112 144 198 268 312 374 454
#     4  11  26  48  77 112 152 206 251 323 375 458
#     4  12  28  48  78 118 153 205 255 318 382 453
#
# _framework density 24.397511999999999
#
# number of rings (size 3 to 8) (size 9 to 14) (size 15 to 20)
#    0.000    0.615    1.538    5.077   10.769    1.231 
#    0.000    0.000    0.000    0.000    0.000    0.000 
#    0.000    0.000    0.000    0.000    0.000    0.000 
#
# Total GULP energy -72593.238196 kJ/mol
# GULP energy per Si atom -5584.095246 kJ/mol
# Density = 2.434198 g / cm^3
# Si number density = 24.397512 Si / 1000 Ang^3
#
#
#
# Elastic Constant Matrix: (Units=GPa)
#
#
# Indices 1 2 3 4 5 6 
#
# 1 116.3763 31.4795 27.3918 -5.2697 15.4401 1.9465
# 2 31.4795 137.1111 24.0414 23.9644 -11.1592 6.3905
# 3 27.3918 24.0414 88.3362 18.2160 7.6633 1.7103
# 4 -5.2697 23.9644 18.2160 42.9181 2.4859 -7.4253
# 5 15.4401 -11.1592 7.6633 2.4859 49.2324 6.3958
# 6 1.9465 6.3905 1.7103 -7.4253 6.3958 20.3575
#
#
#
# Elastic Compliance Matrix: (Units=1/GPa)
#
#
# Indices 1 2 3 4 5 6 
#
# 1 0.011123 -0.003505 -0.003343 0.005664 -0.004544 0.003811
# 2 -0.003505 0.010188 -0.000431 -0.007429 0.004764 -0.007033
# 3 -0.003343 -0.000431 0.013928 -0.006563 -0.000503 -0.002951
# 4 0.005664 -0.007429 -0.006563 0.034206 -0.006350 0.016813
# 5 -0.004544 0.004764 -0.000503 -0.006350 0.024655 -0.011081
# 6 0.003811 -0.007033 -0.002951 0.016813 -0.011081 0.060827
#
#
# Mechanical properties :
#
#
# Convention : Reuss Voigt Hill
#
# Bulk Modulus (GPa) = 48.35294 56.40544 52.37919
# Shear Modulus (GPa) = 28.34792 39.76230 34.05511
#
# Velocity S-wave (km/s) = 3.41239 4.04142 3.74015
# Velocity P-wave (km/s) = 5.94876 6.70425 6.33777
#
# Compressibility (1/GPa) = 0.02068126
#
# Stress axis : x y z
#
# Youngs Moduli (GPa) = 89.90085 98.15821 71.79580
#
# Poissons Ratio (x) = 0.34406 0.24001
# Poissons Ratio (y) = 0.31511 0.03094
# Poissons Ratio (z) = 0.30053 0.04231
#
# Static dielectric constant tensor:
#      x y z
#    x 1.907350 -0.034380 -0.104410 
#    y -0.034380 1.950420 -0.081060 
#    z -0.104410 -0.081060 1.926120 
# 
# From -- ./inp_files/153245.got.cif
#   From: 2010.05.17/outbox.cif.g08.bks.cpg/sg2_77_cif.got.tgz:153245.got - 2010.06.03 11:33:40.
