data_PCOD9068582
_publ_section_title
;
Structure prediction by ZEFSAII (Michael W. Deem and Ramdas Pophale) SiO2 
 PCOD9068582
Probable space group: P -1
;
_chemical_formula_sum "Si O2"
_cell_formula_units_Z 16
_cell_length_a 7.877376
_cell_length_b 11.560921
_cell_length_c 16.196868
_cell_angle_alpha 34.369784
_cell_angle_beta 60.188645
_cell_angle_gamma 81.441762
_cell_volume 610.904132
_symmetry_space_group_name_H-M "P -1"
_symmetry_group_IT_number 2
_symmetry_cell_setting 'triclinic'
loop_
_space_group_symop_operation_xyz
x,y,z
-x,-y,-z
loop_
_atom_site_type_symbol
_atom_site_label
_atom_site_fract_x
_atom_site_fract_y
_atom_site_fract_z
Si Si1 0.789175 0.875644 0.564048
Si Si2 0.532683 0.576781 0.171148
Si Si3 0.788829 0.862037 0.395752
Si Si4 0.179580 0.860442 0.210271
Si Si5 0.360508 0.561059 0.931467
Si Si6 0.834317 0.238743 0.029155
Si Si7 0.507402 0.186360 0.723683
Si Si8 0.160386 0.365188 0.727067
O O1 0.707643 0.596953 0.721125
O O2 0.840752 0.998324 0.390535
O O3 0.559762 0.829971 0.691424
O O4 0.000000 0.000000 0.500000
O O5 0.454008 0.389337 0.377356
O O6 0.703606 0.582738 0.054751
O O7 0.643545 0.850339 0.007734
O O8 0.799109 0.023637 0.223341
O O9 0.984724 0.807949 0.356096
O O10 0.325895 0.756687 0.272878
O O11 0.049811 0.756449 0.216999
O O12 0.168535 0.567805 0.025757
O O13 0.500000 0.500000 0.000000
O O14 0.605694 0.091119 0.113868
O O15 0.051390 0.339105 0.858050
O O16 0.300643 0.230128 0.765327
O O17 0.666154 0.367149 0.506848
#
# Coordination Sequence:
#
# PCOD9068582 Si02
#       8
#     2   2   2   2   2   2   2   2
#     4   8  20  40  69 105 154 193 244 313 370 447
#     4   8  23  40  73 111 154 195 248 316 376 462
#     4   9  24  42  70 109 153 199 247 310 380 453
#     4  12  23  48  80 110 154 201 257 311 389 454
#     4   9  21  40  71 107 143 189 248 307 376 455
#     4  12  24  49  74 109 155 200 254 316 386 450
#     4  11  27  47  76 108 153 203 257 322 380 453
#     4  11  28  51  73 114 152 202 265 317 380 458
#
# _framework density 26.190687
#
# number of rings (size 3 to 8) (size 9 to 14) (size 15 to 20)
#    1.500    0.250    1.250    1.500    3.500    7.500 
#    0.000    0.625    2.750    0.000    0.000    0.000 
#    0.000    0.000    0.000    0.000    0.000    0.000 
#
# Total GULP energy -89481.934567 kJ/mol
# GULP energy per Si atom -5592.620910 kJ/mol
# Density = 2.613108 g / cm^3
# Si number density = 26.190687 Si / 1000 Ang^3
#
#
#
# Elastic Constant Matrix: (Units=GPa)
#
#
# Indices 1 2 3 4 5 6 
#
# 1 124.7064 44.1382 41.3641 18.1017 2.5205 14.2567
# 2 44.1382 148.4720 83.1205 50.5536 8.7113 3.2504
# 3 41.3641 83.1205 169.9207 33.2033 0.0388 8.9699
# 4 18.1017 50.5536 33.2033 65.2949 16.0981 1.2701
# 5 2.5205 8.7113 0.0388 16.0981 30.9013 -6.8388
# 6 14.2567 3.2504 8.9699 1.2701 -6.8388 29.1873
#
#
#
# Elastic Compliance Matrix: (Units=1/GPa)
#
#
# Indices 1 2 3 4 5 6 
#
# 1 0.009652 -0.002037 -0.001082 -0.000196 -0.001084 -0.004401
# 2 -0.002037 0.011828 -0.004050 -0.006718 0.000638 0.001364
# 3 -0.001082 -0.004050 0.008430 -0.001221 0.001593 -0.001185
# 4 -0.000196 -0.006718 -0.001221 0.023980 -0.011119 -0.002430
# 5 -0.001084 0.000638 0.001593 -0.011119 0.040247 0.009883
# 6 -0.004401 0.001364 -0.001185 -0.002430 0.009883 0.039044
#
#
# Mechanical properties :
#
#
# Convention : Reuss Voigt Hill
#
# Bulk Modulus (GPa) = 64.21546 86.70499 75.46022
# Shear Modulus (GPa) = 32.74170 43.37513 38.05841
#
# Velocity S-wave (km/s) = 3.53955 4.07397 3.81613
# Velocity P-wave (km/s) = 6.42466 7.43685 6.94921
#
# Compressibility (1/GPa) = 0.01557257
#
# Stress axis : x y z
#
# Youngs Moduli (GPa) = 103.60332 84.54620 118.61889
#
# Poissons Ratio (x) = 0.17221 0.12840
# Poissons Ratio (y) = 0.21103 0.48035
# Poissons Ratio (z) = 0.11215 0.34237
#
# Static dielectric constant tensor:
#      x y z
#    x 2.187430 0.040330 -0.007010 
#    y 0.040330 2.056870 -0.000320 
#    z -0.007010 -0.000320 2.085970 
# 
# From -- ./inp_files/590230.got.cif
#   From: 2010.05.17/outbox.cif.g08.bks.cpg/sg2_296_cif.got.tgz:590230.got - 2010.06.03 11:33:40.
