data_PCOD9068503
_publ_section_title
;
Structure prediction by ZEFSAII (Michael W. Deem and Ramdas Pophale) SiO2 
 PCOD9068503
Probable space group: P -1
;
_chemical_formula_sum "Si O2"
_cell_formula_units_Z 16
_cell_length_a 13.454122
_cell_length_b 8.202289
_cell_length_c 13.945709
_cell_angle_alpha 50.755949
_cell_angle_beta 139.421450
_cell_angle_gamma 99.502574
_cell_volume 604.557701
_symmetry_space_group_name_H-M "P -1"
_symmetry_group_IT_number 2
_symmetry_cell_setting 'triclinic'
loop_
_space_group_symop_operation_xyz
x,y,z
-x,-y,-z
loop_
_atom_site_type_symbol
_atom_site_label
_atom_site_fract_x
_atom_site_fract_y
_atom_site_fract_z
Si Si1 0.689337 0.935744 0.848797
Si Si2 0.938042 0.194623 0.292165
Si Si3 0.865232 0.568644 0.606362
Si Si4 0.907506 0.037994 0.704276
Si Si5 0.741804 0.372415 0.753329
Si Si6 0.204550 0.416024 0.643723
Si Si7 0.416463 0.340860 0.022435
Si Si8 0.766944 0.744267 0.756364
O O1 0.714163 0.834132 0.794929
O O2 0.648593 0.221251 0.725686
O O3 0.529617 0.931959 0.789357
O O4 0.905957 0.706078 0.141338
O O5 0.734094 0.460138 0.077934
O O6 0.090465 0.253585 0.372194
O O7 0.947472 0.084168 0.236446
O O8 0.000000 0.000000 0.500000
O O9 0.773165 0.469771 0.641517
O O10 0.754643 0.746158 0.363253
O O11 0.746373 0.992516 0.601852
O O12 0.808732 0.346742 0.506725
O O13 0.041522 0.878626 0.953658
O O14 0.674421 0.612972 0.691028
O O15 0.332768 0.338622 0.859260
O O16 0.000000 0.500000 0.500000
O O17 0.500000 0.500000 0.000000
O O18 0.000000 0.500000 0.000000
#
# Coordination Sequence:
#
# PCOD9068503 Si02
#       8
#     2   2   2   2   2   2   2   2
#     4  11  19  33  54  83 116 158 194 243 298 361
#     4  11  20  35  58  89 117 153 198 251 294 351
#     4  11  18  30  52  88 118 141 194 251 300 344
#     4  11  18  30  53  88 121 143 194 254 310 342
#     4  11  18  30  52  85 126 143 189 261 309 343
#     4  12  20  33  57  86 113 154 204 250 296 352
#     4  11  24  40  57  84 126 166 196 241 304 371
#     4  10  18  28  50  86 121 146 187 246 312 352
#
# _framework density 26.465629
#
# number of rings (size 3 to 8) (size 9 to 14) (size 15 to 20)
#    0.000    1.000    8.750    3.375    0.000    0.000 
#    0.000    0.000    0.000   15.000    0.000    5.250 
#    0.000    0.000    0.000    0.000    0.000    0.000 
#
# Total GULP energy -89288.042812 kJ/mol
# GULP energy per Si atom -5580.502676 kJ/mol
# Density = 2.640539 g / cm^3
# Si number density = 26.465629 Si / 1000 Ang^3
#
#
#
# Elastic Constant Matrix: (Units=GPa)
#
#
# Indices 1 2 3 4 5 6 
#
# 1 171.3729 58.4920 44.4425 10.6911 -34.5556 22.4449
# 2 58.4920 157.8185 33.5641 11.9287 -8.5046 38.6810
# 3 44.4425 33.5641 65.4497 9.1089 -15.0906 2.8412
# 4 10.6911 11.9287 9.1089 51.3524 0.2034 -15.2663
# 5 -34.5556 -8.5046 -15.0906 0.2034 45.4408 0.6573
# 6 22.4449 38.6810 2.8412 -15.2663 0.6573 71.0858
#
#
#
# Elastic Compliance Matrix: (Units=1/GPa)
#
#
# Indices 1 2 3 4 5 6 
#
# 1 0.008720 -0.001547 -0.003639 -0.001464 0.005170 -0.002128
# 2 -0.001547 0.008909 -0.003045 -0.002632 -0.000439 -0.004799
# 3 -0.003639 -0.003045 0.020251 -0.001662 0.003372 0.001608
# 4 -0.001464 -0.002632 -0.001662 0.022735 -0.002359 0.006865
# 5 0.005170 -0.000439 0.003372 -0.002359 0.027019 -0.002285
# 6 -0.002128 -0.004799 0.001608 0.006865 -0.002285 0.018782
#
#
# Mechanical properties :
#
#
# Convention : Reuss Voigt Hill
#
# Bulk Modulus (GPa) = 46.69278 74.18202 60.43740
# Shear Modulus (GPa) = 38.45692 50.78530 44.62111
#
# Velocity S-wave (km/s) = 3.81608 4.38529 4.11055
# Velocity P-wave (km/s) = 6.09079 7.33018 6.73904
#
# Compressibility (1/GPa) = 0.02141659
#
# Stress axis : x y z
#
# Youngs Moduli (GPa) = 114.68537 112.24962 49.38119
#
# Poissons Ratio (x) = 0.17363 0.17972
# Poissons Ratio (y) = 0.17740 0.15036
# Poissons Ratio (z) = 0.41739 0.34178
#
# Static dielectric constant tensor:
#      x y z
#    x 2.027520 -0.003250 0.034350 
#    y -0.003250 2.372450 0.091450 
#    z 0.034350 0.091450 2.385390 
# 
# From -- ./inp_files/527277.got.cif
#   From: 2010.05.17/outbox.cif.g08.bks.cpg/sg2_264_cif.got.tgz:527277.got - 2010.06.03 11:33:40.
