data_PCOD9068111
_publ_section_title
;
Structure prediction by ZEFSAII (Michael W. Deem and Ramdas Pophale) SiO2 
 PCOD9068111
Probable space group: P -1
;
_chemical_formula_sum "Si O2"
_cell_formula_units_Z 14
_cell_length_a 6.008507
_cell_length_b 12.798306
_cell_length_c 17.120580
_cell_angle_alpha 149.617542
_cell_angle_beta 53.583681
_cell_angle_gamma 114.339819
_cell_volume 519.426472
_symmetry_space_group_name_H-M "P -1"
_symmetry_group_IT_number 2
_symmetry_cell_setting 'triclinic'
loop_
_space_group_symop_operation_xyz
x,y,z
-x,-y,-z
loop_
_atom_site_type_symbol
_atom_site_label
_atom_site_fract_x
_atom_site_fract_y
_atom_site_fract_z
Si Si1 0.694515 0.104964 0.166277
Si Si2 0.899341 0.732986 0.633688
Si Si3 0.420218 0.587684 0.894318
Si Si4 0.135048 0.112560 0.853537
Si Si5 0.085880 0.511750 0.667977
Si Si6 0.651589 0.206961 0.782047
Si Si7 0.786970 0.728171 0.365596
O O1 0.417077 0.142422 0.193985
O O2 0.758768 0.335294 0.312836
O O3 0.700933 0.954834 0.142543
O O4 0.000000 0.000000 0.000000
O O5 0.000000 0.500000 0.500000
O O6 0.848752 0.700638 0.532802
O O7 0.120338 0.877305 0.679711
O O8 0.744183 0.584319 0.798263
O O9 0.374922 0.351135 0.725965
O O10 0.345837 0.686981 0.062206
O O11 0.187434 0.754187 0.998890
O O12 0.315743 0.253873 0.863548
O O13 0.225421 0.446797 0.679598
O O14 0.885696 0.291957 0.740931
O O15 0.712418 0.957180 0.574784
#
# Coordination Sequence:
#
# PCOD9068111 Si02
#       7
#     2   2   2   2   2   2   2
#     4  12  26  43  69 104 150 198 251 310 380 452
#     4  12  27  45  73 111 150 203 255 314 380 457
#     4  12  26  46  75 111 151 200 251 315 378 461
#     4  12  25  45  72 102 155 193 249 314 377 446
#     4  12  26  44  72 108 148 193 257 306 384 451
#     4  11  26  49  73 111 147 198 256 317 380 455
#     4  11  26  47  77 105 152 197 252 319 383 450
#
# _framework density 26.952802999999999
#
# number of rings (size 3 to 8) (size 9 to 14) (size 15 to 20)
#    0.000    0.286    1.429    7.714    6.000    4.571 
#    0.000    3.571    0.000    0.000    0.000    0.000 
#    0.000    0.000    0.000    0.000    0.000    0.000 
#
# Total GULP energy -77989.800231 kJ/mol
# GULP energy per Si atom -5570.700016 kJ/mol
# Density = 2.689146 g / cm^3
# Si number density = 26.952803 Si / 1000 Ang^3
#
#
#
# Elastic Constant Matrix: (Units=GPa)
#
#
# Indices 1 2 3 4 5 6 
#
# 1 72.6131 30.1142 45.1689 6.5457 -0.2148 12.1886
# 2 30.1142 87.7313 42.4160 8.5809 20.4638 17.0498
# 3 45.1689 42.4160 144.7516 11.0502 11.7245 3.2815
# 4 6.5457 8.5809 11.0502 39.1131 11.5814 3.0263
# 5 -0.2148 20.4638 11.7245 11.5814 67.7677 5.2913
# 6 12.1886 17.0498 3.2815 3.0263 5.2913 45.4364
#
#
#
# Elastic Compliance Matrix: (Units=1/GPa)
#
#
# Indices 1 2 3 4 5 6 
#
# 1 0.019173 -0.004045 -0.004820 -0.001471 0.002640 -0.003487
# 2 -0.004045 0.016009 -0.002977 -0.000508 -0.003916 -0.004217
# 3 -0.004820 -0.002977 0.009385 -0.001132 -0.000694 0.001889
# 4 -0.001471 -0.000508 -0.001132 0.027574 -0.004316 -0.000667
# 5 0.002640 -0.003916 -0.000694 -0.004316 0.016872 -0.000866
# 6 -0.003487 -0.004217 0.001889 -0.000667 -0.000866 0.024536
#
#
# Mechanical properties :
#
#
# Convention : Reuss Voigt Hill
#
# Bulk Modulus (GPa) = 47.88780 60.05491 53.97136
# Shear Modulus (GPa) = 34.67541 42.95656 38.81599
#
# Velocity S-wave (km/s) = 3.59071 3.99654 3.79904
# Velocity P-wave (km/s) = 5.91580 6.60502 6.26989
#
# Compressibility (1/GPa) = 0.02088215
#
# Stress axis : x y z
#
# Youngs Moduli (GPa) = 52.15597 62.46449 106.55677
#
# Poissons Ratio (x) = 0.25268 0.51361
# Poissons Ratio (y) = 0.21098 0.31724
# Poissons Ratio (z) = 0.25139 0.18597
#
# Static dielectric constant tensor:
#      x y z
#    x 2.115960 -0.070340 0.012450 
#    y -0.070340 4.166750 0.534050 
#    z 0.012450 0.534050 2.413490 
# 
# From -- ./inp_files/550138.got.cif
#   From: 2010.05.17/outbox.cif.g08.bks.cpg/sg2_276_cif.got.tgz:550138.got - 2010.06.03 11:33:40.
