data_PCOD9068842
_publ_section_title
;
Structure prediction by ZEFSAII (Michael W. Deem and Ramdas Pophale) SiO2 
 PCOD9068842
Probable space group: P -1
;
_chemical_formula_sum "Si O2"
_cell_formula_units_Z 13
_cell_length_a 6.893533
_cell_length_b 12.984779
_cell_length_c 8.879991
_cell_angle_alpha 107.169720
_cell_angle_beta 124.565892
_cell_angle_gamma 49.136976
_cell_volume 491.317153
_symmetry_space_group_name_H-M "P -1"
_symmetry_group_IT_number 2
_symmetry_cell_setting 'triclinic'
loop_
_space_group_symop_operation_xyz
x,y,z
-x,-y,-z
loop_
_atom_site_type_symbol
_atom_site_label
_atom_site_fract_x
_atom_site_fract_y
_atom_site_fract_z
Si Si1 0.696351 0.033240 0.692165
Si Si2 0.003898 0.450175 0.232089
Si Si3 0.500000 0.500000 0.000000
Si Si4 0.318305 0.069966 0.799046
Si Si5 0.633752 0.178242 0.446301
Si Si6 0.309488 0.752819 0.810853
Si Si7 0.979998 0.654677 0.108903
O O1 0.024238 0.895492 0.812851
O O2 0.500000 0.000000 0.500000
O O3 0.505533 0.096337 0.785006
O O4 0.727415 0.124071 0.633717
O O5 0.097686 0.533324 0.226134
O O6 0.283443 0.310977 0.362956
O O7 0.680022 0.551775 0.203169
O O8 0.867585 0.407822 0.015721
O O9 0.342510 0.633635 0.863286
O O10 0.030927 0.223222 0.782359
O O11 0.306463 0.955982 0.666554
O O12 0.500000 0.000000 0.000000
O O13 0.753570 0.226127 0.389669
O O14 0.636054 0.717279 0.949263
#
# Coordination Sequence:
#
# PCOD9068842 Si02
#       7
#     2   2   1   2   2   2   2
#     4  10  22  35  55  80 112 149 181 220 276 332
#     4   9  17  33  53  78 110 142 180 222 271 324
#     4  10  18  28  52  84 106 142 186 226 264 316
#     4  11  19  35  55  83 112 139 183 229 274 316
#     4  10  20  38  57  81 113 150 179 220 276 331
#     4  10  19  33  55  83 111 142 187 227 267 325
#     4   9  19  33  54  83 109 141 178 231 274 310
#
# _framework density 26.459489000000001
#
# number of rings (size 3 to 8) (size 9 to 14) (size 15 to 20)
#    0.000    2.154    3.077    3.231    0.000    0.615 
#    0.000    0.769    0.000    0.000    0.000   64.615 
#    0.000    0.000    0.000    0.000    0.000    0.000 
#
# Total GULP energy -72438.634333 kJ/mol
# GULP energy per Si atom -5572.202641 kJ/mol
# Density = 2.639927 g / cm^3
# Si number density = 26.459489 Si / 1000 Ang^3
#
#
#
# Elastic Constant Matrix: (Units=GPa)
#
#
# Indices 1 2 3 4 5 6 
#
# 1 142.4046 50.8606 35.7737 -6.8282 -23.5369 22.3890
# 2 50.8606 160.3964 60.2029 -39.1696 -19.8846 12.8614
# 3 35.7737 60.2029 82.8194 -13.4071 -30.0664 22.4772
# 4 -6.8282 -39.1696 -13.4071 41.7037 5.1978 -10.7804
# 5 -23.5369 -19.8846 -30.0664 5.1978 47.0523 -20.1378
# 6 22.3890 12.8614 22.4772 -10.7804 -20.1378 50.4021
#
#
#
# Elastic Compliance Matrix: (Units=1/GPa)
#
#
# Indices 1 2 3 4 5 6 
#
# 1 0.008760 -0.002506 -0.000935 -0.002110 0.001872 -0.002538
# 2 -0.002506 0.011477 -0.006769 0.009013 -0.000464 0.002946
# 3 -0.000935 -0.006769 0.021445 -0.001822 0.008726 -0.004325
# 4 -0.002110 0.009013 -0.001822 0.033186 0.000875 0.006898
# 5 0.001872 -0.000464 0.008726 0.000875 0.030859 0.007912
# 6 -0.002538 0.002946 -0.004325 0.006898 0.007912 0.026781
#
#
# Mechanical properties :
#
#
# Convention : Reuss Voigt Hill
#
# Bulk Modulus (GPa) = 47.03403 75.47720 61.25562
# Shear Modulus (GPa) = 31.24677 43.75050 37.49864
#
# Velocity S-wave (km/s) = 3.44019 4.07072 3.76867
# Velocity P-wave (km/s) = 5.79606 7.11912 6.49139
#
# Compressibility (1/GPa) = 0.02126120
#
# Stress axis : x y z
#
# Youngs Moduli (GPa) = 114.16174 87.12881 46.62988
#
# Poissons Ratio (x) = 0.21837 0.04360
# Poissons Ratio (y) = 0.28612 0.31565
# Poissons Ratio (z) = 0.10673 0.58980
#
# Static dielectric constant tensor:
#      x y z
#    x 2.331030 -0.062840 0.087040 
#    y -0.062840 2.044710 0.079830 
#    z 0.087040 0.079830 2.195550 
# 
# From -- ./inp_files/202626.got.cif
#   From: 2010.05.17/outbox.cif.g08.bks.cpg/sg2_102_cif.got.tgz:202626.got - 2010.06.03 11:33:40.
