data_PCOD9068060
_publ_section_title
;
Structure prediction by ZEFSAII (Michael W. Deem and Ramdas Pophale) SiO2 
 PCOD9068060
Probable space group: P -1
;
_chemical_formula_sum "Si O2"
_cell_formula_units_Z 14
_cell_length_a 11.523110
_cell_length_b 20.390691
_cell_length_c 9.148092
_cell_angle_alpha 138.778763
_cell_angle_beta 115.473464
_cell_angle_gamma 33.388123
_cell_volume 653.113914
_symmetry_space_group_name_H-M "P -1"
_symmetry_group_IT_number 2
_symmetry_cell_setting 'triclinic'
loop_
_space_group_symop_operation_xyz
x,y,z
-x,-y,-z
loop_
_atom_site_type_symbol
_atom_site_label
_atom_site_fract_x
_atom_site_fract_y
_atom_site_fract_z
Si Si1 0.626161 0.201895 0.781368
Si Si2 0.518331 0.923794 0.528877
Si Si3 0.921590 0.121674 0.296851
Si Si4 0.984998 0.602604 0.456095
Si Si5 0.501411 0.388182 0.744207
Si Si6 0.314800 0.544271 0.396924
Si Si7 0.943810 0.669280 0.882806
O O1 0.491671 0.185949 0.696112
O O2 0.644759 0.220903 0.655424
O O3 0.460523 0.395947 0.095174
O O4 0.882751 0.022889 0.709298
O O5 0.766235 0.773092 0.508245
O O6 0.500000 0.000000 0.500000
O O7 0.272220 0.117269 0.812612
O O8 0.649990 0.285591 0.499592
O O9 0.913805 0.238512 0.426346
O O10 0.000000 0.000000 0.000000
O O11 0.054753 0.439110 0.217369
O O12 0.214427 0.523415 0.410332
O O13 0.897806 0.680751 0.705576
O O14 0.217328 0.537475 0.827291
O O15 0.500000 0.500000 0.000000
O O16 0.500000 0.500000 0.500000
#
# Coordination Sequence:
#
# PCOD9068060 Si02
#       7
#     2   2   2   2   2   2   2
#     4  12  26  44  73 107 145 189 245 299 372 424
#     4  12  26  46  73 109 145 189 246 302 363 438
#     4  12  26  45  71 108 145 192 242 298 367 438
#     4  11  26  47  74 100 147 196 240 298 368 441
#     4  12  25  47  75 104 150 191 240 309 366 427
#     4  12  25  47  73 109 144 188 240 305 368 437
#     4  11  26  49  72 106 145 195 247 294 369 439
#
# _framework density 21.435770999999999
#
# number of rings (size 3 to 8) (size 9 to 14) (size 15 to 20)
#    0.000    0.286    4.286    4.286    2.000    2.286 
#    2.571    0.000    0.000    0.000    0.000    0.000 
#    0.000    0.000    0.000    0.000    0.000    0.000 
#
# Total GULP energy -78362.310322 kJ/mol
# GULP energy per Si atom -5597.307880 kJ/mol
# Density = 2.138698 g / cm^3
# Si number density = 21.435771 Si / 1000 Ang^3
#
#
#
# Elastic Constant Matrix: (Units=GPa)
#
#
# Indices 1 2 3 4 5 6 
#
# 1 140.4757 41.3639 32.2112 -12.2781 14.0433 -0.4713
# 2 41.3639 138.7273 13.2901 -5.7813 12.1135 1.9096
# 3 32.2112 13.2901 101.6640 -8.7062 11.3588 -11.2512
# 4 -12.2781 -5.7813 -8.7062 23.4818 4.0983 0.5674
# 5 14.0433 12.1135 11.3588 4.0983 36.0838 0.2340
# 6 -0.4713 1.9096 -11.2512 0.5674 0.2340 44.2781
#
#
#
# Elastic Compliance Matrix: (Units=1/GPa)
#
#
# Indices 1 2 3 4 5 6 
#
# 1 0.008748 -0.002038 -0.001933 0.003807 -0.002542 -0.000346
# 2 -0.002038 0.008060 -0.000122 0.001235 -0.002012 -0.000406
# 3 -0.001933 -0.000122 0.011463 0.003708 -0.003255 0.002867
# 4 0.003807 0.001235 0.003708 0.047728 -0.008487 0.000363
# 5 -0.002542 -0.002012 -0.003255 -0.008487 0.031372 -0.000824
# 6 -0.000346 -0.000406 0.002867 0.000363 -0.000824 0.023327
#
#
# Mechanical properties :
#
#
# Convention : Reuss Voigt Hill
#
# Bulk Modulus (GPa) = 49.78982 61.62195 55.70589
# Shear Modulus (GPa) = 34.34536 40.36886 37.35711
#
# Velocity S-wave (km/s) = 4.00715 4.34435 4.17915
# Velocity P-wave (km/s) = 6.68487 7.34671 7.02359
#
# Compressibility (1/GPa) = 0.02008443
#
# Stress axis : x y z
#
# Youngs Moduli (GPa) = 114.31489 124.06331 87.23404
#
# Poissons Ratio (x) = 0.25280 0.16866
# Poissons Ratio (y) = 0.23294 0.01068
# Poissons Ratio (z) = 0.22102 0.01519
#
# Static dielectric constant tensor:
#      x y z
#    x 1.867940 0.082330 0.021080 
#    y 0.082330 1.853590 0.022220 
#    z 0.021080 0.022220 1.767440 
# 
# From -- ./inp_files/283404.got.cif
#   From: 2010.05.17/outbox.cif.g08.bks.cpg/sg2_142_cif.got.tgz:283404.got - 2010.06.03 11:33:40.
