data_PCOD9068305
_publ_section_title
;
Structure prediction by ZEFSAII (Michael W. Deem and Ramdas Pophale) SiO2 
 PCOD9068305
Probable space group: P -1
;
_chemical_formula_sum "Si O2"
_cell_formula_units_Z 14
_cell_length_a 8.686572
_cell_length_b 8.880603
_cell_length_c 11.713251
_cell_angle_alpha 60.911029
_cell_angle_beta 66.448175
_cell_angle_gamma 48.882172
_cell_volume 590.466179
_symmetry_space_group_name_H-M "P -1"
_symmetry_group_IT_number 2
_symmetry_cell_setting 'triclinic'
loop_
_space_group_symop_operation_xyz
x,y,z
-x,-y,-z
loop_
_atom_site_type_symbol
_atom_site_label
_atom_site_fract_x
_atom_site_fract_y
_atom_site_fract_z
Si Si1 0.668733 0.391679 0.150457
Si Si2 0.000426 0.050622 0.314363
Si Si3 0.883620 0.680942 0.702072
Si Si4 0.739747 0.868981 0.448523
Si Si5 0.240745 0.234351 0.785251
Si Si6 0.454381 0.623720 0.349059
Si Si7 0.502359 0.787356 0.909465
O O1 0.905912 0.211123 0.175580
O O2 0.531919 0.462497 0.279869
O O3 0.591770 0.297363 0.117551
O O4 0.618302 0.610836 0.036462
O O5 0.014428 0.193886 0.350633
O O6 0.831640 0.002475 0.398484
O O7 0.219937 0.825546 0.326216
O O8 0.851503 0.679690 0.576902
O O9 0.666284 0.802908 0.784929
O O10 0.021564 0.447299 0.798527
O O11 0.770291 0.814542 0.326524
O O12 0.500000 0.000000 0.500000
O O13 0.402499 0.292898 0.724372
O O14 0.322082 0.024786 0.910653
O O15 0.500000 0.500000 0.500000
#
# Coordination Sequence:
#
# PCOD9068305 Si02
#       7
#     2   2   2   2   2   2   2
#     4  11  27  48  72 102 140 190 235 292 350 416
#     4  12  25  46  70 103 140 186 231 294 350 413
#     4  12  25  43  71 104 139 186 234 288 355 420
#     4  12  24  43  71 101 146 178 231 295 350 417
#     4  12  25  44  68 106 137 187 233 289 352 415
#     4  12  28  45  72 108 143 182 233 293 356 416
#     4  11  26  49  71 100 143 187 239 289 348 416
#
# _framework density 23.710082
#
# number of rings (size 3 to 8) (size 9 to 14) (size 15 to 20)
#    0.000    0.286    5.714    1.714    8.000    2.286 
#    0.000    2.857    0.000    0.000    0.000    0.000 
#    0.000    0.000    0.000    0.000    0.000    0.000 
#
# Total GULP energy -78365.224894 kJ/mol
# GULP energy per Si atom -5597.516064 kJ/mol
# Density = 2.365612 g / cm^3
# Si number density = 23.710082 Si / 1000 Ang^3
#
#
#
# Elastic Constant Matrix: (Units=GPa)
#
#
# Indices 1 2 3 4 5 6 
#
# 1 92.3400 17.5838 12.2317 -12.9810 16.1969 -9.0226
# 2 17.5838 131.2502 23.4827 -39.4216 14.2026 -30.5393
# 3 12.2317 23.4827 68.6385 -25.2286 25.6690 -14.9361
# 4 -12.9810 -39.4216 -25.2286 44.2660 -9.6718 10.7761
# 5 16.1969 14.2026 25.6690 -9.6718 24.3978 -13.9271
# 6 -9.0226 -30.5393 -14.9361 10.7761 -13.9271 36.6735
#
#
#
# Elastic Compliance Matrix: (Units=1/GPa)
#
#
# Indices 1 2 3 4 5 6 
#
# 1 0.012674 -0.000422 0.002546 0.002770 -0.010268 -0.000910
# 2 -0.000422 0.012078 0.000910 0.009360 0.000416 0.007732
# 3 0.002546 0.000910 0.028427 0.011914 -0.028095 -0.001208
# 4 0.002770 0.009360 0.011914 0.037367 -0.004685 0.000569
# 5 -0.010268 0.000416 -0.028095 -0.004685 0.087169 0.020858
# 6 -0.000910 0.007732 -0.001208 0.000569 0.020858 0.040744
#
#
# Mechanical properties :
#
#
# Convention : Reuss Voigt Hill
#
# Bulk Modulus (GPa) = 16.87827 44.31390 30.59608
# Shear Modulus (GPa) = 21.53868 36.99616 29.26742
#
# Velocity S-wave (km/s) = 3.01727 3.95442 3.51720
# Velocity P-wave (km/s) = 4.39006 6.29129 5.42462
#
# Compressibility (1/GPa) = 0.05924777
#
# Stress axis : x y z
#
# Youngs Moduli (GPa) = 78.90015 82.79387 35.17798
#
# Poissons Ratio (x) = 0.03495 -0.08956
# Poissons Ratio (y) = 0.03331 -0.03203
# Poissons Ratio (z) = -0.20087 -0.07538
#
# Static dielectric constant tensor:
#      x y z
#    x 1.862820 -0.003080 0.036640 
#    y -0.003080 1.899830 -0.042170 
#    z 0.036640 -0.042170 1.950710 
# 
# From -- ./inp_files/214857.got.cif
#   From: 2010.05.17/outbox.cif.g08.bks.cpg/sg2_108_cif.got.tgz:214857.got - 2010.06.03 11:33:40.
