data_PCOD9068788
_publ_section_title
;
Structure prediction by ZEFSAII (Michael W. Deem and Ramdas Pophale) SiO2 
 PCOD9068788
Probable space group: P -1
;
_chemical_formula_sum "Si O2"
_cell_formula_units_Z 12
_cell_length_a 9.619927
_cell_length_b 19.558410
_cell_length_c 7.014129
_cell_angle_alpha 140.787917
_cell_angle_beta 132.781676
_cell_angle_gamma 32.916471
_cell_volume 451.784583
_symmetry_space_group_name_H-M "P -1"
_symmetry_group_IT_number 2
_symmetry_cell_setting 'triclinic'
loop_
_space_group_symop_operation_xyz
x,y,z
-x,-y,-z
loop_
_atom_site_type_symbol
_atom_site_label
_atom_site_fract_x
_atom_site_fract_y
_atom_site_fract_z
Si Si1 0.776457 0.998194 0.268012
Si Si2 0.617233 0.733416 0.251542
Si Si3 0.398947 0.600030 0.807846
Si Si4 0.003807 0.735162 0.463523
Si Si5 0.057741 0.674778 0.976841
Si Si6 0.421015 0.171985 0.964655
O O1 0.545062 0.120460 0.459050
O O2 0.355421 0.946831 0.943560
O O3 0.000000 0.000000 0.500000
O O4 0.896762 0.839788 0.105831
O O5 0.907655 0.663801 0.334194
O O6 0.574796 0.634476 0.094883
O O7 0.505842 0.775147 0.021734
O O8 0.500000 0.500000 0.500000
O O9 0.141960 0.750479 0.784928
O O10 0.279961 0.577218 0.819771
O O11 0.168284 0.657576 0.254234
O O12 0.733327 0.860693 0.374627
O O13 0.820501 0.686524 0.830757
#
# Coordination Sequence:
#
# PCOD9068788 Si02
#       6
#     2   2   2   2   2   2
#     4  12  20  34  64  90 123 153 194 239 288 365
#     4   9  23  40  59  90 119 155 196 239 302 347
#     4  12  23  41  65  85 115 158 205 249 291 344
#     4   8  23  42  60  86 126 153 195 247 291 354
#     4   9  22  39  57  89 119 157 196 231 299 349
#     4   8  22  39  60  87 125 159 187 241 300 352
#
# _framework density 26.561333000000001
#
# number of rings (size 3 to 8) (size 9 to 14) (size 15 to 20)
#    2.000    0.000    1.667    1.500    2.333    6.000 
#    0.000    3.333    0.000    0.000    0.000    0.000 
#    0.000    0.000    0.000    0.000    0.000    0.000 
#
# Total GULP energy -66826.790635 kJ/mol
# GULP energy per Si atom -5568.899220 kJ/mol
# Density = 2.650088 g / cm^3
# Si number density = 26.561333 Si / 1000 Ang^3
#
#
#
# Elastic Constant Matrix: (Units=GPa)
#
#
# Indices 1 2 3 4 5 6 
#
# 1 167.2648 15.3037 32.1535 -9.3469 -32.5864 -16.8218
# 2 15.3037 48.4740 11.2362 -17.3991 -14.1458 8.2837
# 3 32.1535 11.2362 51.3547 -3.1598 -13.8580 -7.3367
# 4 -9.3469 -17.3991 -3.1598 52.1846 -8.2968 -11.7758
# 5 -32.5864 -14.1458 -13.8580 -8.2968 42.4403 3.6655
# 6 -16.8218 8.2837 -7.3367 -11.7758 3.6655 43.2423
#
#
#
# Elastic Compliance Matrix: (Units=1/GPa)
#
#
# Indices 1 2 3 4 5 6 
#
# 1 0.008084 0.000364 -0.003019 0.002938 0.005668 0.002882
# 2 0.000364 0.029027 -0.003511 0.010376 0.011194 -0.004138
# 3 -0.003019 -0.003511 0.023847 0.001198 0.004230 0.003512
# 4 0.002938 0.010376 0.001198 0.026188 0.010743 0.005579
# 5 0.005668 0.011194 0.004230 0.010743 0.035063 0.000732
# 6 0.002882 -0.004138 0.003512 0.005579 0.000732 0.027093
#
#
# Mechanical properties :
#
#
# Convention : Reuss Voigt Hill
#
# Bulk Modulus (GPa) = 20.56511 42.72003 31.64257
# Shear Modulus (GPa) = 28.11468 41.46679 34.79074
#
# Velocity S-wave (km/s) = 3.25696 3.95545 3.62308
# Velocity P-wave (km/s) = 4.68007 6.08106 5.42597
#
# Compressibility (1/GPa) = 0.04862604
#
# Stress axis : x y z
#
# Youngs Moduli (GPa) = 123.70326 34.45092 41.93324
#
# Poissons Ratio (x) = -0.01252 0.12659
# Poissons Ratio (y) = -0.04497 0.14721
# Poissons Ratio (z) = 0.37345 0.12094
#
# Static dielectric constant tensor:
#      x y z
#    x 2.191400 -0.163360 -0.071070 
#    y -0.163360 2.413880 0.098400 
#    z -0.071070 0.098400 2.120020 
# 
# From -- ./inp_files/40593.got.cif
#   From: 2010.05.17/outbox.cif.g08.bks.cpg/sg2_21_cif.got.tgz:40593.got - 2010.06.03 11:33:40.
