data_PCOD9068475
_publ_section_title
;
Structure prediction by ZEFSAII (Michael W. Deem and Ramdas Pophale) SiO2 
 PCOD9068475
Probable space group: P -1
;
_chemical_formula_sum "Si O2"
_cell_formula_units_Z 12
_cell_length_a 8.248530
_cell_length_b 8.923127
_cell_length_c 8.600861
_cell_angle_alpha 95.076570
_cell_angle_beta 72.155713
_cell_angle_gamma 130.471322
_cell_volume 453.051073
_symmetry_space_group_name_H-M "P -1"
_symmetry_group_IT_number 2
_symmetry_cell_setting 'triclinic'
loop_
_space_group_symop_operation_xyz
x,y,z
-x,-y,-z
loop_
_atom_site_type_symbol
_atom_site_label
_atom_site_fract_x
_atom_site_fract_y
_atom_site_fract_z
Si Si1 0.155924 0.535814 0.097162
Si Si2 0.361093 0.096471 0.138904
Si Si3 0.108845 0.910906 0.898358
Si Si4 0.797800 0.220997 0.606192
Si Si5 0.472470 0.259858 0.598505
Si Si6 0.242757 0.300387 0.380600
O O1 0.126191 0.617554 0.267817
O O2 0.068061 0.315641 0.124929
O O3 0.410046 0.701162 0.976168
O O4 0.000000 0.500000 0.000000
O O5 0.218923 0.156485 0.247805
O O6 0.370883 0.989669 0.272571
O O7 0.242941 0.938825 0.018448
O O8 0.286538 0.062568 0.730786
O O9 0.000000 0.000000 0.000000
O O10 0.670310 0.249982 0.519397
O O11 0.010037 0.244651 0.493536
O O12 0.358580 0.275218 0.487302
O O13 0.583131 0.462188 0.681918
#
# Coordination Sequence:
#
# PCOD9068475 Si02
#       6
#     2   2   2   2   2   2
#     4  12  26  46  81 113 155 203 258 324 383 457
#     4  12  26  51  78 115 158 201 257 327 385 460
#     4  12  26  47  79 117 152 203 265 314 387 463
#     4  12  25  51  79 115 153 206 260 315 390 464
#     4  11  26  51  76 111 156 206 260 313 387 465
#     4  11  28  50  78 111 159 206 254 321 391 460
#
# _framework density 26.487079000000001
#
# number of rings (size 3 to 8) (size 9 to 14) (size 15 to 20)
#    0.000    0.333    3.333    4.500    7.000    2.000 
#    3.000    0.000    0.000    0.000    0.000    0.000 
#    0.000    0.000    0.000    0.000    0.000    0.000 
#
# Total GULP energy -67342.104001 kJ/mol
# GULP energy per Si atom -5611.842000 kJ/mol
# Density = 2.642679 g / cm^3
# Si number density = 26.487079 Si / 1000 Ang^3
#
#
#
# Elastic Constant Matrix: (Units=GPa)
#
#
# Indices 1 2 3 4 5 6 
#
# 1 187.6604 48.6224 70.1522 -2.4591 -11.1630 -21.4630
# 2 48.6224 223.6851 80.5242 2.3425 -19.7612 -13.8412
# 3 70.1522 80.5242 104.2025 11.5875 -21.6855 1.5051
# 4 -2.4591 2.3425 11.5875 61.1274 -3.8509 3.8164
# 5 -11.1630 -19.7612 -21.6855 -3.8509 58.9523 0.3561
# 6 -21.4630 -13.8412 1.5051 3.8164 0.3561 49.3988
#
#
#
# Elastic Compliance Matrix: (Units=1/GPa)
#
#
# Indices 1 2 3 4 5 6 
#
# 1 0.007834 0.000653 -0.006062 0.001179 -0.000473 0.003684
# 2 0.000653 0.006455 -0.005474 0.000698 0.000306 0.002203
# 3 -0.006062 -0.005474 0.019128 -0.003133 0.003876 -0.004536
# 4 0.001179 0.000698 -0.003133 0.017032 0.000421 -0.000515
# 5 -0.000473 0.000306 0.003876 0.000421 0.018432 -0.000403
# 6 0.003684 0.002203 -0.004536 -0.000515 -0.000403 0.022642
#
#
# Mechanical properties :
#
#
# Convention : Reuss Voigt Hill
#
# Bulk Modulus (GPa) = 85.81569 101.57173 93.69371
# Shear Modulus (GPa) = 42.67207 54.97896 48.82552
#
# Velocity S-wave (km/s) = 4.01815 4.56092 4.29811
# Velocity P-wave (km/s) = 7.34825 8.13430 7.75124
#
# Compressibility (1/GPa) = 0.01165288
#
# Stress axis : x y z
#
# Youngs Moduli (GPa) = 127.64528 154.91487 52.27944
#
# Poissons Ratio (x) = -0.10116 0.31690
# Poissons Ratio (y) = -0.08336 0.28616
# Poissons Ratio (z) = 0.77373 0.84796
#
# Static dielectric constant tensor:
#      x y z
#    x 2.180790 -0.000970 0.067110 
#    y -0.000970 2.055280 0.004670 
#    z 0.067110 0.004670 2.074950 
# 
# From -- ./inp_files/159170.got.cif
#   From: 2010.05.17/outbox.cif.g08.bks.cpg/sg2_80_cif.got.tgz:159170.got - 2010.06.03 11:33:40.
