data_PCOD9068890
_publ_section_title
;
Structure prediction by ZEFSAII (Michael W. Deem and Ramdas Pophale) SiO2 
 PCOD9068890
Probable space group: P -1
;
_chemical_formula_sum "Si O2"
_cell_formula_units_Z 16
_cell_length_a 25.004158
_cell_length_b 25.617986
_cell_length_c 9.065137
_cell_angle_alpha 39.750942
_cell_angle_beta 39.631823
_cell_angle_gamma 11.343334
_cell_volume 724.131549
_symmetry_space_group_name_H-M "P -1"
_symmetry_group_IT_number 2
_symmetry_cell_setting 'triclinic'
loop_
_space_group_symop_operation_xyz
x,y,z
-x,-y,-z
loop_
_atom_site_type_symbol
_atom_site_label
_atom_site_fract_x
_atom_site_fract_y
_atom_site_fract_z
Si Si1 0.111165 0.487183 0.763774
Si Si2 0.244938 0.897465 0.876969
Si Si3 0.140876 0.572546 0.804102
Si Si4 0.362530 0.972240 0.556415
Si Si5 0.715240 0.310581 0.668276
Si Si6 0.207347 0.875297 0.402319
Si Si7 0.685069 0.039055 0.995828
Si Si8 0.700874 0.418620 0.739410
O O1 0.131857 0.513238 0.822215
O O2 0.899348 0.735161 0.576936
O O3 0.386805 0.230137 0.638418
O O4 0.000000 0.500000 0.000000
O O5 0.430028 0.708941 0.751207
O O6 0.320356 0.916673 0.727045
O O7 0.323744 0.750293 0.139038
O O8 0.923585 0.190110 0.887363
O O9 0.160106 0.639695 0.529051
O O10 0.897077 0.803294 0.940855
O O11 0.412860 0.309180 0.894814
O O12 0.379892 0.955579 0.733837
O O13 0.506808 0.559042 0.477016
O O14 0.643518 0.397583 0.798642
O O15 0.033217 0.039503 0.567921
O O16 0.210670 0.967936 0.153664
O O17 0.000000 0.000000 0.500000
#
# Coordination Sequence:
#
# PCOD9068890 Si02
#       8
#     2   2   2   2   2   2   2   2
#     4  12  27  50  78 106 135 173 224 284 356 431
#     4  12  23  39  63  98 134 177 229 287 333 390
#     4  12  23  46  74 100 137 183 229 284 347 415
#     4  12  25  46  72 105 140 177 226 280 346 412
#     4  12  24  37  58  92 134 176 237 290 324 374
#     4  12  24  40  58  87 137 192 233 273 327 390
#     4  12  25  44  71 103 141 188 231 278 339 406
#     4  12  21  40  64  93 135 177 235 281 333 399
#
# _framework density 22.095433
#
# number of rings (size 3 to 8) (size 9 to 14) (size 15 to 20)
#    0.000    0.000    5.000    6.000    0.000    2.000 
#    0.000    3.750    0.000    0.000    0.000    0.000 
#    0.000    0.000    0.000    0.000    0.000    0.000 
#
# Total GULP energy -89446.181190 kJ/mol
# GULP energy per Si atom -5590.386324 kJ/mol
# Density = 2.204514 g / cm^3
# Si number density = 22.095433 Si / 1000 Ang^3
#
#
#
# Elastic Constant Matrix: (Units=GPa)
#
#
# Indices 1 2 3 4 5 6 
#
# 1 76.7359 -10.6559 22.2810 3.4057 3.0636 1.3080
# 2 -10.6559 60.8906 -50.8303 25.0531 17.2394 -6.1772
# 3 22.2810 -50.8303 32.2047 29.7572 9.8191 -6.2885
# 4 3.4057 25.0531 29.7572 10.8855 -2.0598 6.5360
# 5 3.0636 17.2394 9.8191 -2.0598 29.7569 0.0459
# 6 1.3080 -6.1772 -6.2885 6.5360 0.0459 29.4683
#
#
#
# Elastic Compliance Matrix: (Units=1/GPa)
#
#
# Indices 1 2 3 4 5 6 
#
# 1 0.014332 0.002326 -0.002569 -0.003247 -0.002200 0.000027
# 2 0.002326 0.004331 -0.007818 0.013077 0.000742 -0.003765
# 3 -0.002569 -0.007818 0.002039 0.017176 0.005317 -0.004908
# 4 -0.003247 0.013077 0.017176 0.011060 -0.012150 0.004117
# 5 -0.002200 0.000742 0.005317 -0.012150 0.030800 0.004035
# 6 0.000027 -0.003765 -0.004908 0.004117 0.004035 0.031178
#
#
# Mechanical properties :
#
#
# Convention : Reuss Voigt Hill
#
# Bulk Modulus (GPa) = 218.33693 10.15786 114.24740
# Shear Modulus (GPa) = 44.88818 27.95790 36.42304
#
# Velocity S-wave (km/s) = 4.51217 3.56100 4.06451
# Velocity P-wave (km/s) = 11.23282 4.63841 8.59334
#
# Compressibility (1/GPa) = 0.00458008
#
# Stress axis : x y z
#
# Youngs Moduli (GPa) = 69.77422 230.89146 490.48591
#
# Poissons Ratio (x) = -0.53696 1.25984
# Poissons Ratio (y) = -0.16227 3.83456
# Poissons Ratio (z) = 0.17922 1.80508
#
# Static dielectric constant tensor:
#      x y z
#    x 1.943780 0.113840 0.092480 
#    y 0.113840 1.887400 0.089810 
#    z 0.092480 0.089810 1.864650 
# 
# From -- ./inp_files/357968.got.cif
#   From: 2010.05.17/outbox.cif.g08.bks.cpg/sg2_179_cif.got.tgz:357968.got - 2010.06.03 11:33:40.
