data_PCOD9068132
_publ_section_title
;
Structure prediction by ZEFSAII (Michael W. Deem and Ramdas Pophale) SiO2 
 PCOD9068132
Probable space group: P -1
;
_chemical_formula_sum "Si O2"
_cell_formula_units_Z 14
_cell_length_a 9.649921
_cell_length_b 17.578430
_cell_length_c 11.381826
_cell_angle_alpha 140.097834
_cell_angle_beta 134.440791
_cell_angle_gamma 26.361248
_cell_volume 549.376813
_symmetry_space_group_name_H-M "P -1"
_symmetry_group_IT_number 2
_symmetry_cell_setting 'triclinic'
loop_
_space_group_symop_operation_xyz
x,y,z
-x,-y,-z
loop_
_atom_site_type_symbol
_atom_site_label
_atom_site_fract_x
_atom_site_fract_y
_atom_site_fract_z
Si Si1 0.710796 0.827335 0.011343
Si Si2 0.659166 0.388295 0.587686
Si Si3 0.289167 0.338351 0.394366
Si Si4 0.234020 0.723502 0.120672
Si Si5 0.337913 0.945685 0.512888
Si Si6 0.681262 0.263351 0.062313
Si Si7 0.336732 0.981974 0.214258
O O1 0.806729 0.671164 0.799597
O O2 0.527412 0.883285 0.086453
O O3 0.004336 0.773325 0.135300
O O4 0.500000 0.000000 0.000000
O O5 0.500000 0.500000 0.500000
O O6 0.452801 0.382964 0.515289
O O7 0.601638 0.528417 0.803990
O O8 0.011003 0.165915 0.541032
O O9 0.000000 0.500000 0.500000
O O10 0.528776 0.141348 0.378032
O O11 0.313780 0.819556 0.313136
O O12 0.500000 0.500000 0.000000
O O13 0.131977 0.777455 0.988287
O O14 0.588731 0.921397 0.584058
O O15 0.560474 0.190501 0.870320
O O16 0.964056 0.137908 0.174715
#
# Coordination Sequence:
#
# PCOD9068132 Si02
#       7
#     2   2   2   2   2   2   2
#     4  12  22  43  74 104 143 192 243 304 374 443
#     4  12  28  48  75 112 155 199 253 317 382 448
#     4  12  25  48  76 110 148 199 254 312 380 452
#     4  12  27  46  74 111 149 190 248 316 376 449
#     4  12  27  47  77 113 151 198 257 311 378 459
#     4  11  26  50  72 104 153 198 247 311 382 450
#     4  11  26  47  78 106 146 202 254 310 383 447
#
# _framework density 25.483419999999999
#
# number of rings (size 3 to 8) (size 9 to 14) (size 15 to 20)
#    0.000    0.286    2.857    5.571    8.000    1.143 
#    5.143    0.000    0.000    0.000    0.000    0.000 
#    0.000    0.000    0.000    0.000    0.000    0.000 
#
# Total GULP energy -78143.575645 kJ/mol
# GULP energy per Si atom -5581.683975 kJ/mol
# Density = 2.542542 g / cm^3
# Si number density = 25.483420 Si / 1000 Ang^3
#
#
#
# Elastic Constant Matrix: (Units=GPa)
#
#
# Indices 1 2 3 4 5 6 
#
# 1 105.3857 43.1601 -5.2717 2.7264 -0.8987 13.8278
# 2 43.1601 122.3241 40.3384 20.6404 10.8098 3.3946
# 3 -5.2717 40.3384 124.5302 12.1860 23.2627 1.3271
# 4 2.7264 20.6404 12.1860 32.2473 4.7276 -7.2791
# 5 -0.8987 10.8098 23.2627 4.7276 59.9213 -4.8035
# 6 13.8278 3.3946 1.3271 -7.2791 -4.8035 40.7914
#
#
#
# Elastic Compliance Matrix: (Units=1/GPa)
#
#
# Indices 1 2 3 4 5 6 
#
# 1 0.012086 -0.004941 0.002116 0.000525 -0.000084 -0.003671
# 2 -0.004941 0.012131 -0.003454 -0.006053 -0.000473 -0.000358
# 3 0.002116 -0.003454 0.010012 -0.001600 -0.003220 -0.001420
# 4 0.000525 -0.006053 -0.001600 0.037103 -0.000652 0.006922
# 5 -0.000084 -0.000473 -0.003220 -0.000652 0.018251 0.002206
# 6 -0.003671 -0.000358 -0.001420 0.006922 0.002206 0.027330
#
#
# Mechanical properties :
#
#
# Convention : Reuss Voigt Hill
#
# Bulk Modulus (GPa) = 46.14965 56.52152 51.33558
# Shear Modulus (GPa) = 36.57808 44.85955 40.71882
#
# Velocity S-wave (km/s) = 3.79273 4.20020 4.00165
# Velocity P-wave (km/s) = 6.10973 6.76388 6.44511
#
# Compressibility (1/GPa) = 0.02166864
#
# Stress axis : x y z
#
# Youngs Moduli (GPa) = 82.74173 82.43664 99.88275
#
# Poissons Ratio (x) = 0.40734 -0.21132
# Poissons Ratio (y) = 0.40885 0.34501
# Poissons Ratio (z) = -0.17506 0.28475
#
# Static dielectric constant tensor:
#      x y z
#    x 1.629570 0.197210 0.294190 
#    y 0.197210 2.418320 -0.080600 
#    z 0.294190 -0.080600 1.807370 
# 
# From -- ./inp_files/403413.got.cif
#   From: 2010.05.17/outbox.cif.g08.bks.cpg/sg2_202_cif.got.tgz:403413.got - 2010.06.03 11:33:40.
