data_PCOD9068954
_publ_section_title
;
Structure prediction by ZEFSAII (Michael W. Deem and Ramdas Pophale) SiO2 
 PCOD9068954
Probable space group: P -1
;
_chemical_formula_sum "Si O2"
_cell_formula_units_Z 14
_cell_length_a 5.508128
_cell_length_b 21.004667
_cell_length_c 21.577068
_cell_angle_alpha 160.344224
_cell_angle_beta 131.875298
_cell_angle_gamma 53.590631
_cell_volume 619.086879
_symmetry_space_group_name_H-M "P -1"
_symmetry_group_IT_number 2
_symmetry_cell_setting 'triclinic'
loop_
_space_group_symop_operation_xyz
x,y,z
-x,-y,-z
loop_
_atom_site_type_symbol
_atom_site_label
_atom_site_fract_x
_atom_site_fract_y
_atom_site_fract_z
Si Si1 0.328883 0.651537 0.498663
Si Si2 0.387183 0.034747 0.082595
Si Si3 0.218349 0.872252 0.374723
Si Si4 0.826929 0.727280 0.055765
Si Si5 0.162389 0.238046 0.047086
Si Si6 0.442068 0.066311 0.298881
Si Si7 0.588802 0.668730 0.352078
O O1 0.291072 0.425456 0.280253
O O2 0.981211 0.696977 0.453332
O O3 0.431835 0.754267 0.674523
O O4 0.592976 0.769730 0.606295
O O5 0.536529 0.884649 0.015534
O O6 0.500000 0.000000 0.000000
O O7 0.000000 0.000000 0.000000
O O8 0.417284 0.731321 0.318693
O O9 0.011375 0.749017 0.172761
O O10 0.500000 0.000000 0.500000
O O11 0.000000 0.000000 0.500000
O O12 0.724704 0.935507 0.219529
O O13 0.966441 0.697081 0.982566
O O14 0.542025 0.549049 0.851889
O O15 0.878246 0.089324 0.892282
O O16 0.522717 0.184224 0.482888
#
# Coordination Sequence:
#
# PCOD9068954 Si02
#       7
#     2   2   2   2   2   2   2
#     4  12  26  46  79 109 147 200 250 305 378 457
#     4  12  29  50  78 112 152 193 243 316 384 451
#     4  12  27  46  71 109 159 203 251 317 368 428
#     4  12  25  44  75 109 147 204 256 307 372 442
#     4  12  26  46  79 109 147 200 250 305 378 457
#     4  12  21  45  72 105 148 192 259 300 366 448
#     4  12  25  44  75 109 147 204 256 307 372 442
#
# _framework density 22.613952000000001
#
# number of rings (size 3 to 8) (size 9 to 14) (size 15 to 20)
#    0.000    0.000    7.143    3.000    0.000    1.143 
#    0.000    2.143    0.000    0.000    0.000    0.000 
#    0.000    0.000    0.000    0.000    0.000    0.000 
#
# Total GULP energy -78127.838831 kJ/mol
# GULP energy per Si atom -5580.559917 kJ/mol
# Density = 2.256248 g / cm^3
# Si number density = 22.613952 Si / 1000 Ang^3
#
#
#
# Elastic Constant Matrix: (Units=GPa)
#
#
# Indices 1 2 3 4 5 6 
#
# 1 77.1565 4.9704 34.9423 -16.1871 8.0673 19.0095
# 2 4.9704 48.7940 7.1037 -18.3675 -5.8216 15.1942
# 3 34.9423 7.1037 191.1835 -12.7741 -4.5740 19.1777
# 4 -16.1871 -18.3675 -12.7741 31.9579 7.6561 2.2355
# 5 8.0673 -5.8216 -4.5740 7.6561 39.4761 2.4233
# 6 19.0095 15.1942 19.1777 2.2355 2.4233 34.7625
#
#
#
# Elastic Compliance Matrix: (Units=1/GPa)
#
#
# Indices 1 2 3 4 5 6 
#
# 1 0.021152 0.008732 -0.001631 0.017507 -0.005685 -0.015213
# 2 0.008732 0.037300 0.001252 0.028040 -0.000130 -0.023563
# 3 -0.001631 0.001252 0.005974 0.002272 0.000964 -0.003165
# 4 0.017507 0.028040 0.002272 0.061290 -0.009448 -0.026366
# 5 -0.005685 -0.000130 0.000964 -0.009448 0.028341 0.001266
# 6 -0.015213 -0.023563 -0.003165 -0.026366 0.001266 0.050738
#
#
# Mechanical properties :
#
#
# Convention : Reuss Voigt Hill
#
# Bulk Modulus (GPa) = 12.32547 45.68522 29.00534
# Shear Modulus (GPa) = 23.24147 39.24714 31.24430
#
# Velocity S-wave (km/s) = 3.20933 4.17049 3.72107
# Velocity P-wave (km/s) = 4.38124 6.59065 5.59607
#
# Compressibility (1/GPa) = 0.08113284
#
# Stress axis : x y z
#
# Youngs Moduli (GPa) = 47.27676 26.80993 167.37983
#
# Poissons Ratio (x) = -0.23410 0.27293
# Poissons Ratio (y) = -0.41281 -0.20960
# Poissons Ratio (z) = 0.07709 -0.03357
#
# Static dielectric constant tensor:
#      x y z
#    x 2.024750 -0.009860 -0.066520 
#    y -0.009860 1.976640 -0.049560 
#    z -0.066520 -0.049560 1.852550 
# 
# From -- ./inp_files/98229.got.cif
#   From: 2010.05.17/outbox.cif.g08.bks.cpg/sg2_50_cif.got.tgz:98229.got - 2010.06.03 11:33:40.
