data_PCOD9068801
_publ_section_title
;
Structure prediction by ZEFSAII (Michael W. Deem and Ramdas Pophale) SiO2 
 PCOD9068801
Probable space group: P -1
;
_chemical_formula_sum "Si O2"
_cell_formula_units_Z 16
_cell_length_a 7.690899
_cell_length_b 19.686700
_cell_length_c 7.291977
_cell_angle_alpha 130.972736
_cell_angle_beta 114.518654
_cell_angle_gamma 64.382532
_cell_volume 737.499854
_symmetry_space_group_name_H-M "P -1"
_symmetry_group_IT_number 2
_symmetry_cell_setting 'triclinic'
loop_
_space_group_symop_operation_xyz
x,y,z
-x,-y,-z
loop_
_atom_site_type_symbol
_atom_site_label
_atom_site_fract_x
_atom_site_fract_y
_atom_site_fract_z
Si Si1 0.838474 0.758469 0.067022
Si Si2 0.087913 0.362880 0.801295
Si Si3 0.076702 0.512599 0.353871
Si Si4 0.191171 0.921468 0.508172
Si Si5 0.549636 0.952204 0.241596
Si Si6 0.851396 0.099027 0.141127
Si Si7 0.828919 0.236096 0.056056
Si Si8 0.425777 0.370592 0.172181
O O1 0.728018 0.863774 0.187784
O O2 0.920263 0.729192 0.255456
O O3 0.675215 0.697455 0.869356
O O4 0.002595 0.737444 0.946100
O O5 0.994732 0.390885 0.614186
O O6 0.319219 0.364768 0.917054
O O7 0.998631 0.442445 0.055569
O O8 0.312329 0.471300 0.373657
O O9 0.000000 0.500000 0.500000
O O10 0.367472 0.973046 0.704856
O O11 0.145766 0.879874 0.606222
O O12 0.242962 0.840535 0.237661
O O13 0.000000 0.000000 0.500000
O O14 0.500000 0.000000 0.500000
O O15 0.636779 0.082297 0.970698
O O16 0.104192 0.822732 0.835115
O O17 0.000000 0.000000 0.000000
O O18 0.652074 0.324027 0.174051
#
# Coordination Sequence:
#
# PCOD9068801 Si02
#       8
#     2   2   2   2   2   2   2   2
#     4   9  19  35  59  79 118 151 183 243 289 339
#     4   7  16  33  52  84 111 138 190 222 286 346
#     4   8  14  32  62  79 108 149 181 227 287 350
#     4  12  23  38  58  80 112 161 203 242 295 343
#     4  12  20  38  61  82 116 156 201 250 292 344
#     4  12  23  38  57  82 113 154 204 248 291 347
#     4  12  21  40  57  81 122 148 196 244 291 343
#     4   8  18  36  55  85 111 144 188 234 289 346
#
# _framework density 21.694918999999999
#
# number of rings (size 3 to 8) (size 9 to 14) (size 15 to 20)
#    1.500    0.250    5.000    0.375    0.000    0.000 
#    2.250    3.125    2.750    3.000    0.000    0.000 
#    0.000    0.000    0.000    0.000    0.000    0.000 
#
# Total GULP energy -89140.737638 kJ/mol
# GULP energy per Si atom -5571.296102 kJ/mol
# Density = 2.164554 g / cm^3
# Si number density = 21.694919 Si / 1000 Ang^3
#
#
#
# Elastic Constant Matrix: (Units=GPa)
#
#
# Indices 1 2 3 4 5 6 
#
# 1 103.4351 40.7341 26.6996 -10.7346 -16.6724 -18.7024
# 2 40.7341 123.1684 48.5755 -13.7954 -23.2571 -20.4261
# 3 26.6996 48.5755 94.1753 -27.9188 -19.4451 -3.1431
# 4 -10.7346 -13.7954 -27.9188 31.8317 10.1011 -6.2984
# 5 -16.6724 -23.2571 -19.4451 10.1011 34.0304 6.3542
# 6 -18.7024 -20.4261 -3.1431 -6.2984 6.3542 32.5112
#
#
#
# Elastic Compliance Matrix: (Units=1/GPa)
#
#
# Indices 1 2 3 4 5 6 
#
# 1 0.012442 -0.002002 -0.000966 0.002966 0.002183 0.005954
# 2 -0.002002 0.012273 -0.004704 0.000481 0.003548 0.005504
# 3 -0.000966 -0.004704 0.017460 0.012091 0.002702 -0.000009
# 4 0.002966 0.000481 0.012091 0.048729 -0.008437 0.014267
# 5 0.002183 0.003548 0.002702 -0.008437 0.037918 -0.005299
# 6 0.005954 0.005504 -0.000009 0.014267 -0.005299 0.041441
#
#
# Mechanical properties :
#
#
# Convention : Reuss Voigt Hill
#
# Bulk Modulus (GPa) = 37.26863 61.42192 49.34527
# Shear Modulus (GPa) = 25.70036 33.32597 29.51316
#
# Velocity S-wave (km/s) = 3.44557 3.92359 3.69232
# Velocity P-wave (km/s) = 5.74849 6.99279 6.40095
#
# Compressibility (1/GPa) = 0.02683222
#
# Stress axis : x y z
#
# Youngs Moduli (GPa) = 80.37314 81.48092 57.27221
#
# Poissons Ratio (x) = 0.16312 0.05532
# Poissons Ratio (y) = 0.16090 0.26939
# Poissons Ratio (z) = 0.07763 0.38326
#
# Static dielectric constant tensor:
#      x y z
#    x 1.845300 0.052100 0.071140 
#    y 0.052100 1.869980 0.028840 
#    z 0.071140 0.028840 1.840060 
# 
# From -- ./inp_files/219603.got.cif
#   From: 2010.05.17/outbox.cif.g08.bks.cpg/sg2_110_cif.got.tgz:219603.got - 2010.06.03 11:33:40.
