data_PCOD9068368
_publ_section_title
;
Structure prediction by ZEFSAII (Michael W. Deem and Ramdas Pophale) SiO2 
 PCOD9068368
Probable space group: P -1
;
_chemical_formula_sum "Si O2"
_cell_formula_units_Z 16
_cell_length_a 5.819306
_cell_length_b 28.609604
_cell_length_c 8.176351
_cell_angle_alpha 32.763243
_cell_angle_beta 107.324578
_cell_angle_gamma 114.427986
_cell_volume 667.269410
_symmetry_space_group_name_H-M "P -1"
_symmetry_group_IT_number 2
_symmetry_cell_setting 'triclinic'
loop_
_space_group_symop_operation_xyz
x,y,z
-x,-y,-z
loop_
_atom_site_type_symbol
_atom_site_label
_atom_site_fract_x
_atom_site_fract_y
_atom_site_fract_z
Si Si1 0.249826 0.726356 0.541275
Si Si2 0.759116 0.665898 0.844296
Si Si3 0.278719 0.035190 0.276440
Si Si4 0.253413 0.323209 0.850046
Si Si5 0.920502 0.412305 0.354509
Si Si6 0.460261 0.091294 0.792906
Si Si7 0.222114 0.136174 0.277752
Si Si8 0.280676 0.534241 0.534668
O O1 0.526070 0.707730 0.663195
O O2 0.179796 0.684027 0.472483
O O3 0.307766 0.830439 0.304539
O O4 0.985454 0.678577 0.724583
O O5 0.890898 0.707346 0.921087
O O6 0.644164 0.557144 0.165678
O O7 0.297872 0.116897 0.166910
O O8 0.500000 0.000000 0.500000
O O9 0.289820 0.061810 0.008587
O O10 0.028026 0.949344 0.496329
O O11 0.548983 0.376897 0.785541
O O12 0.163700 0.403727 0.523794
O O13 0.204469 0.236693 0.981626
O O14 0.725052 0.427364 0.398194
O O15 0.000000 0.500000 0.000000
O O16 0.381116 0.133520 0.486333
O O17 0.500000 0.000000 0.000000
O O18 0.000000 0.500000 0.500000
#
# Coordination Sequence:
#
# PCOD9068368 Si02
#       8
#     2   2   2   2   2   2   2   2
#     4  12  30  49  79 120 155 207 267 334 399 487
#     4  12  26  51  77 110 158 203 266 319 395 478
#     4  11  26  49  77 111 157 198 263 331 408 480
#     4  12  28  45  79 109 152 209 267 325 396 482
#     4  12  28  47  73 111 158 206 259 333 398 471
#     4  12  27  49  82 113 158 209 266 331 413 480
#     4  11  27  49  78 114 153 207 265 334 401 484
#     4  12  26  47  77 108 156 209 265 318 404 472
#
# _framework density 23.978323
#
# number of rings (size 3 to 8) (size 9 to 14) (size 15 to 20)
#    0.000    0.250    5.000    2.250    7.000    2.000 
#    0.000    0.000    0.000    0.000    0.000    0.000 
#    0.000    0.000    0.000    0.000    0.000    0.000 
#
# Total GULP energy -89207.285256 kJ/mol
# GULP energy per Si atom -5575.455328 kJ/mol
# Density = 2.392375 g / cm^3
# Si number density = 23.978323 Si / 1000 Ang^3
#
#
#
# Elastic Constant Matrix: (Units=GPa)
#
#
# Indices 1 2 3 4 5 6 
#
# 1 64.5762 38.5587 23.9140 1.2702 4.1634 -32.5007
# 2 38.5587 141.3659 15.2675 -27.5588 -6.0004 -45.0646
# 3 23.9140 15.2675 63.5724 -9.9674 5.7400 -16.0542
# 4 1.2702 -27.5588 -9.9674 46.8890 -3.9324 5.8862
# 5 4.1634 -6.0004 5.7400 -3.9324 33.9409 -0.0166
# 6 -32.5007 -45.0646 -16.0542 5.8862 -0.0166 52.5352
#
#
#
# Elastic Compliance Matrix: (Units=1/GPa)
#
#
# Indices 1 2 3 4 5 6 
#
# 1 0.026708 -0.004302 -0.006798 -0.006442 -0.003628 0.011476
# 2 -0.004302 0.011823 0.001350 0.006722 0.003172 0.007140
# 3 -0.006798 0.001350 0.019446 0.004673 -0.001673 0.002370
# 4 -0.006442 0.006722 0.004673 0.026779 0.004291 0.000210
# 5 -0.003628 0.003172 -0.001673 0.004291 0.031249 -0.000506
# 6 0.011476 0.007140 0.002370 0.000210 -0.000506 0.032960
#
#
# Mechanical properties :
#
#
# Convention : Reuss Voigt Hill
#
# Bulk Modulus (GPa) = 25.99071 47.22164 36.60617
# Shear Modulus (GPa) = 27.58002 39.45798 33.51900
#
# Velocity S-wave (km/s) = 3.39515 4.06096 3.74289
# Velocity P-wave (km/s) = 5.12173 6.45947 5.82911
#
# Compressibility (1/GPa) = 0.03847529
#
# Stress axis : x y z
#
# Youngs Moduli (GPa) = 37.44168 84.58240 51.42558
#
# Poissons Ratio (x) = 0.36390 0.34959
# Poissons Ratio (y) = 0.16109 -0.06941
# Poissons Ratio (z) = 0.25453 -0.11416
#
# Static dielectric constant tensor:
#      x y z
#    x 2.086000 -0.009740 -0.041970 
#    y -0.009740 1.960180 0.105420 
#    z -0.041970 0.105420 2.016740 
# 
# From -- ./inp_files/143344.got.cif
#   From: 2010.05.17/outbox.cif.g08.bks.cpg/sg2_72_cif.got.tgz:143344.got - 2010.06.03 11:33:40.
