data_PCOD9068568
_publ_section_title
;
Structure prediction by ZEFSAII (Michael W. Deem and Ramdas Pophale) SiO2 
 PCOD9068568
Probable space group: P -1
;
_chemical_formula_sum "Si O2"
_cell_formula_units_Z 16
_cell_length_a 17.934991
_cell_length_b 11.433072
_cell_length_c 20.441179
_cell_angle_alpha 30.623235
_cell_angle_beta 158.614188
_cell_angle_gamma 137.907882
_cell_volume 737.937018
_symmetry_space_group_name_H-M "P -1"
_symmetry_group_IT_number 2
_symmetry_cell_setting 'triclinic'
loop_
_space_group_symop_operation_xyz
x,y,z
-x,-y,-z
loop_
_atom_site_type_symbol
_atom_site_label
_atom_site_fract_x
_atom_site_fract_y
_atom_site_fract_z
Si Si1 0.862042 0.367202 0.911853
Si Si2 0.037406 0.846441 0.269717
Si Si3 0.219369 0.321525 0.429705
Si Si4 0.247528 0.553785 0.985770
Si Si5 0.560661 0.851101 0.870577
Si Si6 0.791384 0.982177 0.800228
Si Si7 0.506084 0.469816 0.369751
Si Si8 0.586444 0.481584 0.186905
O O1 0.846954 0.450565 0.784488
O O2 0.630298 0.451529 0.714233
O O3 0.000000 0.500000 0.000000
O O4 0.968569 0.083176 0.144770
O O5 0.182964 0.908881 0.302183
O O6 0.189586 0.617148 0.542895
O O7 0.804364 0.843107 0.055334
O O8 0.306640 0.411830 0.523112
O O9 0.395273 0.105012 0.639214
O O10 0.997967 0.272958 0.290708
O O11 0.367131 0.562907 0.147166
O O12 0.391175 0.592350 0.024840
O O13 0.233728 0.280844 0.097007
O O14 0.459551 0.740748 0.781995
O O15 0.592131 0.672780 0.044342
O O16 0.590309 0.180565 0.573681
O O17 0.000000 0.000000 0.000000
#
# Coordination Sequence:
#
# PCOD9068568 Si02
#       8
#     2   2   2   2   2   2   2   2
#     4  12  23  39  65 103 136 172 212 271 345 399
#     4  12  23  44  68  98 135 170 220 276 330 404
#     4  12  25  42  65 100 137 173 218 271 338 400
#     4  12  25  42  65 100 137 173 218 271 338 400
#     4  11  27  47  70  95 128 181 232 278 325 388
#     4  12  23  39  65 103 136 172 212 271 345 399
#     4  12  24  40  61  98 141 176 210 268 340 408
#     4  11  27  47  70  95 128 181 232 278 325 388
#
# _framework density 21.682068000000001
#
# number of rings (size 3 to 8) (size 9 to 14) (size 15 to 20)
#    0.000    0.250    6.250    2.625    5.250    0.500 
#    0.000    0.625    0.000    0.000    0.000    0.000 
#    0.000    0.000    0.000    0.000    0.000    0.000 
#
# Total GULP energy -89499.564990 kJ/mol
# GULP energy per Si atom -5593.722812 kJ/mol
# Density = 2.163272 g / cm^3
# Si number density = 21.682068 Si / 1000 Ang^3
#
#
#
# Elastic Constant Matrix: (Units=GPa)
#
#
# Indices 1 2 3 4 5 6 
#
# 1 69.9795 -6.6178 8.5489 -3.7767 18.2525 3.2883
# 2 -6.6178 40.8673 -2.2594 17.2435 -7.6326 -10.2644
# 3 8.5489 -2.2594 81.4800 12.8663 10.7553 -2.1835
# 4 -3.7767 17.2435 12.8663 32.3068 -8.1124 -4.8234
# 5 18.2525 -7.6326 10.7553 -8.1124 33.1837 4.1226
# 6 3.2883 -10.2644 -2.1835 -4.8234 4.1226 31.1863
#
#
#
# Elastic Compliance Matrix: (Units=1/GPa)
#
#
# Indices 1 2 3 4 5 6 
#
# 1 0.016770 0.001307 -0.000411 -0.000872 -0.008964 -0.000317
# 2 0.001307 0.035081 0.003980 -0.018754 0.000390 0.008735
# 3 -0.000411 0.003980 0.014757 -0.009329 -0.006140 0.001755
# 4 -0.000872 -0.018754 -0.009329 0.047166 0.010828 -0.000870
# 5 -0.008964 0.000390 -0.006140 0.010828 0.040165 -0.002991
# 6 -0.000317 0.008735 0.001755 -0.000870 -0.002991 0.035357
#
#
# Mechanical properties :
#
#
# Convention : Reuss Voigt Hill
#
# Bulk Modulus (GPa) = 13.09595 21.29669 17.19632
# Shear Modulus (GPa) = 24.39062 32.17902 28.28482
#
# Velocity S-wave (km/s) = 3.35762 3.85662 3.61574
# Velocity P-wave (km/s) = 4.59180 5.44747 5.03784
#
# Compressibility (1/GPa) = 0.07635946
#
# Stress axis : x y z
#
# Youngs Moduli (GPa) = 59.63178 28.50541 67.76404
#
# Poissons Ratio (x) = -0.03726 0.02784
# Poissons Ratio (y) = -0.07794 -0.26968
# Poissons Ratio (z) = 0.02450 -0.11344
#
# Static dielectric constant tensor:
#      x y z
#    x 1.794370 0.023490 0.048410 
#    y 0.023490 1.795820 0.057760 
#    z 0.048410 0.057760 1.825320 
# 
# From -- ./inp_files/272753.got.cif
#   From: 2010.05.17/outbox.cif.g08.bks.cpg/sg2_137_cif.got.tgz:272753.got - 2010.06.03 11:33:40.
