data_PCOD9068808
_publ_section_title
;
Structure prediction by ZEFSAII (Michael W. Deem and Ramdas Pophale) SiO2 
 PCOD9068808
Probable space group: P -1
;
_chemical_formula_sum "Si O2"
_cell_formula_units_Z 14
_cell_length_a 14.539825
_cell_length_b 17.756493
_cell_length_c 12.537002
_cell_angle_alpha 159.488555
_cell_angle_beta 140.076360
_cell_angle_gamma 37.928490
_cell_volume 691.160495
_symmetry_space_group_name_H-M "P -1"
_symmetry_group_IT_number 2
_symmetry_cell_setting 'triclinic'
loop_
_space_group_symop_operation_xyz
x,y,z
-x,-y,-z
loop_
_atom_site_type_symbol
_atom_site_label
_atom_site_fract_x
_atom_site_fract_y
_atom_site_fract_z
Si Si1 0.858750 0.244743 0.933234
Si Si2 0.143032 0.311063 0.175820
Si Si3 0.535588 0.868409 0.683753
Si Si4 0.548709 0.091832 0.773397
Si Si5 0.155092 0.799234 0.887890
Si Si6 0.645969 0.442653 0.831796
Si Si7 0.785366 0.965794 0.319798
O O1 0.744407 0.448331 0.032245
O O2 0.846578 0.023197 0.564045
O O3 0.817438 0.240162 0.012860
O O4 0.022849 0.268004 0.093190
O O5 0.311323 0.158070 0.153804
O O6 0.138740 0.569072 0.519524
O O7 0.114658 0.227915 0.922716
O O8 0.493070 0.637456 0.354802
O O9 0.554226 0.925739 0.654933
O O10 0.381996 0.052349 0.833983
O O11 0.500000 0.000000 0.500000
O O12 0.707484 0.135789 0.956028
O O13 0.419036 0.333044 0.994473
O O14 0.000000 0.000000 0.000000
O O15 0.748166 0.215249 0.561645
#
# Coordination Sequence:
#
# PCOD9068808 Si02
#       7
#     2   2   2   2   2   2   2
#     4   9  22  40  62  84 124 163 197 246 308 354
#     4  12  20  40  65  87 124 164 197 253 314 348
#     4   9  21  37  63  90 120 155 199 257 305 339
#     4  12  23  38  65  90 123 167 204 242 306 367
#     4  12  26  39  57  95 128 153 208 255 298 365
#     4   8  21  41  61  90 121 152 212 243 293 367
#     4   8  20  41  64  87 119 162 205 244 302 369
#
# _framework density 20.255787000000002
#
# number of rings (size 3 to 8) (size 9 to 14) (size 15 to 20)
#    1.714    0.000    1.429    3.857    4.000    1.143 
#    0.000    5.000    0.000    0.000    0.000    0.000 
#    0.000    0.000    0.000    0.000    0.000    0.000 
#
# Total GULP energy -77983.148031 kJ/mol
# GULP energy per Si atom -5570.224859 kJ/mol
# Density = 2.020968 g / cm^3
# Si number density = 20.255787 Si / 1000 Ang^3
#
#
#
# Elastic Constant Matrix: (Units=GPa)
#
#
# Indices 1 2 3 4 5 6 
#
# 1 40.9557 -6.0473 2.8322 -2.0648 1.4051 -2.9187
# 2 -6.0473 44.6419 13.7586 -6.4356 3.9406 -2.3842
# 3 2.8322 13.7586 82.0374 6.6161 -17.3859 3.0477
# 4 -2.0648 -6.4356 6.6161 16.7796 -9.6572 8.4804
# 5 1.4051 3.9406 -17.3859 -9.6572 29.2276 -6.6032
# 6 -2.9187 -2.3842 3.0477 8.4804 -6.6032 18.5632
#
#
#
# Elastic Compliance Matrix: (Units=1/GPa)
#
#
# Indices 1 2 3 4 5 6 
#
# 1 0.025784 0.005087 -0.002473 0.003799 -0.001498 0.002845
# 2 0.005087 0.027111 -0.006515 0.012009 -0.004173 -0.001619
# 3 -0.002473 -0.006515 0.015610 -0.004449 0.009152 0.001499
# 4 0.003799 0.012009 -0.004449 0.094346 0.019177 -0.033409
# 5 -0.001498 -0.004173 0.009152 0.019177 0.047993 0.006037
# 6 0.002845 -0.001619 0.001499 -0.033409 0.006037 0.071273
#
#
# Mechanical properties :
#
#
# Convention : Reuss Voigt Hill
#
# Bulk Modulus (GPa) = 16.47369 20.96910 18.72139
# Shear Modulus (GPa) = 16.12105 23.38685 19.75395
#
# Velocity S-wave (km/s) = 2.82418 3.40159 3.12625
# Velocity P-wave (km/s) = 4.33419 5.07961 4.72163
#
# Compressibility (1/GPa) = 0.06070286
#
# Stress axis : x y z
#
# Youngs Moduli (GPa) = 38.78310 36.88585 64.06085
#
# Poissons Ratio (x) = -0.18763 0.15841
# Poissons Ratio (y) = -0.19728 0.41736
# Poissons Ratio (z) = 0.09591 0.24032
#
# Static dielectric constant tensor:
#      x y z
#    x 1.715470 -0.036740 -0.018780 
#    y -0.036740 1.735450 -0.003140 
#    z -0.018780 -0.003140 1.751240 
# 
# From -- ./inp_files/456881.got.cif
#   From: 2010.05.17/outbox.cif.g08.bks.cpg/sg2_229_cif.got.tgz:456881.got - 2010.06.03 11:33:40.
