data_PCOD9068442
_publ_section_title
;
Structure prediction by ZEFSAII (Michael W. Deem and Ramdas Pophale) SiO2 
 PCOD9068442
Probable space group: P -1
;
_chemical_formula_sum "Si O2"
_cell_formula_units_Z 11
_cell_length_a 7.183560
_cell_length_b 9.740629
_cell_length_c 8.293897
_cell_angle_alpha 63.626525
_cell_angle_beta 57.711018
_cell_angle_gamma 84.464082
_cell_volume 431.873759
_symmetry_space_group_name_H-M "P -1"
_symmetry_group_IT_number 2
_symmetry_cell_setting 'triclinic'
loop_
_space_group_symop_operation_xyz
x,y,z
-x,-y,-z
loop_
_atom_site_type_symbol
_atom_site_label
_atom_site_fract_x
_atom_site_fract_y
_atom_site_fract_z
Si Si1 0.772973 0.652928 0.426999
Si Si2 0.686262 0.302816 0.555870
Si Si3 0.811876 0.140026 0.052412
Si Si4 0.500000 0.000000 0.000000
Si Si5 0.990906 0.861314 0.703452
Si Si6 0.412919 0.318406 0.163251
O O1 0.543263 0.678146 0.435454
O O2 0.750145 0.699813 0.598517
O O3 0.223519 0.530915 0.490706
O O4 0.983100 0.750254 0.187179
O O5 0.648790 0.163296 0.773908
O O6 0.861048 0.259829 0.366842
O O7 0.908978 0.079474 0.202464
O O8 0.625436 0.240616 0.136372
O O9 0.669898 0.010793 0.072575
O O10 0.729628 0.775416 0.869180
O O11 0.000000 0.000000 0.500000
O O12 0.500000 0.500000 0.000000
#
# Coordination Sequence:
#
# PCOD9068442 Si02
#       6
#     2   2   2   1   2   2
#     4  11  27  50  81 114 160 208 262 329 394 471
#     4  11  26  50  78 117 158 206 266 325 397 473
#     4  12  29  52  78 117 161 207 273 328 396 477
#     4  12  28  48  80 112 156 208 264 328 392 468
#     4  12  29  50  79 116 163 213 261 330 403 471
#     4  12  27  49  81 116 156 211 263 327 399 475
#
# _framework density 25.470405
#
# number of rings (size 3 to 8) (size 9 to 14) (size 15 to 20)
#    0.000    0.364    1.818    4.364   12.727    5.818 
#    0.000    0.000    0.000    0.000    0.000    0.000 
#    0.000    0.000    0.000    0.000    0.000    0.000 
#
# Total GULP energy -61560.887156 kJ/mol
# GULP energy per Si atom -5596.444287 kJ/mol
# Density = 2.541243 g / cm^3
# Si number density = 25.470405 Si / 1000 Ang^3
#
#
#
# Elastic Constant Matrix: (Units=GPa)
#
#
# Indices 1 2 3 4 5 6 
#
# 1 205.7655 60.2878 57.1647 -4.7974 3.2605 34.4914
# 2 60.2878 72.2513 35.6324 -1.5649 1.5715 3.9295
# 3 57.1647 35.6324 122.2114 -4.2568 -1.4971 8.2119
# 4 -4.7974 -1.5649 -4.2568 54.3794 -6.3014 -5.7255
# 5 3.2605 1.5715 -1.4971 -6.3014 48.2543 7.6464
# 6 34.4914 3.9295 8.2119 -5.7255 7.6464 56.5987
#
#
#
# Elastic Compliance Matrix: (Units=1/GPa)
#
#
# Indices 1 2 3 4 5 6 
#
# 1 0.007541 -0.005226 -0.001731 -0.000015 0.000241 -0.004016
# 2 -0.005226 0.019815 -0.003506 -0.000001 -0.000785 0.002423
# 3 -0.001731 -0.003506 0.010056 0.000589 0.000650 -0.000189
# 4 -0.000015 -0.000001 0.000589 0.018854 0.002239 0.001529
# 5 0.000241 -0.000785 0.000650 0.002239 0.021499 -0.002865
# 6 -0.004016 0.002423 -0.000189 0.001529 -0.002865 0.020516
#
#
# Mechanical properties :
#
#
# Convention : Reuss Voigt Hill
#
# Bulk Modulus (GPa) = 60.65587 78.48868 69.57227
# Shear Modulus (GPa) = 40.09552 48.32269 44.20911
#
# Velocity S-wave (km/s) = 3.97192 4.36042 4.17070
# Velocity P-wave (km/s) = 6.70081 7.49891 7.11106
#
# Compressibility (1/GPa) = 0.01648645
#
# Stress axis : x y z
#
# Youngs Moduli (GPa) = 132.61013 50.46682 99.44624
#
# Poissons Ratio (x) = 0.26372 0.17219
# Poissons Ratio (y) = 0.69296 0.34861
# Poissons Ratio (z) = 0.22961 0.17691
#
# Static dielectric constant tensor:
#      x y z
#    x 1.949520 0.033580 0.027740 
#    y 0.033580 1.956160 0.066350 
#    z 0.027740 0.066350 1.960030 
# 
# From -- ./inp_files/17396.got.cif
#   From: 2010.05.17/outbox.cif.g08.bks.cpg/sg2_9_cif.got.tgz:17396.got - 2010.06.03 11:33:40.
