data_PCOD9068586
_publ_section_title
;
Structure prediction by ZEFSAII (Michael W. Deem and Ramdas Pophale) SiO2 
 PCOD9068586
Probable space group: P -1
;
_chemical_formula_sum "Si O2"
_cell_formula_units_Z 12
_cell_length_a 14.257250
_cell_length_b 9.588961
_cell_length_c 11.870874
_cell_angle_alpha 109.667550
_cell_angle_beta 20.852939
_cell_angle_gamma 107.041332
_cell_volume 542.884458
_symmetry_space_group_name_H-M "P -1"
_symmetry_group_IT_number 2
_symmetry_cell_setting 'triclinic'
loop_
_space_group_symop_operation_xyz
x,y,z
-x,-y,-z
loop_
_atom_site_type_symbol
_atom_site_label
_atom_site_fract_x
_atom_site_fract_y
_atom_site_fract_z
Si Si1 0.312944 0.090123 0.145151
Si Si2 0.288251 0.414320 0.146086
Si Si3 0.762262 0.399835 0.203005
Si Si4 0.094741 0.866023 0.184725
Si Si5 0.523635 0.254413 0.645813
Si Si6 0.990869 0.926475 0.867603
O O1 0.317347 0.248363 0.120765
O O2 0.069285 0.130879 0.515171
O O3 0.316915 0.972079 0.006110
O O4 0.500000 0.000000 0.000000
O O5 0.000000 0.500000 0.500000
O O6 0.500000 0.500000 0.000000
O O7 0.376691 0.394209 0.911484
O O8 0.500000 0.500000 0.500000
O O9 0.676202 0.295846 0.373216
O O10 0.833268 0.296092 0.987812
O O11 0.000000 0.500000 0.000000
O O12 0.969199 0.957053 0.244920
O O13 0.759751 0.191857 0.444994
O O14 0.290874 0.145608 0.850584
O O15 0.000000 0.000000 0.000000
#
# Coordination Sequence:
#
# PCOD9068586 Si02
#       6
#     2   2   2   2   2   2
#     4  11  27  49  82 110 152 210 261 319 383 465
#     4  12  29  48  76 112 158 201 256 322 387 458
#     4  12  30  47  72 111 154 201 251 315 389 461
#     4  11  27  47  77 109 152 194 266 312 381 463
#     4  12  26  47  73 108 149 196 252 307 386 456
#     4  12  24  45  77 111 142 190 252 316 373 446
#
# _framework density 22.104151000000002
#
# number of rings (size 3 to 8) (size 9 to 14) (size 15 to 20)
#    0.000    0.333    3.333    3.500   11.667    0.000 
#    0.000    0.000    0.000    0.000    0.000    0.000 
#    0.000    0.000    0.000    0.000    0.000    0.000 
#
# Total GULP energy -66956.911322 kJ/mol
# GULP energy per Si atom -5579.742610 kJ/mol
# Density = 2.205384 g / cm^3
# Si number density = 22.104151 Si / 1000 Ang^3
#
#
#
# Elastic Constant Matrix: (Units=GPa)
#
#
# Indices 1 2 3 4 5 6 
#
# 1 113.4534 47.2506 34.2972 8.2754 -1.9358 19.1261
# 2 47.2506 117.0821 47.4889 11.3408 -16.4355 24.4369
# 3 34.2972 47.4889 126.9287 7.5494 -7.6622 19.3933
# 4 8.2754 11.3408 7.5494 46.9056 -0.2435 4.1076
# 5 -1.9358 -16.4355 -7.6622 -0.2435 55.2530 10.8225
# 6 19.1261 24.4369 19.3933 4.1076 10.8225 56.8587
#
#
#
# Elastic Compliance Matrix: (Units=1/GPa)
#
#
# Indices 1 2 3 4 5 6 
#
# 1 0.011027 -0.003572 -0.001400 -0.000725 -0.000573 -0.001535
# 2 -0.003572 0.012672 -0.002838 -0.001612 0.004012 -0.003924
# 3 -0.001400 -0.002838 0.009656 -0.000466 0.000780 -0.001717
# 4 -0.000725 -0.001612 -0.000466 0.021947 -0.000392 -0.000415
# 5 -0.000573 0.004012 0.000780 -0.000392 0.020489 -0.005669
# 6 -0.001535 -0.003924 -0.001717 -0.000415 -0.005669 0.021485
#
#
# Mechanical properties :
#
#
# Convention : Reuss Voigt Hill
#
# Bulk Modulus (GPa) = 56.38834 68.39309 62.39071
# Shear Modulus (GPa) = 42.08476 47.03196 44.55836
#
# Velocity S-wave (km/s) = 4.36814 4.61775 4.49468
# Velocity P-wave (km/s) = 7.14188 7.70973 7.43123
#
# Compressibility (1/GPa) = 0.01773416
#
# Stress axis : x y z
#
# Youngs Moduli (GPa) = 90.68640 78.91303 103.56355
#
# Poissons Ratio (x) = 0.28188 0.14499
# Poissons Ratio (y) = 0.32394 0.29395
# Poissons Ratio (z) = 0.12697 0.22398
#
# Static dielectric constant tensor:
#      x y z
#    x 1.781250 -0.019630 0.018340 
#    y -0.019630 1.475860 -0.073400 
#    z 0.018340 -0.073400 1.896660 
# 
# From -- ./inp_files/60814.got.cif
#   From: 2010.05.17/outbox.cif.g08.bks.cpg/sg2_31_cif.got.tgz:60814.got - 2010.06.03 11:33:40.
