data_PCOD9068021
_publ_section_title
;
Structure prediction by ZEFSAII (Michael W. Deem and Ramdas Pophale) SiO2 
 PCOD9068021
Probable space group: P -1
;
_chemical_formula_sum "Si O2"
_cell_formula_units_Z 12
_cell_length_a 6.796364
_cell_length_b 10.049840
_cell_length_c 11.235131
_cell_angle_alpha 78.222311
_cell_angle_beta 77.836821
_cell_angle_gamma 133.171289
_cell_volume 477.380235
_symmetry_space_group_name_H-M "P -1"
_symmetry_group_IT_number 2
_symmetry_cell_setting 'triclinic'
loop_
_space_group_symop_operation_xyz
x,y,z
-x,-y,-z
loop_
_atom_site_type_symbol
_atom_site_label
_atom_site_fract_x
_atom_site_fract_y
_atom_site_fract_z
Si Si1 0.351286 0.141840 0.462596
Si Si2 0.787149 0.590590 0.371281
Si Si3 0.165966 0.200818 0.864965
Si Si4 0.418212 0.787134 0.310652
Si Si5 0.372380 0.823279 0.799979
Si Si6 0.280516 0.497017 0.972085
O O1 0.590589 0.384808 0.354738
O O2 0.421483 0.149058 0.591309
O O3 0.459700 0.084625 0.365736
O O4 0.000000 0.000000 0.500000
O O5 0.500000 0.500000 0.500000
O O6 0.946317 0.801129 0.248927
O O7 0.056944 0.642182 0.388745
O O8 0.493250 0.298548 0.765405
O O9 0.155176 0.338469 0.910181
O O10 0.000000 0.000000 0.000000
O O11 0.568321 0.996434 0.190089
O O12 0.453734 0.726068 0.876808
O O13 0.001066 0.615192 0.882726
O O14 0.500000 0.500000 0.000000
#
# Coordination Sequence:
#
# PCOD9068021 Si02
#       6
#     2   2   2   2   2   2
#     4  12  27  49  78 112 152 203 256 323 385 455
#     4  12  27  50  79 114 156 202 261 319 386 462
#     4  12  27  49  75 113 156 205 254 318 386 461
#     4  12  28  47  82 112 154 200 264 315 390 455
#     4  11  26  47  70 113 147 198 254 316 381 455
#     4  11  27  46  76 105 155 201 253 311 386 459
#
# _framework density 25.137194000000001
#
# number of rings (size 3 to 8) (size 9 to 14) (size 15 to 20)
#    0.000    0.333    5.000    2.000    7.000    0.667 
#    0.000    0.000    0.000    0.000    0.000    0.000 
#    0.000    0.000    0.000    0.000    0.000    0.000 
#
# Total GULP energy -66908.113874 kJ/mol
# GULP energy per Si atom -5575.676156 kJ/mol
# Density = 2.507998 g / cm^3
# Si number density = 25.137194 Si / 1000 Ang^3
#
#
#
# Elastic Constant Matrix: (Units=GPa)
#
#
# Indices 1 2 3 4 5 6 
#
# 1 164.2098 35.9834 78.6852 -16.4107 3.4394 10.0678
# 2 35.9834 79.4675 28.6878 -25.1671 -0.4343 5.9737
# 3 78.6852 28.6878 125.0601 -16.9459 3.4641 14.6305
# 4 -16.4107 -25.1671 -16.9459 28.9806 -24.7744 2.2085
# 5 3.4394 -0.4343 3.4641 -24.7744 60.5241 -10.0812
# 6 10.0678 5.9737 14.6305 2.2085 -10.0812 55.8568
#
#
#
# Elastic Compliance Matrix: (Units=1/GPa)
#
#
# Indices 1 2 3 4 5 6 
#
# 1 0.009071 -0.002264 -0.005184 -0.000103 -0.000291 -0.000083
# 2 -0.002264 0.022929 -0.000144 0.028823 0.011935 -0.000992
# 3 -0.005184 -0.000144 0.012261 0.005559 0.001499 -0.002211
# 4 -0.000103 0.028823 0.005559 0.096225 0.039070 -0.001273
# 5 -0.000291 0.011935 0.001499 0.039070 0.032997 0.002794
# 6 -0.000083 -0.000992 -0.002211 -0.001273 0.002794 0.019158
#
#
# Mechanical properties :
#
#
# Convention : Reuss Voigt Hill
#
# Bulk Modulus (GPa) = 34.39178 72.82782 53.60980
# Shear Modulus (GPa) = 22.98672 44.09771 33.54221
#
# Velocity S-wave (km/s) = 3.02727 4.19296 3.65686
# Velocity P-wave (km/s) = 5.09220 7.24405 6.26126
#
# Compressibility (1/GPa) = 0.02907672
#
# Stress axis : x y z
#
# Youngs Moduli (GPa) = 110.24379 43.61286 81.55781
#
# Poissons Ratio (x) = 0.09874 0.42280
# Poissons Ratio (y) = 0.24959 0.01176
# Poissons Ratio (z) = 0.57150 0.00629
#
# Static dielectric constant tensor:
#      x y z
#    x 2.171380 -0.254840 -0.144360 
#    y -0.254840 2.356090 0.325450 
#    z -0.144360 0.325450 2.294710 
# 
# From -- ./inp_files/199141.got.cif
#   From: 2010.05.17/outbox.cif.g08.bks.cpg/sg2_100_cif.got.tgz:199141.got - 2010.06.03 11:33:40.
