data_PCOD9068682
_publ_section_title
;
Structure prediction by ZEFSAII (Michael W. Deem and Ramdas Pophale) SiO2 
 PCOD9068682
Probable space group: P -1
;
_chemical_formula_sum "Si O2"
_cell_formula_units_Z 16
_cell_length_a 5.250765
_cell_length_b 5.134374
_cell_length_c 24.866899
_cell_angle_alpha 96.814909
_cell_angle_beta 67.428022
_cell_angle_gamma 84.398017
_cell_volume 607.129616
_symmetry_space_group_name_H-M "P -1"
_symmetry_group_IT_number 2
_symmetry_cell_setting 'triclinic'
loop_
_space_group_symop_operation_xyz
x,y,z
-x,-y,-z
loop_
_atom_site_type_symbol
_atom_site_label
_atom_site_fract_x
_atom_site_fract_y
_atom_site_fract_z
Si Si1 0.211857 0.744848 0.560437
Si Si2 0.863252 0.821004 0.690635
Si Si3 0.365003 0.939997 0.064933
Si Si4 0.548101 0.212595 0.562408
Si Si5 0.741856 0.218807 0.131125
Si Si6 0.601281 0.527425 0.308998
Si Si7 0.557175 0.785900 0.214810
Si Si8 0.328819 0.514740 0.967580
O O1 0.311633 0.439267 0.560702
O O2 0.194576 0.770813 0.498210
O O3 0.956772 0.854048 0.622321
O O4 0.446457 0.928203 0.561276
O O5 0.612401 0.649373 0.703458
O O6 0.128585 0.659131 0.694832
O O7 0.755283 0.090180 0.738144
O O8 0.588638 0.772896 0.080580
O O9 0.332533 0.628049 0.036899
O O10 0.078128 0.125166 0.101658
O O11 0.500000 0.000000 0.000000
O O12 0.555655 0.312774 0.624682
O O13 0.633395 0.505374 0.172327
O O14 0.636469 0.263539 0.077353
O O15 0.647640 0.014293 0.176340
O O16 0.691041 0.722423 0.261337
O O17 0.000000 0.500000 0.000000
#
# Coordination Sequence:
#
# PCOD9068682 Si02
#       8
#     2   2   2   2   2   2   2   2
#     4   9  20  40  73 112 151 199 263 329 403 464
#     4  11  27  52  78 110 159 212 267 334 391 471
#     4   9  22  42  71 106 140 189 232 308 383 456
#     4   9  20  40  73 112 150 201 260 332 400 469
#     4  12  26  47  74 107 151 192 258 314 375 474
#     4  11  27  52  79 109 161 210 269 331 397 465
#     4  12  30  47  71 112 145 216 263 314 386 462
#     4   8  23  41  69 106 138 182 231 299 383 448
#
# _framework density 26.353514000000001
#
# number of rings (size 3 to 8) (size 9 to 14) (size 15 to 20)
#    0.750    1.000    1.250    0.375   12.250    3.000 
#    0.000    0.625    0.000    0.000    0.000    0.000 
#    0.000    0.000    0.000    0.000    0.000    0.000 
#
# Total GULP energy -89179.316367 kJ/mol
# GULP energy per Si atom -5573.707273 kJ/mol
# Density = 2.629353 g / cm^3
# Si number density = 26.353514 Si / 1000 Ang^3
#
#
#
# Elastic Constant Matrix: (Units=GPa)
#
#
# Indices 1 2 3 4 5 6 
#
# 1 93.1900 14.2104 49.7600 -0.8766 -3.5953 -33.2873
# 2 14.2104 145.7322 73.0366 -6.8662 -0.7231 -43.4863
# 3 49.7600 73.0366 239.3658 0.4990 2.3505 -23.0556
# 4 -0.8766 -6.8662 0.4990 81.8361 4.3845 -4.3719
# 5 -3.5953 -0.7231 2.3505 4.3845 37.3926 5.4718
# 6 -33.2873 -43.4863 -23.0556 -4.3719 5.4718 46.1099
#
#
#
# Elastic Compliance Matrix: (Units=1/GPa)
#
#
# Indices 1 2 3 4 5 6 
#
# 1 0.017463 0.004800 -0.003598 0.001465 -0.000446 0.015526
# 2 0.004800 0.012265 -0.003416 0.001901 -0.001308 0.013660
# 3 -0.003598 -0.003416 0.005683 -0.000505 -0.000272 -0.002993
# 4 0.001465 0.001901 -0.000505 0.012713 -0.001870 0.004025
# 5 -0.000446 -0.001308 -0.000272 -0.001870 0.027665 -0.005152
# 6 0.015526 0.013660 -0.002993 0.004025 -0.005152 0.045276
#
#
# Mechanical properties :
#
#
# Convention : Reuss Voigt Hill
#
# Bulk Modulus (GPa) = 32.27458 83.58913 57.93186
# Shear Modulus (GPa) = 36.81351 55.81978 46.31665
#
# Velocity S-wave (km/s) = 3.74158 4.60729 4.19682
# Velocity P-wave (km/s) = 5.56231 7.75178 6.74646
#
# Compressibility (1/GPa) = 0.03098413
#
# Stress axis : x y z
#
# Youngs Moduli (GPa) = 57.26525 81.53379 175.95258
#
# Poissons Ratio (x) = -0.39139 0.63309
# Poissons Ratio (y) = -0.27489 0.60098
# Poissons Ratio (z) = 0.20604 0.27849
#
# Static dielectric constant tensor:
#      x y z
#    x 2.433560 0.006580 0.184950 
#    y 0.006580 1.834040 0.023800 
#    z 0.184950 0.023800 2.091070 
# 
# From -- ./inp_files/614901.got.cif
#   From: 2010.05.17/outbox.cif.g08.bks.cpg/sg2_308_cif.got.tgz:614901.got - 2010.06.03 11:33:40.
