data_PCOD9068611
_publ_section_title
;
Structure prediction by ZEFSAII (Michael W. Deem and Ramdas Pophale) SiO2 
 PCOD9068611
Probable space group: P -1
;
_chemical_formula_sum "Si O2"
_cell_formula_units_Z 16
_cell_length_a 11.902396
_cell_length_b 28.163848
_cell_length_c 22.695880
_cell_angle_alpha 169.571509
_cell_angle_beta 39.113645
_cell_angle_gamma 139.521634
_cell_volume 868.574101
_symmetry_space_group_name_H-M "P -1"
_symmetry_group_IT_number 2
_symmetry_cell_setting 'triclinic'
loop_
_space_group_symop_operation_xyz
x,y,z
-x,-y,-z
loop_
_atom_site_type_symbol
_atom_site_label
_atom_site_fract_x
_atom_site_fract_y
_atom_site_fract_z
Si Si1 0.651107 0.836716 0.814333
Si Si2 0.351977 0.472876 0.677150
Si Si3 0.294405 0.004621 0.215938
Si Si4 0.038428 0.695001 0.629861
Si Si5 0.968664 0.715927 0.109739
Si Si6 0.726530 0.418921 0.491065
Si Si7 0.909869 0.729013 0.277851
Si Si8 0.025919 0.530193 0.737029
O O1 0.595390 0.637725 0.543277
O O2 0.831277 0.710044 0.611331
O O3 0.490627 0.877116 0.974572
O O4 0.692271 0.122986 0.120805
O O5 0.532589 0.561196 0.742559
O O6 0.283711 0.226971 0.442024
O O7 0.180382 0.658879 0.965782
O O8 0.255469 0.152240 0.473097
O O9 0.145042 0.790364 0.003498
O O10 0.190258 0.641075 0.551585
O O11 0.862936 0.574693 0.585303
O O12 0.080328 0.528787 0.350771
O O13 0.000000 0.000000 0.000000
O O14 0.873706 0.646219 0.124326
O O15 0.954921 0.027188 0.484340
O O16 0.926706 0.559911 0.876573
O O17 0.000000 0.500000 0.000000
#
# Coordination Sequence:
#
# PCOD9068611 Si02
#       8
#     2   2   2   2   2   2   2   2
#     4  10  18  31  50  79 111 136 166 213 262 320
#     4  10  18  33  51  80 110 135 168 212 266 318
#     4  10  18  28  51  77 107 139 166 207 260 311
#     4  11  21  36  49  71 106 149 181 208 248 308
#     4   9  20  33  51  78 107 134 169 216 262 310
#     4  10  21  34  50  70 107 144 174 213 248 302
#     4  10  18  33  49  75 111 135 169 207 262 320
#     4  10  19  32  51  78 108 141 175 209 255 317
#
# _framework density 18.420995999999999
#
# number of rings (size 3 to 8) (size 9 to 14) (size 15 to 20)
#    0.000    2.000    2.500    3.375    0.000    2.000 
#    0.000    0.000    0.000    0.000    0.000   11.375 
#    0.000    0.625    0.000    0.000    0.000    0.000 
#
# Total GULP energy -89154.285503 kJ/mol
# GULP energy per Si atom -5572.142844 kJ/mol
# Density = 1.837907 g / cm^3
# Si number density = 18.420996 Si / 1000 Ang^3
#
#
#
# Elastic Constant Matrix: (Units=GPa)
#
#
# Indices 1 2 3 4 5 6 
#
# 1 82.8859 25.3999 31.4728 -6.2904 8.7245 -22.2356
# 2 25.3999 76.7456 38.2301 -10.7160 8.8869 -27.3440
# 3 31.4728 38.2301 74.1105 -4.9294 1.3924 -17.5257
# 4 -6.2904 -10.7160 -4.9294 37.5424 -14.5973 6.0187
# 5 8.7245 8.8869 1.3924 -14.5973 28.8940 -2.1015
# 6 -22.2356 -27.3440 -17.5257 6.0187 -2.1015 32.3658
#
#
#
# Elastic Compliance Matrix: (Units=1/GPa)
#
#
# Indices 1 2 3 4 5 6 
#
# 1 0.016740 0.000806 -0.005334 -0.001043 -0.004905 0.009168
# 2 0.000806 0.023103 -0.008566 0.001175 -0.005261 0.014874
# 3 -0.005334 -0.008566 0.020188 0.000705 0.003638 0.000136
# 4 -0.001043 0.001175 0.000705 0.034181 0.016853 -0.004604
# 5 -0.004905 -0.005261 0.003638 0.016853 0.045610 -0.006017
# 6 0.009168 0.014874 0.000136 -0.004604 -0.006017 0.050301
#
#
# Mechanical properties :
#
#
# Convention : Reuss Voigt Hill
#
# Bulk Modulus (GPa) = 29.54782 47.10531 38.32657
# Shear Modulus (GPa) = 21.96942 29.00305 25.48623
#
# Velocity S-wave (km/s) = 3.45719 3.97225 3.72364
# Velocity P-wave (km/s) = 5.65786 6.83121 6.27203
#
# Compressibility (1/GPa) = 0.03384344
#
# Stress axis : x y z
#
# Youngs Moduli (GPa) = 59.73746 43.28463 49.53529
#
# Poissons Ratio (x) = -0.03488 0.26421
# Poissons Ratio (y) = -0.04813 0.42430
# Poissons Ratio (z) = 0.31862 0.37076
#
# Static dielectric constant tensor:
#      x y z
#    x 1.699950 -0.034670 -0.005040 
#    y -0.034670 1.667400 -0.006150 
#    z -0.005040 -0.006150 1.676730 
# 
# From -- ./inp_files/464638.got.cif
#   From: 2010.05.17/outbox.cif.g08.bks.cpg/sg2_233_cif.got.tgz:464638.got - 2010.06.03 11:33:40.
