data_PCOD9068309
_publ_section_title
;
Structure prediction by ZEFSAII (Michael W. Deem and Ramdas Pophale) SiO2 
 PCOD9068309
Probable space group: P -1
;
_chemical_formula_sum "Si O2"
_cell_formula_units_Z 12
_cell_length_a 5.588937
_cell_length_b 10.107540
_cell_length_c 11.859065
_cell_angle_alpha 52.175661
_cell_angle_beta 91.892008
_cell_angle_gamma 114.906820
_cell_volume 455.614317
_symmetry_space_group_name_H-M "P -1"
_symmetry_group_IT_number 2
_symmetry_cell_setting 'triclinic'
loop_
_space_group_symop_operation_xyz
x,y,z
-x,-y,-z
loop_
_atom_site_type_symbol
_atom_site_label
_atom_site_fract_x
_atom_site_fract_y
_atom_site_fract_z
Si Si1 0.413736 0.189853 0.969074
Si Si2 0.075601 0.364461 0.498807
Si Si3 0.729409 0.593871 0.768762
Si Si4 0.178160 0.756582 0.874371
Si Si5 0.829666 0.893175 0.225983
Si Si6 0.652946 0.939508 0.624176
O O1 0.429692 0.397965 0.879521
O O2 0.376260 0.144806 0.860724
O O3 0.708537 0.237736 0.001031
O O4 0.141652 0.013987 0.114832
O O5 0.165851 0.438697 0.333757
O O6 0.258032 0.310126 0.611276
O O7 0.000000 0.500000 0.500000
O O8 0.836981 0.139212 0.589302
O O9 0.762568 0.805588 0.642572
O O10 0.904374 0.611757 0.875517
O O11 0.430975 0.783411 0.788670
O O12 0.181436 0.959730 0.763482
O O13 0.500000 0.000000 0.500000
#
# Coordination Sequence:
#
# PCOD9068309 Si02
#       6
#     2   2   2   2   2   2
#     4  11  27  45  73 107 148 195 237 295 365 430
#     4  12  27  48  75 107 142 191 243 296 361 429
#     4  12  27  47  76 113 143 186 247 300 359 427
#     4  12  23  46  77 102 149 191 240 294 364 424
#     4  11  26  49  71 106 155 187 241 297 365 427
#     4  12  25  47  75 108 148 188 240 302 362 425
#
# _framework density 26.338068
#
# number of rings (size 3 to 8) (size 9 to 14) (size 15 to 20)
#    0.000    0.333    5.000    2.500    4.667    7.333 
#    0.000    0.000    0.000    0.000    0.000    0.000 
#    0.000    0.000    0.000    0.000    0.000    0.000 
#
# Total GULP energy -67038.850881 kJ/mol
# GULP energy per Si atom -5586.570907 kJ/mol
# Density = 2.627812 g / cm^3
# Si number density = 26.338068 Si / 1000 Ang^3
#
#
#
# Elastic Constant Matrix: (Units=GPa)
#
#
# Indices 1 2 3 4 5 6 
#
# 1 40.7852 52.2893 24.4172 10.5484 13.7172 2.5693
# 2 52.2893 211.6093 61.9424 -5.6638 7.2287 -2.5797
# 3 24.4172 61.9424 132.9011 21.1632 20.3305 27.9301
# 4 10.5484 -5.6638 21.1632 59.1742 13.9540 -3.6399
# 5 13.7172 7.2287 20.3305 13.9540 43.4665 0.7924
# 6 2.5693 -2.5797 27.9301 -3.6399 0.7924 44.7411
#
#
#
# Elastic Compliance Matrix: (Units=1/GPa)
#
#
# Indices 1 2 3 4 5 6 
#
# 1 0.043309 -0.010714 0.000409 -0.006805 -0.009824 -0.003740
# 2 -0.010714 0.008534 -0.003757 0.003719 0.002458 0.003712
# 3 0.000409 -0.003757 0.012170 -0.004430 -0.003626 -0.008134
# 4 -0.006805 0.003719 -0.004430 0.021143 -0.003280 0.005149
# 5 -0.009824 0.002458 -0.003626 -0.003280 0.028407 0.002199
# 6 -0.003740 0.003712 -0.008134 0.005149 0.002199 0.028237
#
#
# Mechanical properties :
#
#
# Convention : Reuss Voigt Hill
#
# Bulk Modulus (GPa) = 27.86381 73.62149 50.74265
# Shear Modulus (GPa) = 27.48962 45.91947 36.70455
#
# Velocity S-wave (km/s) = 3.23417 4.18001 3.73714
# Velocity P-wave (km/s) = 4.95467 7.16309 6.15868
#
# Compressibility (1/GPa) = 0.03588885
#
# Stress axis : x y z
#
# Youngs Moduli (GPa) = 23.08971 117.18161 82.16975
#
# Poissons Ratio (x) = 1.25545 -0.03360
# Poissons Ratio (y) = 0.24738 0.30874
# Poissons Ratio (z) = -0.00944 0.44029
#
# Static dielectric constant tensor:
#      x y z
#    x 2.239300 0.015480 0.057060 
#    y 0.015480 2.078890 -0.010800 
#    z 0.057060 -0.010800 2.239760 
# 
# From -- ./inp_files/53453.got.cif
#   From: 2010.05.17/outbox.cif.g08.bks.cpg/sg2_27_cif.got.tgz:53453.got - 2010.06.03 11:33:40.
