data_PCOD9068950
_publ_section_title
;
Structure prediction by ZEFSAII (Michael W. Deem and Ramdas Pophale) SiO2 
 PCOD9068950
Probable space group: P -1
;
_chemical_formula_sum "Si O2"
_cell_formula_units_Z 16
_cell_length_a 9.624394
_cell_length_b 10.221939
_cell_length_c 9.716508
_cell_angle_alpha 116.400679
_cell_angle_beta 61.465196
_cell_angle_gamma 108.967398
_cell_volume 744.463340
_symmetry_space_group_name_H-M "P -1"
_symmetry_group_IT_number 2
_symmetry_cell_setting 'triclinic'
loop_
_space_group_symop_operation_xyz
x,y,z
-x,-y,-z
loop_
_atom_site_type_symbol
_atom_site_label
_atom_site_fract_x
_atom_site_fract_y
_atom_site_fract_z
Si Si1 0.997873 0.432709 0.815181
Si Si2 0.351895 0.747918 0.149655
Si Si3 0.048854 0.933496 0.086896
Si Si4 0.576479 0.305820 0.593634
Si Si5 0.509830 0.634176 0.764917
Si Si6 0.273374 0.062633 0.275170
Si Si7 0.786712 0.811592 0.364625
Si Si8 0.785252 0.310291 0.247398
O O1 0.130458 0.325770 0.689238
O O2 0.056506 0.570766 0.753966
O O3 0.827777 0.337594 0.823224
O O4 0.000000 0.500000 0.000000
O O5 0.396051 0.737126 0.282841
O O6 0.360736 0.917177 0.173755
O O7 0.462001 0.666880 0.958982
O O8 0.887997 0.864558 0.207446
O O9 0.147704 0.039892 0.200047
O O10 0.162297 0.814894 0.933376
O O11 0.000000 0.000000 0.000000
O O12 0.584465 0.483083 0.655463
O O13 0.398739 0.234292 0.601621
O O14 0.704991 0.256007 0.403559
O O15 0.617187 0.781064 0.726523
O O16 0.349878 0.618963 0.740377
O O17 0.195366 0.070926 0.466026
#
# Coordination Sequence:
#
# PCOD9068950 Si02
#       8
#     2   2   2   2   2   2   2   2
#     4  12  21  44  75  96 135 192 238 282 356 421
#     4  12  27  44  72 106 147 188 235 294 358 425
#     4  12  29  45  72 105 144 188 239 292 356 428
#     4  12  28  44  74 114 139 181 249 300 343 414
#     4  12  23  46  73 103 142 188 238 293 355 419
#     4  12  26  45  71 101 143 191 233 285 364 421
#     4  12  24  46  75 101 141 189 239 291 346 431
#     4  12  24  47  73 102 140 189 237 294 356 417
#
# _framework density 21.491990999999999
#
# number of rings (size 3 to 8) (size 9 to 14) (size 15 to 20)
#    0.000    0.000    7.500    2.250    3.500    2.000 
#    0.000    0.000    0.000    0.000    0.000    0.000 
#    0.000    0.000    0.000    0.000    0.000    0.000 
#
# Total GULP energy -89536.408711 kJ/mol
# GULP energy per Si atom -5596.025544 kJ/mol
# Density = 2.144307 g / cm^3
# Si number density = 21.491991 Si / 1000 Ang^3
#
#
#
# Elastic Constant Matrix: (Units=GPa)
#
#
# Indices 1 2 3 4 5 6 
#
# 1 75.3914 37.7195 26.9339 -6.7001 15.7342 6.2672
# 2 37.7195 88.2688 26.1361 -4.3418 1.2097 19.3045
# 3 26.9339 26.1361 135.6275 -21.8952 13.3752 7.1268
# 4 -6.7001 -4.3418 -21.8952 34.9642 1.7261 -1.6712
# 5 15.7342 1.2097 13.3752 1.7261 32.0160 -9.3697
# 6 6.2672 19.3045 7.1268 -1.6712 -9.3697 27.5203
#
#
#
# Elastic Compliance Matrix: (Units=1/GPa)
#
#
# Indices 1 2 3 4 5 6 
#
# 1 0.019800 -0.007413 -0.000991 0.002631 -0.009834 -0.002241
# 2 -0.007413 0.016992 -0.001505 -0.000754 0.000863 -0.009593
# 3 -0.000991 -0.001505 0.009298 0.005551 -0.004299 -0.002253
# 4 0.002631 -0.000754 0.005551 0.032701 -0.005783 -0.001491
# 5 -0.009834 0.000863 -0.004299 -0.005783 0.043143 0.017085
# 6 -0.002241 -0.009593 -0.002253 -0.001491 0.017085 0.049886
#
#
# Mechanical properties :
#
#
# Convention : Reuss Voigt Hill
#
# Bulk Modulus (GPa) = 38.06471 53.42964 45.74718
# Shear Modulus (GPa) = 24.95073 32.79996 28.87535
#
# Velocity S-wave (km/s) = 3.41094 3.91083 3.66941
# Velocity P-wave (km/s) = 5.76734 6.73105 6.26775
#
# Compressibility (1/GPa) = 0.02627105
#
# Stress axis : x y z
#
# Youngs Moduli (GPa) = 50.50620 58.85271 107.54517
#
# Poissons Ratio (x) = 0.43629 0.10658
# Poissons Ratio (y) = 0.37441 0.16185
# Poissons Ratio (z) = 0.05005 0.08857
#
# Static dielectric constant tensor:
#      x y z
#    x 1.755160 -0.004500 -0.008560 
#    y -0.004500 1.860750 -0.060090 
#    z -0.008560 -0.060090 1.859810 
# 
# From -- ./inp_files/189795.got.cif
#   From: 2010.05.17/outbox.cif.g08.bks.cpg/sg2_95_cif.got.tgz:189795.got - 2010.06.03 11:33:40.
