data_PCOD9068525
_publ_section_title
;
Structure prediction by ZEFSAII (Michael W. Deem and Ramdas Pophale) SiO2 
 PCOD9068525
Probable space group: P -1
;
_chemical_formula_sum "Si O2"
_cell_formula_units_Z 12
_cell_length_a 9.639299
_cell_length_b 9.712640
_cell_length_c 5.047940
_cell_angle_alpha 82.807311
_cell_angle_beta 77.133050
_cell_angle_gamma 106.085116
_cell_volume 433.797014
_symmetry_space_group_name_H-M "P -1"
_symmetry_group_IT_number 2
_symmetry_cell_setting 'triclinic'
loop_
_space_group_symop_operation_xyz
x,y,z
-x,-y,-z
loop_
_atom_site_type_symbol
_atom_site_label
_atom_site_fract_x
_atom_site_fract_y
_atom_site_fract_z
Si Si1 0.628762 0.484609 0.249034
Si Si2 0.788266 0.139876 0.098130
Si Si3 0.146854 0.101344 0.555712
Si Si4 0.419530 0.252136 0.057418
Si Si5 0.594416 0.113699 0.657888
Si Si6 0.059611 0.386586 0.665513
O O1 0.500000 0.500000 0.500000
O O2 0.650133 0.621069 0.011918
O O3 0.790410 0.508830 0.289757
O O4 0.561817 0.334920 0.156422
O O5 0.740101 0.178438 0.400022
O O6 0.122385 0.258120 0.557920
O O7 0.834384 0.992755 0.173276
O O8 0.662269 0.098900 0.927518
O O9 0.922445 0.281156 0.918121
O O10 0.000000 0.000000 0.500000
O O11 0.484696 0.203359 0.776792
O O12 0.297183 0.132571 0.307923
O O13 0.500000 0.000000 0.500000
O O14 0.000000 0.500000 0.500000
#
# Coordination Sequence:
#
# PCOD9068525 Si02
#       6
#     2   2   2   2   2   2
#     4  11  26  55  90 133 184 254 312 387 476 572
#     4  12  31  56  91 142 191 247 314 398 485 566
#     4  12  28  56  94 142 196 250 317 397 488 571
#     4  11  29  53  92 136 191 247 323 390 478 570
#     4  12  32  55  90 139 189 247 316 396 473 568
#     4  12  30  58  97 136 191 252 319 393 479 579
#
# _framework density 27.662704999999999
#
# number of rings (size 3 to 8) (size 9 to 14) (size 15 to 20)
#    0.000    0.333    1.667    3.000   14.000    1.333 
#    3.000    5.833    0.000    0.000    0.000    0.000 
#    0.000    0.000    0.000    0.000    0.000    0.000 
#
# Total GULP energy -67229.748623 kJ/mol
# GULP energy per Si atom -5602.479052 kJ/mol
# Density = 2.759974 g / cm^3
# Si number density = 27.662705 Si / 1000 Ang^3
#
#
#
# Elastic Constant Matrix: (Units=GPa)
#
#
# Indices 1 2 3 4 5 6 
#
# 1 167.1757 86.4169 90.3736 -5.5597 40.2247 14.9339
# 2 86.4169 206.5275 100.3731 -4.4166 1.9228 -8.9918
# 3 90.3736 100.3731 197.5318 1.5086 -1.3787 4.7248
# 4 -5.5597 -4.4166 1.5086 77.8033 -4.0378 6.1314
# 5 40.2247 1.9228 -1.3787 -4.0378 75.4205 -4.7215
# 6 14.9339 -8.9918 4.7248 6.1314 -4.7215 57.0393
#
#
#
# Elastic Compliance Matrix: (Units=1/GPa)
#
#
# Indices 1 2 3 4 5 6 
#
# 1 0.011402 -0.003117 -0.003591 0.000679 -0.006267 -0.003771
# 2 -0.003117 0.007387 -0.002373 0.000144 0.001582 0.002293
# 3 -0.003591 -0.002373 0.007926 -0.000446 0.002105 0.000132
# 4 0.000679 0.000144 -0.000446 0.013049 0.000230 -0.001502
# 5 -0.006267 0.001582 0.002105 0.000230 0.016805 0.003082
# 6 -0.003771 0.002293 0.000132 -0.001502 0.003082 0.019286
#
#
# Mechanical properties :
#
#
# Convention : Reuss Voigt Hill
#
# Bulk Modulus (GPa) = 116.91084 125.06246 120.98665
# Shear Modulus (GPa) = 51.61686 61.65739 56.63713
#
# Velocity S-wave (km/s) = 4.32434 4.72624 4.52975
# Velocity P-wave (km/s) = 8.20292 8.66551 8.43739
#
# Compressibility (1/GPa) = 0.00855353
#
# Stress axis : x y z
#
# Youngs Moduli (GPa) = 87.70715 135.36565 126.16228
#
# Poissons Ratio (x) = 0.42188 0.45311
# Poissons Ratio (y) = 0.27334 0.29936
# Poissons Ratio (z) = 0.31500 0.32120
#
# Static dielectric constant tensor:
#      x y z
#    x 2.170590 -0.035380 0.013620 
#    y -0.035380 2.300340 -0.029170 
#    z 0.013620 -0.029170 2.217760 
# 
# From -- ./inp_files/57918.got.cif
#   From: 2010.05.17/outbox.cif.g08.bks.cpg/sg2_29_cif.got.tgz:57918.got - 2010.06.03 11:33:40.
