data_PCOD9068865
_publ_section_title
;
Structure prediction by ZEFSAII (Michael W. Deem and Ramdas Pophale) SiO2 
 PCOD9068865
Probable space group: P -1
;
_chemical_formula_sum "Si O2"
_cell_formula_units_Z 12
_cell_length_a 10.262853
_cell_length_b 20.304907
_cell_length_c 11.279912
_cell_angle_alpha 31.047744
_cell_angle_beta 152.397460
_cell_angle_gamma 147.943907
_cell_volume 521.953087
_symmetry_space_group_name_H-M "P -1"
_symmetry_group_IT_number 2
_symmetry_cell_setting 'triclinic'
loop_
_space_group_symop_operation_xyz
x,y,z
-x,-y,-z
loop_
_atom_site_type_symbol
_atom_site_label
_atom_site_fract_x
_atom_site_fract_y
_atom_site_fract_z
Si Si1 0.686817 0.405544 0.332424
Si Si2 0.347901 0.204763 0.991539
Si Si3 0.439937 0.904224 0.902596
Si Si4 0.324943 0.493898 0.246903
Si Si5 0.736555 0.778164 0.526715
Si Si6 0.320900 0.832675 0.464428
O O1 0.481023 0.289467 0.435481
O O2 0.746361 0.319982 0.403404
O O3 0.000000 0.500000 0.500000
O O4 0.500000 0.500000 0.000000
O O5 0.478339 0.366756 0.875788
O O6 0.991546 0.158148 0.756525
O O7 0.506758 0.179092 0.040511
O O8 0.438094 0.135439 0.284320
O O9 0.086337 0.853694 0.725623
O O10 0.561560 0.058677 0.714241
O O11 0.620201 0.875054 0.202879
O O12 0.500000 0.500000 0.500000
O O13 0.286703 0.354599 0.365223
O O14 0.000000 0.500000 0.000000
#
# Coordination Sequence:
#
# PCOD9068865 Si02
#       6
#     2   2   2   2   2   2
#     4  12  27  49  71  97 133 175 230 277 329 400
#     4  12  23  43  68 100 139 173 225 273 330 399
#     4  12  25  43  67 103 138 173 223 273 337 398
#     4  12  21  38  63  93 129 164 215 269 327 376
#     4  12  24  43  68 100 136 175 221 280 327 395
#     4  12  26  44  69  97 135 186 218 270 336 396
#
# _framework density 22.990572
#
# number of rings (size 3 to 8) (size 9 to 14) (size 15 to 20)
#    0.000    0.000    3.333    8.000    0.000    1.333 
#    0.000    0.000    0.000    0.000    0.000    0.000 
#    0.000    0.000    0.000    0.000    0.000    0.000 
#
# Total GULP energy -67282.858238 kJ/mol
# GULP energy per Si atom -5606.904853 kJ/mol
# Density = 2.293824 g / cm^3
# Si number density = 22.990572 Si / 1000 Ang^3
#
#
#
# Elastic Constant Matrix: (Units=GPa)
#
#
# Indices 1 2 3 4 5 6 
#
# 1 73.7312 1.4562 42.5471 7.9291 6.2581 14.6797
# 2 1.4562 79.5812 29.9043 -8.9174 15.9992 11.1618
# 3 42.5471 29.9043 180.4668 -1.5055 5.1908 6.5630
# 4 7.9291 -8.9174 -1.5055 45.8556 15.6839 0.1049
# 5 6.2581 15.9992 5.1908 15.6839 32.2549 -0.7439
# 6 14.6797 11.1618 6.5630 0.1049 -0.7439 42.8646
#
#
#
# Elastic Compliance Matrix: (Units=1/GPa)
#
#
# Indices 1 2 3 4 5 6 
#
# 1 0.017671 0.002697 -0.004301 -0.001459 -0.003507 -0.006153
# 2 0.002697 0.017659 -0.002953 0.007122 -0.012393 -0.005302
# 3 -0.004301 -0.002953 0.006966 -0.000021 0.001216 0.001196
# 4 -0.001459 0.007122 -0.000021 0.029474 -0.017617 -0.001730
# 5 -0.003507 -0.012393 0.001216 -0.017617 0.046319 0.005089
# 6 -0.006153 -0.005302 0.001196 -0.001730 0.005089 0.026726
#
#
# Mechanical properties :
#
#
# Convention : Reuss Voigt Hill
#
# Bulk Modulus (GPa) = 30.13648 53.51048 41.82348
# Shear Modulus (GPa) = 30.30505 41.51981 35.91243
#
# Velocity S-wave (km/s) = 3.63457 4.25426 3.95657
# Velocity P-wave (km/s) = 5.54528 6.88891 6.25329
#
# Compressibility (1/GPa) = 0.03318238
#
# Stress axis : x y z
#
# Youngs Moduli (GPa) = 56.59087 56.62706 143.55784
#
# Poissons Ratio (x) = -0.15274 0.61738
# Poissons Ratio (y) = -0.15264 0.42399
# Poissons Ratio (z) = 0.24337 0.16725
#
# Static dielectric constant tensor:
#      x y z
#    x 1.880450 -0.015470 0.010200 
#    y -0.015470 1.855520 -0.043840 
#    z 0.010200 -0.043840 1.819150 
# 
# From -- ./inp_files/81158.got.cif
#   From: 2010.05.17/outbox.cif.g08.bks.cpg/sg2_41_cif.got.tgz:81158.got - 2010.06.03 11:33:40.
