data_PCOD9068048
_publ_section_title
;
Structure prediction by ZEFSAII (Michael W. Deem and Ramdas Pophale) SiO2 
 PCOD9068048
Probable space group: P -1
;
_chemical_formula_sum "Si O2"
_cell_formula_units_Z 16
_cell_length_a 11.485121
_cell_length_b 12.504595
_cell_length_c 10.329231
_cell_angle_alpha 66.178919
_cell_angle_beta 144.050780
_cell_angle_gamma 125.302170
_cell_volume 704.386486
_symmetry_space_group_name_H-M "P -1"
_symmetry_group_IT_number 2
_symmetry_cell_setting 'triclinic'
loop_
_space_group_symop_operation_xyz
x,y,z
-x,-y,-z
loop_
_atom_site_type_symbol
_atom_site_label
_atom_site_fract_x
_atom_site_fract_y
_atom_site_fract_z
Si Si1 0.727046 0.639085 0.602000
Si Si2 0.366496 0.582742 0.805715
Si Si3 0.478944 0.931210 0.293384
Si Si4 0.949768 0.290773 0.908973
Si Si5 0.888710 0.063898 0.773836
Si Si6 0.257131 0.111338 0.656255
Si Si7 0.690596 0.862739 0.018247
Si Si8 0.018552 0.457211 0.321578
O O1 0.500000 0.500000 0.500000
O O2 0.703381 0.759245 0.454089
O O3 0.897711 0.618397 0.667028
O O4 0.855559 0.694519 0.826126
O O5 0.213197 0.517425 0.575612
O O6 0.207948 0.595160 0.769696
O O7 0.500000 0.500000 0.000000
O O8 0.549581 0.732434 0.872123
O O9 0.287666 0.781216 0.197246
O O10 0.621224 0.956440 0.280309
O O11 0.643622 0.969236 0.545628
O O12 0.354956 0.021053 0.132709
O O13 0.913392 0.194429 0.802237
O O14 0.994858 0.430933 0.830989
O O15 0.052088 0.103834 0.778610
O O16 0.000000 0.000000 0.000000
O O17 0.364820 0.157789 0.870917
O O18 0.000000 0.000000 0.500000
#
# Coordination Sequence:
#
# PCOD9068048 Si02
#       8
#     2   2   2   2   2   2   2   2
#     4  12  29  49  76 107 150 198 246 305 366 436
#     4  11  26  47  73 105 142 187 241 304 359 431
#     4  12  26  47  72 109 144 189 239 304 359 434
#     4  12  26  46  75 104 147 191 242 296 364 434
#     4  12  25  45  70 109 149 187 241 295 367 432
#     4  12  26  48  74 107 147 188 245 302 364 432
#     4  12  26  43  77 103 142 190 236 299 366 428
#     4  11  27  47  73 104 142 192 246 292 365 437
#
# _framework density 22.714803
#
# number of rings (size 3 to 8) (size 9 to 14) (size 15 to 20)
#    0.000    0.250    2.500    5.625   10.500    2.000 
#    0.000    0.000    0.000    0.000    0.000    0.000 
#    0.000    0.000    0.000    0.000    0.000    0.000 
#
# Total GULP energy -89473.082095 kJ/mol
# GULP energy per Si atom -5592.067631 kJ/mol
# Density = 2.266310 g / cm^3
# Si number density = 22.714803 Si / 1000 Ang^3
#
#
#
# Elastic Constant Matrix: (Units=GPa)
#
#
# Indices 1 2 3 4 5 6 
#
# 1 93.4915 -4.3838 15.4155 1.1830 11.7591 -7.8757
# 2 -4.3838 50.7474 2.8938 -1.2581 -0.5570 7.4341
# 3 15.4155 2.8938 102.2024 12.9894 -16.4767 10.9558
# 4 1.1830 -1.2581 12.9894 42.0170 0.6220 2.6717
# 5 11.7591 -0.5570 -16.4767 0.6220 42.6939 -3.3187
# 6 -7.8757 7.4341 10.9558 2.6717 -3.3187 37.2730
#
#
#
# Elastic Compliance Matrix: (Units=1/GPa)
#
#
# Indices 1 2 3 4 5 6 
#
# 1 0.011959 0.000749 -0.002857 0.000452 -0.004174 0.002813
# 2 0.000749 0.020385 -0.000471 0.000988 -0.000438 -0.003879
# 3 -0.002857 -0.000471 0.011852 -0.003465 0.005150 -0.003287
# 4 0.000452 0.000988 -0.003465 0.024982 -0.001894 -0.001042
# 5 -0.004174 -0.000438 0.005150 -0.001894 0.026597 0.000196
# 6 0.002813 -0.003879 -0.003287 -0.001042 0.000196 0.029255
#
#
# Mechanical properties :
#
#
# Convention : Reuss Voigt Hill
#
# Bulk Modulus (GPa) = 25.61561 30.47693 28.04627
# Shear Modulus (GPa) = 34.91649 39.89784 37.40716
#
# Velocity S-wave (km/s) = 3.92493 4.19557 4.06250
# Velocity P-wave (km/s) = 5.64284 6.07592 5.86338
#
# Compressibility (1/GPa) = 0.03903869
#
# Stress axis : x y z
#
# Youngs Moduli (GPa) = 83.62125 49.05592 84.37660
#
# Poissons Ratio (x) = -0.03676 0.24106
# Poissons Ratio (y) = -0.06265 0.03970
# Poissons Ratio (z) = 0.23890 0.02308
#
# Static dielectric constant tensor:
#      x y z
#    x 1.850070 0.005840 0.075310 
#    y 0.005840 1.801040 0.011760 
#    z 0.075310 0.011760 1.807050 
# 
# From -- ./inp_files/428059.got.cif
#   From: 2010.05.17/outbox.cif.g08.bks.cpg/sg2_215_cif.got.tgz:428059.got - 2010.06.03 11:33:40.
