data_PCOD9068006
_publ_section_title
;
Structure prediction by ZEFSAII (Michael W. Deem and Ramdas Pophale) SiO2 
 PCOD9068006
Probable space group: P -1
;
_chemical_formula_sum "Si O2"
_cell_formula_units_Z 10
_cell_length_a 5.064628
_cell_length_b 4.917450
_cell_length_c 19.239566
_cell_angle_alpha 119.317283
_cell_angle_beta 59.935097
_cell_angle_gamma 94.585262
_cell_volume 352.793457
_symmetry_space_group_name_H-M "P -1"
_symmetry_group_IT_number 2
_symmetry_cell_setting 'triclinic'
loop_
_space_group_symop_operation_xyz
x,y,z
-x,-y,-z
loop_
_atom_site_type_symbol
_atom_site_label
_atom_site_fract_x
_atom_site_fract_y
_atom_site_fract_z
Si Si1 0.235128 0.408974 0.181410
Si Si2 0.772221 0.766780 0.515300
Si Si3 0.463456 0.979285 0.796180
Si Si4 0.655227 0.382104 0.350424
Si Si5 0.864870 0.474266 0.937901
O O1 0.334880 0.750484 0.206697
O O2 0.142923 0.318369 0.105297
O O3 0.971666 0.403351 0.272153
O O4 0.517727 0.144295 0.142863
O O5 0.649498 0.643880 0.444341
O O6 0.459341 0.884564 0.618550
O O7 0.000000 0.500000 0.500000
O O8 0.000000 0.000000 0.500000
O O9 0.116435 0.157239 0.841321
O O10 0.551129 0.668844 0.696145
O O11 0.500000 0.500000 0.000000
O O12 0.000000 0.500000 0.000000
#
# Coordination Sequence:
#
# PCOD9068006 Si02
#       5
#     2   2   2   2   2
#     4  12  27  50  79 117 162 216 277 339 410 492
#     4  11  26  47  74 116 162 206 268 331 401 492
#     4  12  27  50  79 117 162 216 277 339 410 492
#     4  11  26  46  80 114 160 216 268 334 408 487
#     4  12  28  54  82 121 164 219 280 348 414 490
#
# _framework density 28.345192000000001
#
# number of rings (size 3 to 8) (size 9 to 14) (size 15 to 20)
#    0.000    0.400    2.000    4.800    0.000   11.200 
#    0.000    0.000    0.000    0.000    0.000    0.000 
#    0.000    0.000    0.000    0.000    0.000    0.000 
#
# Total GULP energy -55823.868037 kJ/mol
# GULP energy per Si atom -5582.386804 kJ/mol
# Density = 2.828068 g / cm^3
# Si number density = 28.345192 Si / 1000 Ang^3
#
#
#
# Elastic Constant Matrix: (Units=GPa)
#
#
# Indices 1 2 3 4 5 6 
#
# 1 224.8252 93.0129 94.2471 -29.7000 24.7126 11.9732
# 2 93.0129 174.8403 35.1673 -25.9662 13.5310 21.5129
# 3 94.2471 35.1673 179.9677 -39.5602 17.6356 14.0040
# 4 -29.7000 -25.9662 -39.5602 52.0001 10.9581 3.4415
# 5 24.7126 13.5310 17.6356 10.9581 69.2555 -4.3750
# 6 11.9732 21.5129 14.0040 3.4415 -4.3750 63.2724
#
#
#
# Elastic Compliance Matrix: (Units=1/GPa)
#
#
# Indices 1 2 3 4 5 6 
#
# 1 0.007135 -0.003047 -0.002896 0.000610 -0.001297 0.000204
# 2 -0.003047 0.008116 0.001200 0.003739 -0.001570 -0.002760
# 3 -0.002896 0.001200 0.008623 0.006188 -0.002520 -0.002280
# 4 0.000610 0.003739 0.006188 0.027999 -0.007256 -0.004781
# 5 -0.001297 -0.001570 -0.002520 -0.007256 0.017183 0.002920
# 6 0.000204 -0.002760 -0.002280 -0.004781 0.002920 0.017671
#
#
# Mechanical properties :
#
#
# Convention : Reuss Voigt Hill
#
# Bulk Modulus (GPa) = 69.50061 113.83199 91.66630
# Shear Modulus (GPa) = 49.50148 60.71933 55.11041
#
# Velocity S-wave (km/s) = 4.18350 4.63335 4.41416
# Velocity P-wave (km/s) = 6.92158 8.29881 7.64128
#
# Compressibility (1/GPa) = 0.01438836
#
# Stress axis : x y z
#
# Youngs Moduli (GPa) = 140.15968 123.22032 115.97162
#
# Poissons Ratio (x) = 0.37548 0.33580
# Poissons Ratio (y) = 0.42710 -0.13922
# Poissons Ratio (z) = 0.40584 -0.14792
#
# Static dielectric constant tensor:
#      x y z
#    x 2.338770 -0.004440 -0.080440 
#    y -0.004440 2.362050 0.150500 
#    z -0.080440 0.150500 2.358450 
# 
# From -- ./inp_files/545479.got.cif
#   From: 2010.05.17/outbox.cif.g08.bks.cpg/sg2_273_cif.got.tgz:545479.got - 2010.06.03 11:33:40.
