data_PCOD9068669
_publ_section_title
;
Structure prediction by ZEFSAII (Michael W. Deem and Ramdas Pophale) SiO2 
 PCOD9068669
Probable space group: P -1
;
_chemical_formula_sum "Si O2"
_cell_formula_units_Z 13
_cell_length_a 9.932104
_cell_length_b 12.545125
_cell_length_c 9.286253
_cell_angle_alpha 78.150400
_cell_angle_beta 136.105651
_cell_angle_gamma 131.529613
_cell_volume 511.179978
_symmetry_space_group_name_H-M "P -1"
_symmetry_group_IT_number 2
_symmetry_cell_setting 'triclinic'
loop_
_space_group_symop_operation_xyz
x,y,z
-x,-y,-z
loop_
_atom_site_type_symbol
_atom_site_label
_atom_site_fract_x
_atom_site_fract_y
_atom_site_fract_z
Si Si1 0.182555 0.319424 0.537841
Si Si2 0.684602 0.164297 0.998790
Si Si3 0.254712 0.571418 0.069466
Si Si4 0.000000 0.000000 0.500000
Si Si5 0.187071 0.493794 0.735817
Si Si6 0.210364 0.132699 0.941533
Si Si7 0.275259 0.953525 0.223389
O O1 0.503602 0.415400 0.703470
O O2 0.198987 0.392424 0.677759
O O3 0.995179 0.310083 0.282912
O O4 0.005782 0.133817 0.483925
O O5 0.552676 0.231671 0.863077
O O6 0.747514 0.141995 0.897584
O O7 0.500000 0.000000 0.000000
O O8 0.086914 0.449961 0.835229
O O9 0.000000 0.500000 0.000000
O O10 0.972000 0.998314 0.293816
O O11 0.000000 0.500000 0.500000
O O12 0.517160 0.681232 0.957154
O O13 0.015235 0.128879 0.892384
O O14 0.359603 0.100837 0.162731
O O15 0.500000 0.000000 0.500000
#
# Coordination Sequence:
#
# PCOD9068669 Si02
#       7
#     2   2   2   1   2   2   2
#     4  12  27  49  81 110 156 206 262 326 393 470
#     4  12  27  50  79 113 156 209 272 323 399 480
#     4  12  29  48  76 118 157 204 265 324 404 474
#     4  12  24  48  86 106 148 214 264 324 396 468
#     4  12  27  51  79 112 156 215 256 323 402 484
#     4  11  27  51  75 116 159 200 276 323 401 467
#     4  11  28  45  78 115 155 208 261 340 392 470
#
# _framework density 25.431356000000001
#
# number of rings (size 3 to 8) (size 9 to 14) (size 15 to 20)
#    0.000    0.308    4.615    2.308    6.462    3.077 
#    0.000    0.000    0.000    0.000    0.000    0.000 
#    0.000    0.000    0.000    0.000    0.000    0.000 
#
# Total GULP energy -72645.819741 kJ/mol
# GULP energy per Si atom -5588.139980 kJ/mol
# Density = 2.537347 g / cm^3
# Si number density = 25.431356 Si / 1000 Ang^3
#
#
#
# Elastic Constant Matrix: (Units=GPa)
#
#
# Indices 1 2 3 4 5 6 
#
# 1 209.7383 50.8915 59.0293 9.8338 -39.6662 -33.0086
# 2 50.8915 78.0499 22.5339 -0.4964 -10.5629 -25.4758
# 3 59.0293 22.5339 159.8422 -25.5243 -22.8967 -21.0738
# 4 9.8338 -0.4964 -25.5243 45.4415 -20.3325 -4.8447
# 5 -39.6662 -10.5629 -22.8967 -20.3325 52.0815 -2.7871
# 6 -33.0086 -25.4758 -21.0738 -4.8447 -2.7871 49.0409
#
#
#
# Elastic Compliance Matrix: (Units=1/GPa)
#
#
# Indices 1 2 3 4 5 6 
#
# 1 0.007093 -0.002623 -0.001128 0.000217 0.004631 0.003211
# 2 -0.002623 0.017538 0.000717 0.003727 0.003770 0.008236
# 3 -0.001128 0.000717 0.009984 0.009936 0.007840 0.005331
# 4 0.000217 0.003727 0.009936 0.038073 0.020758 0.011293
# 5 0.004631 0.003770 0.007840 0.020758 0.035713 0.012525
# 6 0.003211 0.008236 0.005331 0.011293 0.012525 0.030949
#
#
# Mechanical properties :
#
#
# Convention : Reuss Voigt Hill
#
# Bulk Modulus (GPa) = 35.02972 79.17109 57.10040
# Shear Modulus (GPa) = 32.27205 50.32448 41.29826
#
# Velocity S-wave (km/s) = 3.56615 4.45324 4.03415
# Velocity P-wave (km/s) = 5.54623 7.59214 6.64836
#
# Compressibility (1/GPa) = 0.02854719
#
# Stress axis : x y z
#
# Youngs Moduli (GPa) = 140.98913 57.02052 100.15753
#
# Poissons Ratio (x) = 0.14955 0.11300
# Poissons Ratio (y) = 0.36978 -0.07184
# Poissons Ratio (z) = 0.15907 -0.04090
#
# Static dielectric constant tensor:
#      x y z
#    x 2.062910 0.115480 -0.046950 
#    y 0.115480 2.077150 -0.059940 
#    z -0.046950 -0.059940 2.088510 
# 
# From -- ./inp_files/179658.got.cif
#   From: 2010.05.17/outbox.cif.g08.bks.cpg/sg2_90_cif.got.tgz:179658.got - 2010.06.03 11:33:40.
