data_PCOD9068109
_publ_section_title
;
Structure prediction by ZEFSAII (Michael W. Deem and Ramdas Pophale) SiO2 
 PCOD9068109
Probable space group: P -1
;
_chemical_formula_sum "Si O2"
_cell_formula_units_Z 16
_cell_length_a 8.241994
_cell_length_b 9.356629
_cell_length_c 11.832021
_cell_angle_alpha 109.408290
_cell_angle_beta 91.740454
_cell_angle_gamma 47.891142
_cell_volume 613.834324
_symmetry_space_group_name_H-M "P -1"
_symmetry_group_IT_number 2
_symmetry_cell_setting 'triclinic'
loop_
_space_group_symop_operation_xyz
x,y,z
-x,-y,-z
loop_
_atom_site_type_symbol
_atom_site_label
_atom_site_fract_x
_atom_site_fract_y
_atom_site_fract_z
Si Si1 0.280313 0.737999 0.511726
Si Si2 0.157978 0.612974 0.260398
Si Si3 0.925283 0.781416 0.066856
Si Si4 0.515824 0.128378 0.851240
Si Si5 0.245021 0.502115 0.798216
Si Si6 0.750655 0.887232 0.454620
Si Si7 0.615000 0.241892 0.104346
Si Si8 0.977603 0.753524 0.656440
O O1 0.500000 0.500000 0.500000
O O2 0.207383 0.706583 0.382942
O O3 0.095778 0.830262 0.632359
O O4 0.282620 0.914454 0.532061
O O5 0.383382 0.363475 0.201993
O O6 0.103500 0.686781 0.148174
O O7 0.914062 0.707965 0.316746
O O8 0.692142 0.843828 0.109386
O O9 0.830758 0.005656 0.086381
O O10 0.051001 0.615954 0.921567
O O11 0.445720 0.258855 0.769931
O O12 0.761998 0.899556 0.772415
O O13 0.554523 0.226685 0.974402
O O14 0.335241 0.614313 0.846916
O O15 0.166023 0.546792 0.679505
O O16 0.885120 0.755402 0.536947
O O17 0.500000 0.000000 0.500000
#
# Coordination Sequence:
#
# PCOD9068109 Si02
#       8
#     2   2   2   2   2   2   2   2
#     4  11  27  51  79 106 142 195 250 302 362 438
#     4  11  26  47  77 104 149 192 242 298 364 430
#     4  12  27  48  71 111 154 194 243 300 366 430
#     4  12  27  48  71 111 154 194 243 300 366 430
#     4  12  27  43  75 109 148 195 246 291 363 442
#     4  11  27  53  77 107 144 191 247 308 365 432
#     4  12  27  43  75 109 148 195 246 291 363 442
#     4  11  26  47  77 104 149 192 242 298 364 430
#
# _framework density 26.065664999999999
#
# number of rings (size 3 to 8) (size 9 to 14) (size 15 to 20)
#    0.000    0.500    2.500    4.500   10.500    0.000 
#    4.500    1.250    0.000    0.000    0.000    0.000 
#    0.000    0.000    0.000    0.000    0.000    0.000 
#
# Total GULP energy -89584.429883 kJ/mol
# GULP energy per Si atom -5599.026868 kJ/mol
# Density = 2.600634 g / cm^3
# Si number density = 26.065665 Si / 1000 Ang^3
#
#
#
# Elastic Constant Matrix: (Units=GPa)
#
#
# Indices 1 2 3 4 5 6 
#
# 1 88.1871 18.4149 25.6029 -17.2577 -8.1829 2.2677
# 2 18.4149 84.5534 21.9560 -21.5817 8.0189 -9.9762
# 3 25.6029 21.9560 115.8015 -12.4697 -4.5930 -11.2152
# 4 -17.2577 -21.5817 -12.4697 48.8903 -18.8315 -5.0605
# 5 -8.1829 8.0189 -4.5930 -18.8315 42.0445 -2.0770
# 6 2.2677 -9.9762 -11.2152 -5.0605 -2.0770 40.3056
#
#
#
# Elastic Compliance Matrix: (Units=1/GPa)
#
#
# Indices 1 2 3 4 5 6 
#
# 1 0.013876 -0.001661 -0.002017 0.005598 0.005266 -0.000779
# 2 -0.001661 0.014523 -0.001409 0.005683 -0.000505 0.003984
# 3 -0.002017 -0.001409 0.009972 0.002348 0.002163 0.002946
# 4 0.005598 0.005683 0.002348 0.031950 0.014895 0.006524
# 5 0.005266 -0.000505 0.002163 0.014895 0.031996 0.003699
# 6 -0.000779 0.003984 0.002946 0.006524 0.003699 0.027670
#
#
# Mechanical properties :
#
#
# Convention : Reuss Voigt Hill
#
# Bulk Modulus (GPa) = 35.46214 46.72107 41.09160
# Shear Modulus (GPa) = 33.43176 41.08596 37.25886
#
# Velocity S-wave (km/s) = 3.58522 3.97451 3.78487
# Velocity P-wave (km/s) = 5.54733 6.24704 5.90756
#
# Compressibility (1/GPa) = 0.02819909
#
# Stress axis : x y z
#
# Youngs Moduli (GPa) = 72.06662 68.85726 100.27783
#
# Poissons Ratio (x) = 0.11435 0.20223
# Poissons Ratio (y) = 0.11968 0.14125
# Poissons Ratio (z) = 0.14534 0.09699
#
# Static dielectric constant tensor:
#      x y z
#    x 2.152970 0.030910 -0.028070 
#    y 0.030910 1.966590 0.006800 
#    z -0.028070 0.006800 2.051110 
# 
# From -- ./inp_files/382264.got.cif
#   From: 2010.05.17/outbox.cif.g08.bks.cpg/sg2_192_cif.got.tgz:382264.got - 2010.06.03 11:33:40.
