data_PCOD9068755
_publ_section_title
;
Structure prediction by ZEFSAII (Michael W. Deem and Ramdas Pophale) SiO2 
 PCOD9068755
Probable space group: P -1
;
_chemical_formula_sum "Si O2"
_cell_formula_units_Z 12
_cell_length_a 14.264497
_cell_length_b 8.355081
_cell_length_c 5.132757
_cell_angle_alpha 90.812833
_cell_angle_beta 112.680124
_cell_angle_gamma 55.495439
_cell_volume 448.037088
_symmetry_space_group_name_H-M "P -1"
_symmetry_group_IT_number 2
_symmetry_cell_setting 'triclinic'
loop_
_space_group_symop_operation_xyz
x,y,z
-x,-y,-z
loop_
_atom_site_type_symbol
_atom_site_label
_atom_site_fract_x
_atom_site_fract_y
_atom_site_fract_z
Si Si1 0.253253 0.615710 0.663756
Si Si2 0.358033 0.767620 0.107131
Si Si3 0.547758 0.151646 0.298348
Si Si4 0.055386 0.582559 0.745514
Si Si5 0.304619 0.284699 0.319330
Si Si6 0.880672 0.998116 0.825053
O O1 0.351058 0.594859 0.979898
O O2 0.306950 0.435774 0.515191
O O3 0.205492 0.816801 0.461110
O O4 0.133552 0.643631 0.671655
O O5 0.416339 0.822894 0.947453
O O6 0.430244 0.735410 0.451822
O O7 0.209083 0.946053 0.021511
O O8 0.407463 0.212040 0.196032
O O9 0.647523 0.916140 0.480729
O O10 0.940613 0.781332 0.770977
O O11 0.000000 0.500000 0.500000
O O12 0.162979 0.413324 0.053039
O O13 0.000000 0.000000 0.000000
#
# Coordination Sequence:
#
# PCOD9068755 Si02
#       6
#     2   2   2   2   2   2
#     4  12  26  48  80 121 160 207 273 327 411 474
#     4  12  27  52  85 120 155 221 265 332 411 469
#     4  11  30  53  87 112 170 212 274 331 397 486
#     4  12  30  50  86 119 164 213 273 334 411 484
#     4  11  29  54  76 126 158 218 269 338 400 478
#     4  12  25  52  77 119 165 212 260 342 399 481
#
# _framework density 26.783501000000001
#
# number of rings (size 3 to 8) (size 9 to 14) (size 15 to 20)
#    0.000    0.333    5.000    0.500    9.333    3.333 
#    0.000    0.833    0.000    0.000    0.000    0.000 
#    0.000    0.000    0.000    0.000    0.000    0.000 
#
# Total GULP energy -67456.188685 kJ/mol
# GULP energy per Si atom -5621.349057 kJ/mol
# Density = 2.672254 g / cm^3
# Si number density = 26.783501 Si / 1000 Ang^3
#
#
#
# Elastic Constant Matrix: (Units=GPa)
#
#
# Indices 1 2 3 4 5 6 
#
# 1 188.3832 61.5828 55.6934 1.8609 -33.0178 -11.1627
# 2 61.5828 193.6540 86.3955 11.6200 7.3460 -11.0493
# 3 55.6934 86.3955 169.9990 15.9905 9.0587 4.8221
# 4 1.8609 11.6200 15.9905 48.0518 8.5177 0.6354
# 5 -33.0178 7.3460 9.0587 8.5177 58.1008 9.9838
# 6 -11.1627 -11.0493 4.8221 0.6354 9.9838 38.3180
#
#
#
# Elastic Compliance Matrix: (Units=1/GPa)
#
#
# Indices 1 2 3 4 5 6 
#
# 1 0.007187 -0.001614 -0.001783 -0.000095 0.004461 0.000692
# 2 -0.001614 0.007301 -0.003124 -0.000391 -0.001723 0.002484
# 3 -0.001783 -0.003124 0.008342 -0.001692 -0.001310 -0.002100
# 4 -0.000095 -0.000391 -0.001692 0.022007 -0.003053 0.000503
# 5 0.004461 -0.001723 -0.001310 -0.003053 0.021400 -0.004557
# 6 0.000692 0.002484 -0.002100 0.000503 -0.004557 0.028459
#
#
# Mechanical properties :
#
#
# Convention : Reuss Voigt Hill
#
# Bulk Modulus (GPa) = 102.14876 106.59774 104.37325
# Shear Modulus (GPa) = 45.04539 52.11841 48.58190
#
# Velocity S-wave (km/s) = 4.10547 4.41604 4.26358
# Velocity P-wave (km/s) = 7.79067 8.11714 7.95558
#
# Compressibility (1/GPa) = 0.00978964
#
# Stress axis : x y z
#
# Youngs Moduli (GPa) = 139.14255 136.96259 119.87088
#
# Poissons Ratio (x) = 0.22110 0.21367
# Poissons Ratio (y) = 0.22462 0.37443
# Poissons Ratio (z) = 0.24803 0.42781
#
# Static dielectric constant tensor:
#      x y z
#    x 2.069870 -0.033290 0.027700 
#    y -0.033290 2.165820 -0.075550 
#    z 0.027700 -0.075550 2.136440 
# 
# From -- ./inp_files/59485.got.cif
#   From: 2010.05.17/outbox.cif.g08.bks.cpg/sg2_30_cif.got.tgz:59485.got - 2010.06.03 11:33:40.
