data_PCOD9068209
_publ_section_title
;
Structure prediction by ZEFSAII (Michael W. Deem and Ramdas Pophale) SiO2 
 PCOD9068209
Probable space group: P -1
;
_chemical_formula_sum "Si O2"
_cell_formula_units_Z 14
_cell_length_a 8.778853
_cell_length_b 9.106842
_cell_length_c 9.304858
_cell_angle_alpha 74.169972
_cell_angle_beta 119.646808
_cell_angle_gamma 100.124682
_cell_volume 621.255893
_symmetry_space_group_name_H-M "P -1"
_symmetry_group_IT_number 2
_symmetry_cell_setting 'triclinic'
loop_
_space_group_symop_operation_xyz
x,y,z
-x,-y,-z
loop_
_atom_site_type_symbol
_atom_site_label
_atom_site_fract_x
_atom_site_fract_y
_atom_site_fract_z
Si Si1 0.817530 0.973008 0.000993
Si Si2 0.067578 0.891263 0.682939
Si Si3 0.701361 0.647152 0.965148
Si Si4 0.309749 0.628504 0.808493
Si Si5 0.726680 0.679107 0.631010
Si Si6 0.601363 0.133642 0.612448
Si Si7 0.822007 0.425096 0.522058
O O1 0.673768 0.049168 0.810226
O O2 0.799934 0.791215 0.040684
O O3 0.834057 0.034628 0.153608
O O4 0.000000 0.000000 0.000000
O O5 0.200267 0.776035 0.707147
O O6 0.892258 0.798893 0.675746
O O7 0.000000 0.000000 0.500000
O O8 0.507799 0.659954 0.937169
O O9 0.690826 0.652580 0.788664
O O10 0.779875 0.490117 0.091407
O O11 0.314560 0.551492 0.676068
O O12 0.555357 0.752274 0.463352
O O13 0.782818 0.531870 0.609146
O O14 0.763761 0.246867 0.592407
O O15 0.500000 0.000000 0.500000
O O16 0.000000 0.500000 0.500000
#
# Coordination Sequence:
#
# PCOD9068209 Si02
#       7
#     2   2   2   2   2   2   2
#     4  12  27  46  78 110 145 201 253 314 382 458
#     4  12  30  48  73 112 156 197 259 319 387 452
#     4  11  26  48  74 110 149 195 256 310 390 458
#     4  11  27  48  73 107 155 196 249 328 377 459
#     4  12  26  47  77 110 153 204 253 315 380 471
#     4  12  26  49  80 112 154 197 260 319 384 456
#     4  12  27  45  76 109 149 205 251 312 384 452
#
# _framework density 22.534996
#
# number of rings (size 3 to 8) (size 9 to 14) (size 15 to 20)
#    0.000    0.286    5.714    0.429   12.000    2.286 
#    0.000    0.000    0.000    0.000    0.000    0.000 
#    0.000    0.000    0.000    0.000    0.000    0.000 
#
# Total GULP energy -78121.858005 kJ/mol
# GULP energy per Si atom -5580.132715 kJ/mol
# Density = 2.248371 g / cm^3
# Si number density = 22.534996 Si / 1000 Ang^3
#
#
#
# Elastic Constant Matrix: (Units=GPa)
#
#
# Indices 1 2 3 4 5 6 
#
# 1 72.7406 63.0061 22.3969 6.3095 -3.0896 4.3578
# 2 63.0061 137.8155 54.4019 10.7716 -6.8004 8.0174
# 3 22.3969 54.4019 133.9541 11.9304 -5.8586 -17.5515
# 4 6.3095 10.7716 11.9304 32.7570 1.6863 13.8376
# 5 -3.0896 -6.8004 -5.8586 1.6863 28.6223 0.7673
# 6 4.3578 8.0174 -17.5515 13.8376 0.7673 32.2604
#
#
#
# Elastic Compliance Matrix: (Units=1/GPa)
#
#
# Indices 1 2 3 4 5 6 
#
# 1 0.022835 -0.010631 0.000699 -0.001389 0.000150 0.000530
# 2 -0.010631 0.014270 -0.004761 0.001245 0.001336 -0.005266
# 3 0.000699 -0.004761 0.011319 -0.007097 0.001404 0.010258
# 4 -0.001389 0.001245 -0.007097 0.042485 -0.003217 -0.022130
# 5 0.000150 0.001336 0.001404 -0.003217 0.035723 0.000942
# 6 0.000530 -0.005266 0.010258 -0.022130 0.000942 0.047286
#
#
# Mechanical properties :
#
#
# Convention : Reuss Voigt Hill
#
# Bulk Modulus (GPa) = 52.51902 69.34669 60.93285
# Shear Modulus (GPa) = 23.84927 32.37494 28.11210
#
# Velocity S-wave (km/s) = 3.25671 3.79443 3.53581
# Velocity P-wave (km/s) = 6.12354 7.07366 6.61568
#
# Compressibility (1/GPa) = 0.01904072
#
# Stress axis : x y z
#
# Youngs Moduli (GPa) = 43.79181 70.07546 88.34441
#
# Poissons Ratio (x) = 0.74494 -0.06175
# Poissons Ratio (y) = 0.46553 0.42056
# Poissons Ratio (z) = -0.03061 0.33359
#
# Static dielectric constant tensor:
#      x y z
#    x 1.878890 0.067470 -0.013980 
#    y 0.067470 1.840350 -0.037320 
#    z -0.013980 -0.037320 1.838040 
# 
# From -- ./inp_files/156970.got.cif
#   From: 2010.05.17/outbox.cif.g08.bks.cpg/sg2_79_cif.got.tgz:156970.got - 2010.06.03 11:33:40.
