data_PCOD9068658
_publ_section_title
;
Structure prediction by ZEFSAII (Michael W. Deem and Ramdas Pophale) SiO2 
 PCOD9068658
Probable space group: P -1
;
_chemical_formula_sum "Si O2"
_cell_formula_units_Z 16
_cell_length_a 13.355118
_cell_length_b 13.866174
_cell_length_c 9.206508
_cell_angle_alpha 104.963317
_cell_angle_beta 96.218717
_cell_angle_gamma 148.136099
_cell_volume 666.377314
_symmetry_space_group_name_H-M "P -1"
_symmetry_group_IT_number 2
_symmetry_cell_setting 'triclinic'
loop_
_space_group_symop_operation_xyz
x,y,z
-x,-y,-z
loop_
_atom_site_type_symbol
_atom_site_label
_atom_site_fract_x
_atom_site_fract_y
_atom_site_fract_z
Si Si1 0.350694 0.172699 0.531517
Si Si2 0.370556 0.396639 0.096375
Si Si3 0.748224 0.097367 0.076364
Si Si4 0.021133 0.311869 0.755320
Si Si5 0.793419 0.932452 0.856504
Si Si6 0.078744 0.576424 0.377718
Si Si7 0.566191 0.233146 0.828884
Si Si8 0.610114 0.053594 0.760867
O O1 0.458199 0.368662 0.699171
O O2 0.360902 0.194382 0.367253
O O3 0.494303 0.215124 0.657897
O O4 0.069914 0.875615 0.395549
O O5 0.340278 0.270867 0.143213
O O6 0.500000 0.500000 0.000000
O O7 0.078716 0.164493 0.949205
O O8 0.963392 0.374032 0.208258
O O9 0.658014 0.999975 0.188877
O O10 0.811883 0.047972 0.002303
O O11 0.547810 0.962787 0.879860
O O12 0.014998 0.401791 0.685065
O O13 0.813851 0.161242 0.778940
O O14 0.277508 0.544821 0.970141
O O15 0.373277 0.838877 0.537818
O O16 0.000000 0.500000 0.500000
O O17 0.705991 0.254017 0.848785
#
# Coordination Sequence:
#
# PCOD9068658 Si02
#       8
#     2   2   2   2   2   2   2   2
#     4  12  25  46  74 109 146 189 241 301 368 441
#     4  11  27  54  84 108 145 182 239 313 388 450
#     4  12  25  45  70 103 150 196 248 310 355 427
#     4  12  25  39  65 102 144 198 248 296 358 426
#     4  11  27  50  78 116 142 189 244 308 379 447
#     4  12  24  41  64 100 142 199 254 299 350 419
#     4  12  25  43  69 103 154 204 248 293 358 426
#     4  12  24  40  66 100 148 201 246 294 347 418
#
# _framework density 24.010421999999998
#
# number of rings (size 3 to 8) (size 9 to 14) (size 15 to 20)
#    0.000    0.250    5.000    3.750    1.750    0.500 
#    0.000    3.750    0.000    0.000    0.000    0.000 
#    0.000    0.000    0.000    0.000    0.000    0.000 
#
# Total GULP energy -89461.688972 kJ/mol
# GULP energy per Si atom -5591.355561 kJ/mol
# Density = 2.395577 g / cm^3
# Si number density = 24.010422 Si / 1000 Ang^3
#
#
#
# Elastic Constant Matrix: (Units=GPa)
#
#
# Indices 1 2 3 4 5 6 
#
# 1 92.7252 69.9492 49.7438 -13.4535 -21.7634 -28.3121
# 2 69.9492 173.5709 64.4970 -10.8274 -13.0050 -28.0356
# 3 49.7438 64.4970 141.4157 -1.6929 -14.3170 -22.2746
# 4 -13.4535 -10.8274 -1.6929 55.5884 -14.7124 -2.5553
# 5 -21.7634 -13.0050 -14.3170 -14.7124 45.5374 4.3987
# 6 -28.3121 -28.0356 -22.2746 -2.5553 4.3987 49.7755
#
#
#
# Elastic Compliance Matrix: (Units=1/GPa)
#
#
# Indices 1 2 3 4 5 6 
#
# 1 0.022121 -0.005368 -0.003059 0.007119 0.009633 0.007704
# 2 -0.005368 0.008813 -0.002032 0.000214 -0.000722 0.001076
# 3 -0.003059 -0.002032 0.009312 -0.000649 0.000560 0.001200
# 4 0.007119 0.000214 -0.000649 0.022615 0.010166 0.004142
# 5 0.009633 -0.000722 0.000560 0.010166 0.029505 0.003237
# 6 0.007704 0.001076 0.001200 0.004142 0.003237 0.025542
#
#
# Mechanical properties :
#
#
# Convention : Reuss Voigt Hill
#
# Bulk Modulus (GPa) = 51.73920 86.23243 68.98581
# Shear Modulus (GPa) = 34.41881 45.08171 39.75026
#
# Velocity S-wave (km/s) = 3.79026 4.33782 4.07325
# Velocity P-wave (km/s) = 6.38359 7.81546 7.13553
#
# Compressibility (1/GPa) = 0.01932771
#
# Stress axis : x y z
#
# Youngs Moduli (GPa) = 45.20524 113.47197 107.38675
#
# Poissons Ratio (x) = 0.60911 0.32851
# Poissons Ratio (y) = 0.24266 0.21824
# Poissons Ratio (z) = 0.13829 0.23060
#
# Static dielectric constant tensor:
#      x y z
#    x 1.960450 0.005760 -0.013620 
#    y 0.005760 1.971550 0.009950 
#    z -0.013620 0.009950 1.976690 
# 
# From -- ./inp_files/315461.got.cif
#   From: 2010.05.17/outbox.cif.g08.bks.cpg/sg2_158_cif.got.tgz:315461.got - 2010.06.03 11:33:40.
