data_PCOD9068562
_publ_section_title
;
Structure prediction by ZEFSAII (Michael W. Deem and Ramdas Pophale) SiO2 
 PCOD9068562
Probable space group: P -1
;
_chemical_formula_sum "Si O2"
_cell_formula_units_Z 12
_cell_length_a 5.417553
_cell_length_b 21.862011
_cell_length_c 5.259768
_cell_angle_alpha 57.446976
_cell_angle_beta 72.643150
_cell_angle_gamma 87.580813
_cell_volume 495.730056
_symmetry_space_group_name_H-M "P -1"
_symmetry_group_IT_number 2
_symmetry_cell_setting 'triclinic'
loop_
_space_group_symop_operation_xyz
x,y,z
-x,-y,-z
loop_
_atom_site_type_symbol
_atom_site_label
_atom_site_fract_x
_atom_site_fract_y
_atom_site_fract_z
Si Si1 0.698051 0.810764 0.600589
Si Si2 0.467114 0.334031 0.331305
Si Si3 0.708909 0.455773 0.666546
Si Si4 0.416492 0.952765 0.381090
Si Si5 0.004880 0.834958 0.943482
Si Si6 0.860478 0.312635 0.674947
O O1 0.600745 0.727724 0.727641
O O2 0.545983 0.879587 0.467299
O O3 0.772192 0.809389 0.876874
O O4 0.929828 0.833925 0.265728
O O5 0.705586 0.306565 0.470476
O O6 0.176228 0.333728 0.533877
O O7 0.575162 0.418387 0.044283
O O8 0.500000 0.500000 0.500000
O O9 0.749889 0.381055 0.677717
O O10 0.000000 0.500000 0.500000
O O11 0.122645 0.914412 0.621953
O O12 0.500000 0.000000 0.500000
O O13 0.500000 0.000000 0.000000
O O14 0.178740 0.769182 0.015122
#
# Coordination Sequence:
#
# PCOD9068562 Si02
#       6
#     2   2   2   2   2   2
#     4  11  27  46  76 107 147 199 256 314 377 452
#     4  11  27  46  76 107 147 199 256 314 377 452
#     4  12  27  44  74 108 156 194 248 314 384 460
#     4  12  27  44  74 108 156 194 248 314 384 460
#     4  11  27  46  76 107 147 199 256 314 377 452
#     4  11  27  46  76 107 147 199 256 314 377 452
#
# _framework density 24.206724000000001
#
# number of rings (size 3 to 8) (size 9 to 14) (size 15 to 20)
#    0.000    0.667    0.000    5.000   23.333    8.000 
#    0.000    0.000    0.000    0.000    0.000    0.000 
#    0.000    0.000    0.000    0.000    0.000    0.000 
#
# Total GULP energy -66959.630724 kJ/mol
# GULP energy per Si atom -5579.969227 kJ/mol
# Density = 2.415163 g / cm^3
# Si number density = 24.206724 Si / 1000 Ang^3
#
#
#
# Elastic Constant Matrix: (Units=GPa)
#
#
# Indices 1 2 3 4 5 6 
#
# 1 105.7869 2.6137 70.9912 -26.4250 0.2772 1.4865
# 2 2.6137 91.3742 25.7224 -25.0979 -17.4402 -7.5685
# 3 70.9912 25.7224 192.9473 -46.1160 -6.7259 6.5789
# 4 -26.4250 -25.0979 -46.1160 44.1626 -3.9808 -2.0813
# 5 0.2772 -17.4402 -6.7259 -3.9808 45.6103 -7.7822
# 6 1.4865 -7.5685 6.5789 -2.0813 -7.7822 50.4349
#
#
#
# Elastic Compliance Matrix: (Units=1/GPa)
#
#
# Indices 1 2 3 4 5 6 
#
# 1 0.013381 0.002450 -0.003962 0.005382 0.000886 0.000849
# 2 0.002450 0.015755 -0.000229 0.011053 0.007615 0.003953
# 3 -0.003962 -0.000229 0.008229 0.006214 0.001609 -0.000486
# 4 0.005382 0.011053 0.006214 0.039641 0.009209 0.003746
# 5 0.000886 0.007615 0.001609 0.009209 0.026797 0.005422
# 6 0.000849 0.003953 -0.000486 0.003746 0.005422 0.021450
#
#
# Mechanical properties :
#
#
# Convention : Reuss Voigt Hill
#
# Bulk Modulus (GPa) = 29.51283 65.41808 47.46546
# Shear Modulus (GPa) = 35.70646 47.42695 41.56671
#
# Velocity S-wave (km/s) = 3.84482 4.43114 4.14835
# Velocity P-wave (km/s) = 5.65055 7.29818 6.52657
#
# Compressibility (1/GPa) = 0.03388357
#
# Stress axis : x y z
#
# Youngs Moduli (GPa) = 74.73162 63.47055 121.52332
#
# Poissons Ratio (x) = -0.15552 0.48144
# Poissons Ratio (y) = -0.18311 0.02789
# Poissons Ratio (z) = 0.29606 0.01456
#
# Static dielectric constant tensor:
#      x y z
#    x 2.624240 -0.205750 -0.096730 
#    y -0.205750 2.006490 0.118830 
#    z -0.096730 0.118830 2.078320 
# 
# From -- ./inp_files/9128.got.cif
#   From: 2010.05.17/outbox.cif.g08.bks.cpg/sg2_5_cif.got.tgz:9128.got - 2010.06.03 11:33:40.
