data_PCOD9068499
_publ_section_title
;
Structure prediction by ZEFSAII (Michael W. Deem and Ramdas Pophale) SiO2 
 PCOD9068499
Probable space group: P -1
;
_chemical_formula_sum "Si O2"
_cell_formula_units_Z 16
_cell_length_a 18.010660
_cell_length_b 10.852996
_cell_length_c 5.160834
_cell_angle_alpha 118.498799
_cell_angle_beta 107.065534
_cell_angle_gamma 44.277480
_cell_volume 617.020695
_symmetry_space_group_name_H-M "P -1"
_symmetry_group_IT_number 2
_symmetry_cell_setting 'triclinic'
loop_
_space_group_symop_operation_xyz
x,y,z
-x,-y,-z
loop_
_atom_site_type_symbol
_atom_site_label
_atom_site_fract_x
_atom_site_fract_y
_atom_site_fract_z
Si Si1 0.402605 0.029250 0.328142
Si Si2 0.725043 0.367829 0.908428
Si Si3 0.415857 0.705517 0.252361
Si Si4 0.465528 0.272392 0.214121
Si Si5 0.912337 0.554236 0.752903
Si Si6 0.086712 0.176429 0.274097
Si Si7 0.894900 0.036307 0.413607
Si Si8 0.257946 0.431424 0.474803
O O1 0.397683 0.880073 0.287961
O O2 0.500000 0.000000 0.500000
O O3 0.299537 0.247770 0.501467
O O4 0.441099 0.949515 0.993475
O O5 0.690958 0.252862 0.830949
O O6 0.611644 0.583114 0.952251
O O7 0.796042 0.259252 0.615908
O O8 0.780351 0.395171 0.207593
O O9 0.468512 0.680065 0.554566
O O10 0.500000 0.500000 0.000000
O O11 0.370889 0.337518 0.369861
O O12 0.863131 0.751660 0.756288
O O13 0.827274 0.545744 0.767895
O O14 0.970829 0.388338 0.426373
O O15 0.000000 0.500000 0.000000
O O16 0.108441 0.081304 0.485117
O O17 0.100203 0.038341 0.938253
O O18 0.000000 0.000000 0.500000
#
# Coordination Sequence:
#
# PCOD9068499 Si02
#       8
#     2   2   2   2   2   2   2   2
#     4  12  24  47  69 112 153 199 253 318 386 468
#     4  12  28  46  76 112 151 208 263 314 407 466
#     4  12  24  46  71 107 159 193 253 326 380 471
#     4  12  24  44  75 106 154 204 251 317 392 468
#     4  11  26  52  81 114 158 206 264 341 401 476
#     4  11  26  52  78 111 158 199 260 332 408 458
#     4  12  28  49  79 117 156 204 267 334 392 485
#     4  12  27  46  78 109 148 208 262 317 396 485
#
# _framework density 25.931058
#
# number of rings (size 3 to 8) (size 9 to 14) (size 15 to 20)
#    0.000    0.250    6.250    1.875    5.250    3.000 
#    0.000    0.000    0.000    0.000    0.000    0.000 
#    0.000    0.000    0.000    0.000    0.000    0.000 
#
# Total GULP energy -89305.434244 kJ/mol
# GULP energy per Si atom -5581.589640 kJ/mol
# Density = 2.587204 g / cm^3
# Si number density = 25.931058 Si / 1000 Ang^3
#
#
#
# Elastic Constant Matrix: (Units=GPa)
#
#
# Indices 1 2 3 4 5 6 
#
# 1 118.7340 26.9462 49.0628 0.8047 33.4950 4.4005
# 2 26.9462 73.2101 26.6406 6.2572 10.6081 11.6294
# 3 49.0628 26.6406 190.6010 17.0883 19.1057 -11.8056
# 4 0.8047 6.2572 17.0883 47.9967 -2.0534 -3.2323
# 5 33.4950 10.6081 19.1057 -2.0534 49.5220 -4.3028
# 6 4.4005 11.6294 -11.8056 -3.2323 -4.3028 43.3884
#
#
#
# Elastic Compliance Matrix: (Units=1/GPa)
#
#
# Indices 1 2 3 4 5 6 
#
# 1 0.011840 -0.002326 -0.002196 0.000473 -0.006801 -0.001814
# 2 -0.002326 0.016312 -0.001633 -0.001913 -0.001796 -0.004901
# 3 -0.002196 -0.001633 0.006400 -0.001902 -0.000521 0.002208
# 4 0.000473 -0.001913 -0.001902 0.021953 0.001888 0.001770
# 5 -0.006801 -0.001796 -0.000521 0.001888 0.025781 0.003727
# 6 -0.001814 -0.004901 0.002208 0.001770 0.003727 0.025648
#
#
# Mechanical properties :
#
#
# Convention : Reuss Voigt Hill
#
# Bulk Modulus (GPa) = 44.96005 65.31603 55.13804
# Shear Modulus (GPa) = 39.16754 46.84111 43.00433
#
# Velocity S-wave (km/s) = 3.89067 4.25475 4.07678
# Velocity P-wave (km/s) = 6.12854 7.02711 6.59315
#
# Compressibility (1/GPa) = 0.02224197
#
# Stress axis : x y z
#
# Youngs Moduli (GPa) = 84.46072 61.30445 156.25940
#
# Poissons Ratio (x) = 0.14258 0.34310
# Poissons Ratio (y) = 0.19643 0.25522
# Poissons Ratio (z) = 0.18545 0.10013
#
# Static dielectric constant tensor:
#      x y z
#    x 2.254600 0.007150 0.039930 
#    y 0.007150 2.218500 -0.103560 
#    z 0.039930 -0.103560 2.121940 
# 
# From -- ./inp_files/109931.got.cif
#   From: 2010.05.17/outbox.cif.g08.bks.cpg/sg2_55_cif.got.tgz:109931.got - 2010.06.03 11:33:40.
