data_PCOD9068310
_publ_section_title
;
Structure prediction by ZEFSAII (Michael W. Deem and Ramdas Pophale) SiO2 
 PCOD9068310
Probable space group: P -1
;
_chemical_formula_sum "Si O2"
_cell_formula_units_Z 16
_cell_length_a 8.611244
_cell_length_b 11.762414
_cell_length_c 9.135434
_cell_angle_alpha 129.463509
_cell_angle_beta 75.115622
_cell_angle_gamma 96.101137
_cell_volume 688.387611
_symmetry_space_group_name_H-M "P -1"
_symmetry_group_IT_number 2
_symmetry_cell_setting 'triclinic'
loop_
_space_group_symop_operation_xyz
x,y,z
-x,-y,-z
loop_
_atom_site_type_symbol
_atom_site_label
_atom_site_fract_x
_atom_site_fract_y
_atom_site_fract_z
Si Si1 0.656560 0.492690 0.752711
Si Si2 0.896256 0.861119 0.882322
Si Si3 0.376630 0.725984 0.932509
Si Si4 0.137958 0.591443 0.110690
Si Si5 0.571192 0.933670 0.197649
Si Si6 0.440580 0.222171 0.612615
Si Si7 0.128943 0.281313 0.537613
Si Si8 0.160947 0.604976 0.656673
O O1 0.546522 0.630187 0.830462
O O2 0.749483 0.513794 0.897807
O O3 0.532958 0.369215 0.711514
O O4 0.785136 0.434529 0.552825
O O5 0.864582 0.826627 0.691272
O O6 0.999629 0.712640 0.790271
O O7 0.732999 0.895491 0.038376
O O8 0.000000 0.000000 0.000000
O O9 0.300830 0.693650 0.768918
O O10 0.248598 0.665846 0.027808
O O11 0.420781 0.887963 0.098678
O O12 0.042672 0.714288 0.335582
O O13 0.000000 0.500000 0.000000
O O14 0.571409 0.840263 0.271956
O O15 0.545951 0.101443 0.392411
O O16 0.269858 0.245821 0.591705
O O17 0.147825 0.448752 0.612467
#
# Coordination Sequence:
#
# PCOD9068310 Si02
#       8
#     2   2   2   2   2   2   2   2
#     4  12  24  46  72 102 148 183 239 298 354 424
#     4  12  29  50  72 104 150 192 236 294 364 431
#     4  12  26  41  73 109 135 191 239 294 356 421
#     4  12  25  43  71 107 147 184 235 300 358 421
#     4  11  28  48  73 103 145 191 236 295 357 434
#     4  11  26  49  72 105 143 190 242 294 357 422
#     4  12  27  46  73 107 143 191 240 302 354 424
#     4  12  26  46  71 109 143 187 240 297 363 420
#
# _framework density 23.242718
#
# number of rings (size 3 to 8) (size 9 to 14) (size 15 to 20)
#    0.000    0.250    5.000    2.625    8.750    0.500 
#    0.000    1.250    0.000    0.000    0.000    0.000 
#    0.000    0.000    0.000    0.000    0.000    0.000 
#
# Total GULP energy -89732.487547 kJ/mol
# GULP energy per Si atom -5608.280472 kJ/mol
# Density = 2.318982 g / cm^3
# Si number density = 23.242718 Si / 1000 Ang^3
#
#
#
# Elastic Constant Matrix: (Units=GPa)
#
#
# Indices 1 2 3 4 5 6 
#
# 1 105.9010 4.9786 43.9013 7.5192 12.2759 -0.2546
# 2 4.9786 36.8280 15.5049 3.9299 0.9889 6.6082
# 3 43.9013 15.5049 136.4764 -3.1933 -2.5660 10.4395
# 4 7.5192 3.9299 -3.1933 20.4731 1.6275 -4.9493
# 5 12.2759 0.9889 -2.5660 1.6275 65.2139 -3.1554
# 6 -0.2546 6.6082 10.4395 -4.9493 -3.1554 42.1878
#
#
#
# Elastic Compliance Matrix: (Units=1/GPa)
#
#
# Indices 1 2 3 4 5 6 
#
# 1 0.011670 0.000636 -0.003998 -0.004799 -0.002233 0.000230
# 2 0.000636 0.030233 -0.003464 -0.007686 -0.000757 -0.004833
# 3 -0.003998 -0.003464 0.009201 0.003170 0.001025 -0.001310
# 4 -0.004799 -0.007686 0.003170 0.054201 0.000119 0.006758
# 5 -0.002233 -0.000757 0.001025 0.000119 0.015854 0.001051
# 6 0.000230 -0.004833 -0.001310 0.006758 0.001051 0.025658
#
#
# Mechanical properties :
#
#
# Convention : Reuss Voigt Hill
#
# Bulk Modulus (GPa) = 26.70028 45.33055 36.01542
# Shear Modulus (GPa) = 28.90962 39.89634 34.40298
#
# Velocity S-wave (km/s) = 3.53060 4.14757 3.85146
# Velocity P-wave (km/s) = 5.30403 6.51782 5.94200
#
# Compressibility (1/GPa) = 0.03745279
#
# Stress axis : x y z
#
# Youngs Moduli (GPa) = 85.68624 33.07625 108.68879
#
# Poissons Ratio (x) = -0.02105 0.43457
# Poissons Ratio (y) = -0.05453 0.37648
# Poissons Ratio (z) = 0.34260 0.11457
#
# Static dielectric constant tensor:
#      x y z
#    x 1.838620 -0.013530 0.003730 
#    y -0.013530 1.869610 0.009060 
#    z 0.003730 0.009060 1.889480 
# 
# From -- ./inp_files/186822.got.cif
#   From: 2010.05.17/outbox.cif.g08.bks.cpg/sg2_94_cif.got.tgz:186822.got - 2010.06.03 11:33:40.
