data_PCOD9068166
_publ_section_title
;
Structure prediction by ZEFSAII (Michael W. Deem and Ramdas Pophale) SiO2 
 PCOD9068166
Probable space group: P -1
;
_chemical_formula_sum "Si O2"
_cell_formula_units_Z 16
_cell_length_a 17.513141
_cell_length_b 24.212712
_cell_length_c 13.924296
_cell_angle_alpha 30.243644
_cell_angle_beta 21.898946
_cell_angle_gamma 19.478130
_cell_volume 731.514878
_symmetry_space_group_name_H-M "P -1"
_symmetry_group_IT_number 2
_symmetry_cell_setting 'triclinic'
loop_
_space_group_symop_operation_xyz
x,y,z
-x,-y,-z
loop_
_atom_site_type_symbol
_atom_site_label
_atom_site_fract_x
_atom_site_fract_y
_atom_site_fract_z
Si Si1 0.716905 0.356433 0.043179
Si Si2 0.650397 0.964713 0.712774
Si Si3 0.127973 0.829132 0.201761
Si Si4 0.652748 0.135625 0.744796
Si Si5 0.751834 0.454238 0.051367
Si Si6 0.809912 0.942934 0.199789
Si Si7 0.743532 0.317024 0.446796
Si Si8 0.354051 0.301416 0.644734
O O1 0.810272 0.401957 0.950783
O O2 0.524519 0.337883 0.348160
O O3 0.500000 0.500000 0.000000
O O4 0.012424 0.183864 0.905652
O O5 0.816414 0.927904 0.475267
O O6 0.931211 0.815589 0.679097
O O7 0.491454 0.136447 0.682924
O O8 0.422119 0.953699 0.993212
O O9 0.401636 0.636149 0.197566
O O10 0.045383 0.847737 0.158731
O O11 0.240519 0.906473 0.980099
O O12 0.623309 0.241276 0.700158
O O13 0.423120 0.259226 0.739857
O O14 0.000000 0.000000 0.500000
O O15 0.795045 0.333038 0.252733
O O16 0.993200 0.446387 0.820904
O O17 0.500000 0.000000 0.500000
O O18 0.500000 0.500000 0.500000
#
# Coordination Sequence:
#
# PCOD9068166 Si02
#       8
#     2   2   2   2   2   2   2   2
#     4  12  27  48  72 108 140 184 245 299 362 427
#     4  12  25  45  73 107 147 194 238 292 367 430
#     4  11  26  48  70 105 146 184 239 299 359 432
#     4  12  25  44  74 104 144 193 246 289 352 439
#     4  12  26  45  72 103 146 186 238 298 358 426
#     4  11  27  49  75 103 140 189 242 296 364 429
#     4  12  25  45  68 109 149 186 237 299 354 427
#     4  12  26  44  74 105 144 191 241 297 359 425
#
# _framework density 21.872418
#
# number of rings (size 3 to 8) (size 9 to 14) (size 15 to 20)
#    0.000    0.250    7.500    1.125    3.500    2.000 
#    2.250    0.000    0.000    0.000    0.000    0.000 
#    0.000    0.000    0.000    0.000    0.000    0.000 
#
# Total GULP energy -89605.549691 kJ/mol
# GULP energy per Si atom -5600.346856 kJ/mol
# Density = 2.182264 g / cm^3
# Si number density = 21.872418 Si / 1000 Ang^3
#
#
#
# Elastic Constant Matrix: (Units=GPa)
#
#
# Indices 1 2 3 4 5 6 
#
# 1 71.9857 3.3141 4.4299 0.5550 -2.2700 3.3220
# 2 3.3141 55.3174 -3.9978 -4.5702 -6.8301 7.0115
# 3 4.4299 -3.9978 111.7335 -16.6316 -11.0971 11.8813
# 4 0.5550 -4.5702 -16.6316 33.1616 -2.1115 2.7858
# 5 -2.2700 -6.8301 -11.0971 -2.1115 31.6322 -5.7124
# 6 3.3220 7.0115 11.8813 2.7858 -5.7124 35.0620
#
#
#
# Elastic Compliance Matrix: (Units=1/GPa)
#
#
# Indices 1 2 3 4 5 6 
#
# 1 0.014017 -0.000747 -0.000514 -0.000491 0.000471 -0.000889
# 2 -0.000747 0.019773 0.002324 0.004554 0.004561 -0.004290
# 3 -0.000514 0.002324 0.010809 0.006333 0.003969 -0.003935
# 4 -0.000491 0.004554 0.006333 0.034681 0.004578 -0.005020
# 5 0.000471 0.004561 0.003969 0.004578 0.034875 0.003017
# 6 -0.000889 -0.004290 -0.003935 -0.005020 0.003017 0.031687
#
#
# Mechanical properties :
#
#
# Convention : Reuss Voigt Hill
#
# Bulk Modulus (GPa) = 21.40158 27.39211 24.39685
# Shear Modulus (GPa) = 31.38925 35.65719 33.52322
#
# Velocity S-wave (km/s) = 3.79239 4.04200 3.91918
# Velocity P-wave (km/s) = 5.38352 5.85956 5.62658
#
# Compressibility (1/GPa) = 0.04672552
#
# Stress axis : x y z
#
# Youngs Moduli (GPa) = 71.34033 50.57347 92.51779
#
# Poissons Ratio (x) = 0.03776 0.04757
# Poissons Ratio (y) = 0.05327 -0.21501
# Poissons Ratio (z) = 0.03668 -0.11753
#
# Static dielectric constant tensor:
#      x y z
#    x 1.807980 0.001330 -0.001570 
#    y 0.001330 1.775230 -0.000210 
#    z -0.001570 -0.000210 1.805380 
# 
# From -- ./inp_files/47427.got.cif
#   From: 2010.05.17/outbox.cif.g08.bks.cpg/sg2_24_cif.got.tgz:47427.got - 2010.06.03 11:33:40.
