data_PCOD9068331
_publ_section_title
;
Structure prediction by ZEFSAII (Michael W. Deem and Ramdas Pophale) SiO2 
 PCOD9068331
Probable space group: P -1
;
_chemical_formula_sum "Si O2"
_cell_formula_units_Z 16
_cell_length_a 5.334827
_cell_length_b 14.481490
_cell_length_c 11.097546
_cell_angle_alpha 49.265184
_cell_angle_beta 97.925957
_cell_angle_gamma 88.785651
_cell_volume 636.344997
_symmetry_space_group_name_H-M "P -1"
_symmetry_group_IT_number 2
_symmetry_cell_setting 'triclinic'
loop_
_space_group_symop_operation_xyz
x,y,z
-x,-y,-z
loop_
_atom_site_type_symbol
_atom_site_label
_atom_site_fract_x
_atom_site_fract_y
_atom_site_fract_z
Si Si1 0.342817 0.679576 0.574174
Si Si2 0.924694 0.365241 0.601757
Si Si3 0.383038 0.596158 0.236484
Si Si4 0.501754 0.714425 0.828884
Si Si5 0.666283 0.823066 0.083252
Si Si6 0.938178 0.390761 0.004870
Si Si7 0.485729 0.921092 0.249370
Si Si8 0.274831 0.982113 0.596748
O O1 0.063361 0.668850 0.510153
O O2 0.477193 0.540914 0.667678
O O3 0.420123 0.700891 0.696556
O O4 0.384964 0.804236 0.401900
O O5 0.657201 0.383033 0.641270
O O6 0.000000 0.500000 0.500000
O O7 0.077219 0.254434 0.781876
O O8 0.516906 0.716050 0.110662
O O9 0.108390 0.598583 0.149432
O O10 0.805717 0.706448 0.871836
O O11 0.345827 0.840879 0.755996
O O12 0.354002 0.617427 0.968908
O O13 0.543970 0.879848 0.151639
O O14 0.678190 0.940585 0.896289
O O15 0.000000 0.500000 0.000000
O O16 0.705214 0.943276 0.342033
O O17 0.500000 0.000000 0.500000
O O18 0.000000 0.000000 0.500000
#
# Coordination Sequence:
#
# PCOD9068331 Si02
#       8
#     2   2   2   2   2   2   2   2
#     4  12  25  47  77 111 151 195 261 316 385 464
#     4  12  26  43  79 109 149 197 254 319 387 456
#     4  12  26  47  75 110 152 196 254 320 386 464
#     4  12  28  50  76 114 154 206 256 324 390 460
#     4  11  26  49  74 106 149 201 250 318 389 451
#     4  12  28  47  77 113 157 201 260 318 393 466
#     4  11  26  50  72 107 153 196 259 316 381 465
#     4  12  27  49  77 110 152 207 258 317 384 460
#
# _framework density 25.143592000000002
#
# number of rings (size 3 to 8) (size 9 to 14) (size 15 to 20)
#    0.000    0.250    5.000    3.000    7.000    0.500 
#    0.000    0.000    0.000    0.000    0.000    0.000 
#    0.000    0.000    0.000    0.000    0.000    0.000 
#
# Total GULP energy -89202.399660 kJ/mol
# GULP energy per Si atom -5575.149979 kJ/mol
# Density = 2.508636 g / cm^3
# Si number density = 25.143592 Si / 1000 Ang^3
#
#
#
# Elastic Constant Matrix: (Units=GPa)
#
#
# Indices 1 2 3 4 5 6 
#
# 1 60.3309 19.8437 36.0750 -3.4495 11.1660 8.2870
# 2 19.8437 153.0726 47.3555 -2.2452 13.7131 29.5834
# 3 36.0750 47.3555 157.5478 -6.5499 11.5278 9.1325
# 4 -3.4495 -2.2452 -6.5499 62.0477 10.3554 11.6668
# 5 11.1660 13.7131 11.5278 10.3554 44.2857 4.5516
# 6 8.2870 29.5834 9.1325 11.6668 4.5516 31.4782
#
#
#
# Elastic Compliance Matrix: (Units=1/GPa)
#
#
# Indices 1 2 3 4 5 6 
#
# 1 0.020509 -0.000192 -0.003995 0.002208 -0.004148 -0.004279
# 2 -0.000192 0.008950 -0.001952 0.001965 -0.001825 -0.008259
# 3 -0.003995 -0.001952 0.007889 0.000553 -0.000621 0.000483
# 4 0.002208 0.001965 0.000553 0.018839 -0.004802 -0.008876
# 5 -0.004148 -0.001825 -0.000621 -0.004802 0.025363 0.001100
# 6 -0.004279 -0.008259 0.000483 -0.008876 0.001100 0.043647
#
#
# Mechanical properties :
#
#
# Convention : Reuss Voigt Hill
#
# Bulk Modulus (GPa) = 39.88841 64.16665 52.02753
# Shear Modulus (GPa) = 34.28583 45.40745 39.84664
#
# Velocity S-wave (km/s) = 3.69670 4.25423 3.98523
# Velocity P-wave (km/s) = 5.84119 7.05030 6.47404
#
# Compressibility (1/GPa) = 0.02506994
#
# Stress axis : x y z
#
# Youngs Moduli (GPa) = 48.75918 111.72981 126.75351
#
# Poissons Ratio (x) = 0.02143 0.50639
# Poissons Ratio (y) = 0.00935 0.24746
# Poissons Ratio (z) = 0.19480 0.21813
#
# Static dielectric constant tensor:
#      x y z
#    x 2.311980 0.186780 -0.035140 
#    y 0.186780 2.156410 -0.014330 
#    z -0.035140 -0.014330 2.156220 
# 
# From -- ./inp_files/367533.got.cif
#   From: 2010.05.17/outbox.cif.g08.bks.cpg/sg2_184_cif.got.tgz:367533.got - 2010.06.03 11:33:40.
