data_PCOD9068046
_publ_section_title
;
Structure prediction by ZEFSAII (Michael W. Deem and Ramdas Pophale) SiO2 
 PCOD9068046
Probable space group: P -1
;
_chemical_formula_sum "Si O2"
_cell_formula_units_Z 12
_cell_length_a 4.828409
_cell_length_b 14.333617
_cell_length_c 15.370564
_cell_angle_alpha 151.490365
_cell_angle_beta 80.642280
_cell_angle_gamma 109.284300
_cell_volume 459.630660
_symmetry_space_group_name_H-M "P -1"
_symmetry_group_IT_number 2
_symmetry_cell_setting 'triclinic'
loop_
_space_group_symop_operation_xyz
x,y,z
-x,-y,-z
loop_
_atom_site_type_symbol
_atom_site_label
_atom_site_fract_x
_atom_site_fract_y
_atom_site_fract_z
Si Si1 0.731942 0.136624 0.700240
Si Si2 0.270686 0.324830 0.696740
Si Si3 0.552406 0.547360 0.396594
Si Si4 0.939883 0.942702 0.812296
Si Si5 0.136954 0.735329 0.789085
Si Si6 0.752098 0.742590 0.095317
O O1 0.951442 0.254722 0.706333
O O2 0.932437 0.233031 0.855877
O O3 0.421892 0.169673 0.754127
O O4 0.669703 0.888996 0.494773
O O5 0.281325 0.419655 0.677821
O O6 0.531892 0.506548 0.886669
O O7 0.189513 0.456289 0.329550
O O8 0.695166 0.767024 0.620610
O O9 0.618845 0.367755 0.299173
O O10 0.093962 0.828320 0.775095
O O11 0.179328 0.109392 0.871549
O O12 0.810823 0.080745 0.992171
#
# Coordination Sequence:
#
# PCOD9068046 Si02
#       6
#     2   2   2   2   2   2
#     4  11  28  47  71 103 140 183 232 284 341 415
#     4  11  26  47  73 103 140 184 230 284 347 406
#     4  12  26  45  73 102 141 180 233 284 343 410
#     4  11  26  47  73 103 140 184 230 284 347 406
#     4  11  28  47  71 103 140 183 232 284 341 415
#     4  12  26  45  73 102 141 180 233 284 343 410
#
# _framework density 26.107918000000002
#
# number of rings (size 3 to 8) (size 9 to 14) (size 15 to 20)
#    0.000    0.667    3.333    2.000    4.667   10.667 
#    0.000    0.000    0.000    0.000    0.000    0.000 
#    0.000    0.000    0.000    0.000    0.000    0.000 
#
# Total GULP energy -67492.302233 kJ/mol
# GULP energy per Si atom -5624.358519 kJ/mol
# Density = 2.604850 g / cm^3
# Si number density = 26.107918 Si / 1000 Ang^3
#
#
#
# Elastic Constant Matrix: (Units=GPa)
#
#
# Indices 1 2 3 4 5 6 
#
# 1 72.4177 4.9230 21.2938 6.6707 1.2587 -2.5794
# 2 4.9230 154.5965 -1.8942 3.1899 -0.4164 12.3720
# 3 21.2938 -1.8942 149.7517 17.8116 14.1646 3.5960
# 4 6.6707 3.1899 17.8116 44.2206 -0.5549 5.6093
# 5 1.2587 -0.4164 14.1646 -0.5549 35.1917 -1.4846
# 6 -2.5794 12.3720 3.5960 5.6093 -1.4846 22.4643
#
#
#
# Elastic Compliance Matrix: (Units=1/GPa)
#
#
# Indices 1 2 3 4 5 6 
#
# 1 0.014695 -0.000683 -0.001996 -0.001719 0.000362 0.002836
# 2 -0.000683 0.006804 0.000295 -0.000017 -0.000178 -0.003881
# 3 -0.001996 0.000295 0.007602 -0.002676 -0.003075 -0.001144
# 4 -0.001719 -0.000017 -0.002676 0.024710 0.001281 -0.005845
# 5 0.000362 -0.000178 -0.003075 0.001281 0.029755 0.002278
# 6 0.002836 -0.003881 -0.001144 -0.005845 0.002278 0.048771
#
#
# Mechanical properties :
#
#
# Convention : Reuss Voigt Hill
#
# Bulk Modulus (GPa) = 41.09569 47.26790 44.18179
# Shear Modulus (GPa) = 34.43151 43.87154 39.15152
#
# Velocity S-wave (km/s) = 3.63549 4.10371 3.87667
# Velocity P-wave (km/s) = 5.77903 6.37165 6.08257
#
# Compressibility (1/GPa) = 0.02433345
#
# Stress axis : x y z
#
# Youngs Moduli (GPa) = 68.04951 146.96729 131.54626
#
# Poissons Ratio (x) = 0.10037 0.26259
# Poissons Ratio (y) = 0.04647 -0.03883
# Poissons Ratio (z) = 0.13584 -0.04338
#
# Static dielectric constant tensor:
#      x y z
#    x 1.963670 -0.001410 0.009840 
#    y -0.001410 2.046360 -0.016880 
#    z 0.009840 -0.016880 1.983620 
# 
# From -- ./inp_files/483433.got.cif
#   From: 2010.05.17/outbox.cif.g08.bks.cpg/sg2_242_cif.got.tgz:483433.got - 2010.06.03 11:33:40.
