data_PCOD9068902
_publ_section_title
;
Structure prediction by ZEFSAII (Michael W. Deem and Ramdas Pophale) SiO2 
 PCOD9068902
Probable space group: P -1
;
_chemical_formula_sum "Si O2"
_cell_formula_units_Z 14
_cell_length_a 24.538316
_cell_length_b 8.906443
_cell_length_c 25.700166
_cell_angle_alpha 148.730423
_cell_angle_beta 11.564010
_cell_angle_gamma 146.707081
_cell_volume 584.378989
_symmetry_space_group_name_H-M "P -1"
_symmetry_group_IT_number 2
_symmetry_cell_setting 'triclinic'
loop_
_space_group_symop_operation_xyz
x,y,z
-x,-y,-z
loop_
_atom_site_type_symbol
_atom_site_label
_atom_site_fract_x
_atom_site_fract_y
_atom_site_fract_z
Si Si1 0.551468 0.619648 0.100435
Si Si2 0.472329 0.437650 0.312343
Si Si3 0.291487 0.190322 0.505836
Si Si4 0.948948 0.820716 0.941040
Si Si5 0.940463 0.704031 0.498369
Si Si6 0.194678 0.599175 0.802797
Si Si7 0.252530 0.846887 0.350164
O O1 0.449489 0.645211 0.142173
O O2 0.369952 0.389339 0.232683
O O3 0.459262 0.934144 0.300411
O O4 0.866407 0.537690 0.781219
O O5 0.500417 0.366788 0.326784
O O6 0.718168 0.589582 0.100045
O O7 0.405518 0.115301 0.258633
O O8 0.212365 0.656464 0.622491
O O9 0.129739 0.409792 0.756656
O O10 0.106846 0.022106 0.586370
O O11 0.842385 0.066343 0.074930
O O12 0.000000 0.000000 0.000000
O O13 0.054473 0.720199 0.455753
O O14 0.000000 0.000000 0.500000
O O15 0.500000 0.500000 0.500000
O O16 0.000000 0.500000 0.000000
#
# Coordination Sequence:
#
# PCOD9068902 Si02
#       7
#     2   2   2   2   2   2   2
#     4   9  23  41  68  87 130 175 211 250 316 396
#     4   9  22  37  65  96 118 166 218 264 302 374
#     4   8  22  44  65  93 129 169 225 256 319 389
#     4  12  21  41  68  88 127 166 218 262 320 378
#     4  12  22  41  64 103 131 161 209 268 323 372
#     4  12  27  43  63  95 131 169 216 273 325 375
#     4   8  21  42  68  91 132 167 221 250 313 395
#
# _framework density 23.957056000000001
#
# number of rings (size 3 to 8) (size 9 to 14) (size 15 to 20)
#    1.714    0.000    1.429    2.571    2.000    6.857 
#    7.714    0.000    0.000    0.000    0.000    0.000 
#    0.000    0.000    0.000    0.000    0.000    0.000 
#
# Total GULP energy -78128.469624 kJ/mol
# GULP energy per Si atom -5580.604973 kJ/mol
# Density = 2.390253 g / cm^3
# Si number density = 23.957056 Si / 1000 Ang^3
#
#
#
# Elastic Constant Matrix: (Units=GPa)
#
#
# Indices 1 2 3 4 5 6 
#
# 1 35.6989 5.5945 4.2151 -11.0735 -1.5455 -6.7768
# 2 5.5945 112.2563 33.7643 -0.1213 -1.0373 -28.7674
# 3 4.2151 33.7643 104.0642 -11.1089 -8.2415 0.0410
# 4 -11.0735 -0.1213 -11.1089 33.9558 -8.2962 -2.6499
# 5 -1.5455 -1.0373 -8.2415 -8.2962 22.1300 5.5282
# 6 -6.7768 -28.7674 0.0410 -2.6499 5.5282 28.7741
#
#
#
# Elastic Compliance Matrix: (Units=1/GPa)
#
#
# Indices 1 2 3 4 5 6 
#
# 1 0.033830 0.000525 0.000265 0.013074 0.005215 0.008694
# 2 0.000525 0.014402 -0.005344 -0.001734 -0.005797 0.015484
# 3 0.000265 -0.005344 0.012590 0.005688 0.008174 -0.006345
# 4 0.013074 -0.001734 0.005688 0.039979 0.017525 0.001652
# 5 0.005215 -0.005797 0.008174 0.017525 0.058439 -0.014192
# 6 0.008694 0.015484 -0.006345 0.001652 -0.014192 0.055169
#
#
# Mechanical properties :
#
#
# Convention : Reuss Voigt Hill
#
# Bulk Modulus (GPa) = 19.33791 37.68525 28.51158
# Shear Modulus (GPa) = 20.76784 30.86835 25.81809
#
# Velocity S-wave (km/s) = 2.94747 3.59344 3.28637
# Velocity P-wave (km/s) = 4.43541 5.74296 5.13101
#
# Compressibility (1/GPa) = 0.05171190
#
# Stress axis : x y z
#
# Youngs Moduli (GPa) = 29.55950 69.43453 79.42928
#
# Poissons Ratio (x) = -0.03642 -0.02103
# Poissons Ratio (y) = -0.01551 0.42450
# Poissons Ratio (z) = -0.00783 0.37108
#
# Static dielectric constant tensor:
#      x y z
#    x 2.062900 0.047360 -0.023030 
#    y 0.047360 1.956200 0.016040 
#    z -0.023030 0.016040 1.876710 
# 
# From -- ./inp_files/624362.got.cif
#   From: 2010.05.17/outbox.cif.g08.bks.cpg/sg2_313_cif.got.tgz:624362.got - 2010.06.03 11:33:40.
