data_PCOD9068603
_publ_section_title
;
Structure prediction by ZEFSAII (Michael W. Deem and Ramdas Pophale) SiO2 
 PCOD9068603
Probable space group: P -1
;
_chemical_formula_sum "Si O2"
_cell_formula_units_Z 15
_cell_length_a 20.438354
_cell_length_b 8.089466
_cell_length_c 8.646788
_cell_angle_alpha 99.571505
_cell_angle_beta 36.559636
_cell_angle_gamma 123.984846
_cell_volume 578.994226
_symmetry_space_group_name_H-M "P -1"
_symmetry_group_IT_number 2
_symmetry_cell_setting 'triclinic'
loop_
_space_group_symop_operation_xyz
x,y,z
-x,-y,-z
loop_
_atom_site_type_symbol
_atom_site_label
_atom_site_fract_x
_atom_site_fract_y
_atom_site_fract_z
Si Si1 0.500000 0.000000 0.000000
Si Si2 0.887047 0.285048 0.802935
Si Si3 0.035589 0.397087 0.039030
Si Si4 0.752266 0.623747 0.246042
Si Si5 0.286442 0.132909 0.446489
Si Si6 0.872397 0.715675 0.688835
Si Si7 0.449075 0.064692 0.748216
Si Si8 0.360739 0.549758 0.173985
O O1 0.550946 0.029315 0.101607
O O2 0.328650 0.704114 0.311083
O O3 0.000000 0.500000 0.500000
O O4 0.855927 0.380757 0.011684
O O5 0.015774 0.292810 0.614671
O O6 0.724812 0.056777 0.990187
O O7 0.860233 0.134034 0.379918
O O8 0.000000 0.500000 0.000000
O O9 0.129153 0.324281 0.842623
O O10 0.751526 0.822765 0.309352
O O11 0.575264 0.356187 0.562985
O O12 0.814695 0.635305 0.962257
O O13 0.332008 0.347062 0.291310
O O14 0.445701 0.195367 0.165872
O O15 0.718747 0.575364 0.856457
O O16 0.000000 0.000000 0.500000
O O17 0.500000 0.000000 0.500000
#
# Coordination Sequence:
#
# PCOD9068603 Si02
#       8
#     1   2   2   2   2   2   2   2
#     4  12  26  46  86 110 158 206 266 336 394 484
#     4  12  27  49  76 110 157 204 260 332 397 470
#     4  12  29  46  76 112 152 205 265 323 398 474
#     4  12  26  52  74 113 158 205 263 336 399 480
#     4  11  28  48  76 111 157 203 260 338 394 482
#     4  12  29  50  77 111 160 208 256 337 411 481
#     4  12  26  50  80 118 159 205 273 333 394 480
#     4  11  27  48  77 115 149 208 268 318 409 477
#
# _framework density 25.906994000000001
#
# number of rings (size 3 to 8) (size 9 to 14) (size 15 to 20)
#    0.000    0.267    4.000    2.800   11.200    1.600 
#    0.000    0.000    0.000    0.000    0.000    0.000 
#    0.000    0.000    0.000    0.000    0.000    0.000 
#
# Total GULP energy -83599.712273 kJ/mol
# GULP energy per Si atom -5573.314152 kJ/mol
# Density = 2.584803 g / cm^3
# Si number density = 25.906994 Si / 1000 Ang^3
#
#
#
# Elastic Constant Matrix: (Units=GPa)
#
#
# Indices 1 2 3 4 5 6 
#
# 1 114.6239 26.0535 47.7468 -10.8117 0.8328 32.5521
# 2 26.0535 89.5440 18.2030 -13.6436 -4.2404 17.3589
# 3 47.7468 18.2030 117.4713 -20.0696 -20.6669 6.2975
# 4 -10.8117 -13.6436 -20.0696 70.3371 -2.6018 -1.6214
# 5 0.8328 -4.2404 -20.6669 -2.6018 45.1239 -5.9725
# 6 32.5521 17.3589 6.2975 -1.6214 -5.9725 26.6522
#
#
#
# Elastic Compliance Matrix: (Units=1/GPa)
#
#
# Indices 1 2 3 4 5 6 
#
# 1 0.017971 0.000170 -0.007322 -0.000039 -0.006557 -0.021801
# 2 0.000170 0.013345 -0.001409 0.002001 -0.000409 -0.008536
# 3 -0.007322 -0.001409 0.012997 0.002776 0.007252 0.008584
# 4 -0.000039 0.002001 0.002776 0.015466 0.002291 -0.000457
# 5 -0.006557 -0.000409 0.007252 0.002291 0.027397 0.012840
# 6 -0.021801 -0.008536 0.008584 -0.000457 0.012840 0.070528
#
#
# Mechanical properties :
#
#
# Convention : Reuss Voigt Hill
#
# Bulk Modulus (GPa) = 36.77944 56.18286 46.48115
# Shear Modulus (GPa) = 27.19000 43.73170 35.46085
#
# Velocity S-wave (km/s) = 3.24315 4.11302 3.70371
# Velocity P-wave (km/s) = 5.31522 6.65502 6.02250
#
# Compressibility (1/GPa) = 0.02718911
#
# Stress axis : x y z
#
# Youngs Moduli (GPa) = 55.64506 74.93408 76.94012
#
# Poissons Ratio (x) = -0.01271 0.56338
# Poissons Ratio (y) = -0.00944 0.10844
# Poissons Ratio (z) = 0.40745 0.10561
#
# Static dielectric constant tensor:
#      x y z
#    x 1.992420 0.258610 0.192050 
#    y 0.258610 1.333630 -0.233200 
#    z 0.192050 -0.233200 1.967250 
# 
# From -- ./inp_files/343618.got.cif
#   From: 2010.05.17/outbox.cif.g08.bks.cpg/sg2_172_cif.got.tgz:343618.got - 2010.06.03 11:33:40.
