data_PCOD9068162
_publ_section_title
;
Structure prediction by ZEFSAII (Michael W. Deem and Ramdas Pophale) SiO2 
 PCOD9068162
Probable space group: P -1
;
_chemical_formula_sum "Si O2"
_cell_formula_units_Z 16
_cell_length_a 10.739772
_cell_length_b 10.073613
_cell_length_c 10.318075
_cell_angle_alpha 66.137774
_cell_angle_beta 53.862842
_cell_angle_gamma 46.904253
_cell_volume 658.305222
_symmetry_space_group_name_H-M "P -1"
_symmetry_group_IT_number 2
_symmetry_cell_setting 'triclinic'
loop_
_space_group_symop_operation_xyz
x,y,z
-x,-y,-z
loop_
_atom_site_type_symbol
_atom_site_label
_atom_site_fract_x
_atom_site_fract_y
_atom_site_fract_z
Si Si1 0.191808 0.436580 0.987886
Si Si2 0.779597 0.302733 0.289279
Si Si3 0.461576 0.269814 0.434581
Si Si4 0.173103 0.656739 0.467759
Si Si5 0.221853 0.194217 0.274780
Si Si6 0.371661 0.045353 0.736681
Si Si7 0.359596 0.843206 0.179222
Si Si8 0.892184 0.989181 0.949790
O O1 0.222657 0.588972 0.875842
O O2 0.414046 0.260399 0.888968
O O3 0.168836 0.376245 0.166995
O O4 0.000000 0.500000 0.000000
O O5 0.590366 0.313657 0.413390
O O6 0.811655 0.371911 0.373925
O O7 0.956705 0.098851 0.225294
O O8 0.295184 0.463009 0.398152
O O9 0.606577 0.099230 0.321186
O O10 0.365168 0.202436 0.608568
O O11 0.267753 0.759156 0.343894
O O12 0.945862 0.766484 0.541970
O O13 0.425638 0.081783 0.264524
O O14 0.255672 0.051541 0.201362
O O15 0.186701 0.120461 0.907796
O O16 0.303992 0.839313 0.064845
O O17 0.000000 0.000000 0.000000
#
# Coordination Sequence:
#
# PCOD9068162 Si02
#       8
#     2   2   2   2   2   2   2   2
#     4  12  25  43  69 110 145 187 234 303 366 423
#     4  12  25  45  72 109 141 191 244 296 371 426
#     4  11  26  48  70 102 149 191 246 294 366 435
#     4  12  26  45  72 107 144 192 240 310 360 428
#     4  12  26  42  71 106 146 186 245 297 365 431
#     4  11  27  47  72 104 144 198 239 302 360 441
#     4  12  26  46  73 109 147 187 246 304 359 438
#     4  12  26  48  75 105 147 193 242 297 369 439
#
# _framework density 24.304835000000001
#
# number of rings (size 3 to 8) (size 9 to 14) (size 15 to 20)
#    0.000    0.250    6.250    1.875    7.000    0.500 
#    2.250    1.875    0.000    0.000    0.000    0.000 
#    0.000    0.000    0.000    0.000    0.000    0.000 
#
# Total GULP energy -89370.439284 kJ/mol
# GULP energy per Si atom -5585.652455 kJ/mol
# Density = 2.424952 g / cm^3
# Si number density = 24.304835 Si / 1000 Ang^3
#
#
#
# Elastic Constant Matrix: (Units=GPa)
#
#
# Indices 1 2 3 4 5 6 
#
# 1 86.0696 27.0154 5.5010 -1.0764 -18.6644 -12.6445
# 2 27.0154 67.1532 16.9485 0.5084 -7.7799 -2.0105
# 3 5.5010 16.9485 97.0286 0.3108 -33.5960 4.8791
# 4 -1.0764 0.5084 0.3108 41.7558 -9.1566 -13.5457
# 5 -18.6644 -7.7799 -33.5960 -9.1566 40.9405 2.1207
# 6 -12.6445 -2.0105 4.8791 -13.5457 2.1207 29.7949
#
#
#
# Elastic Compliance Matrix: (Units=1/GPa)
#
#
# Indices 1 2 3 4 5 6 
#
# 1 0.016672 -0.006166 0.003083 0.005140 0.009705 0.007800
# 2 -0.006166 0.017958 -0.003623 -0.001319 -0.002603 -0.001226
# 3 0.003083 -0.003623 0.015791 0.002731 0.014354 -0.001302
# 4 0.005140 -0.001319 0.002731 0.031296 0.010551 0.015123
# 5 0.009705 -0.002603 0.014354 0.010551 0.042319 0.003377
# 6 0.007800 -0.001226 -0.001302 0.015123 0.003377 0.043638
#
#
# Mechanical properties :
#
#
# Convention : Reuss Voigt Hill
#
# Bulk Modulus (GPa) = 27.01999 38.79791 32.90895
# Shear Modulus (GPa) = 25.85033 35.88401 30.86717
#
# Velocity S-wave (km/s) = 3.26481 3.84658 3.56757
# Velocity P-wave (km/s) = 5.03520 5.97712 5.52626
#
# Compressibility (1/GPa) = 0.03700963
#
# Stress axis : x y z
#
# Youngs Moduli (GPa) = 59.98235 55.68561 63.32798
#
# Poissons Ratio (x) = 0.34337 -0.19526
# Poissons Ratio (y) = 0.36986 0.22941
# Poissons Ratio (z) = -0.18495 0.20172
#
# Static dielectric constant tensor:
#      x y z
#    x 1.976780 -0.015130 0.043900 
#    y -0.015130 1.973100 0.011120 
#    z 0.043900 0.011120 1.958040 
# 
# From -- ./inp_files/427718.got.cif
#   From: 2010.05.17/outbox.cif.g08.bks.cpg/sg2_214_cif.got.tgz:427718.got - 2010.06.03 11:33:40.
