data_PCOD9068569
_publ_section_title
;
Structure prediction by ZEFSAII (Michael W. Deem and Ramdas Pophale) SiO2 
 PCOD9068569
Probable space group: P -1
;
_chemical_formula_sum "Si O2"
_cell_formula_units_Z 16
_cell_length_a 8.959823
_cell_length_b 10.395595
_cell_length_c 29.600162
_cell_angle_alpha 34.733205
_cell_angle_beta 41.302243
_cell_angle_gamma 69.048344
_cell_volume 749.608078
_symmetry_space_group_name_H-M "P -1"
_symmetry_group_IT_number 2
_symmetry_cell_setting 'triclinic'
loop_
_space_group_symop_operation_xyz
x,y,z
-x,-y,-z
loop_
_atom_site_type_symbol
_atom_site_label
_atom_site_fract_x
_atom_site_fract_y
_atom_site_fract_z
Si Si1 0.819741 0.227663 0.564413
Si Si2 0.185154 0.131119 0.966254
Si Si3 0.704567 0.263999 0.414759
Si Si4 0.911895 0.676488 0.614981
Si Si5 0.187678 0.384946 0.124966
Si Si6 0.749733 0.280021 0.896369
Si Si7 0.866230 0.436174 0.100161
Si Si8 0.795298 0.721950 0.456086
O O1 0.740197 0.436146 0.530353
O O2 0.073264 0.399619 0.417471
O O3 0.974014 0.191309 0.580552
O O4 0.496379 0.883228 0.725556
O O5 0.560513 0.389691 0.796152
O O6 0.109921 0.287636 0.970151
O O7 0.064587 0.816644 0.105796
O O8 0.000000 0.000000 0.000000
O O9 0.531241 0.384137 0.425298
O O10 0.790784 0.234239 0.453306
O O11 0.037614 0.434048 0.267508
O O12 0.500000 0.000000 0.500000
O O13 0.000000 0.000000 0.500000
O O14 0.291435 0.615092 0.077748
O O15 0.026364 0.407965 0.113334
O O16 0.500000 0.500000 0.000000
O O17 0.969154 0.032591 0.296226
O O18 0.500000 0.000000 0.000000
O O19 0.000000 0.500000 0.000000
#
# Coordination Sequence:
#
# PCOD9068569 Si02
#       8
#     2   2   2   2   2   2   2   2
#     4  11  27  47  72 104 144 192 244 296 372 429
#     4  12  28  48  74 106 148 190 244 298 364 437
#     4  12  26  45  74 105 142 187 244 302 360 427
#     4  12  26  45  74 105 143 189 241 300 362 432
#     4  12  28  48  74 106 149 189 245 304 367 435
#     4  12  28  48  73 109 144 193 243 299 364 431
#     4  12  28  48  74 107 146 195 241 303 368 438
#     4  11  27  47  73 104 144 192 243 302 360 438
#
# _framework density 21.344488999999999
#
# number of rings (size 3 to 8) (size 9 to 14) (size 15 to 20)
#    0.000    0.250    5.000    2.250   10.500    3.000 
#    0.000    0.000    0.000    0.000    0.000    0.000 
#    0.000    0.000    0.000    0.000    0.000    0.000 
#
# Total GULP energy -89132.555266 kJ/mol
# GULP energy per Si atom -5570.784704 kJ/mol
# Density = 2.129591 g / cm^3
# Si number density = 21.344489 Si / 1000 Ang^3
#
#
#
# Elastic Constant Matrix: (Units=GPa)
#
#
# Indices 1 2 3 4 5 6 
#
# 1 92.4618 41.3728 -1.0869 2.6691 -0.7458 5.1522
# 2 41.3728 164.0780 19.0641 12.6074 4.3500 -1.1092
# 3 -1.0869 19.0641 53.4395 16.8022 -6.9077 16.1946
# 4 2.6691 12.6074 16.8022 36.1746 7.0058 -3.0061
# 5 -0.7458 4.3500 -6.9077 7.0058 35.7990 -1.6747
# 6 5.1522 -1.1092 16.1946 -3.0061 -1.6747 37.0985
#
#
#
# Elastic Compliance Matrix: (Units=1/GPa)
#
#
# Indices 1 2 3 4 5 6 
#
# 1 0.012676 -0.003503 0.003306 -0.001827 0.001527 -0.003387
# 2 -0.003503 0.007458 -0.003502 -0.000244 -0.001507 0.002150
# 3 0.003306 -0.003502 0.030849 -0.016326 0.008942 -0.014949
# 4 -0.001827 -0.000244 -0.016326 0.038249 -0.010176 0.010013
# 5 0.001527 -0.001507 0.008942 -0.010176 0.031699 -0.003554
# 6 -0.003387 0.002150 -0.014949 0.010013 -0.003554 0.034667
#
#
# Mechanical properties :
#
#
# Convention : Reuss Voigt Hill
#
# Bulk Modulus (GPa) = 22.94405 47.63102 35.28753
# Shear Modulus (GPa) = 28.16529 38.52305 33.34417
#
# Velocity S-wave (km/s) = 3.63651 4.25293 3.95674
# Velocity P-wave (km/s) = 5.32964 6.81765 6.11904
#
# Compressibility (1/GPa) = 0.04358429
#
# Stress axis : x y z
#
# Youngs Moduli (GPa) = 78.89229 134.08263 32.41639
#
# Poissons Ratio (x) = 0.46973 -0.10716
# Poissons Ratio (y) = 0.27638 0.11351
# Poissons Ratio (z) = -0.26081 0.46950
#
# Static dielectric constant tensor:
#      x y z
#    x 1.368610 -0.238020 0.642030 
#    y -0.238020 1.545470 0.542520 
#    z 0.642030 0.542520 0.285480 
# 
# From -- ./inp_files/616768.got.cif
#   From: 2010.05.17/outbox.cif.g08.bks.cpg/sg2_309_cif.got.tgz:616768.got - 2010.06.03 11:33:40.
