data_PCOD9068733
_publ_section_title
;
Structure prediction by ZEFSAII (Michael W. Deem and Ramdas Pophale) SiO2 
 PCOD9068733
Probable space group: P -1
;
_chemical_formula_sum "Si O2"
_cell_formula_units_Z 13
_cell_length_a 7.102231
_cell_length_b 10.731192
_cell_length_c 11.717780
_cell_angle_alpha 75.942775
_cell_angle_beta 109.896909
_cell_angle_gamma 139.406434
_cell_volume 546.249326
_symmetry_space_group_name_H-M "P -1"
_symmetry_group_IT_number 2
_symmetry_cell_setting 'triclinic'
loop_
_space_group_symop_operation_xyz
x,y,z
-x,-y,-z
loop_
_atom_site_type_symbol
_atom_site_label
_atom_site_fract_x
_atom_site_fract_y
_atom_site_fract_z
Si Si1 0.360671 0.557748 0.398291
Si Si2 0.224751 0.844787 0.663806
Si Si3 0.000000 0.000000 0.500000
Si Si4 0.695057 0.791549 0.028827
Si Si5 0.453802 0.715522 0.605186
Si Si6 0.466616 0.811819 0.201585
Si Si7 0.777821 0.537550 0.174833
O O1 0.500000 0.500000 0.500000
O O2 0.075911 0.372310 0.314266
O O3 0.279144 0.614634 0.471834
O O4 0.580110 0.750454 0.325362
O O5 0.410046 0.827130 0.637267
O O6 0.453308 0.649100 0.912181
O O7 0.146960 0.924415 0.545542
O O8 0.209008 0.142225 0.399688
O O9 0.553646 0.812355 0.093675
O O10 0.758893 0.680383 0.117297
O O11 0.390643 0.988023 0.771932
O O12 0.000000 0.000000 0.000000
O O13 0.332612 0.548543 0.702138
O O14 0.114607 0.655509 0.188197
#
# Coordination Sequence:
#
# PCOD9068733 Si02
#       7
#     2   2   1   2   2   2   2
#     4  12  24  45  73 110 152 196 239 301 362 442
#     4  12  26  44  70 109 152 197 245 291 365 438
#     4  12  26  42  72 108 156 196 240 298 352 446
#     4  11  29  52  80 108 142 191 254 313 379 438
#     4  12  26  46  74 110 152 197 245 300 370 439
#     4  12  27  48  76 109 147 198 241 310 367 439
#     4  11  28  51  78 110 144 194 250 312 368 446
#
# _framework density 23.798655
#
# number of rings (size 3 to 8) (size 9 to 14) (size 15 to 20)
#    0.000    0.308    4.615    2.308    4.308    1.846 
#    0.000    0.000    0.000    0.000    0.000    0.000 
#    0.000    0.000    0.000    0.000    0.000    0.000 
#
# Total GULP energy -72571.119271 kJ/mol
# GULP energy per Si atom -5582.393790 kJ/mol
# Density = 2.374449 g / cm^3
# Si number density = 23.798655 Si / 1000 Ang^3
#
#
#
# Elastic Constant Matrix: (Units=GPa)
#
#
# Indices 1 2 3 4 5 6 
#
# 1 116.1324 60.6260 26.1955 -12.6846 -9.1306 1.6823
# 2 60.6260 195.0608 44.9967 -27.3293 -12.7110 -11.7178
# 3 26.1955 44.9967 86.7039 -14.8903 -15.6875 2.0000
# 4 -12.6846 -27.3293 -14.8903 29.4937 6.0222 -8.1715
# 5 -9.1306 -12.7110 -15.6875 6.0222 36.9813 -4.9197
# 6 1.6823 -11.7178 2.0000 -8.1715 -4.9197 48.8807
#
#
#
# Elastic Compliance Matrix: (Units=1/GPa)
#
#
# Indices 1 2 3 4 5 6 
#
# 1 0.010577 -0.002838 -0.001418 0.000827 0.000797 -0.000768
# 2 -0.002838 0.007439 -0.002064 0.005334 0.000499 0.002908
# 3 -0.001418 -0.002064 0.014511 0.003909 0.004468 0.000063
# 4 0.000827 0.005334 0.003909 0.043932 -0.002368 0.008196
# 5 0.000797 0.000499 0.004468 -0.002368 0.030027 0.002536
# 6 -0.000768 0.002908 0.000063 0.008196 0.002536 0.022804
#
#
# Mechanical properties :
#
#
# Convention : Reuss Voigt Hill
#
# Bulk Modulus (GPa) = 50.28674 73.50374 61.89524
# Shear Modulus (GPa) = 33.65608 40.80973 37.23291
#
# Velocity S-wave (km/s) = 3.76467 4.14550 3.95966
# Velocity P-wave (km/s) = 6.33032 7.33936 6.85343
#
# Compressibility (1/GPa) = 0.01988596
#
# Stress axis : x y z
#
# Youngs Moduli (GPa) = 94.54721 134.41796 68.91095
#
# Poissons Ratio (x) = 0.38153 0.09775
# Poissons Ratio (y) = 0.26836 0.14223
# Poissons Ratio (z) = 0.13411 0.27744
#
# Static dielectric constant tensor:
#      x y z
#    x 1.874920 0.037640 0.088780 
#    y 0.037640 1.921090 0.038590 
#    z 0.088780 0.038590 1.960150 
# 
# From -- ./inp_files/548605.got.cif
#   From: 2010.05.17/outbox.cif.g08.bks.cpg/sg2_275_cif.got.tgz:548605.got - 2010.06.03 11:33:40.
