data_PCOD9068700
_publ_section_title
;
Structure prediction by ZEFSAII (Michael W. Deem and Ramdas Pophale) SiO2 
 PCOD9068700
Probable space group: P -1
;
_chemical_formula_sum "Si O2"
_cell_formula_units_Z 12
_cell_length_a 4.970548
_cell_length_b 6.775139
_cell_length_c 13.401542
_cell_angle_alpha 85.007417
_cell_angle_beta 95.526756
_cell_angle_gamma 89.745178
_cell_volume 447.472597
_symmetry_space_group_name_H-M "P -1"
_symmetry_group_IT_number 2
_symmetry_cell_setting 'triclinic'
loop_
_space_group_symop_operation_xyz
x,y,z
-x,-y,-z
loop_
_atom_site_type_symbol
_atom_site_label
_atom_site_fract_x
_atom_site_fract_y
_atom_site_fract_z
Si Si1 0.727726 0.659719 0.232559
Si Si2 0.364197 0.797624 0.523654
Si Si3 0.885215 0.089539 0.289472
Si Si4 0.367614 0.311329 0.192472
Si Si5 0.840801 0.490965 0.601215
Si Si6 0.756341 0.849453 0.011358
O O1 0.283562 0.723359 0.414649
O O2 0.948242 0.518899 0.301389
O O3 0.781192 0.864640 0.284529
O O4 0.784643 0.722740 0.118592
O O5 0.141032 0.843261 0.598571
O O6 0.587654 0.642075 0.580858
O O7 0.500000 0.000000 0.500000
O O8 0.659593 0.206287 0.212400
O O9 0.170347 0.160153 0.251893
O O10 0.447636 0.534847 0.222480
O O11 0.266353 0.299217 0.076325
O O12 0.000000 0.500000 0.500000
O O13 0.500000 0.000000 0.000000
O O14 0.000000 0.000000 0.000000
#
# Coordination Sequence:
#
# PCOD9068700 Si02
#       6
#     2   2   2   2   2   2
#     4  12  28  52  93 120 175 233 286 354 440 505
#     4  11  28  52  87 119 176 223 283 361 433 503
#     4  12  29  52  84 124 172 224 287 349 434 510
#     4  12  28  52  84 125 173 222 285 356 425 512
#     4  11  27  55  80 129 165 221 293 345 427 526
#     4  12  25  55  84 126 174 225 288 353 430 516
#
# _framework density 26.817284000000001
#
# number of rings (size 3 to 8) (size 9 to 14) (size 15 to 20)
#    0.000    0.333    3.333    2.500    7.000    5.333 
#    6.000    3.333    0.000    0.000    0.000    0.000 
#    0.000    0.000    0.000    0.000    0.000    0.000 
#
# Total GULP energy -67197.100406 kJ/mol
# GULP energy per Si atom -5599.758367 kJ/mol
# Density = 2.675625 g / cm^3
# Si number density = 26.817284 Si / 1000 Ang^3
#
#
#
# Elastic Constant Matrix: (Units=GPa)
#
#
# Indices 1 2 3 4 5 6 
#
# 1 205.8029 54.5894 71.4043 8.3255 -1.1956 31.5428
# 2 54.5894 144.8254 50.9783 24.1431 7.5704 48.0420
# 3 71.4043 50.9783 187.1081 -1.7703 17.9401 13.1077
# 4 8.3255 24.1431 -1.7703 50.4000 15.2285 4.8977
# 5 -1.1956 7.5704 17.9401 15.2285 49.5904 -0.8519
# 6 31.5428 48.0420 13.1077 4.8977 -0.8519 47.0339
#
#
#
# Elastic Compliance Matrix: (Units=1/GPa)
#
#
# Indices 1 2 3 4 5 6 
#
# 1 0.006243 -0.000531 -0.002163 -0.000948 0.001255 -0.002921
# 2 -0.000531 0.012522 -0.002503 -0.005008 0.000326 -0.011210
# 3 -0.002163 -0.002503 0.007039 0.002531 -0.002964 0.001728
# 4 -0.000948 -0.005008 0.002531 0.024579 -0.007681 0.002348
# 5 0.001255 0.000326 -0.002964 -0.007681 0.023592 0.000878
# 6 -0.002921 -0.011210 0.001728 0.002348 0.000878 0.033960
#
#
# Mechanical properties :
#
#
# Convention : Reuss Voigt Hill
#
# Bulk Modulus (GPa) = 64.88248 99.07560 81.97904
# Shear Modulus (GPa) = 40.49744 53.45582 46.97663
#
# Velocity S-wave (km/s) = 3.89025 4.46952 4.18991
# Velocity P-wave (km/s) = 6.66525 7.97875 7.35139
#
# Compressibility (1/GPa) = 0.01541248
#
# Stress axis : x y z
#
# Youngs Moduli (GPa) = 160.16696 79.85849 142.06972
#
# Poissons Ratio (x) = 0.04238 0.30726
# Poissons Ratio (y) = 0.08499 0.35554
# Poissons Ratio (z) = 0.34640 0.19985
#
# Static dielectric constant tensor:
#      x y z
#    x 2.230740 0.088950 0.003230 
#    y 0.088950 2.281110 0.105040 
#    z 0.003230 0.105040 2.215500 
# 
# From -- ./inp_files/59941.got.cif
#   From: 2010.05.17/outbox.cif.g08.bks.cpg/sg2_30_cif.got.tgz:59941.got - 2010.06.03 11:33:40.
