data_PCOD9068782
_publ_section_title
;
Structure prediction by ZEFSAII (Michael W. Deem and Ramdas Pophale) SiO2 
 PCOD9068782
Probable space group: P -1
;
_chemical_formula_sum "Si O2"
_cell_formula_units_Z 16
_cell_length_a 17.250919
_cell_length_b 6.882860
_cell_length_c 9.570755
_cell_angle_alpha 119.789377
_cell_angle_beta 67.997712
_cell_angle_gamma 129.449742
_cell_volume 758.591150
_symmetry_space_group_name_H-M "P -1"
_symmetry_group_IT_number 2
_symmetry_cell_setting 'triclinic'
loop_
_space_group_symop_operation_xyz
x,y,z
-x,-y,-z
loop_
_atom_site_type_symbol
_atom_site_label
_atom_site_fract_x
_atom_site_fract_y
_atom_site_fract_z
Si Si1 0.921795 0.905184 0.390738
Si Si2 0.202838 0.205282 0.966328
Si Si3 0.939025 0.432293 0.161027
Si Si4 0.768919 0.048791 0.617895
Si Si5 0.072417 0.385699 0.259197
Si Si6 0.687526 0.887433 0.916129
Si Si7 0.355632 0.701455 0.886451
Si Si8 0.567818 0.870961 0.774275
O O1 0.895730 0.614857 0.261729
O O2 0.822893 0.902400 0.486849
O O3 0.000000 0.000000 0.500000
O O4 0.988681 0.130796 0.310754
O O5 0.268884 0.393100 0.861093
O O6 0.141254 0.885040 0.878812
O O7 0.125461 0.285551 0.087230
O O8 0.277372 0.259849 0.064564
O O9 0.018371 0.504937 0.256530
O O10 0.000000 0.500000 0.000000
O O11 0.837604 0.355767 0.627361
O O12 0.765322 0.042649 0.789833
O O13 0.650893 0.919752 0.622973
O O14 0.320234 0.887653 0.916512
O O15 0.583265 0.715219 0.836428
O O16 0.454060 0.744103 0.764973
O O17 0.391886 0.845184 0.069306
#
# Coordination Sequence:
#
# PCOD9068782 Si02
#       8
#     2   2   2   2   2   2   2   2
#     4  12  24  39  59  79 117 153 193 234 275 333
#     4  12  20  32  56  80 113 150 181 232 283 335
#     4  12  27  38  55  83 119 155 193 228 285 332
#     4   9  18  36  54  79 110 142 183 231 277 322
#     4  12  22  38  58  83 115 152 189 231 282 337
#     4   8  17  31  53  80 113 138 180 227 284 321
#     4   8  16  31  51  78 114 140 179 230 284 334
#     4   7  15  33  51  79 113 138 180 234 283 324
#
# _framework density 21.091732
#
# number of rings (size 3 to 8) (size 9 to 14) (size 15 to 20)
#    1.500    0.250    5.000    2.250    0.000    0.500 
#    0.000    0.000    0.000    0.750    0.000    1.750 
#    0.000    0.000    0.000    0.000    0.000    0.000 
#
# Total GULP energy -89108.900141 kJ/mol
# GULP energy per Si atom -5569.306259 kJ/mol
# Density = 2.104373 g / cm^3
# Si number density = 21.091732 Si / 1000 Ang^3
#
#
#
# Elastic Constant Matrix: (Units=GPa)
#
#
# Indices 1 2 3 4 5 6 
#
# 1 53.1946 24.6689 33.9171 -12.2726 -25.9077 -3.8975
# 2 24.6689 73.7884 53.3173 -0.9621 -33.3166 -9.1052
# 3 33.9171 53.3173 98.6964 2.3059 -57.1472 10.3117
# 4 -12.2726 -0.9621 2.3059 24.5549 2.0897 -6.8561
# 5 -25.9077 -33.3166 -57.1472 2.0897 44.2466 -3.3507
# 6 -3.8975 -9.1052 10.3117 -6.8561 -3.3507 18.5190
#
#
#
# Elastic Compliance Matrix: (Units=1/GPa)
#
#
# Indices 1 2 3 4 5 6 
#
# 1 0.040116 0.007848 -0.018888 0.031549 0.006210 0.035623
# 2 0.007848 0.035636 -0.029044 0.020129 -0.003847 0.042101
# 3 -0.018888 -0.029044 0.076350 -0.041138 0.062729 -0.064649
# 4 0.031549 0.020129 -0.041138 0.081184 -0.018325 0.066183
# 5 0.006210 -0.003847 0.062729 -0.018325 0.103438 -0.023582
# 6 0.035623 0.042101 -0.064649 0.066183 -0.023582 0.138429
#
#
# Mechanical properties :
#
#
# Convention : Reuss Voigt Hill
#
# Bulk Modulus (GPa) = 13.90203 49.94289 31.92246
# Shear Modulus (GPa) = 8.63109 25.04917 16.84013
#
# Velocity S-wave (km/s) = 2.02511 3.44994 2.82870
# Velocity P-wave (km/s) = 3.47471 6.29283 5.08298
#
# Compressibility (1/GPa) = 0.07193192
#
# Stress axis : x y z
#
# Youngs Moduli (GPa) = 24.92748 28.06171 13.09753
#
# Poissons Ratio (x) = -0.22022 0.24739
# Poissons Ratio (y) = -0.19562 0.38041
# Poissons Ratio (z) = 0.47084 0.81504
#
# Static dielectric constant tensor:
#      x y z
#    x 1.832890 0.061740 0.029760 
#    y 0.061740 1.779360 0.017130 
#    z 0.029760 0.017130 1.796140 
# 
# From -- ./inp_files/542324.got.cif
#   From: 2010.05.17/outbox.cif.g08.bks.cpg/sg2_272_cif.got.tgz:542324.got - 2010.06.03 11:33:40.
