data_PCOD9068813
_publ_section_title
;
Structure prediction by ZEFSAII (Michael W. Deem and Ramdas Pophale) SiO2 
 PCOD9068813
Probable space group: P -1
;
_chemical_formula_sum "Si O2"
_cell_formula_units_Z 14
_cell_length_a 16.123510
_cell_length_b 15.001350
_cell_length_c 11.624970
_cell_angle_alpha 150.429794
_cell_angle_beta 135.073814
_cell_angle_gamma 26.532269
_cell_volume 587.629621
_symmetry_space_group_name_H-M "P -1"
_symmetry_group_IT_number 2
_symmetry_cell_setting 'triclinic'
loop_
_space_group_symop_operation_xyz
x,y,z
-x,-y,-z
loop_
_atom_site_type_symbol
_atom_site_label
_atom_site_fract_x
_atom_site_fract_y
_atom_site_fract_z
Si Si1 0.212830 0.786596 0.411808
Si Si2 0.796874 0.404597 0.405776
Si Si3 0.349187 0.335527 0.188067
Si Si4 0.813468 0.788044 0.212550
Si Si5 0.482515 0.309436 0.746618
Si Si6 0.093659 0.330193 0.571826
Si Si7 0.889080 0.279058 0.000901
O O1 0.368777 0.498823 0.325114
O O2 0.260866 0.940067 0.618689
O O3 0.188450 0.729548 0.198251
O O4 0.000000 0.000000 0.500000
O O5 0.761541 0.490106 0.603275
O O6 0.590819 0.631601 0.391370
O O7 0.914127 0.418471 0.468172
O O8 0.937733 0.056006 0.150908
O O9 0.278072 0.297877 0.968545
O O10 0.500000 0.000000 0.000000
O O11 0.864612 0.781123 0.381776
O O12 0.000000 0.500000 0.000000
O O13 0.300224 0.471045 0.824552
O O14 0.691223 0.967744 0.604073
O O15 0.500000 0.500000 0.000000
O O16 0.037000 0.609039 0.824342
#
# Coordination Sequence:
#
# PCOD9068813 Si02
#       7
#     2   2   2   2   2   2   2
#     4  12  21  41  73 103 137 186 231 281 361 425
#     4  12  26  47  73 106 142 190 242 292 357 429
#     4  12  26  42  69 108 147 181 234 296 352 431
#     4  12  20  40  71  99 137 186 223 281 354 413
#     4  12  27  50  73 102 146 187 239 304 356 418
#     4  12  24  46  73 105 144 187 237 295 357 424
#     4  12  24  45  75 104 139 195 239 290 358 428
#
# _framework density 23.824531
#
# number of rings (size 3 to 8) (size 9 to 14) (size 15 to 20)
#    0.000    0.000    8.571    1.714    0.000    1.143 
#    2.571    1.429    0.000    0.000    0.000    0.000 
#    0.000    0.000    0.000    0.000    0.000    0.000 
#
# Total GULP energy -78075.466458 kJ/mol
# GULP energy per Si atom -5576.819033 kJ/mol
# Density = 2.377031 g / cm^3
# Si number density = 23.824531 Si / 1000 Ang^3
#
#
#
# Elastic Constant Matrix: (Units=GPa)
#
#
# Indices 1 2 3 4 5 6 
#
# 1 80.6485 15.4157 51.0913 4.2637 29.2851 17.3478
# 2 15.4157 66.4862 27.2670 -11.5706 16.5445 -1.5551
# 3 51.0913 27.2670 138.1853 11.7584 36.6041 4.6668
# 4 4.2637 -11.5706 11.7584 40.1240 11.4142 4.1430
# 5 29.2851 16.5445 36.6041 11.4142 62.3550 -1.0717
# 6 17.3478 -1.5551 4.6668 4.1430 -1.0717 24.4900
#
#
#
# Elastic Compliance Matrix: (Units=1/GPa)
#
#
# Indices 1 2 3 4 5 6 
#
# 1 0.022105 -0.000740 -0.005734 0.002877 -0.007611 -0.015432
# 2 -0.000740 0.018818 -0.002979 0.007503 -0.004256 0.000831
# 3 -0.005734 -0.002979 0.010711 -0.002989 -0.002219 0.002240
# 4 0.002877 0.007503 -0.002989 0.030388 -0.007261 -0.006450
# 5 -0.007611 -0.004256 -0.002219 -0.007261 0.023506 0.007801
# 6 -0.015432 0.000831 0.002240 -0.006450 0.007801 0.052823
#
#
# Mechanical properties :
#
#
# Convention : Reuss Voigt Hill
#
# Bulk Modulus (GPa) = 30.55525 52.54087 41.54806
# Shear Modulus (GPa) = 26.57216 38.16353 32.36785
#
# Velocity S-wave (km/s) = 3.34328 4.00666 3.68991
# Velocity P-wave (km/s) = 5.26842 6.59588 5.96917
#
# Compressibility (1/GPa) = 0.03272760
#
# Stress axis : x y z
#
# Youngs Moduli (GPa) = 45.23914 53.14001 93.36263
#
# Poissons Ratio (x) = 0.03932 0.53537
# Poissons Ratio (y) = 0.03348 0.27811
# Poissons Ratio (z) = 0.25942 0.15829
#
# Static dielectric constant tensor:
#      x y z
#    x 1.920860 -0.035410 -0.046890 
#    y -0.035410 1.964610 0.011070 
#    z -0.046890 0.011070 1.841030 
# 
# From -- ./inp_files/466156.got.cif
#   From: 2010.05.17/outbox.cif.g08.bks.cpg/sg2_234_cif.got.tgz:466156.got - 2010.06.03 11:33:40.
