data_PCOD9068737
_publ_section_title
;
Structure prediction by ZEFSAII (Michael W. Deem and Ramdas Pophale) SiO2 
 PCOD9068737
Probable space group: P -1
;
_chemical_formula_sum "Si O2"
_cell_formula_units_Z 10
_cell_length_a 13.883762
_cell_length_b 15.583143
_cell_length_c 9.482432
_cell_angle_alpha 32.999182
_cell_angle_beta 32.662432
_cell_angle_gamma 17.908542
_cell_volume 331.606351
_symmetry_space_group_name_H-M "P -1"
_symmetry_group_IT_number 2
_symmetry_cell_setting 'triclinic'
loop_
_space_group_symop_operation_xyz
x,y,z
-x,-y,-z
loop_
_atom_site_type_symbol
_atom_site_label
_atom_site_fract_x
_atom_site_fract_y
_atom_site_fract_z
Si Si1 0.248206 0.036048 0.753302
Si Si2 0.682686 0.760796 0.935628
Si Si3 0.710147 0.360653 0.745952
Si Si4 0.100271 0.334072 0.750151
Si Si5 0.158078 0.969892 0.478160
O O1 0.116248 0.146753 0.923731
O O2 0.949809 0.265698 0.694315
O O3 0.500000 0.000000 0.500000
O O4 0.475030 0.070021 0.709991
O O5 0.828130 0.565886 0.884357
O O6 0.613919 0.302646 0.327916
O O7 0.401737 0.905749 0.184936
O O8 0.000000 0.500000 0.000000
O O9 0.644372 0.224301 0.044368
O O10 0.884206 0.242876 0.541206
O O11 0.000000 0.500000 0.500000
O O12 0.000000 0.000000 0.500000
#
# Coordination Sequence:
#
# PCOD9068737 Si02
#       5
#     2   2   2   2   2
#     4  11  28  51  89 124 179 227 301 360 442 518
#     4  12  29  52  85 130 176 232 301 367 444 534
#     4  11  29  54  83 130 170 235 295 367 435 531
#     4  12  28  51  85 128 174 226 297 370 435 526
#     4  12  28  53  86 115 179 232 292 363 454 520
#
# _framework density 30.156238999999999
#
# number of rings (size 3 to 8) (size 9 to 14) (size 15 to 20)
#    0.000    0.400    0.000    5.400    8.400   12.800 
#    0.000    0.000    0.000    0.000    0.000    0.000 
#    0.000    0.000    0.000    0.000    0.000    0.000 
#
# Total GULP energy -55920.903858 kJ/mol
# GULP energy per Si atom -5592.090386 kJ/mol
# Density = 3.008760 g / cm^3
# Si number density = 30.156239 Si / 1000 Ang^3
#
#
#
# Elastic Constant Matrix: (Units=GPa)
#
#
# Indices 1 2 3 4 5 6 
#
# 1 247.3904 36.0709 80.7716 -6.8059 8.4481 -3.2295
# 2 36.0709 184.2881 32.4443 6.0539 -15.5018 -10.6052
# 3 80.7716 32.4443 170.0252 6.9218 -14.4883 -2.5438
# 4 -6.8059 6.0539 6.9218 61.8112 11.8015 20.8956
# 5 8.4481 -15.5018 -14.4883 11.8015 75.0717 8.4498
# 6 -3.2295 -10.6052 -2.5438 20.8956 8.4498 57.7650
#
#
#
# Elastic Compliance Matrix: (Units=1/GPa)
#
#
# Indices 1 2 3 4 5 6 
#
# 1 0.005011 -0.000721 -0.002410 0.001218 -0.001347 -0.000202
# 2 -0.000721 0.005894 -0.000606 -0.001261 0.001234 0.001291
# 3 -0.002410 -0.000606 0.007358 -0.001487 0.001760 0.000359
# 4 0.001218 -0.001261 -0.001487 0.019484 -0.002977 -0.006841
# 5 -0.001347 0.001234 0.001760 -0.002977 0.014628 -0.000834
# 6 -0.000202 0.001291 0.000359 -0.006841 -0.000834 0.020150
#
#
# Mechanical properties :
#
#
# Convention : Reuss Voigt Hill
#
# Bulk Modulus (GPa) = 92.70235 100.03081 96.36658
# Shear Modulus (GPa) = 59.81146 69.09071 64.45109
#
# Velocity S-wave (km/s) = 4.45835 4.79173 4.62804
# Velocity P-wave (km/s) = 7.57034 7.99106 7.78354
#
# Compressibility (1/GPa) = 0.01078721
#
# Stress axis : x y z
#
# Youngs Moduli (GPa) = 199.55363 169.67299 135.90630
#
# Poissons Ratio (x) = 0.12240 0.32757
# Poissons Ratio (y) = 0.14396 0.08238
# Poissons Ratio (z) = 0.48098 0.10284
#
# Static dielectric constant tensor:
#      x y z
#    x 2.462650 0.055210 -0.027340 
#    y 0.055210 2.571060 0.005230 
#    z -0.027340 0.005230 2.663030 
# 
# From -- ./inp_files/68139.got.cif
#   From: 2010.05.17/outbox.cif.g08.bks.cpg/sg2_35_cif.got.tgz:68139.got - 2010.06.03 11:33:40.
