data_PCOD9068724
_publ_section_title
;
Structure prediction by ZEFSAII (Michael W. Deem and Ramdas Pophale) SiO2 
 PCOD9068724
Probable space group: P -1
;
_chemical_formula_sum "Si O2"
_cell_formula_units_Z 12
_cell_length_a 8.677651
_cell_length_b 12.767400
_cell_length_c 15.496213
_cell_angle_alpha 162.276939
_cell_angle_beta 68.649656
_cell_angle_gamma 114.487082
_cell_volume 472.688042
_symmetry_space_group_name_H-M "P -1"
_symmetry_group_IT_number 2
_symmetry_cell_setting 'triclinic'
loop_
_space_group_symop_operation_xyz
x,y,z
-x,-y,-z
loop_
_atom_site_type_symbol
_atom_site_label
_atom_site_fract_x
_atom_site_fract_y
_atom_site_fract_z
Si Si1 0.701825 0.457877 0.362066
Si Si2 0.885528 0.739071 0.166722
Si Si3 0.931357 0.163260 0.958850
Si Si4 0.519780 0.462878 0.069793
Si Si5 0.620332 0.297689 0.432458
Si Si6 0.198649 0.525367 0.292933
O O1 0.796270 0.349665 0.176135
O O2 0.683037 0.213499 0.259116
O O3 0.513260 0.467726 0.377278
O O4 0.813894 0.827714 0.669985
O O5 0.715975 0.643105 0.184091
O O6 0.882700 0.148334 0.464187
O O7 0.000000 0.500000 0.000000
O O8 0.926514 0.631929 0.976980
O O9 0.063585 0.163326 0.010147
O O10 0.379245 0.582944 0.250665
O O11 0.500000 0.500000 0.000000
O O12 0.489223 0.053650 0.777315
O O13 0.762399 0.452569 0.595747
#
# Coordination Sequence:
#
# PCOD9068724 Si02
#       6
#     2   2   2   2   2   2
#     4  11  29  51  81 114 164 203 272 320 391 473
#     4  12  27  48  78 116 159 209 259 326 395 471
#     4  12  26  52  77 119 153 207 260 331 391 455
#     4  12  25  46  76 114 160 202 264 322 392 473
#     4  11  28  50  78 115 153 220 256 329 391 469
#     4  12  26  48  77 117 158 205 265 316 406 455
#
# _framework density 25.386721999999999
#
# number of rings (size 3 to 8) (size 9 to 14) (size 15 to 20)
#    0.000    0.333    5.000    1.500    7.000    3.333 
#    0.000    0.000    0.000    0.000    0.000    0.000 
#    0.000    0.000    0.000    0.000    0.000    0.000 
#
# Total GULP energy -66886.479345 kJ/mol
# GULP energy per Si atom -5573.873279 kJ/mol
# Density = 2.532894 g / cm^3
# Si number density = 25.386722 Si / 1000 Ang^3
#
#
#
# Elastic Constant Matrix: (Units=GPa)
#
#
# Indices 1 2 3 4 5 6 
#
# 1 48.0762 17.7576 16.4990 32.7193 1.2222 37.5459
# 2 17.7576 93.5066 42.2521 -19.6845 -8.3725 -16.3086
# 3 16.4990 42.2521 71.4721 -12.7519 2.5294 8.0891
# 4 32.7193 -19.6845 -12.7519 25.6379 -0.3742 -33.4432
# 5 1.2222 -8.3725 2.5294 -0.3742 45.9788 -14.3229
# 6 37.5459 -16.3086 8.0891 -33.4432 -14.3229 22.8470
#
#
#
# Elastic Compliance Matrix: (Units=1/GPa)
#
#
# Indices 1 2 3 4 5 6 
#
# 1 0.005784 0.004884 -0.004066 0.008715 0.004446 0.010965
# 2 0.004884 0.012250 -0.009047 -0.005569 0.001535 -0.003269
# 3 -0.004066 -0.009047 0.021577 0.004252 -0.003806 -0.003578
# 4 0.008715 -0.005569 0.004252 0.005773 -0.006175 -0.015224
# 5 0.004446 0.001535 -0.003806 -0.006175 0.022044 -0.000083
# 6 0.010965 -0.003269 -0.003578 -0.015224 -0.000083 0.002347
#
#
# Mechanical properties :
#
#
# Convention : Reuss Voigt Hill
#
# Bulk Modulus (GPa) = 43.19229 40.67469 41.93349
# Shear Modulus (GPa) = 53.21999 27.99585 40.60792
#
# Velocity S-wave (km/s) = 4.58358 3.32441 4.00381
# Velocity P-wave (km/s) = 6.71289 5.54909 6.15855
#
# Compressibility (1/GPa) = 0.02315228
#
# Stress axis : x y z
#
# Youngs Moduli (GPa) = 172.89786 81.63275 46.34594
#
# Poissons Ratio (x) = -0.39871 0.18844
# Poissons Ratio (y) = -0.84446 0.41931
# Poissons Ratio (z) = 0.70300 0.73856
#
# Static dielectric constant tensor:
#      x y z
#    x 2.028100 0.045070 0.056480 
#    y 0.045070 2.036900 0.015450 
#    z 0.056480 0.015450 2.133290 
# 
# From -- ./inp_files/25247.got.cif
#   From: 2010.05.17/outbox.cif.g08.bks.cpg/sg2_13_cif.got.tgz:25247.got - 2010.06.03 11:33:40.
