data_PCOD9068297
_publ_section_title
;
Structure prediction by ZEFSAII (Michael W. Deem and Ramdas Pophale) SiO2 
 PCOD9068297
Probable space group: P -1
;
_chemical_formula_sum "Si O2"
_cell_formula_units_Z 12
_cell_length_a 8.672869
_cell_length_b 11.923541
_cell_length_c 8.793862
_cell_angle_alpha 53.144318
_cell_angle_beta 132.546406
_cell_angle_gamma 141.171233
_cell_volume 414.784506
_symmetry_space_group_name_H-M "P -1"
_symmetry_group_IT_number 2
_symmetry_cell_setting 'triclinic'
loop_
_space_group_symop_operation_xyz
x,y,z
-x,-y,-z
loop_
_atom_site_type_symbol
_atom_site_label
_atom_site_fract_x
_atom_site_fract_y
_atom_site_fract_z
Si Si1 0.211953 0.014575 0.467701
Si Si2 0.666069 0.861750 0.155764
Si Si3 0.090327 0.707435 0.450686
Si Si4 0.706471 0.175143 0.839759
Si Si5 0.460778 0.426935 0.359803
Si Si6 0.393281 0.593734 0.938716
O O1 0.400676 0.008552 0.711728
O O2 0.352283 0.227037 0.397594
O O3 0.752478 0.345616 0.303946
O O4 0.206551 0.911924 0.399918
O O5 0.893036 0.884558 0.391848
O O6 0.383556 0.757732 0.142078
O O7 0.628940 0.776022 0.037829
O O8 0.803077 0.068976 0.049640
O O9 0.775988 0.564015 0.402886
O O10 0.132763 0.710041 0.295122
O O11 0.500000 0.500000 0.500000
O O12 0.272697 0.460140 0.115572
O O13 0.500000 0.500000 0.000000
#
# Coordination Sequence:
#
# PCOD9068297 Si02
#       6
#     2   2   2   2   2   2
#     4  12  26  51  87 116 167 220 272 346 416 493
#     4  11  26  50  86 122 162 221 280 336 417 499
#     4  12  29  55  84 121 172 216 282 347 417 500
#     4  11  26  48  84 124 158 217 282 337 412 496
#     4  12  31  54  85 126 169 222 279 345 420 499
#     4  12  28  53  81 125 168 215 279 345 415 493
#
# _framework density 28.930683999999999
#
# number of rings (size 3 to 8) (size 9 to 14) (size 15 to 20)
#    0.000    0.333    3.333    3.000    4.667    8.000 
#    3.000    0.000    0.000    0.000    0.000    0.000 
#    0.000    0.000    0.000    0.000    0.000    0.000 
#
# Total GULP energy -67014.164743 kJ/mol
# GULP energy per Si atom -5584.513729 kJ/mol
# Density = 2.886484 g / cm^3
# Si number density = 28.930684 Si / 1000 Ang^3
#
#
#
# Elastic Constant Matrix: (Units=GPa)
#
#
# Indices 1 2 3 4 5 6 
#
# 1 185.8742 91.3949 59.8511 -1.5439 -15.0754 -0.3671
# 2 91.3949 229.7597 42.1713 -21.2045 -7.3423 -36.1828
# 3 59.8511 42.1713 140.0218 -15.7706 -15.1809 -8.0794
# 4 -1.5439 -21.2045 -15.7706 34.9975 -5.3104 8.8447
# 5 -15.0754 -7.3423 -15.1809 -5.3104 43.2968 6.7629
# 6 -0.3671 -36.1828 -8.0794 8.8447 6.7629 59.3421
#
#
#
# Elastic Compliance Matrix: (Units=1/GPa)
#
#
# Indices 1 2 3 4 5 6 
#
# 1 0.007835 -0.003101 -0.002609 -0.001982 0.001366 -0.002058
# 2 -0.003101 0.006404 -0.000116 0.002775 -0.000238 0.003484
# 3 -0.002609 -0.000116 0.009083 0.004275 0.002750 0.000200
# 4 -0.001982 0.002775 0.004275 0.033877 0.005976 -0.003469
# 5 0.001366 -0.000238 0.002750 0.005976 0.025790 -0.003592
# 6 -0.002058 0.003484 0.000200 -0.003469 -0.003592 0.019916
#
#
# Mechanical properties :
#
#
# Convention : Reuss Voigt Hill
#
# Bulk Modulus (GPa) = 85.68254 104.72116 95.20185
# Shear Modulus (GPa) = 42.21304 51.67650 46.94477
#
# Velocity S-wave (km/s) = 3.82397 4.23095 4.03260
# Velocity P-wave (km/s) = 7.01269 7.75524 7.39329
#
# Compressibility (1/GPa) = 0.01167099
#
# Stress axis : x y z
#
# Youngs Moduli (GPa) = 127.62981 156.14637 110.09841
#
# Poissons Ratio (x) = 0.48424 0.28724
# Poissons Ratio (y) = 0.39580 0.01272
# Poissons Ratio (z) = 0.33298 0.01804
#
# Static dielectric constant tensor:
#      x y z
#    x 2.394340 -0.001140 -0.044700 
#    y -0.001140 2.280520 -0.003430 
#    z -0.044700 -0.003430 2.337870 
# 
# From -- ./inp_files/161794.got.cif
#   From: 2010.05.17/outbox.cif.g08.bks.cpg/sg2_81_cif.got.tgz:161794.got - 2010.06.03 11:33:40.
