data_PCOD9068223
_publ_section_title
;
Structure prediction by ZEFSAII (Michael W. Deem and Ramdas Pophale) SiO2 
 PCOD9068223
Probable space group: P -1
;
_chemical_formula_sum "Si O2"
_cell_formula_units_Z 15
_cell_length_a 7.148037
_cell_length_b 11.207436
_cell_length_c 11.901810
_cell_angle_alpha 145.906894
_cell_angle_beta 106.181444
_cell_angle_gamma 72.023339
_cell_volume 507.888203
_symmetry_space_group_name_H-M "P -1"
_symmetry_group_IT_number 2
_symmetry_cell_setting 'triclinic'
loop_
_space_group_symop_operation_xyz
x,y,z
-x,-y,-z
loop_
_atom_site_type_symbol
_atom_site_label
_atom_site_fract_x
_atom_site_fract_y
_atom_site_fract_z
Si Si1 0.017542 0.703128 0.295760
Si Si2 0.346685 0.185971 0.399105
Si Si3 0.803007 0.224210 0.260735
Si Si4 0.432102 0.281608 0.709467
Si Si5 0.500000 0.500000 0.500000
Si Si6 0.869913 0.911423 0.230690
Si Si7 0.973478 0.528460 0.674193
Si Si8 0.454397 0.747945 0.053772
O O1 0.782928 0.745621 0.305430
O O2 0.031087 0.738649 0.191638
O O3 0.064442 0.486577 0.211742
O O4 0.113064 0.881669 0.522109
O O5 0.467673 0.127260 0.489085
O O6 0.476682 0.311778 0.442664
O O7 0.142766 0.329863 0.512446
O O8 0.311218 0.961958 0.163891
O O9 0.574390 0.286106 0.245215
O O10 0.949504 0.276828 0.226874
O O11 0.785582 0.448643 0.517969
O O12 0.872503 0.020850 0.192290
O O13 0.570510 0.280291 0.837256
O O14 0.423905 0.513886 0.828841
O O15 0.668834 0.809770 0.116442
#
# Coordination Sequence:
#
# PCOD9068223 Si02
#       8
#     2   2   2   2   1   2   2   2
#     4   8  15  28  46  71  98 131 170 209 250 319
#     4  10  18  32  50  76 103 138 176 216 258 320
#     4   9  15  27  44  73  99 132 169 214 252 313
#     4   9  19  32  50  77 108 137 175 213 268 317
#     4  10  18  28  50  78 104 132 182 218 264 306
#     4   9  15  26  48  73  97 130 171 208 262 301
#     4   8  16  27  46  69  98 133 174 203 257 311
#     4  10  18  31  52  78 106 138 171 222 264 312
#
# _framework density 29.534057000000001
#
# number of rings (size 3 to 8) (size 9 to 14) (size 15 to 20)
#    0.000    2.933    1.333    0.400    0.000    0.000 
#    0.000    0.667    0.000    4.800    0.000   59.733 
#    0.000    0.000    0.000    0.000    0.000    0.000 
#
# Total GULP energy -83559.494060 kJ/mol
# GULP energy per Si atom -5570.632937 kJ/mol
# Density = 2.946684 g / cm^3
# Si number density = 29.534057 Si / 1000 Ang^3
#
#
#
# Elastic Constant Matrix: (Units=GPa)
#
#
# Indices 1 2 3 4 5 6 
#
# 1 179.0187 27.7883 37.9510 8.9850 19.6804 23.5140
# 2 27.7883 184.2973 30.8802 26.7479 -2.2950 23.9479
# 3 37.9510 30.8802 113.5110 22.9124 8.2383 15.6088
# 4 8.9850 26.7479 22.9124 46.4114 1.6368 13.2686
# 5 19.6804 -2.2950 8.2383 1.6368 37.6212 5.0767
# 6 23.5140 23.9479 15.6088 13.2686 5.0767 39.1148
#
#
#
# Elastic Compliance Matrix: (Units=1/GPa)
#
#
# Indices 1 2 3 4 5 6 
#
# 1 0.006666 -0.000491 -0.001637 0.000740 -0.002794 -0.002942
# 2 -0.000491 0.006346 -0.000799 -0.002470 0.001277 -0.002599
# 3 -0.001637 -0.000799 0.010656 -0.004087 -0.001181 -0.001239
# 4 0.000740 -0.002470 -0.004087 0.026658 0.000054 -0.006352
# 5 -0.002794 0.001277 -0.001181 0.000054 0.028697 -0.002374
# 6 -0.002942 -0.002599 -0.001239 -0.006352 -0.002374 0.031883
#
#
# Mechanical properties :
#
#
# Convention : Reuss Voigt Hill
#
# Bulk Modulus (GPa) = 56.13799 74.45180 65.29489
# Shear Modulus (GPa) = 40.75083 49.97663 45.36373
#
# Velocity S-wave (km/s) = 3.71858 4.11806 3.92341
# Velocity P-wave (km/s) = 6.12261 6.91916 6.53303
#
# Compressibility (1/GPa) = 0.01781325
#
# Stress axis : x y z
#
# Youngs Moduli (GPa) = 150.02358 157.57932 93.84797
#
# Poissons Ratio (x) = 0.07732 0.15365
# Poissons Ratio (y) = 0.07361 0.07499
# Poissons Ratio (z) = 0.24562 0.12592
#
# Static dielectric constant tensor:
#      x y z
#    x 2.556520 -0.186050 -0.072460 
#    y -0.186050 2.547470 0.014950 
#    z -0.072460 0.014950 2.460840 
# 
# From -- ./inp_files/252743.got.cif
#   From: 2010.05.17/outbox.cif.g08.bks.cpg/sg2_127_cif.got.tgz:252743.got - 2010.06.03 11:33:40.
