data_PCOD9068881
_publ_section_title
;
Structure prediction by ZEFSAII (Michael W. Deem and Ramdas Pophale) SiO2 
 PCOD9068881
Probable space group: P -1
;
_chemical_formula_sum "Si O2"
_cell_formula_units_Z 15
_cell_length_a 14.769153
_cell_length_b 9.159287
_cell_length_c 9.176061
_cell_angle_alpha 133.035913
_cell_angle_beta 86.075859
_cell_angle_gamma 125.934386
_cell_volume 608.086090
_symmetry_space_group_name_H-M "P -1"
_symmetry_group_IT_number 2
_symmetry_cell_setting 'triclinic'
loop_
_space_group_symop_operation_xyz
x,y,z
-x,-y,-z
loop_
_atom_site_type_symbol
_atom_site_label
_atom_site_fract_x
_atom_site_fract_y
_atom_site_fract_z
Si Si1 0.620589 0.652426 0.411578
Si Si2 0.061973 0.516518 0.652302
Si Si3 0.512794 0.867676 0.638914
Si Si4 0.711265 0.380236 0.193040
Si Si5 0.094508 0.134669 0.755102
Si Si6 0.500000 0.500000 0.000000
Si Si7 0.662451 0.392323 0.761115
Si Si8 0.094790 0.816554 0.131173
O O1 0.644123 0.463434 0.331155
O O2 0.589420 0.591358 0.201307
O O3 0.511365 0.627582 0.467487
O O4 0.760674 0.975594 0.669984
O O5 0.000000 0.500000 0.500000
O O6 0.205193 0.631229 0.719503
O O7 0.953946 0.169555 0.476574
O O8 0.088029 0.741325 0.912651
O O9 0.613811 0.120105 0.671935
O O10 0.371127 0.704081 0.470114
O O11 0.591353 0.076352 0.912341
O O12 0.816536 0.631662 0.228562
O O13 0.965852 0.065400 0.750532
O O14 0.186327 0.306692 0.005880
O O15 0.425470 0.564886 0.139181
O O16 0.000000 0.500000 0.000000
#
# Coordination Sequence:
#
# PCOD9068881 Si02
#       8
#     2   2   2   2   2   1   2   2
#     4  11  19  31  53  84 120 154 189 240 306 345
#     4  12  26  41  59  88 126 166 204 249 303 361
#     4   9  17  31  50  83 119 149 198 242 300 354
#     4  11  19  37  58  86 119 155 198 251 296 353
#     4  11  21  38  60  87 127 154 203 250 303 358
#     4  10  18  28  52  88 122 148 184 246 306 338
#     4   9  18  31  50  86 125 153 187 253 299 350
#     4  12  22  36  62  91 118 160 200 249 306 360
#
# _framework density 24.667560000000002
#
# number of rings (size 3 to 8) (size 9 to 14) (size 15 to 20)
#    0.000    1.333    6.667    2.000    0.000    0.533 
#    0.000    0.000    0.000    0.800    0.000    4.667 
#    0.000    0.000    0.000    0.000    0.000    0.000 
#
# Total GULP energy -83574.255780 kJ/mol
# GULP energy per Si atom -5571.617052 kJ/mol
# Density = 2.461142 g / cm^3
# Si number density = 24.667560 Si / 1000 Ang^3
#
#
#
# Elastic Constant Matrix: (Units=GPa)
#
#
# Indices 1 2 3 4 5 6 
#
# 1 115.1759 23.8695 36.9898 -25.9470 0.3099 -23.0192
# 2 23.8695 65.1224 34.5703 -14.5783 10.0183 -17.9080
# 3 36.9898 34.5703 174.3475 -26.2789 33.0240 -14.7265
# 4 -25.9470 -14.5783 -26.2789 28.8952 -8.4500 8.7647
# 5 0.3099 10.0183 33.0240 -8.4500 63.1792 -7.8004
# 6 -23.0192 -17.9080 -14.7265 8.7647 -7.8004 29.2972
#
#
#
# Elastic Compliance Matrix: (Units=1/GPa)
#
#
# Indices 1 2 3 4 5 6 
#
# 1 0.012489 -0.000514 -0.001167 0.008524 0.002642 0.007066
# 2 -0.000514 0.020518 -0.002405 0.004783 -0.000188 0.009449
# 3 -0.001167 -0.002405 0.007593 0.003902 -0.003130 -0.000571
# 4 0.008524 0.004783 0.003902 0.049999 0.003547 -0.002431
# 5 0.002642 -0.000188 -0.003130 0.003547 0.018480 0.004247
# 6 0.007066 0.009449 -0.000571 -0.002431 0.004247 0.047031
#
#
# Mechanical properties :
#
#
# Convention : Reuss Voigt Hill
#
# Bulk Modulus (GPa) = 30.83589 60.61167 45.72378
# Shear Modulus (GPa) = 28.55667 41.55540 35.05604
#
# Velocity S-wave (km/s) = 3.40613 4.10886 3.77389
# Velocity P-wave (km/s) = 5.29119 6.86550 6.12910
#
# Compressibility (1/GPa) = 0.03242974
#
# Stress axis : x y z
#
# Youngs Moduli (GPa) = 80.07144 48.73657 131.70112
#
# Poissons Ratio (x) = 0.02503 0.15366
# Poissons Ratio (y) = 0.04112 0.31674
# Poissons Ratio (z) = 0.09342 0.11721
#
# Static dielectric constant tensor:
#      x y z
#    x 1.996530 0.037850 -0.036850 
#    y 0.037850 2.148420 -0.093770 
#    z -0.036850 -0.093770 1.993240 
# 
# From -- ./inp_files/296868.got.cif
#   From: 2010.05.17/outbox.cif.g08.bks.cpg/sg2_149_cif.got.tgz:296868.got - 2010.06.03 11:33:40.
