data_PCOD9068814
_publ_section_title
;
Structure prediction by ZEFSAII (Michael W. Deem and Ramdas Pophale) SiO2 
 PCOD9068814
Probable space group: P -1
;
_chemical_formula_sum "Si O2"
_cell_formula_units_Z 15
_cell_length_a 9.989831
_cell_length_b 9.665548
_cell_length_c 8.676465
_cell_angle_alpha 48.017605
_cell_angle_beta 102.253375
_cell_angle_gamma 100.853807
_cell_volume 607.333580
_symmetry_space_group_name_H-M "P -1"
_symmetry_group_IT_number 2
_symmetry_cell_setting 'triclinic'
loop_
_space_group_symop_operation_xyz
x,y,z
-x,-y,-z
loop_
_atom_site_type_symbol
_atom_site_label
_atom_site_fract_x
_atom_site_fract_y
_atom_site_fract_z
Si Si1 0.296696 0.094541 0.311390
Si Si2 0.645916 0.540608 0.418666
Si Si3 0.036258 0.178513 0.981255
Si Si4 0.360443 0.492674 0.068988
Si Si5 0.380243 0.061423 0.032045
Si Si6 0.000000 0.500000 0.500000
Si Si7 0.763402 0.303375 0.853224
Si Si8 0.224079 0.681463 0.633987
O O1 0.334871 0.280003 0.279598
O O2 0.269021 0.894695 0.530270
O O3 0.160447 0.137236 0.151594
O O4 0.404727 0.084396 0.203159
O O5 0.500000 0.500000 0.500000
O O6 0.660780 0.746095 0.198596
O O7 0.772185 0.481583 0.605200
O O8 0.659088 0.392861 0.395891
O O9 0.061222 0.343093 0.742144
O O10 0.908441 0.252509 0.991689
O O11 0.000000 0.000000 0.000000
O O12 0.348805 0.639724 0.094201
O O13 0.500000 0.500000 0.000000
O O14 0.238703 0.549986 0.883264
O O15 0.500000 0.000000 0.000000
O O16 0.278072 0.878274 0.122137
O O17 0.915650 0.337557 0.483664
#
# Coordination Sequence:
#
# PCOD9068814 Si02
#       8
#     2   2   2   2   2   1   2   2
#     4  12  24  44  70  97 136 186 227 284 348 407
#     4  12  21  38  66  97 127 172 235 284 327 403
#     4  12  22  41  70 103 133 170 232 293 337 400
#     4  12  28  47  67  98 149 185 220 289 361 415
#     4  12  21  38  68  98 127 174 235 289 334 403
#     4  12  20  40  72 102 126 176 234 282 332 398
#     4  12  26  41  65 106 134 176 233 287 345 408
#     4  12  24  43  72 102 131 186 233 277 350 412
#
# _framework density 24.698122000000001
#
# number of rings (size 3 to 8) (size 9 to 14) (size 15 to 20)
#    0.000    0.000    9.333    1.600    0.000    2.133 
#    0.000    0.667    0.000    0.000    0.000    0.000 
#    0.000    0.000    0.000    0.000    0.000    0.000 
#
# Total GULP energy -83620.963428 kJ/mol
# GULP energy per Si atom -5574.730895 kJ/mol
# Density = 2.464191 g / cm^3
# Si number density = 24.698122 Si / 1000 Ang^3
#
#
#
# Elastic Constant Matrix: (Units=GPa)
#
#
# Indices 1 2 3 4 5 6 
#
# 1 58.0239 18.8946 -3.6339 -7.6157 15.8689 -14.7657
# 2 18.8946 107.5340 23.2146 -34.8643 1.5325 -5.3716
# 3 -3.6339 23.2146 90.4945 -41.9616 5.0480 3.5065
# 4 -7.6157 -34.8643 -41.9616 57.4836 7.9921 1.2119
# 5 15.8689 1.5325 5.0480 7.9921 34.2163 -0.6450
# 6 -14.7657 -5.3716 3.5065 1.2119 -0.6450 36.9059
#
#
#
# Elastic Compliance Matrix: (Units=1/GPa)
#
#
# Indices 1 2 3 4 5 6 
#
# 1 0.025614 -0.002554 0.005789 0.007871 -0.014291 0.008818
# 2 -0.002554 0.012109 0.000224 0.007311 -0.001090 0.000460
# 3 0.005789 0.000224 0.019317 0.016309 -0.009358 -0.000186
# 4 0.007871 0.007311 0.016309 0.036834 -0.014965 0.001193
# 5 -0.014291 -0.001090 -0.009358 -0.014965 0.040707 -0.003785
# 6 0.008818 0.000460 -0.000186 0.001193 -0.003785 0.030603
#
#
# Mechanical properties :
#
#
# Convention : Reuss Voigt Hill
#
# Bulk Modulus (GPa) = 15.63518 37.00032 26.31775
# Shear Modulus (GPa) = 27.84198 40.22630 34.03414
#
# Velocity S-wave (km/s) = 3.36116 4.04012 3.71618
# Velocity P-wave (km/s) = 4.62682 6.06440 5.39372
#
# Compressibility (1/GPa) = 0.06395831
#
# Stress axis : x y z
#
# Youngs Moduli (GPa) = 39.04072 82.58534 51.76866
#
# Poissons Ratio (x) = 0.21094 -0.29970
# Poissons Ratio (y) = 0.09972 -0.01161
# Poissons Ratio (z) = -0.22602 -0.01852
#
# Static dielectric constant tensor:
#      x y z
#    x 1.772080 0.033760 0.129500 
#    y 0.033760 1.917700 -0.027660 
#    z 0.129500 -0.027660 1.850040 
# 
# From -- ./inp_files/201327.got.cif
#   From: 2010.05.17/outbox.cif.g08.bks.cpg/sg2_101_cif.got.tgz:201327.got - 2010.06.03 11:33:40.
