data_PCOD9068522
_publ_section_title
;
Structure prediction by ZEFSAII (Michael W. Deem and Ramdas Pophale) SiO2 
 PCOD9068522
Probable space group: P -1
;
_chemical_formula_sum "Si O2"
_cell_formula_units_Z 10
_cell_length_a 7.799607
_cell_length_b 11.821504
_cell_length_c 4.930980
_cell_angle_alpha 94.738039
_cell_angle_beta 98.444689
_cell_angle_gamma 51.919662
_cell_volume 353.978850
_symmetry_space_group_name_H-M "P -1"
_symmetry_group_IT_number 2
_symmetry_cell_setting 'triclinic'
loop_
_space_group_symop_operation_xyz
x,y,z
-x,-y,-z
loop_
_atom_site_type_symbol
_atom_site_label
_atom_site_fract_x
_atom_site_fract_y
_atom_site_fract_z
Si Si1 0.475020 0.811373 0.975496
Si Si2 0.215084 0.465925 0.668556
Si Si3 0.290144 0.097493 0.273175
Si Si4 0.123776 0.831868 0.535364
Si Si5 0.296791 0.575235 0.178742
O O1 0.605697 0.698366 0.225432
O O2 0.311679 0.977082 0.065979
O O3 0.657505 0.807945 0.850578
O O4 0.333404 0.781024 0.756975
O O5 0.314161 0.505461 0.459551
O O6 0.000000 0.500000 0.500000
O O7 0.149024 0.556884 0.947919
O O8 0.500000 0.000000 0.500000
O O9 0.058483 0.178674 0.382136
O O10 0.199817 0.736535 0.263893
O O11 0.000000 0.000000 0.500000
O O12 0.500000 0.500000 0.000000
#
# Coordination Sequence:
#
# PCOD9068522 Si02
#       5
#     2   2   2   2   2
#     4  11  29  54  92 134 189 245 313 389 469 551
#     4  12  32  60  92 131 184 252 309 385 469 553
#     4  11  26  54  89 137 185 240 314 384 461 570
#     4  12  29  56  94 137 186 249 310 389 475 550
#     4  12  33  60  91 133 186 243 318 381 465 569
#
# _framework density 28.250275999999999
#
# number of rings (size 3 to 8) (size 9 to 14) (size 15 to 20)
#    0.000    0.400    2.000    1.800   14.000    3.200 
#    7.200    0.000    0.000    0.000    0.000    0.000 
#    0.000    0.000    0.000    0.000    0.000    0.000 
#
# Total GULP energy -56193.754418 kJ/mol
# GULP energy per Si atom -5619.375442 kJ/mol
# Density = 2.818598 g / cm^3
# Si number density = 28.250276 Si / 1000 Ang^3
#
#
#
# Elastic Constant Matrix: (Units=GPa)
#
#
# Indices 1 2 3 4 5 6 
#
# 1 218.5564 75.1898 83.8671 5.2343 -12.6165 -5.7699
# 2 75.1898 171.8676 82.5558 0.7269 -16.8300 1.9755
# 3 83.8671 82.5558 223.2279 21.3698 0.3289 4.6095
# 4 5.2343 0.7269 21.3698 74.7548 8.0867 -17.1548
# 5 -12.6165 -16.8300 0.3289 8.0867 60.8507 -4.0536
# 6 -5.7699 1.9755 4.6095 -17.1548 -4.0536 49.9943
#
#
#
# Elastic Compliance Matrix: (Units=1/GPa)
#
#
# Indices 1 2 3 4 5 6 
#
# 1 0.005852 -0.001726 -0.001603 0.000217 0.000784 0.001029
# 2 -0.001726 0.007852 -0.002308 0.000520 0.001759 0.000024
# 3 -0.001603 -0.002308 0.006141 -0.001841 -0.000850 -0.001361
# 4 0.000217 0.000520 -0.001841 0.015257 -0.001477 0.005290
# 5 0.000784 0.001759 -0.000850 -0.001477 0.017350 0.000999
# 6 0.001029 0.000024 -0.001361 0.005290 0.000999 0.022142
#
#
# Mechanical properties :
#
#
# Convention : Reuss Voigt Hill
#
# Bulk Modulus (GPa) = 116.68537 121.87527 119.28032
# Shear Modulus (GPa) = 56.35342 61.92256 59.13799
#
# Velocity S-wave (km/s) = 4.47115 4.68688 4.58029
# Velocity P-wave (km/s) = 8.24917 8.51611 8.38370
#
# Compressibility (1/GPa) = 0.00857005
#
# Stress axis : x y z
#
# Youngs Moduli (GPa) = 170.88885 127.35583 162.82818
#
# Poissons Ratio (x) = 0.21979 0.26108
# Poissons Ratio (y) = 0.29492 0.37586
# Poissons Ratio (z) = 0.27401 0.29398
#
# Static dielectric constant tensor:
#      x y z
#    x 2.278500 0.034620 0.059890 
#    y 0.034620 2.253610 0.006540 
#    z 0.059890 0.006540 2.240180 
# 
# From -- ./inp_files/20599.got.cif
#   From: 2010.05.17/outbox.cif.g08.bks.cpg/sg2_11_cif.got.tgz:20599.got - 2010.06.03 11:33:40.
