data_PCOD9068249
_publ_section_title
;
Structure prediction by ZEFSAII (Michael W. Deem and Ramdas Pophale) SiO2 
 PCOD9068249
Probable space group: P -1
;
_chemical_formula_sum "Si O2"
_cell_formula_units_Z 14
_cell_length_a 4.952381
_cell_length_b 8.141705
_cell_length_c 13.224001
_cell_angle_alpha 92.727622
_cell_angle_beta 98.609842
_cell_angle_gamma 97.905544
_cell_volume 520.916502
_symmetry_space_group_name_H-M "P -1"
_symmetry_group_IT_number 2
_symmetry_cell_setting 'triclinic'
loop_
_space_group_symop_operation_xyz
x,y,z
-x,-y,-z
loop_
_atom_site_type_symbol
_atom_site_label
_atom_site_fract_x
_atom_site_fract_y
_atom_site_fract_z
Si Si1 0.423376 0.489994 0.179831
Si Si2 0.278807 0.030200 0.230221
Si Si3 0.943402 0.440272 0.309304
Si Si4 0.276063 0.872204 0.587725
Si Si5 0.013735 0.809321 0.369847
Si Si6 0.547908 0.828102 0.085954
Si Si7 0.968933 0.778052 0.946215
O O1 0.688429 0.400761 0.215148
O O2 0.545588 0.670864 0.153359
O O3 0.215624 0.402404 0.080883
O O4 0.232507 0.483925 0.268521
O O5 0.437643 0.120856 0.336936
O O6 0.092948 0.141470 0.162358
O O7 0.114991 0.863067 0.264544
O O8 0.492726 0.977042 0.159712
O O9 0.920868 0.284593 0.378325
O O10 0.892561 0.615519 0.361890
O O11 0.260563 0.838591 0.466766
O O12 0.174206 0.049661 0.608416
O O13 0.813588 0.859402 0.031087
O O14 0.280619 0.786143 0.997816
#
# Coordination Sequence:
#
# PCOD9068249 Si02
#       7
#     2   2   2   2   2   2   2
#     4  12  24  47  75 103 152 195 245 307 370 434
#     4  12  25  46  72 100 154 186 249 308 366 442
#     4  12  25  49  78 111 150 199 242 307 375 440
#     4  11  26  48  77 111 147 196 248 308 375 445
#     4  11  26  48  77 111 147 196 248 308 375 445
#     4  12  26  44  71 106 144 195 247 300 367 437
#     4  12  26  44  71 106 144 195 247 300 367 437
#
# _framework density 26.875710000000002
#
# number of rings (size 3 to 8) (size 9 to 14) (size 15 to 20)
#    0.000    0.286    2.857    6.000    4.000    0.000 
#    0.000    1.429    0.000    0.000    0.000    0.000 
#    0.000    0.000    0.000    0.000    0.000    0.000 
#
# Total GULP energy -78576.940190 kJ/mol
# GULP energy per Si atom -5612.638585 kJ/mol
# Density = 2.681454 g / cm^3
# Si number density = 26.875710 Si / 1000 Ang^3
#
#
#
# Elastic Constant Matrix: (Units=GPa)
#
#
# Indices 1 2 3 4 5 6 
#
# 1 128.6612 29.8645 45.6013 -14.5282 1.8606 15.5238
# 2 29.8645 151.9096 32.7057 -10.8819 -7.1183 1.8796
# 3 45.6013 32.7057 131.9305 -14.7622 13.0597 3.7049
# 4 -14.5282 -10.8819 -14.7622 48.1255 11.7889 1.4564
# 5 1.8606 -7.1183 13.0597 11.7889 47.4498 -0.0868
# 6 15.5238 1.8796 3.7049 1.4564 -0.0868 37.8582
#
#
#
# Elastic Compliance Matrix: (Units=1/GPa)
#
#
# Indices 1 2 3 4 5 6 
#
# 1 0.009677 -0.001145 -0.002698 0.002026 -0.000319 -0.003726
# 2 -0.001145 0.007226 -0.001490 0.000476 0.001421 0.000242
# 3 -0.002698 -0.001490 0.009501 0.002585 -0.003375 0.000143
# 4 0.002026 0.000476 0.002585 0.023990 -0.006684 -0.002045
# 5 -0.000319 0.001421 -0.003375 -0.006684 0.023891 0.000702
# 6 -0.003726 0.000242 0.000143 -0.002045 0.000702 0.027996
#
#
# Mechanical properties :
#
#
# Convention : Reuss Voigt Hill
#
# Bulk Modulus (GPa) = 63.53954 69.87161 66.70557
# Shear Modulus (GPa) = 42.30272 46.97536 44.63904
#
# Velocity S-wave (km/s) = 3.97169 4.18529 4.07989
# Velocity P-wave (km/s) = 6.68773 7.02923 6.86060
#
# Compressibility (1/GPa) = 0.01573823
#
# Stress axis : x y z
#
# Youngs Moduli (GPa) = 103.33324 138.38009 105.25199
#
# Poissons Ratio (x) = 0.15849 0.28399
# Poissons Ratio (y) = 0.11835 0.15681
# Poissons Ratio (z) = 0.27881 0.20616
#
# Static dielectric constant tensor:
#      x y z
#    x 2.096530 0.000740 -0.003640 
#    y 0.000740 2.160820 0.056170 
#    z -0.003640 0.056170 2.072310 
# 
# From -- ./inp_files/27242.got.cif
#   From: 2010.05.17/outbox.cif.g08.bks.cpg/sg2_14_cif.got.tgz:27242.got - 2010.06.03 11:33:40.
