data_PCOD9068263
_publ_section_title
;
Structure prediction by ZEFSAII (Michael W. Deem and Ramdas Pophale) SiO2 
 PCOD9068263
Probable space group: P -1
;
_chemical_formula_sum "Si O2"
_cell_formula_units_Z 10
_cell_length_a 11.583844
_cell_length_b 9.148864
_cell_length_c 5.494997
_cell_angle_alpha 54.062031
_cell_angle_beta 100.714919
_cell_angle_gamma 117.174923
_cell_volume 416.723102
_symmetry_space_group_name_H-M "P -1"
_symmetry_group_IT_number 2
_symmetry_cell_setting 'triclinic'
loop_
_space_group_symop_operation_xyz
x,y,z
-x,-y,-z
loop_
_atom_site_type_symbol
_atom_site_label
_atom_site_fract_x
_atom_site_fract_y
_atom_site_fract_z
Si Si1 0.482360 0.596872 0.649145
Si Si2 0.244948 0.600289 0.779918
Si Si3 0.862314 0.146970 0.778821
Si Si4 0.627956 0.040972 0.163778
Si Si5 0.091398 0.162983 0.182973
O O1 0.500000 0.500000 0.500000
O O2 0.335998 0.581221 0.621019
O O3 0.589053 0.826558 0.477614
O O4 0.500000 0.500000 0.000000
O O5 0.142971 0.679360 0.560883
O O6 0.340657 0.779723 0.811863
O O7 0.178653 0.385781 0.096059
O O8 0.830879 0.945982 0.809575
O O9 0.753177 0.099968 0.985929
O O10 0.999345 0.197021 0.912169
O O11 0.500000 0.000000 0.000000
O O12 0.000000 0.000000 0.500000
#
# Coordination Sequence:
#
# PCOD9068263 Si02
#       5
#     2   2   2   2   2
#     4  12  28  47  78 116 160 208 262 322 398 475
#     4  12  27  47  79 109 157 206 257 325 394 467
#     4  11  26  48  78 106 157 197 263 317 398 463
#     4  12  26  49  75 116 155 202 259 323 396 478
#     4  11  27  50  76 111 150 201 266 324 386 465
#
# _framework density 23.996752000000001
#
# number of rings (size 3 to 8) (size 9 to 14) (size 15 to 20)
#    0.000    0.400    2.000    4.800    8.400    6.400 
#    0.000    0.000    0.000    0.000    0.000    0.000 
#    0.000    0.000    0.000    0.000    0.000    0.000 
#
# Total GULP energy -56054.288778 kJ/mol
# GULP energy per Si atom -5605.428878 kJ/mol
# Density = 2.394213 g / cm^3
# Si number density = 23.996752 Si / 1000 Ang^3
#
#
#
# Elastic Constant Matrix: (Units=GPa)
#
#
# Indices 1 2 3 4 5 6 
#
# 1 97.9204 37.8550 11.2875 5.6417 13.3155 -34.9958
# 2 37.8550 177.5409 78.9199 -25.8264 3.8037 -18.5319
# 3 11.2875 78.9199 138.0879 -29.0039 8.0354 -20.1706
# 4 5.6417 -25.8264 -29.0039 51.1076 5.4444 1.1265
# 5 13.3155 3.8037 8.0354 5.4444 43.4845 5.2008
# 6 -34.9958 -18.5319 -20.1706 1.1265 5.2008 37.3718
#
#
#
# Elastic Compliance Matrix: (Units=1/GPa)
#
#
# Indices 1 2 3 4 5 6 
#
# 1 0.019453 -0.003740 0.003561 -0.001548 -0.008426 0.019503
# 2 -0.003740 0.008488 -0.004458 0.002087 0.001196 -0.001928
# 3 0.003561 -0.004458 0.011838 0.004364 -0.004390 0.007993
# 4 -0.001548 0.002087 0.004364 0.023622 -0.003681 0.001740
# 5 -0.008426 0.001196 -0.004390 -0.003681 0.028359 -0.013503
# 6 0.019503 -0.001928 0.007993 0.001740 -0.013503 0.050206
#
#
# Mechanical properties :
#
#
# Convention : Reuss Voigt Hill
#
# Bulk Modulus (GPa) = 32.78095 74.40823 53.59459
# Shear Modulus (GPa) = 30.97710 45.42524 38.20117
#
# Velocity S-wave (km/s) = 3.59679 4.35555 3.99423
# Velocity P-wave (km/s) = 5.56232 7.50796 6.60715
#
# Compressibility (1/GPa) = 0.03050553
#
# Stress axis : x y z
#
# Youngs Moduli (GPa) = 51.40643 117.80702 84.47142
#
# Poissons Ratio (x) = 0.44056 -0.30081
# Poissons Ratio (y) = 0.19224 0.37662
# Poissons Ratio (z) = -0.18306 0.52524
#
# Static dielectric constant tensor:
#      x y z
#    x 1.929670 0.025570 0.035830 
#    y 0.025570 1.906280 0.017890 
#    z 0.035830 0.017890 2.020490 
# 
# From -- ./inp_files/2007.got.cif
#   From: 2010.05.17/outbox.cif.g08.bks.cpg/sg2_2_cif.got.tgz:2007.got - 2010.06.03 11:33:40.
