data_PCOD9068040
_publ_section_title
;
Structure prediction by ZEFSAII (Michael W. Deem and Ramdas Pophale) SiO2 
 PCOD9068040
Probable space group: P -1
;
_chemical_formula_sum "Si O2"
_cell_formula_units_Z 14
_cell_length_a 11.721497
_cell_length_b 9.683848
_cell_length_c 11.588284
_cell_angle_alpha 38.505125
_cell_angle_beta 35.262953
_cell_angle_gamma 57.287695
_cell_volume 454.679627
_symmetry_space_group_name_H-M "P -1"
_symmetry_group_IT_number 2
_symmetry_cell_setting 'triclinic'
loop_
_space_group_symop_operation_xyz
x,y,z
-x,-y,-z
loop_
_atom_site_type_symbol
_atom_site_label
_atom_site_fract_x
_atom_site_fract_y
_atom_site_fract_z
Si Si1 0.960506 0.170304 0.355445
Si Si2 0.737072 0.788128 0.112777
Si Si3 0.341131 0.618318 0.402841
Si Si4 0.687775 0.292986 0.089669
Si Si5 0.326700 0.978848 0.542815
Si Si6 0.003405 0.760195 0.296459
Si Si7 0.371880 0.216755 0.156742
O O1 0.858004 0.309644 0.439465
O O2 0.158954 0.116177 0.304062
O O3 0.759245 0.045908 0.507116
O O4 0.111753 0.293710 0.044539
O O5 0.518798 0.750801 0.258032
O O6 0.699291 0.648993 0.354605
O O7 0.849793 0.054200 0.862648
O O8 0.441746 0.694821 0.146042
O O9 0.728142 0.287793 0.199695
O O10 0.521970 0.184310 0.184983
O O11 0.885266 0.217346 0.932289
O O12 0.688902 0.557153 0.898312
O O13 0.500000 0.000000 0.500000
O O14 0.198635 0.151465 0.588438
O O15 0.000000 0.500000 0.500000
#
# Coordination Sequence:
#
# PCOD9068040 Si02
#       7
#     2   2   2   2   2   2   2
#     4  12  25  47  72 109 151 194 250 307 372 450
#     4  11  26  48  77 113 150 198 256 307 376 449
#     4  11  28  47  76 113 152 199 249 310 381 446
#     4  11  27  47  73 109 149 194 254 315 377 447
#     4  11  26  47  72 108 151 194 252 311 375 445
#     4  12  25  47  79 113 149 201 254 312 375 449
#     4  12  25  49  74 112 151 202 249 312 379 451
#
# _framework density 30.790908000000002
#
# number of rings (size 3 to 8) (size 9 to 14) (size 15 to 20)
#    0.000    0.571    4.286    1.714    6.000    2.286 
#    2.571    0.000    0.000    0.000    0.000    0.000 
#    0.000    0.000    0.000    0.000    0.000    0.000 
#
# Total GULP energy -78277.527479 kJ/mol
# GULP energy per Si atom -5591.251963 kJ/mol
# Density = 3.072083 g / cm^3
# Si number density = 30.790908 Si / 1000 Ang^3
#
#
#
# Elastic Constant Matrix: (Units=GPa)
#
#
# Indices 1 2 3 4 5 6 
#
# 1 235.0385 52.9458 90.2438 -9.2570 48.7202 -33.3884
# 2 52.9458 176.6721 69.6604 29.7221 20.4320 -13.7693
# 3 90.2438 69.6604 171.5720 20.3985 27.5935 -15.0653
# 4 -9.2570 29.7221 20.3985 77.4719 9.6936 -5.2549
# 5 48.7202 20.4320 27.5935 9.6936 91.3227 -14.5733
# 6 -33.3884 -13.7693 -15.0653 -5.2549 -14.5733 60.1826
#
#
#
# Elastic Compliance Matrix: (Units=1/GPa)
#
#
# Indices 1 2 3 4 5 6 
#
# 1 0.006360 -0.000758 -0.002733 0.002211 -0.002263 0.002316
# 2 -0.000758 0.007179 -0.002177 -0.002213 -0.000241 0.000425
# 3 -0.002733 -0.002177 0.008404 -0.001660 -0.000444 -0.000163
# 4 0.002211 -0.002213 -0.001660 0.014735 -0.001553 0.001215
# 5 -0.002263 -0.000241 -0.000444 -0.001553 0.012755 0.001531
# 6 0.002316 0.000425 -0.000163 0.001215 0.001531 0.018434
#
#
# Mechanical properties :
#
#
# Convention : Reuss Voigt Hill
#
# Bulk Modulus (GPa) = 94.27435 112.10919 103.19177
# Shear Modulus (GPa) = 60.43182 70.49096 65.46139
#
# Velocity S-wave (km/s) = 4.43499 4.78990 4.61586
# Velocity P-wave (km/s) = 7.54384 8.19022 7.87367
#
# Compressibility (1/GPa) = 0.01060734
#
# Stress axis : x y z
#
# Youngs Moduli (GPa) = 157.23912 139.29578 118.98847
#
# Poissons Ratio (x) = 0.10560 0.32518
# Poissons Ratio (y) = 0.11920 0.25901
# Poissons Ratio (z) = 0.42972 0.30322
#
# Static dielectric constant tensor:
#      x y z
#    x 2.552830 0.035050 -0.327920 
#    y 0.035050 2.164290 0.125660 
#    z -0.327920 0.125660 2.007150 
# 
# From -- ./inp_files/575905.got.cif
#   From: 2010.05.17/outbox.cif.g08.bks.cpg/sg2_288_cif.got.tgz:575905.got - 2010.06.03 11:33:40.
