data_PCOD9068671
_publ_section_title
;
Structure prediction by ZEFSAII (Michael W. Deem and Ramdas Pophale) SiO2 
 PCOD9068671
Probable space group: P -1
;
_chemical_formula_sum "Si O2"
_cell_formula_units_Z 16
_cell_length_a 11.583036
_cell_length_b 23.592097
_cell_length_c 17.085965
_cell_angle_alpha 19.586277
_cell_angle_beta 144.721767
_cell_angle_gamma 154.952650
_cell_volume 639.505266
_symmetry_space_group_name_H-M "P -1"
_symmetry_group_IT_number 2
_symmetry_cell_setting 'triclinic'
loop_
_space_group_symop_operation_xyz
x,y,z
-x,-y,-z
loop_
_atom_site_type_symbol
_atom_site_label
_atom_site_fract_x
_atom_site_fract_y
_atom_site_fract_z
Si Si1 0.003032 0.416997 0.412537
Si Si2 0.334275 0.198955 0.498851
Si Si3 0.274874 0.220020 0.259075
Si Si4 0.247888 0.775575 0.205341
Si Si5 0.428448 0.985271 0.569077
Si Si6 0.425671 0.617411 0.255423
Si Si7 0.005277 0.153282 0.889478
Si Si8 0.623829 0.417370 0.900465
O O1 0.096183 0.321779 0.646505
O O2 0.014999 0.574636 0.276087
O O3 0.207865 0.580998 0.239828
O O4 0.710430 0.185799 0.514807
O O5 0.354504 0.196376 0.420078
O O6 0.599164 0.280350 0.586151
O O7 0.292286 0.373245 0.271070
O O8 0.053766 0.928569 0.720480
O O9 0.273737 0.069153 0.391075
O O10 0.500000 0.500000 0.000000
O O11 0.100119 0.809463 0.140967
O O12 0.500000 0.000000 0.000000
O O13 0.500000 0.000000 0.500000
O O14 0.286943 0.723756 0.854989
O O15 0.500000 0.500000 0.500000
O O16 0.300853 0.495592 0.260934
O O17 0.716307 0.889221 0.048929
O O18 0.279919 0.209373 0.989831
#
# Coordination Sequence:
#
# PCOD9068671 Si02
#       8
#     2   2   2   2   2   2   2   2
#     4  12  25  47  72 109 151 196 248 314 383 445
#     4  11  27  51  77 110 150 199 256 313 375 440
#     4  11  28  54  80 105 148 204 259 311 367 449
#     4  12  26  45  76 117 152 198 247 315 384 453
#     4  12  29  50  76 111 150 207 257 309 375 452
#     4  12  23  42  69 107 153 193 239 298 385 456
#     4  12  24  45  74 110 157 192 241 309 386 452
#     4  12  26  47  75 110 155 198 248 316 375 451
#
# _framework density 25.01934
#
# number of rings (size 3 to 8) (size 9 to 14) (size 15 to 20)
#    0.000    0.250    5.000    3.000    5.250    1.500 
#    2.250    0.000    0.000    0.000    0.000    0.000 
#    0.000    0.000    0.000    0.000    0.000    0.000 
#
# Total GULP energy -89586.496612 kJ/mol
# GULP energy per Si atom -5599.156038 kJ/mol
# Density = 2.496240 g / cm^3
# Si number density = 25.019340 Si / 1000 Ang^3
#
#
#
# Elastic Constant Matrix: (Units=GPa)
#
#
# Indices 1 2 3 4 5 6 
#
# 1 182.9159 34.0544 47.5604 -12.3731 3.7892 -29.7689
# 2 34.0544 96.4412 14.9978 -23.7363 -2.0095 -9.4144
# 3 47.5604 14.9978 99.8345 -12.3082 -7.1815 -1.2018
# 4 -12.3731 -23.7363 -12.3082 41.4544 -3.0775 -6.6976
# 5 3.7892 -2.0095 -7.1815 -3.0775 43.7100 -9.6637
# 6 -29.7689 -9.4144 -1.2018 -6.6976 -9.6637 49.7804
#
#
#
# Elastic Compliance Matrix: (Units=1/GPa)
#
#
# Indices 1 2 3 4 5 6 
#
# 1 0.007283 -0.001426 -0.003087 0.001089 -0.000218 0.004115
# 2 -0.001426 0.013122 -0.000173 0.007667 0.001907 0.003026
# 3 -0.003087 -0.000173 0.011981 0.002571 0.002230 -0.000811
# 4 0.001089 0.007667 0.002571 0.031098 0.004465 0.007214
# 5 -0.000218 0.001907 0.002230 0.004465 0.024931 0.005725
# 6 0.004115 0.003026 -0.000811 0.007214 0.005725 0.025184
#
#
# Mechanical properties :
#
#
# Convention : Reuss Voigt Hill
#
# Bulk Modulus (GPa) = 43.45388 63.60186 53.52787
# Shear Modulus (GPa) = 38.27215 45.82754 42.04985
#
# Velocity S-wave (km/s) = 3.91538 4.28446 4.10407
# Velocity P-wave (km/s) = 6.15192 7.06766 6.62563
#
# Compressibility (1/GPa) = 0.02301290
#
# Stress axis : x y z
#
# Youngs Moduli (GPa) = 137.30180 76.20970 83.46597
#
# Poissons Ratio (x) = 0.10870 0.25768
# Poissons Ratio (y) = 0.19585 0.01443
# Poissons Ratio (z) = 0.42388 0.01317
#
# Static dielectric constant tensor:
#      x y z
#    x 1.969700 0.068210 0.045200 
#    y 0.068210 1.969660 -0.003780 
#    z 0.045200 -0.003780 2.029190 
# 
# From -- ./inp_files/571022.got.cif
#   From: 2010.05.17/outbox.cif.g08.bks.cpg/sg2_286_cif.got.tgz:571022.got - 2010.06.03 11:33:40.
