data_PCOD9068031
_publ_section_title
;
Structure prediction by ZEFSAII (Michael W. Deem and Ramdas Pophale) SiO2 
 PCOD9068031
Probable space group: P -1
;
_chemical_formula_sum "Si O2"
_cell_formula_units_Z 12
_cell_length_a 16.526075
_cell_length_b 8.888441
_cell_length_c 15.649842
_cell_angle_alpha 154.624515
_cell_angle_beta 29.902949
_cell_angle_gamma 140.523799
_cell_volume 490.439508
_symmetry_space_group_name_H-M "P -1"
_symmetry_group_IT_number 2
_symmetry_cell_setting 'triclinic'
loop_
_space_group_symop_operation_xyz
x,y,z
-x,-y,-z
loop_
_atom_site_type_symbol
_atom_site_label
_atom_site_fract_x
_atom_site_fract_y
_atom_site_fract_z
Si Si1 0.492017 0.673671 0.690879
Si Si2 0.367424 0.646251 0.421280
Si Si3 0.360305 0.573858 0.073047
Si Si4 0.131557 0.280528 0.008101
Si Si5 0.179889 0.585522 0.410576
Si Si6 0.856905 0.574144 0.104302
O O1 0.500000 0.500000 0.500000
O O2 0.570108 0.509112 0.624248
O O3 0.298290 0.660528 0.872972
O O4 0.581611 0.033552 0.783381
O O5 0.225963 0.460942 0.401011
O O6 0.289164 0.032239 0.708931
O O7 0.503091 0.634883 0.216299
O O8 0.313940 0.455014 0.149941
O O9 0.191288 0.521146 0.151442
O O10 0.071208 0.486757 0.086693
O O11 0.000000 0.000000 0.000000
O O12 0.000000 0.500000 0.500000
O O13 0.188787 0.010687 0.624365
O O14 0.000000 0.500000 0.000000
#
# Coordination Sequence:
#
# PCOD9068031 Si02
#       6
#     2   2   2   2   2   2
#     4  12  27  48  71 106 144 194 245 296 355 425
#     4  11  26  47  74 105 143 184 247 299 354 428
#     4  12  24  45  77 105 139 190 241 295 361 426
#     4  11  26  47  73 107 143 187 237 301 369 426
#     4  11  26  47  71 110 142 188 240 295 367 429
#     4  11  26  48  67 101 151 187 238 299 358 426
#
# _framework density 24.467849999999999
#
# number of rings (size 3 to 8) (size 9 to 14) (size 15 to 20)
#    0.000    0.667    3.333    3.500    7.000    1.333 
#    0.000    2.500    0.000    0.000    0.000    0.000 
#    0.000    0.000    0.000    0.000    0.000    0.000 
#
# Total GULP energy -66941.487042 kJ/mol
# GULP energy per Si atom -5578.457254 kJ/mol
# Density = 2.441216 g / cm^3
# Si number density = 24.467850 Si / 1000 Ang^3
#
#
#
# Elastic Constant Matrix: (Units=GPa)
#
#
# Indices 1 2 3 4 5 6 
#
# 1 286.4112 75.6125 31.5438 -6.6849 1.4891 18.1991
# 2 75.6125 150.0309 14.7123 -6.2990 8.6535 38.1645
# 3 31.5438 14.7123 58.6708 -0.7211 8.4097 0.7196
# 4 -6.6849 -6.2990 -0.7211 32.0060 1.5463 9.9631
# 5 1.4891 8.6535 8.4097 1.5463 36.0394 -2.6986
# 6 18.1991 38.1645 0.7196 9.9631 -2.6986 53.4057
#
#
#
# Elastic Compliance Matrix: (Units=1/GPa)
#
#
# Indices 1 2 3 4 5 6 
#
# 1 0.004224 -0.001950 -0.001877 0.000443 0.000708 -0.000068
# 2 -0.001950 0.009915 -0.000899 0.003927 -0.002804 -0.007283
# 3 -0.001877 -0.000899 0.018843 -0.000219 -0.004029 0.000865
# 4 0.000443 0.003927 -0.000219 0.035274 -0.003149 -0.009694
# 5 0.000708 -0.002804 -0.004029 -0.003149 0.029760 0.003909
# 6 -0.000068 -0.007283 0.000865 -0.009694 0.003909 0.025947
#
#
# Mechanical properties :
#
#
# Convention : Reuss Voigt Hill
#
# Bulk Modulus (GPa) = 42.49625 82.09445 62.29535
# Shear Modulus (GPa) = 35.39628 49.17316 42.28472
#
# Velocity S-wave (km/s) = 3.80760 4.48784 4.16164
# Velocity P-wave (km/s) = 6.06105 7.77683 6.97192
#
# Compressibility (1/GPa) = 0.02353149
#
# Stress axis : x y z
#
# Youngs Moduli (GPa) = 236.74781 100.85371 53.06978
#
# Poissons Ratio (x) = 0.19663 0.09962
# Poissons Ratio (y) = 0.46158 0.04769
# Poissons Ratio (z) = 0.44442 0.09063
#
# Static dielectric constant tensor:
#      x y z
#    x 2.064000 0.031400 -0.018440 
#    y 0.031400 2.066340 -0.073580 
#    z -0.018440 -0.073580 2.075430 
# 
# From -- ./inp_files/194791.got.cif
#   From: 2010.05.17/outbox.cif.g08.bks.cpg/sg2_98_cif.got.tgz:194791.got - 2010.06.03 11:33:40.
