data_PCOD9068864
_publ_section_title
;
Structure prediction by ZEFSAII (Michael W. Deem and Ramdas Pophale) SiO2 
 PCOD9068864
Probable space group: P -1
;
_chemical_formula_sum "Si O2"
_cell_formula_units_Z 14
_cell_length_a 13.747982
_cell_length_b 13.392538
_cell_length_c 23.087677
_cell_angle_alpha 24.277181
_cell_angle_beta 22.009279
_cell_angle_gamma 22.139727
_cell_volume 556.831936
_symmetry_space_group_name_H-M "P -1"
_symmetry_group_IT_number 2
_symmetry_cell_setting 'triclinic'
loop_
_space_group_symop_operation_xyz
x,y,z
-x,-y,-z
loop_
_atom_site_type_symbol
_atom_site_label
_atom_site_fract_x
_atom_site_fract_y
_atom_site_fract_z
Si Si1 0.841831 0.992025 0.239526
Si Si2 0.118014 0.149399 0.900224
Si Si3 0.786877 0.747431 0.944464
Si Si4 0.632789 0.461871 0.729994
Si Si5 0.163822 0.182631 0.298639
Si Si6 0.118406 0.888661 0.611136
Si Si7 0.244540 0.484884 0.502032
O O1 0.813440 0.770687 0.331440
O O2 0.058936 0.788397 0.278782
O O3 0.512104 0.232238 0.319545
O O4 0.000220 0.117808 0.045230
O O5 0.989018 0.482110 0.780818
O O6 0.486394 0.986882 0.785347
O O7 0.000000 0.000000 0.000000
O O8 0.998286 0.873107 0.747693
O O9 0.622514 0.610751 0.073497
O O10 0.000000 0.500000 0.000000
O O11 0.500000 0.000000 0.000000
O O12 0.672199 0.489368 0.624672
O O13 0.112984 0.172289 0.263495
O O14 0.000000 0.000000 0.500000
O O15 0.463421 0.628058 0.556927
O O16 0.032005 0.212269 0.482060
#
# Coordination Sequence:
#
# PCOD9068864 Si02
#       7
#     2   2   2   2   2   2   2
#     4  12  26  43  71  99 149 185 242 296 358 432
#     4  12  28  52  80 112 146 193 247 303 383 440
#     4  12  21  38  62  91 131 176 224 283 340 421
#     4  12  23  43  66 102 141 191 242 288 357 419
#     4  12  29  51  82 112 145 188 247 318 368 439
#     4  12  24  43  69 104 144 184 248 288 369 419
#     4  12  25  42  68 104 144 199 231 295 349 441
#
# _framework density 25.142236
#
# number of rings (size 3 to 8) (size 9 to 14) (size 15 to 20)
#    0.000    0.000    2.857    7.714    4.000    0.000 
#    0.000    0.000    0.000    0.000    0.000    0.000 
#    0.000    0.000    0.000    0.000    0.000    0.000 
#
# Total GULP energy -78168.993328 kJ/mol
# GULP energy per Si atom -5583.499523 kJ/mol
# Density = 2.508501 g / cm^3
# Si number density = 25.142236 Si / 1000 Ang^3
#
#
#
# Elastic Constant Matrix: (Units=GPa)
#
#
# Indices 1 2 3 4 5 6 
#
# 1 70.9924 63.3632 20.7011 -3.8197 -23.5884 -10.2943
# 2 63.3632 158.0028 49.1116 -25.9025 9.9973 -11.7091
# 3 20.7011 49.1116 144.2715 -19.8480 4.4333 -7.6322
# 4 -3.8197 -25.9025 -19.8480 47.0675 0.8401 -11.5680
# 5 -23.5884 9.9973 4.4333 0.8401 45.4463 -3.9715
# 6 -10.2943 -11.7091 -7.6322 -11.5680 -3.9715 44.9866
#
#
#
# Elastic Compliance Matrix: (Units=1/GPa)
#
#
# Indices 1 2 3 4 5 6 
#
# 1 0.037981 -0.017101 -0.000950 -0.006014 0.024087 0.004659
# 2 -0.017101 0.015608 -0.001497 0.006936 -0.012240 0.000598
# 3 -0.000950 -0.001497 0.008074 0.002869 -0.000880 0.001423
# 4 -0.006014 0.006936 0.002869 0.027745 -0.004773 0.007629
# 5 0.024087 -0.012240 -0.000880 -0.004773 0.037747 0.004282
# 6 0.004659 0.000598 0.001423 0.007629 0.004282 0.026032
#
#
# Mechanical properties :
#
#
# Convention : Reuss Voigt Hill
#
# Bulk Modulus (GPa) = 44.31069 71.06870 57.68969
# Shear Modulus (GPa) = 25.02419 43.50612 34.26516
#
# Velocity S-wave (km/s) = 3.15827 4.16432 3.69569
# Velocity P-wave (km/s) = 5.56433 7.17287 6.41919
#
# Compressibility (1/GPa) = 0.02256792
#
# Stress axis : x y z
#
# Youngs Moduli (GPa) = 26.32862 64.06870 123.84797
#
# Poissons Ratio (x) = 1.09565 0.11759
# Poissons Ratio (y) = 0.45025 0.18546
# Poissons Ratio (z) = 0.02500 0.09594
#
# Static dielectric constant tensor:
#      x y z
#    x 1.688860 0.009040 -0.401010 
#    y 0.009040 1.984430 -0.004240 
#    z -0.401010 -0.004240 1.801440 
# 
# From -- ./inp_files/619623.got.cif
#   From: 2010.05.17/outbox.cif.g08.bks.cpg/sg2_310_cif.got.tgz:619623.got - 2010.06.03 11:33:40.
