data_PCOD9068462
_publ_section_title
;
Structure prediction by ZEFSAII (Michael W. Deem and Ramdas Pophale) SiO2 
 PCOD9068462
Probable space group: P -1
;
_chemical_formula_sum "Si O2"
_cell_formula_units_Z 13
_cell_length_a 13.354232
_cell_length_b 5.453867
_cell_length_c 17.244167
_cell_angle_alpha 77.880873
_cell_angle_beta 154.022366
_cell_angle_gamma 90.128721
_cell_volume 484.189925
_symmetry_space_group_name_H-M "P -1"
_symmetry_group_IT_number 2
_symmetry_cell_setting 'triclinic'
loop_
_space_group_symop_operation_xyz
x,y,z
-x,-y,-z
loop_
_atom_site_type_symbol
_atom_site_label
_atom_site_fract_x
_atom_site_fract_y
_atom_site_fract_z
Si Si1 0.905695 0.548468 0.813573
Si Si2 0.810840 0.249025 0.902863
Si Si3 0.575463 0.778599 0.879586
Si Si4 0.760189 0.758496 0.278406
Si Si5 0.879543 0.074471 0.562492
Si Si6 0.500000 0.500000 0.000000
Si Si7 0.734519 0.595907 0.530194
O O1 0.783611 0.510710 0.811212
O O2 0.704561 0.621340 0.600292
O O3 0.040922 0.745318 0.917065
O O4 0.154570 0.293440 0.967187
O O5 0.536008 0.261811 0.709423
O O6 0.000000 0.000000 0.000000
O O7 0.373284 0.775815 0.675507
O O8 0.446184 0.076485 0.812321
O O9 0.586680 0.565583 0.968555
O O10 0.653813 0.656824 0.139814
O O11 0.000000 0.500000 0.500000
O O12 0.871456 0.974431 0.310850
O O13 0.862515 0.284263 0.605752
O O14 0.880513 0.783672 0.602672
#
# Coordination Sequence:
#
# PCOD9068462 Si02
#       7
#     2   2   2   2   2   1   2
#     4  11  27  50  77 119 155 206 265 330 402 475
#     4  11  26  50  83 114 158 204 265 334 403 475
#     4  12  26  48  78 110 163 205 267 328 399 469
#     4  12  27  51  75 113 158 212 268 329 393 474
#     4  12  27  50  79 114 162 211 265 327 400 473
#     4  12  28  46  76 112 152 204 270 314 400 468
#     4  12  28  51  82 116 160 211 264 328 405 481
#
# _framework density 26.848972
#
# number of rings (size 3 to 8) (size 9 to 14) (size 15 to 20)
#    0.000    0.308    3.077    4.154    8.615    1.846 
#    2.769    0.000    0.000    0.000    0.000    0.000 
#    0.000    0.000    0.000    0.000    0.000    0.000 
#
# Total GULP energy -72683.740874 kJ/mol
# GULP energy per Si atom -5591.056990 kJ/mol
# Density = 2.678786 g / cm^3
# Si number density = 26.848972 Si / 1000 Ang^3
#
#
#
# Elastic Constant Matrix: (Units=GPa)
#
#
# Indices 1 2 3 4 5 6 
#
# 1 104.7633 25.5001 12.0946 20.4960 -4.4572 12.3269
# 2 25.5001 143.5071 32.6723 44.7951 3.9639 -17.9514
# 3 12.0946 32.6723 87.0708 33.9068 -12.3349 1.0290
# 4 20.4960 44.7951 33.9068 48.5226 -17.4141 1.1379
# 5 -4.4572 3.9639 -12.3349 -17.4141 53.5351 11.1729
# 6 12.3269 -17.9514 1.0290 1.1379 11.1729 52.9346
#
#
#
# Elastic Compliance Matrix: (Units=1/GPa)
#
#
# Indices 1 2 3 4 5 6 
#
# 1 0.010873 -0.001419 0.000426 -0.003259 0.000695 -0.003098
# 2 -0.001419 0.012350 -0.000357 -0.013092 -0.006671 0.006215
# 3 0.000426 -0.000357 0.015803 -0.010789 0.000267 -0.000352
# 4 -0.003259 -0.013092 -0.010789 0.047241 0.015184 -0.007692
# 5 0.000695 -0.006671 0.000267 0.015184 0.025950 -0.008233
# 6 -0.003098 0.006215 -0.000352 -0.007692 -0.008233 0.023630
#
#
# Mechanical properties :
#
#
# Convention : Reuss Voigt Hill
#
# Bulk Modulus (GPa) = 27.52783 52.87501 40.20142
# Shear Modulus (GPa) = 33.18822 48.67009 40.92916
#
# Velocity S-wave (km/s) = 3.51965 4.26224 3.90862
# Velocity P-wave (km/s) = 5.17613 6.63012 5.94772
#
# Compressibility (1/GPa) = 0.03632688
#
# Stress axis : x y z
#
# Youngs Moduli (GPa) = 91.97027 80.97138 63.27824
#
# Poissons Ratio (x) = 0.11486 -0.02696
# Poissons Ratio (y) = 0.13046 0.02261
# Poissons Ratio (z) = -0.03919 0.02893
#
# Static dielectric constant tensor:
#      x y z
#    x 2.121870 0.140970 -0.077030 
#    y 0.140970 1.397060 0.771310 
#    z -0.077030 0.771310 1.035400 
# 
# From -- ./inp_files/479932.got.cif
#   From: 2010.05.17/outbox.cif.g08.bks.cpg/sg2_240_cif.got.tgz:479932.got - 2010.06.03 11:33:40.
