data_PCOD9068913
_publ_section_title
;
Structure prediction by ZEFSAII (Michael W. Deem and Ramdas Pophale) SiO2 
 PCOD9068913
Probable space group: P -1
;
_chemical_formula_sum "Si O2"
_cell_formula_units_Z 16
_cell_length_a 14.841354
_cell_length_b 13.746705
_cell_length_c 6.743615
_cell_angle_alpha 110.209430
_cell_angle_beta 121.116293
_cell_angle_gamma 41.860780
_cell_volume 784.149793
_symmetry_space_group_name_H-M "P -1"
_symmetry_group_IT_number 2
_symmetry_cell_setting 'triclinic'
loop_
_space_group_symop_operation_xyz
x,y,z
-x,-y,-z
loop_
_atom_site_type_symbol
_atom_site_label
_atom_site_fract_x
_atom_site_fract_y
_atom_site_fract_z
Si Si1 0.156325 0.345227 0.630150
Si Si2 0.130363 0.846616 0.653533
Si Si3 0.104768 0.138993 0.510878
Si Si4 0.748447 0.108299 0.819250
Si Si5 0.597757 0.739067 0.891246
Si Si6 0.330277 0.987754 0.003126
Si Si7 0.636069 0.838301 0.626463
Si Si8 0.415339 0.664743 0.565457
O O1 0.132779 0.240838 0.583779
O O2 0.264822 0.273030 0.514060
O O3 0.000000 0.500000 0.500000
O O4 0.239781 0.351664 0.901588
O O5 0.280097 0.741906 0.620489
O O6 0.060484 0.781564 0.565160
O O7 0.160170 0.880511 0.922466
O O8 0.000000 0.000000 0.500000
O O9 0.213449 0.030445 0.737786
O O10 0.154127 0.038985 0.304336
O O11 0.654601 0.239477 0.648179
O O12 0.656667 0.100790 0.863197
O O13 0.587332 0.784545 0.686011
O O14 0.531078 0.670396 0.782674
O O15 0.485467 0.888414 0.996127
O O16 0.277908 0.134361 0.128730
O O17 0.500000 0.000000 0.500000
O O18 0.500000 0.500000 0.500000
#
# Coordination Sequence:
#
# PCOD9068913 Si02
#       8
#     2   2   2   2   2   2   2   2
#     4  12  29  46  67 107 146 185 226 281 359 420
#     4  12  24  45  72 104 141 182 237 289 338 409
#     4  12  24  44  71 105 140 182 236 286 341 412
#     4  12  22  43  77 101 138 184 235 285 346 403
#     4  12  24  46  70 100 145 178 235 288 338 421
#     4  12  21  41  74 106 134 176 240 291 333 405
#     4  12  23  40  78 105 133 183 228 287 349 403
#     4  12  29  47  68 106 141 184 233 288 349 408
#
# _framework density 20.404264999999999
#
# number of rings (size 3 to 8) (size 9 to 14) (size 15 to 20)
#    0.000    0.000    8.750    2.250    0.000    3.000 
#    2.250    0.000    0.000    0.000    0.000    0.000 
#    0.000    0.000    0.000    0.000    0.000    0.000 
#
# Total GULP energy -89478.499696 kJ/mol
# GULP energy per Si atom -5592.406231 kJ/mol
# Density = 2.035782 g / cm^3
# Si number density = 20.404265 Si / 1000 Ang^3
#
#
#
# Elastic Constant Matrix: (Units=GPa)
#
#
# Indices 1 2 3 4 5 6 
#
# 1 152.1277 51.0905 52.1789 -4.2118 -4.5402 -5.8916
# 2 51.0905 112.4168 47.4770 -5.0333 -2.2550 -6.6152
# 3 52.1789 47.4770 138.9443 -5.3471 7.3292 -7.7661
# 4 -4.2118 -5.0333 -5.3471 26.3679 -2.6656 2.9830
# 5 -4.5402 -2.2550 7.3292 -2.6656 40.5975 1.1587
# 6 -5.8916 -6.6152 -7.7661 2.9830 1.1587 22.9969
#
#
#
# Elastic Compliance Matrix: (Units=1/GPa)
#
#
# Indices 1 2 3 4 5 6 
#
# 1 0.008328 -0.002787 -0.002195 0.000419 0.001187 0.000476
# 2 -0.002787 0.011499 -0.002804 0.001103 0.000864 0.001460
# 3 -0.002195 -0.002804 0.009210 0.000571 -0.002077 0.001772
# 4 0.000419 0.001103 0.000571 0.039111 0.002704 -0.004592
# 5 0.001187 0.000864 -0.002077 0.002704 0.025416 -0.001780
# 6 0.000476 0.001460 0.001772 -0.004592 -0.001780 0.045310
#
#
# Mechanical properties :
#
#
# Convention : Reuss Voigt Hill
#
# Bulk Modulus (GPa) = 74.26774 78.33129 76.29951
# Shear Modulus (GPa) = 31.45954 34.84196 33.15075
#
# Velocity S-wave (km/s) = 3.93085 4.13677 4.03513
# Velocity P-wave (km/s) = 7.55508 7.82881 7.69316
#
# Compressibility (1/GPa) = 0.01346480
#
# Stress axis : x y z
#
# Youngs Moduli (GPa) = 120.08014 86.96368 108.57656
#
# Poissons Ratio (x) = 0.24238 0.23831
# Poissons Ratio (y) = 0.33469 0.30445
# Poissons Ratio (z) = 0.26356 0.24385
#
# Static dielectric constant tensor:
#      x y z
#    x 1.777430 0.011930 0.032890 
#    y 0.011930 1.683620 0.003290 
#    z 0.032890 0.003290 1.777640 
# 
# From -- ./inp_files/98510.got.cif
#   From: 2010.05.17/outbox.cif.g08.bks.cpg/sg2_50_cif.got.tgz:98510.got - 2010.06.03 11:33:40.
