data_PCOD9068275
_publ_section_title
;
Structure prediction by ZEFSAII (Michael W. Deem and Ramdas Pophale) SiO2 
 PCOD9068275
Probable space group: P -1
;
_chemical_formula_sum "Si O2"
_cell_formula_units_Z 15
_cell_length_a 11.908175
_cell_length_b 11.776824
_cell_length_c 17.608922
_cell_angle_alpha 136.401164
_cell_angle_beta 150.149679
_cell_angle_gamma 33.015349
_cell_volume 669.676087
_symmetry_space_group_name_H-M "P -1"
_symmetry_group_IT_number 2
_symmetry_cell_setting 'triclinic'
loop_
_space_group_symop_operation_xyz
x,y,z
-x,-y,-z
loop_
_atom_site_type_symbol
_atom_site_label
_atom_site_fract_x
_atom_site_fract_y
_atom_site_fract_z
Si Si1 0.628763 0.476023 0.337150
Si Si2 0.125284 0.568929 0.195651
Si Si3 0.500000 0.500000 0.000000
Si Si4 0.782274 0.703298 0.321123
Si Si5 0.248976 0.807597 0.869789
Si Si6 0.893016 0.888922 0.338704
Si Si7 0.397339 0.912296 0.337086
Si Si8 0.317294 0.165486 0.062802
O O1 0.383627 0.514652 0.267236
O O2 0.732497 0.295632 0.249132
O O3 0.493296 0.690854 0.316967
O O4 0.903583 0.414930 0.515672
O O5 0.165405 0.355369 0.126388
O O6 0.115442 0.684341 0.320378
O O7 0.833159 0.720103 0.049167
O O8 0.299601 0.448269 0.815503
O O9 0.478670 0.627961 0.973929
O O10 0.768957 0.821480 0.296089
O O11 0.551438 0.870999 0.327779
O O12 0.942080 0.924229 0.786491
O O13 0.278391 0.989728 0.965292
O O14 0.649127 0.052302 0.215720
O O15 0.000000 0.000000 0.500000
O O16 0.500000 0.000000 0.500000
#
# Coordination Sequence:
#
# PCOD9068275 Si02
#       8
#     2   2   1   2   2   2   2   2
#     4  12  26  48  77 113 148 198 261 309 368 459
#     4  11  28  48  78 111 147 200 258 309 372 450
#     4  12  26  50  74 114 156 196 238 320 380 446
#     4  12  27  48  74 110 156 194 248 316 370 453
#     4  12  26  48  78 111 155 195 251 312 382 453
#     4  12  29  51  74 111 156 202 249 312 382 446
#     4  12  25  47  77 109 142 203 251 305 380 447
#     4  11  26  48  79 109 148 199 253 313 374 450
#
# _framework density 22.398889
#
# number of rings (size 3 to 8) (size 9 to 14) (size 15 to 20)
#    0.000    0.267    5.333    2.400    9.333    3.733 
#    4.800    0.000    0.000    0.000    0.000    0.000 
#    0.000    0.000    0.000    0.000    0.000    0.000 
#
# Total GULP energy -83714.207876 kJ/mol
# GULP energy per Si atom -5580.947192 kJ/mol
# Density = 2.234791 g / cm^3
# Si number density = 22.398889 Si / 1000 Ang^3
#
#
#
# Elastic Constant Matrix: (Units=GPa)
#
#
# Indices 1 2 3 4 5 6 
#
# 1 120.6269 53.3935 28.2461 12.8217 2.0464 -20.8324
# 2 53.3935 109.6920 47.4153 42.5650 -8.5434 -5.8163
# 3 28.2461 47.4153 152.4327 30.8953 -4.6362 -21.0559
# 4 12.8217 42.5650 30.8953 44.5653 5.3564 13.8984
# 5 2.0464 -8.5434 -4.6362 5.3564 26.2300 3.0719
# 6 -20.8324 -5.8163 -21.0559 13.8984 3.0719 38.6027
#
#
#
# Elastic Compliance Matrix: (Units=1/GPa)
#
#
# Indices 1 2 3 4 5 6 
#
# 1 0.011954 -0.006461 0.000113 0.001466 -0.003940 0.005325
# 2 -0.006461 0.022786 0.000465 -0.024146 0.012009 0.007938
# 3 0.000113 0.000465 0.009862 -0.010494 0.002969 0.009053
# 4 0.001466 -0.024146 -0.010494 0.064071 -0.019393 -0.030095
# 5 -0.003940 0.012009 0.002969 -0.019393 0.046289 0.004601
# 6 0.005325 0.007938 0.009053 -0.030095 0.004601 0.045382
#
#
# Mechanical properties :
#
#
# Convention : Reuss Voigt Hill
#
# Bulk Modulus (GPa) = 30.45357 71.20684 50.83021
# Shear Modulus (GPa) = 22.41588 38.79272 30.60430
#
# Velocity S-wave (km/s) = 3.16691 4.16613 3.70040
# Velocity P-wave (km/s) = 5.19596 7.41630 6.40310
#
# Compressibility (1/GPa) = 0.03283687
#
# Stress axis : x y z
#
# Youngs Moduli (GPa) = 83.65340 43.88587 101.39648
#
# Poissons Ratio (x) = 0.28356 -0.01148
# Poissons Ratio (y) = 0.54051 -0.04716
# Poissons Ratio (z) = -0.00947 -0.02041
#
# Static dielectric constant tensor:
#      x y z
#    x 1.812250 -0.013030 0.006820 
#    y -0.013030 1.861710 -0.006360 
#    z 0.006820 -0.006360 1.826220 
# 
# From -- ./inp_files/569223.got.cif
#   From: 2010.05.17/outbox.cif.g08.bks.cpg/sg2_285_cif.got.tgz:569223.got - 2010.06.03 11:33:40.
