data_PCOD9068565
_publ_section_title
;
Structure prediction by ZEFSAII (Michael W. Deem and Ramdas Pophale) SiO2 
 PCOD9068565
Probable space group: P -1
;
_chemical_formula_sum "Si O2"
_cell_formula_units_Z 12
_cell_length_a 25.193505
_cell_length_b 22.962955
_cell_length_c 8.636158
_cell_angle_alpha 31.902156
_cell_angle_beta 30.334606
_cell_angle_gamma 10.734592
_cell_volume 469.966422
_symmetry_space_group_name_H-M "P -1"
_symmetry_group_IT_number 2
_symmetry_cell_setting 'triclinic'
loop_
_space_group_symop_operation_xyz
x,y,z
-x,-y,-z
loop_
_atom_site_type_symbol
_atom_site_label
_atom_site_fract_x
_atom_site_fract_y
_atom_site_fract_z
Si Si1 0.915478 0.158517 0.659888
Si Si2 0.416770 0.484947 0.624350
Si Si3 0.202758 0.220911 0.715863
Si Si4 0.473324 0.781828 0.806161
Si Si5 0.323316 0.842932 0.739987
Si Si6 0.008371 0.617494 0.775442
O O1 0.814483 0.267527 0.488160
O O2 0.662018 0.478624 0.661311
O O3 0.873757 0.070310 0.007439
O O4 0.256487 0.860456 0.493676
O O5 0.500000 0.500000 0.500000
O O6 0.329421 0.472300 0.987720
O O7 0.000000 0.500000 0.500000
O O8 0.500000 0.000000 0.500000
O O9 0.261843 0.062901 0.807882
O O10 0.053506 0.329629 0.005880
O O11 0.322844 0.846807 0.918941
O O12 0.671871 0.658556 0.469021
O O13 0.209375 0.071965 0.443843
O O14 0.000000 0.500000 0.000000
#
# Coordination Sequence:
#
# PCOD9068565 Si02
#       6
#     2   2   2   2   2   2
#     4  11  27  48  76 114 159 204 251 323 377 459
#     4  12  25  48  74 114 157 200 257 309 386 454
#     4  12  29  52  76 109 149 199 256 317 381 449
#     4  12  28  45  80 110 150 207 252 310 389 454
#     4  11  27  46  77 113 153 204 261 311 390 453
#     4  12  27  51  77 111 156 199 260 320 380 457
#
# _framework density 25.533738
#
# number of rings (size 3 to 8) (size 9 to 14) (size 15 to 20)
#    0.000    0.333    3.333    3.500    9.333    2.667 
#    0.000    0.000    0.000    0.000    0.000    0.000 
#    0.000    0.000    0.000    0.000    0.000    0.000 
#
# Total GULP energy -67278.102483 kJ/mol
# GULP energy per Si atom -5606.508540 kJ/mol
# Density = 2.547562 g / cm^3
# Si number density = 25.533738 Si / 1000 Ang^3
#
#
#
# Elastic Constant Matrix: (Units=GPa)
#
#
# Indices 1 2 3 4 5 6 
#
# 1 139.1383 39.8896 53.8305 -5.7476 24.6698 37.2479
# 2 39.8896 114.2279 47.3259 -3.7798 15.8225 13.6997
# 3 53.8305 47.3259 170.3151 -7.7539 32.7004 9.7050
# 4 -5.7476 -3.7798 -7.7539 61.4885 2.3287 2.8956
# 5 24.6698 15.8225 32.7004 2.3287 59.6826 -1.0011
# 6 37.2479 13.6997 9.7050 2.8956 -1.0011 65.3911
#
#
#
# Elastic Compliance Matrix: (Units=1/GPa)
#
#
# Indices 1 2 3 4 5 6 
#
# 1 0.010427 -0.001775 -0.001887 0.000992 -0.002934 -0.005376
# 2 -0.001775 0.010495 -0.002115 0.000290 -0.000916 -0.000901
# 3 -0.001887 -0.002115 0.007621 0.000748 -0.002859 0.000310
# 4 0.000992 0.000290 0.000748 0.016598 -0.001569 -0.001496
# 5 -0.002934 -0.000916 -0.002859 -0.001569 0.019883 0.002661
# 6 -0.005376 -0.000901 0.000310 -0.001496 0.002661 0.018604
#
#
# Mechanical properties :
#
#
# Convention : Reuss Voigt Hill
#
# Bulk Modulus (GPa) = 58.86548 78.41925 68.64237
# Shear Modulus (GPa) = 49.58089 56.15479 52.86784
#
# Velocity S-wave (km/s) = 4.41134 4.69469 4.55522
# Velocity P-wave (km/s) = 7.00362 7.75664 7.38973
#
# Compressibility (1/GPa) = 0.01698788
#
# Stress axis : x y z
#
# Youngs Moduli (GPa) = 95.90899 95.28327 131.21793
#
# Poissons Ratio (x) = 0.16914 0.24766
# Poissons Ratio (y) = 0.17025 0.27750
# Poissons Ratio (z) = 0.18102 0.20150
#
# Static dielectric constant tensor:
#      x y z
#    x 2.055420 0.002760 -0.033150 
#    y 0.002760 2.260630 -0.050280 
#    z -0.033150 -0.050280 2.030420 
# 
# From -- ./inp_files/28666.got.cif
#   From: 2010.05.17/outbox.cif.g08.bks.cpg/sg2_15_cif.got.tgz:28666.got - 2010.06.03 11:33:40.
