data_PCOD9068574
_publ_section_title
;
Structure prediction by ZEFSAII (Michael W. Deem and Ramdas Pophale) SiO2 
 PCOD9068574
Probable space group: P -1
;
_chemical_formula_sum "Si O2"
_cell_formula_units_Z 14
_cell_length_a 7.803440
_cell_length_b 11.140768
_cell_length_c 8.097002
_cell_angle_alpha 111.106803
_cell_angle_beta 116.048984
_cell_angle_gamma 66.739713
_cell_volume 565.958829
_symmetry_space_group_name_H-M "P -1"
_symmetry_group_IT_number 2
_symmetry_cell_setting 'triclinic'
loop_
_space_group_symop_operation_xyz
x,y,z
-x,-y,-z
loop_
_atom_site_type_symbol
_atom_site_label
_atom_site_fract_x
_atom_site_fract_y
_atom_site_fract_z
Si Si1 0.500000 0.000000 0.500000
Si Si2 0.206432 0.898548 0.759401
Si Si3 0.500000 0.500000 0.000000
Si Si4 0.876101 0.770970 0.694906
Si Si5 0.467581 0.204836 0.889965
Si Si6 0.708198 0.310180 0.573990
Si Si7 0.928412 0.786954 0.109862
Si Si8 0.264316 0.471374 0.570723
O O1 0.683407 0.881331 0.601139
O O2 0.484406 0.896026 0.291253
O O3 0.258767 0.835440 0.568322
O O4 0.059425 0.823946 0.742007
O O5 0.099304 0.055521 0.794738
O O6 0.407124 0.867317 0.934509
O O7 0.520607 0.341456 0.952093
O O8 0.312358 0.512891 0.793300
O O9 0.876271 0.625717 0.553717
O O10 0.879286 0.763082 0.890088
O O11 0.234937 0.243562 0.854868
O O12 0.481913 0.374090 0.557447
O O13 0.765487 0.408526 0.514383
O O14 0.852512 0.296391 0.783962
#
# Coordination Sequence:
#
# PCOD9068574 Si02
#       8
#     1   2   1   2   2   2   2   2
#     4  12  26  46  76 108 152 188 252 302 372 434
#     4  12  26  48  74 112 148 194 248 307 376 442
#     4  12  26  48  80 104 150 198 252 296 384 434
#     4  12  28  44  76 112 144 198 247 307 372 439
#     4  12  27  49  77 111 150 199 246 312 370 441
#     4  11  27  47  74 107 147 194 252 300 374 444
#     4  12  28  47  75 110 151 195 248 309 375 443
#     4  11  27  50  75 106 148 198 245 313 370 443
#
# _framework density 24.736782999999999
#
# number of rings (size 3 to 8) (size 9 to 14) (size 15 to 20)
#    0.000    0.286    4.286    3.000    8.000    2.286 
#    0.000    0.000    0.000    0.000    0.000    0.000 
#    0.000    0.000    0.000    0.000    0.000    0.000 
#
# Total GULP energy -78073.591503 kJ/mol
# GULP energy per Si atom -5576.685107 kJ/mol
# Density = 2.468048 g / cm^3
# Si number density = 24.736783 Si / 1000 Ang^3
#
#
#
# Elastic Constant Matrix: (Units=GPa)
#
#
# Indices 1 2 3 4 5 6 
#
# 1 54.1160 11.6590 -4.6463 31.7962 14.1005 16.9846
# 2 11.6590 74.0089 45.9985 5.8664 -10.2422 -13.5491
# 3 -4.6463 45.9985 142.0091 15.5803 11.3852 24.6618
# 4 31.7962 5.8664 15.5803 66.8225 -3.7429 3.2756
# 5 14.1005 -10.2422 11.3852 -3.7429 17.4662 2.0358
# 6 16.9846 -13.5491 24.6618 3.2756 2.0358 0.5061
#
#
#
# Elastic Compliance Matrix: (Units=1/GPa)
#
#
# Indices 1 2 3 4 5 6 
#
# 1 0.014280 0.006037 -0.005249 -0.008202 -0.009989 0.031447
# 2 0.006037 0.008472 0.001203 -0.002843 0.001065 -0.020286
# 3 -0.005249 0.001203 0.003785 0.000851 0.000963 0.014542
# 4 -0.008202 -0.002843 0.000851 0.020476 0.011021 -0.019165
# 5 -0.009989 0.001065 0.000963 0.011021 0.073543 -0.050328
# 6 0.031447 -0.020286 0.014542 -0.019165 -0.050328 -0.004631
#
#
# Mechanical properties :
#
#
# Convention : Reuss Voigt Hill
#
# Bulk Modulus (GPa) = 32.76624 41.79516 37.28070
# Shear Modulus (GPa) = 40.94523 31.43380 36.18952
#
# Velocity S-wave (km/s) = 4.07287 3.56860 3.82905
# Velocity P-wave (km/s) = 5.94916 5.82344 5.88664
#
# Compressibility (1/GPa) = 0.03051922
#
# Stress axis : x y z
#
# Youngs Moduli (GPa) = 70.02963 118.03100 264.22374
#
# Poissons Ratio (x) = -0.71261 1.38686
# Poissons Ratio (y) = -0.42280 -0.31776
# Poissons Ratio (z) = 0.36757 -0.14194
#
# Static dielectric constant tensor:
#      x y z
#    x 2.011190 -0.017830 -0.008850 
#    y -0.017830 1.947370 -0.003760 
#    z -0.008850 -0.003760 1.889420 
# 
# From -- ./inp_files/185581.got.cif
#   From: 2010.05.17/outbox.cif.g08.bks.cpg/sg2_93_cif.got.tgz:185581.got - 2010.06.03 11:33:40.
