data_PCOD9068072
_publ_section_title
;
Structure prediction by ZEFSAII (Michael W. Deem and Ramdas Pophale) SiO2 
 PCOD9068072
Probable space group: P -1
;
_chemical_formula_sum "Si O2"
_cell_formula_units_Z 12
_cell_length_a 5.111885
_cell_length_b 12.215532
_cell_length_c 11.687633
_cell_angle_alpha 127.990555
_cell_angle_beta 103.268004
_cell_angle_gamma 69.045882
_cell_volume 537.103400
_symmetry_space_group_name_H-M "P -1"
_symmetry_group_IT_number 2
_symmetry_cell_setting 'triclinic'
loop_
_space_group_symop_operation_xyz
x,y,z
-x,-y,-z
loop_
_atom_site_type_symbol
_atom_site_label
_atom_site_fract_x
_atom_site_fract_y
_atom_site_fract_z
Si Si1 0.752929 0.557155 0.107078
Si Si2 0.109113 0.648799 0.801193
Si Si3 0.257506 0.129675 0.614179
Si Si4 0.535142 0.649662 0.642729
Si Si5 0.841463 0.104368 0.376780
Si Si6 0.823971 0.952760 0.047027
O O1 0.808824 0.488077 0.195150
O O2 0.682125 0.730473 0.232568
O O3 0.500000 0.500000 0.000000
O O4 0.000000 0.500000 0.000000
O O5 0.353672 0.677231 0.762284
O O6 0.856387 0.638163 0.688473
O O7 0.957000 0.781085 0.955389
O O8 0.034110 0.176399 0.518803
O O9 0.500000 0.000000 0.500000
O O10 0.162134 0.036437 0.641439
O O11 0.500000 0.500000 0.500000
O O12 0.427391 0.768350 0.608241
O O13 0.913031 0.029995 0.214174
O O14 0.500000 0.000000 0.000000
O O15 0.000000 0.000000 0.000000
#
# Coordination Sequence:
#
# PCOD9068072 Si02
#       6
#     2   2   2   2   2   2
#     4  12  29  52  78 108 155 201 257 310 373 457
#     4  12  25  46  72 108 143 190 246 303 377 439
#     4  11  29  47  79 109 150 209 254 311 378 454
#     4  12  26  44  73 105 147 190 240 311 375 442
#     4  11  26  47  74 109 154 190 257 309 379 447
#     4  12  24  44  72 109 144 188 239 303 376 437
#
# _framework density 22.342068999999999
#
# number of rings (size 3 to 8) (size 9 to 14) (size 15 to 20)
#    0.000    0.333    3.333    3.500   14.000    0.000 
#    0.000    0.000    0.000    0.000    0.000    0.000 
#    0.000    0.000    0.000    0.000    0.000    0.000 
#
# Total GULP energy -66921.229629 kJ/mol
# GULP energy per Si atom -5576.769136 kJ/mol
# Density = 2.229122 g / cm^3
# Si number density = 22.342069 Si / 1000 Ang^3
#
#
#
# Elastic Constant Matrix: (Units=GPa)
#
#
# Indices 1 2 3 4 5 6 
#
# 1 121.6882 17.2797 34.3356 -14.0828 4.7936 6.7817
# 2 17.2797 106.7271 36.0118 2.6260 17.9560 -5.1272
# 3 34.3356 36.0118 136.7640 6.1311 8.8911 5.8046
# 4 -14.0828 2.6260 6.1311 65.1791 4.6331 8.4856
# 5 4.7936 17.9560 8.8911 4.6331 38.4734 3.1814
# 6 6.7817 -5.1272 5.8046 8.4856 3.1814 22.7623
#
#
#
# Elastic Compliance Matrix: (Units=1/GPa)
#
#
# Indices 1 2 3 4 5 6 
#
# 1 0.009472 -0.001030 -0.002064 0.002759 -0.000264 -0.003519
# 2 -0.001030 0.011475 -0.002604 -0.000676 -0.004916 0.004494
# 3 -0.002064 -0.002604 0.008650 -0.000901 -0.000269 -0.001804
# 4 0.002759 -0.000676 -0.000901 0.017043 -0.001301 -0.006916
# 5 -0.000264 -0.004916 -0.000269 -0.001301 0.028911 -0.004516
# 6 -0.003519 0.004494 -0.001804 -0.006916 -0.004516 0.049663
#
#
# Mechanical properties :
#
#
# Convention : Reuss Voigt Hill
#
# Bulk Modulus (GPa) = 54.94002 60.04813 57.49407
# Shear Modulus (GPa) = 35.04433 43.78645 39.41539
#
# Velocity S-wave (km/s) = 3.96477 4.43179 4.20477
# Velocity P-wave (km/s) = 6.75300 7.28853 7.02587
#
# Compressibility (1/GPa) = 0.01820167
#
# Stress axis : x y z
#
# Youngs Moduli (GPa) = 105.57213 87.14976 115.60545
#
# Poissons Ratio (x) = 0.08974 0.23862
# Poissons Ratio (y) = 0.10871 0.30101
# Poissons Ratio (z) = 0.21791 0.22692
#
# Static dielectric constant tensor:
#      x y z
#    x 1.834990 -0.024600 -0.004920 
#    y -0.024600 2.005430 0.120420 
#    z -0.004920 0.120420 1.837540 
# 
# From -- ./inp_files/131968.got.cif
#   From: 2010.05.17/outbox.cif.g08.bks.cpg/sg2_66_cif.got.tgz:131968.got - 2010.06.03 11:33:40.
