data_PCOD9068597
_publ_section_title
;
Structure prediction by ZEFSAII (Michael W. Deem and Ramdas Pophale) SiO2 
 PCOD9068597
Probable space group: P -1
;
_chemical_formula_sum "Si O2"
_cell_formula_units_Z 12
_cell_length_a 10.057991
_cell_length_b 18.067228
_cell_length_c 11.687931
_cell_angle_alpha 30.512932
_cell_angle_beta 119.989273
_cell_angle_gamma 143.996845
_cell_volume 475.991150
_symmetry_space_group_name_H-M "P -1"
_symmetry_group_IT_number 2
_symmetry_cell_setting 'triclinic'
loop_
_space_group_symop_operation_xyz
x,y,z
-x,-y,-z
loop_
_atom_site_type_symbol
_atom_site_label
_atom_site_fract_x
_atom_site_fract_y
_atom_site_fract_z
Si Si1 0.982846 0.779124 0.548997
Si Si2 0.548127 0.150634 0.212979
Si Si3 0.892580 0.209830 0.832984
Si Si4 0.320149 0.205555 0.326293
Si Si5 0.472470 0.372930 0.548044
Si Si6 0.563269 0.967713 0.247490
O O1 0.745497 0.713239 0.513794
O O2 0.204969 0.927063 0.341201
O O3 0.500000 0.500000 0.000000
O O4 0.789860 0.478092 0.900367
O O5 0.500000 0.000000 0.500000
O O6 0.233247 0.043271 0.392768
O O7 0.651149 0.147458 0.149067
O O8 0.222101 0.428626 0.645989
O O9 0.745023 0.227640 0.682253
O O10 0.812140 0.161986 0.996232
O O11 0.685504 0.904261 0.113782
O O12 0.467327 0.214539 0.465704
O O13 0.000000 0.000000 0.500000
O O14 0.500000 0.500000 0.500000
#
# Coordination Sequence:
#
# PCOD9068597 Si02
#       6
#     2   2   2   2   2   2
#     4  12  26  47  76 115 152 202 262 319 393 461
#     4  12  25  46  76 113 154 204 258 321 388 465
#     4  11  27  48  75 114 150 214 252 330 385 464
#     4  12  28  47  75 111 153 205 255 327 395 460
#     4  12  25  49  78 112 158 202 267 314 391 470
#     4  11  27  49  77 109 162 198 272 316 397 466
#
# _framework density 25.210550999999999
#
# number of rings (size 3 to 8) (size 9 to 14) (size 15 to 20)
#    0.000    0.333    1.667    6.000    0.000    9.333 
#    0.000    0.000    0.000    0.000    0.000    0.000 
#    0.000    0.000    0.000    0.000    0.000    0.000 
#
# Total GULP energy -67266.845433 kJ/mol
# GULP energy per Si atom -5605.570453 kJ/mol
# Density = 2.515317 g / cm^3
# Si number density = 25.210551 Si / 1000 Ang^3
#
#
#
# Elastic Constant Matrix: (Units=GPa)
#
#
# Indices 1 2 3 4 5 6 
#
# 1 184.4745 89.4126 94.0452 1.3176 4.4500 22.0063
# 2 89.4126 152.2751 105.4921 0.9786 -0.8768 21.6089
# 3 94.0452 105.4921 186.7112 -14.9498 29.8371 9.2091
# 4 1.3176 0.9786 -14.9498 57.6516 3.8744 -3.4994
# 5 4.4500 -0.8768 29.8371 3.8744 42.5398 -4.0949
# 6 22.0063 21.6089 9.2091 -3.4994 -4.0949 55.5220
#
#
#
# Elastic Compliance Matrix: (Units=1/GPa)
#
#
# Indices 1 2 3 4 5 6 
#
# 1 0.008371 -0.002657 -0.002874 -0.001069 0.001009 -0.001800
# 2 -0.002657 0.013686 -0.007380 -0.002639 0.005708 -0.002795
# 3 -0.002874 -0.007380 0.012666 0.004170 -0.008969 0.001512
# 4 -0.001069 -0.002639 0.004170 0.018892 -0.004432 0.001623
# 5 0.001009 0.005708 -0.008969 -0.004432 0.030293 0.000821
# 6 -0.001800 -0.002795 0.001512 0.001623 0.000821 0.019724
#
#
# Mechanical properties :
#
#
# Convention : Reuss Voigt Hill
#
# Bulk Modulus (GPa) = 112.32647 122.37339 117.34993
# Shear Modulus (GPa) = 37.75819 46.77673 42.26746
#
# Velocity S-wave (km/s) = 3.87423 4.31216 4.09905
# Velocity P-wave (km/s) = 8.04145 8.56965 8.30975
#
# Compressibility (1/GPa) = 0.00890262
#
# Stress axis : x y z
#
# Youngs Moduli (GPa) = 119.45295 73.06692 78.95305
#
# Poissons Ratio (x) = 0.19411 0.22689
# Poissons Ratio (y) = 0.31733 0.58268
# Poissons Ratio (z) = 0.34328 0.53924
#
# Static dielectric constant tensor:
#      x y z
#    x 2.245250 -0.080580 -0.067890 
#    y -0.080580 2.018180 0.066190 
#    z -0.067890 0.066190 1.958150 
# 
# From -- ./inp_files/403747.got.cif
#   From: 2010.05.17/outbox.cif.g08.bks.cpg/sg2_202_cif.got.tgz:403747.got - 2010.06.03 11:33:40.
