data_PCOD9068315
_publ_section_title
;
Structure prediction by ZEFSAII (Michael W. Deem and Ramdas Pophale) SiO2 
 PCOD9068315
Probable space group: P -1
;
_chemical_formula_sum "Si O2"
_cell_formula_units_Z 16
_cell_length_a 12.461329
_cell_length_b 8.144427
_cell_length_c 20.694115
_cell_angle_alpha 42.883717
_cell_angle_beta 38.986727
_cell_angle_gamma 70.926381
_cell_volume 740.667053
_symmetry_space_group_name_H-M "P -1"
_symmetry_group_IT_number 2
_symmetry_cell_setting 'triclinic'
loop_
_space_group_symop_operation_xyz
x,y,z
-x,-y,-z
loop_
_atom_site_type_symbol
_atom_site_label
_atom_site_fract_x
_atom_site_fract_y
_atom_site_fract_z
Si Si1 0.631256 0.832465 0.320273
Si Si2 0.728198 0.283964 0.320286
Si Si3 0.694111 0.902990 0.999972
Si Si4 0.036237 0.476617 0.595894
Si Si5 0.725263 0.137293 0.500036
Si Si6 0.771892 0.608606 0.595988
Si Si7 0.783404 0.861903 0.106577
Si Si8 0.996556 0.748120 0.893419
O O1 0.500000 0.500000 0.500000
O O2 0.517993 0.989271 0.346391
O O3 0.643490 0.846789 0.233685
O O4 0.847794 0.974278 0.214776
O O5 0.789214 0.353592 0.346421
O O6 0.722670 0.536847 0.214775
O O7 0.889128 0.223925 0.233705
O O8 0.500000 0.000000 0.500000
O O9 0.446396 0.682601 0.191341
O O10 0.772903 0.010689 0.005118
O O11 0.783139 0.711274 0.994882
O O12 0.829223 0.179750 0.808563
O O13 0.167292 0.683903 0.535869
O O14 0.168608 0.415837 0.499932
O O15 0.952279 0.631105 0.547717
O O16 0.760863 0.886912 0.535969
O O17 0.000000 0.000000 0.000000
O O18 0.000000 0.500000 0.000000
#
# Coordination Sequence:
#
# PCOD9068315 Si02
#       8
#     2   2   2   2   2   2   2   2
#     4  12  22  38  60  93 134 180 218 258 323 403
#     4  12  22  38  60  93 134 180 218 258 323 403
#     4  12  23  42  70  98 140 182 223 280 352 400
#     4  11  26  49  73 100 131 176 238 298 351 403
#     4  12  23  42  72 100 138 180 229 282 342 406
#     4  11  26  49  73 100 131 176 238 298 351 403
#     4  12  22  37  57  92 135 174 214 259 320 401
#     4  12  22  37  57  92 135 174 214 259 320 401
#
# _framework density 21.602149000000001
#
# number of rings (size 3 to 8) (size 9 to 14) (size 15 to 20)
#    0.000    0.250    5.000    5.250    0.000    0.000 
#    0.000    3.750    0.000    9.000    0.000    0.000 
#    0.000    0.000    0.000    0.000    0.000    0.000 
#
# Total GULP energy -89259.802754 kJ/mol
# GULP energy per Si atom -5578.737672 kJ/mol
# Density = 2.155298 g / cm^3
# Si number density = 21.602149 Si / 1000 Ang^3
#
#
#
# Elastic Constant Matrix: (Units=GPa)
#
#
# Indices 1 2 3 4 5 6 
#
# 1 91.6933 36.3687 18.0659 13.9205 6.7636 14.7727
# 2 36.3687 135.0702 36.7416 28.5503 9.4488 4.6047
# 3 18.0659 36.7416 96.0495 7.5152 2.8533 8.3509
# 4 13.9205 28.5503 7.5152 51.8928 5.4769 5.5637
# 5 6.7636 9.4488 2.8533 5.4769 39.6737 3.7656
# 6 14.7727 4.6047 8.3509 5.5637 3.7656 39.6140
#
#
#
# Elastic Compliance Matrix: (Units=1/GPa)
#
#
# Indices 1 2 3 4 5 6 
#
# 1 0.013126 -0.002806 -0.000909 -0.001307 -0.000934 -0.004105
# 2 -0.002806 0.009922 -0.003005 -0.004278 -0.001196 0.001241
# 3 -0.000909 -0.003005 0.011862 0.000365 0.000145 -0.001878
# 4 -0.001307 -0.004278 0.000365 0.022320 -0.001669 -0.002068
# 5 -0.000934 -0.001196 0.000145 -0.001669 0.026039 -0.001784
# 6 -0.004105 0.001241 -0.001878 -0.002068 -0.001784 0.027486
#
#
# Mechanical properties :
#
#
# Convention : Reuss Voigt Hill
#
# Bulk Modulus (GPa) = 46.57401 56.12949 51.35175
# Shear Modulus (GPa) = 38.06555 41.67856 39.87206
#
# Velocity S-wave (km/s) = 4.20231 4.39723 4.30087
# Velocity P-wave (km/s) = 6.71957 7.19865 6.96323
#
# Compressibility (1/GPa) = 0.02147120
#
# Stress axis : x y z
#
# Youngs Moduli (GPa) = 76.18183 100.78518 84.30121
#
# Poissons Ratio (x) = 0.28276 0.07661
# Poissons Ratio (y) = 0.21373 0.25336
# Poissons Ratio (z) = 0.06923 0.30290
#
# Static dielectric constant tensor:
#      x y z
#    x 1.768710 0.032710 0.025760 
#    y 0.032710 1.841850 0.067420 
#    z 0.025760 0.067420 1.854850 
# 
# From -- ./inp_files/593960.got.cif
#   From: 2010.05.17/outbox.cif.g08.bks.cpg/sg2_297_cif.got.tgz:593960.got - 2010.06.03 11:33:40.
