data_PCOD9068146
_publ_section_title
;
Structure prediction by ZEFSAII (Michael W. Deem and Ramdas Pophale) SiO2 
 PCOD9068146
Probable space group: P -1
;
_chemical_formula_sum "Si O2"
_cell_formula_units_Z 14
_cell_length_a 12.953052
_cell_length_b 5.055356
_cell_length_c 8.905559
_cell_angle_alpha 87.240578
_cell_angle_beta 67.433312
_cell_angle_gamma 81.674672
_cell_volume 532.813712
_symmetry_space_group_name_H-M "P -1"
_symmetry_group_IT_number 2
_symmetry_cell_setting 'triclinic'
loop_
_space_group_symop_operation_xyz
x,y,z
-x,-y,-z
loop_
_atom_site_type_symbol
_atom_site_label
_atom_site_fract_x
_atom_site_fract_y
_atom_site_fract_z
Si Si1 0.161787 0.818909 0.787906
Si Si2 0.571543 0.628852 0.658783
Si Si3 0.240209 0.045769 0.007024
Si Si4 0.366495 0.359954 0.709825
Si Si5 0.309006 0.927756 0.286362
Si Si6 0.916277 0.903586 0.421797
Si Si7 0.034098 0.443940 0.161473
O O1 0.255400 0.570371 0.735636
O O2 0.050881 0.778140 0.751532
O O3 0.178433 0.067215 0.671609
O O4 0.151283 0.899839 0.963880
O O5 0.452264 0.521055 0.748230
O O6 0.578293 0.716498 0.478914
O O7 0.599230 0.874816 0.735751
O O8 0.660382 0.360151 0.644952
O O9 0.296340 0.884982 0.117669
O O10 0.162590 0.314917 0.095689
O O11 0.330526 0.123987 0.836290
O O12 0.190578 0.084877 0.402944
O O13 0.999219 0.663248 0.299750
O O14 0.000000 0.000000 0.500000
O O15 0.000000 0.500000 0.000000
#
# Coordination Sequence:
#
# PCOD9068146 Si02
#       7
#     2   2   2   2   2   2   2
#     4  12  23  46  72 107 148 202 258 310 382 475
#     4  11  28  51  78 111 150 205 259 326 382 462
#     4  12  28  44  77 109 155 203 257 315 395 460
#     4  11  26  47  80 105 148 201 264 312 391 460
#     4  12  29  50  75 115 159 195 259 325 393 445
#     4  12  28  46  77 110 155 201 256 319 385 460
#     4  12  25  43  71 110 150 200 256 313 383 466
#
# _framework density 26.275600000000001
#
# number of rings (size 3 to 8) (size 9 to 14) (size 15 to 20)
#    0.000    0.286    4.286    3.000    8.000    3.429 
#    0.000    0.000    0.000    0.000    0.000    0.000 
#    0.000    0.000    0.000    0.000    0.000    0.000 
#
# Total GULP energy -78174.581525 kJ/mol
# GULP energy per Si atom -5583.898680 kJ/mol
# Density = 2.621580 g / cm^3
# Si number density = 26.275600 Si / 1000 Ang^3
#
#
#
# Elastic Constant Matrix: (Units=GPa)
#
#
# Indices 1 2 3 4 5 6 
#
# 1 120.3565 20.7012 22.3132 26.6715 14.4865 -12.6234
# 2 20.7012 115.4328 65.7972 -8.7351 23.6581 41.8545
# 3 22.3132 65.7972 206.7115 -83.7324 56.1843 107.3728
# 4 26.6715 -8.7351 -83.7324 146.4795 -14.7010 -121.7871
# 5 14.4865 23.6581 56.1843 -14.7010 43.0657 25.9196
# 6 -12.6234 41.8545 107.3728 -121.7871 25.9196 189.4748
#
#
#
# Elastic Compliance Matrix: (Units=1/GPa)
#
#
# Indices 1 2 3 4 5 6 
#
# 1 0.009542 -0.000768 -0.001419 -0.002642 -0.001945 0.000177
# 2 -0.000768 0.011695 -0.003146 -0.003542 -0.001513 -0.002922
# 3 -0.001419 -0.003146 0.011312 0.003954 -0.010064 -0.001892
# 4 -0.002642 -0.003542 0.003954 0.017245 -0.002316 0.009767
# 5 -0.001945 -0.001513 -0.010064 -0.002316 0.037470 -0.000707
# 6 0.000177 -0.002922 -0.001892 0.009767 -0.000707 0.013381
#
#
# Mechanical properties :
#
#
# Convention : Reuss Voigt Hill
#
# Bulk Modulus (GPa) = 45.69649 73.34711 59.52180
# Shear Modulus (GPa) = 42.15647 98.04995 70.10321
#
# Velocity S-wave (km/s) = 4.00984 6.11531 5.17087
# Velocity P-wave (km/s) = 6.23437 8.82257 7.63889
#
# Compressibility (1/GPa) = 0.02188352
#
# Stress axis : x y z
#
# Youngs Moduli (GPa) = 104.79839 85.50521 88.40348
#
# Poissons Ratio (x) = 0.06565 0.12549
# Poissons Ratio (y) = 0.08046 0.27808
# Poissons Ratio (z) = 0.14876 0.26896
#
# Static dielectric constant tensor:
#      x y z
#    x 2.208000 0.121700 -0.040480 
#    y 0.121700 2.049620 -0.018660 
#    z -0.040480 -0.018660 2.250670 
# 
# From -- ./inp_files/95039.got.cif
#   From: 2010.05.17/outbox.cif.g08.bks.cpg/sg2_48_cif.got.tgz:95039.got - 2010.06.03 11:33:40.
