data_PCOD9068776
_publ_section_title
;
Structure prediction by ZEFSAII (Michael W. Deem and Ramdas Pophale) SiO2 
 PCOD9068776
Probable space group: P -1
;
_chemical_formula_sum "Si O2"
_cell_formula_units_Z 16
_cell_length_a 18.876431
_cell_length_b 11.449940
_cell_length_c 7.461216
_cell_angle_alpha 73.535945
_cell_angle_beta 109.231309
_cell_angle_gamma 44.678558
_cell_volume 670.385543
_symmetry_space_group_name_H-M "P -1"
_symmetry_group_IT_number 2
_symmetry_cell_setting 'triclinic'
loop_
_space_group_symop_operation_xyz
x,y,z
-x,-y,-z
loop_
_atom_site_type_symbol
_atom_site_label
_atom_site_fract_x
_atom_site_fract_y
_atom_site_fract_z
Si Si1 0.258695 0.356412 0.897434
Si Si2 0.533353 0.160552 0.629842
Si Si3 0.352447 0.780982 0.854170
Si Si4 0.222711 0.440672 0.259587
Si Si5 0.574524 0.064263 0.276402
Si Si6 0.970395 0.105913 0.623332
Si Si7 0.309673 0.702154 0.218079
Si Si8 0.144176 0.969538 0.307602
O O1 0.106511 0.648054 0.557662
O O2 0.231030 0.412550 0.063494
O O3 0.414373 0.215626 0.035373
O O4 0.316501 0.131613 0.028290
O O5 0.373402 0.311723 0.480596
O O6 0.558309 0.119246 0.451878
O O7 0.467864 0.389843 0.511758
O O8 0.400262 0.852359 0.853455
O O9 0.193571 0.977155 0.517431
O O10 0.500000 0.500000 0.000000
O O11 0.325570 0.762791 0.032304
O O12 0.269012 0.247653 0.474820
O O13 0.042810 0.740715 0.026992
O O14 0.846748 0.187900 0.575324
O O15 0.000000 0.000000 0.500000
O O16 0.146840 0.856854 0.971410
O O17 0.263447 0.832975 0.306942
#
# Coordination Sequence:
#
# PCOD9068776 Si02
#       8
#     2   2   2   2   2   2   2   2
#     4   9  17  33  65  93 120 156 202 253 305 357
#     4   9  17  35  61  92 122 157 200 252 306 356
#     4  12  24  41  63  86 122 166 209 247 302 369
#     4   9  17  34  61  91 119 154 201 252 308 358
#     4   9  18  35  61  87 121 163 203 247 297 361
#     4  12  19  37  64  94 126 155 205 253 306 363
#     4  12  24  40  64  94 124 159 205 256 307 361
#     4  12  25  38  62  95 125 159 203 255 309 364
#
# _framework density 23.866861
#
# number of rings (size 3 to 8) (size 9 to 14) (size 15 to 20)
#    0.000    1.500    5.000    3.375    0.000    1.000 
#    0.000    1.250    2.750    0.000    0.000    0.000 
#    0.000    0.000    0.000    0.000    0.000    0.000 
#
# Total GULP energy -89507.795177 kJ/mol
# GULP energy per Si atom -5594.237199 kJ/mol
# Density = 2.381254 g / cm^3
# Si number density = 23.866861 Si / 1000 Ang^3
#
#
#
# Elastic Constant Matrix: (Units=GPa)
#
#
# Indices 1 2 3 4 5 6 
#
# 1 122.3209 35.3940 26.8154 -1.7816 -32.6391 -25.3178
# 2 35.3940 90.3032 47.0272 -7.5060 -20.3430 -17.3200
# 3 26.8154 47.0272 99.9365 -22.7874 -20.5765 -1.8470
# 4 -1.7816 -7.5060 -22.7874 43.1191 10.0063 1.7112
# 5 -32.6391 -20.3430 -20.5765 10.0063 48.9398 2.8282
# 6 -25.3178 -17.3200 -1.8470 1.7112 2.8282 21.9624
#
#
#
# Elastic Compliance Matrix: (Units=1/GPa)
#
#
# Indices 1 2 3 4 5 6 
#
# 1 0.013962 0.000494 -0.002772 -0.003303 0.008134 0.015462
# 2 0.000494 0.018762 -0.008433 -0.002740 0.004316 0.014314
# 3 -0.002772 -0.008433 0.016322 0.007278 0.000547 -0.009110
# 4 -0.003303 -0.002740 0.007278 0.027997 -0.005612 -0.006815
# 5 0.008134 0.004316 0.000547 -0.005612 0.028475 0.009597
# 6 0.015462 0.014314 -0.009110 -0.006815 0.009597 0.073175
#
#
# Mechanical properties :
#
#
# Convention : Reuss Voigt Hill
#
# Bulk Modulus (GPa) = 36.19832 59.00375 47.60103
# Shear Modulus (GPa) = 23.88664 36.35917 30.12291
#
# Velocity S-wave (km/s) = 3.16702 3.90733 3.55649
# Velocity P-wave (km/s) = 5.34538 6.71804 6.07063
#
# Compressibility (1/GPa) = 0.02762559
#
# Stress axis : x y z
#
# Youngs Moduli (GPa) = 71.62084 53.30036 61.26650
#
# Poissons Ratio (x) = -0.02635 0.16982
# Poissons Ratio (y) = -0.03541 0.51665
# Poissons Ratio (z) = 0.19852 0.44948
#
# Static dielectric constant tensor:
#      x y z
#    x 1.913010 0.039620 -0.009870 
#    y 0.039620 1.958130 0.028760 
#    z -0.009870 0.028760 1.920520 
# 
# From -- ./inp_files/331738.got.cif
#   From: 2010.05.17/outbox.cif.g08.bks.cpg/sg2_166_cif.got.tgz:331738.got - 2010.06.03 11:33:40.
