data_PCOD9068177
_publ_section_title
;
Structure prediction by ZEFSAII (Michael W. Deem and Ramdas Pophale) SiO2 
 PCOD9068177
Probable space group: P -1
;
_chemical_formula_sum "Si O2"
_cell_formula_units_Z 16
_cell_length_a 9.480193
_cell_length_b 15.626507
_cell_length_c 9.396114
_cell_angle_alpha 135.702789
_cell_angle_beta 109.754935
_cell_angle_gamma 100.106867
_cell_volume 706.745878
_symmetry_space_group_name_H-M "P -1"
_symmetry_group_IT_number 2
_symmetry_cell_setting 'triclinic'
loop_
_space_group_symop_operation_xyz
x,y,z
-x,-y,-z
loop_
_atom_site_type_symbol
_atom_site_label
_atom_site_fract_x
_atom_site_fract_y
_atom_site_fract_z
Si Si1 0.791903 0.846647 0.798016
Si Si2 0.958119 0.370769 0.035656
Si Si3 0.220846 0.141680 0.691649
Si Si4 0.941412 0.313088 0.640779
Si Si5 0.283440 0.349885 0.201182
Si Si6 0.712415 0.654301 0.284807
Si Si7 0.577554 0.140971 0.804476
Si Si8 0.669510 0.046969 0.011336
O O1 0.785354 0.797457 0.898034
O O2 0.735928 0.699632 0.511515
O O3 0.658726 0.897333 0.796864
O O4 0.000000 0.000000 0.000000
O O5 0.889183 0.277816 0.748341
O O6 0.767807 0.297552 0.979061
O O7 0.073952 0.554677 0.255352
O O8 0.113221 0.362949 0.156599
O O9 0.226750 0.187664 0.585125
O O10 0.390451 0.129678 0.758054
O O11 0.289893 0.297745 0.984657
O O12 0.000000 0.000000 0.500000
O O13 0.847529 0.173640 0.326519
O O14 0.161831 0.388769 0.789161
O O15 0.500000 0.500000 0.500000
O O16 0.500000 0.500000 0.000000
O O17 0.500000 0.000000 0.500000
O O18 0.654961 0.116554 0.945045
O O19 0.500000 0.000000 0.000000
#
# Coordination Sequence:
#
# PCOD9068177 Si02
#       8
#     2   2   2   2   2   2   2   2
#     4  12  25  46  72 106 148 187 246 305 362 438
#     4  11  26  48  75 102 152 195 246 309 367 450
#     4  12  26  47  75 104 146 190 242 301 369 442
#     4  11  26  48  72 105 146 197 245 302 377 436
#     4  12  27  46  72 112 146 192 245 306 372 433
#     4  12  25  46  74 107 144 195 244 299 372 442
#     4  12  26  47  74 111 145 194 247 302 372 446
#     4  12  27  45  75 107 146 192 243 302 368 441
#
# _framework density 22.638971000000002
#
# number of rings (size 3 to 8) (size 9 to 14) (size 15 to 20)
#    0.000    0.250    2.500    6.000    5.250    1.500 
#    0.000    0.000    0.000    0.000    0.000    0.000 
#    0.000    0.000    0.000    0.000    0.000    0.000 
#
# Total GULP energy -89443.046047 kJ/mol
# GULP energy per Si atom -5590.190378 kJ/mol
# Density = 2.258744 g / cm^3
# Si number density = 22.638971 Si / 1000 Ang^3
#
#
#
# Elastic Constant Matrix: (Units=GPa)
#
#
# Indices 1 2 3 4 5 6 
#
# 1 142.8215 29.7558 6.3926 5.0593 17.7105 -2.3359
# 2 29.7558 91.7362 -5.3268 -11.1338 16.1666 4.0470
# 3 6.3926 -5.3268 80.0656 -1.6593 8.9592 14.9936
# 4 5.0593 -11.1338 -1.6593 33.7136 6.4643 -0.5996
# 5 17.7105 16.1666 8.9592 6.4643 40.4028 1.3681
# 6 -2.3359 4.0470 14.9936 -0.5996 1.3681 41.6976
#
#
#
# Elastic Compliance Matrix: (Units=1/GPa)
#
#
# Indices 1 2 3 4 5 6 
#
# 1 0.007884 -0.002482 -0.000787 -0.001628 -0.002062 0.001010
# 2 -0.002482 0.013684 0.002257 0.006078 -0.005793 -0.002001
# 3 -0.000787 0.002257 0.014155 0.002211 -0.003875 -0.005194
# 4 -0.001628 0.006078 0.002211 0.033453 -0.007536 -0.000748
# 5 -0.002062 -0.005793 -0.003875 -0.007536 0.030012 0.000747
# 6 0.001010 -0.002001 -0.005194 -0.000748 0.000747 0.026065
#
#
# Mechanical properties :
#
#
# Convention : Reuss Voigt Hill
#
# Bulk Modulus (GPa) = 29.67290 41.80739 35.74014
# Shear Modulus (GPa) = 36.09883 42.08292 39.09088
#
# Velocity S-wave (km/s) = 3.99751 4.31614 4.15987
# Velocity P-wave (km/s) = 5.86875 6.58376 6.23651
#
# Compressibility (1/GPa) = 0.03370079
#
# Stress axis : x y z
#
# Youngs Moduli (GPa) = 126.84102 73.08013 70.64711
#
# Poissons Ratio (x) = 0.18136 0.05557
# Poissons Ratio (y) = 0.31477 -0.15948
# Poissons Ratio (z) = 0.09978 -0.16498
#
# Static dielectric constant tensor:
#      x y z
#    x 1.616210 0.041170 -0.019290 
#    y 0.041170 1.806900 0.012430 
#    z -0.019290 0.012430 1.782270 
# 
# From -- ./inp_files/209143.got.cif
#   From: 2010.05.17/outbox.cif.g08.bks.cpg/sg2_105_cif.got.tgz:209143.got - 2010.06.03 11:33:40.
