data_PCOD9068588
_publ_section_title
;
Structure prediction by ZEFSAII (Michael W. Deem and Ramdas Pophale) SiO2 
 PCOD9068588
Probable space group: P -1
;
_chemical_formula_sum "Si O2"
_cell_formula_units_Z 12
_cell_length_a 5.394009
_cell_length_b 12.419604
_cell_length_c 11.275742
_cell_angle_alpha 128.416127
_cell_angle_beta 61.981121
_cell_angle_gamma 120.599072
_cell_volume 496.072178
_symmetry_space_group_name_H-M "P -1"
_symmetry_group_IT_number 2
_symmetry_cell_setting 'triclinic'
loop_
_space_group_symop_operation_xyz
x,y,z
-x,-y,-z
loop_
_atom_site_type_symbol
_atom_site_label
_atom_site_fract_x
_atom_site_fract_y
_atom_site_fract_z
Si Si1 0.193252 0.612052 0.125621
Si Si2 0.148554 0.936059 0.031239
Si Si3 0.771113 0.083832 0.630922
Si Si4 0.243187 0.418305 0.409722
Si Si5 0.839326 0.101672 0.359581
Si Si6 0.225891 0.382336 0.126431
O O1 0.116155 0.759108 0.230632
O O2 0.152077 0.525178 0.198857
O O3 0.535038 0.645379 0.035722
O O4 0.000000 0.500000 0.000000
O O5 0.014166 0.986924 0.214761
O O6 0.048703 0.763676 0.916713
O O7 0.500000 0.000000 0.000000
O O8 0.000000 0.000000 0.000000
O O9 0.727041 0.124872 0.531746
O O10 0.477331 0.977777 0.684230
O O11 0.000000 0.000000 0.500000
O O12 0.500000 0.500000 0.500000
O O13 0.364876 0.407666 0.243233
O O14 0.000000 0.500000 0.500000
O O15 0.058341 0.255049 0.376018
#
# Coordination Sequence:
#
# PCOD9068588 Si02
#       6
#     2   2   2   2   2   2
#     4  11  27  47  78 115 157 210 270 333 405 476
#     4  12  28  48  82 115 156 202 263 331 407 480
#     4  11  27  47  78 110 158 210 269 329 399 479
#     4  12  30  49  78 113 159 207 263 328 406 480
#     4  11  27  49  73 112 152 205 266 326 400 477
#     4  11  27  49  77 114 158 207 268 336 403 482
#
# _framework density 24.190028000000002
#
# number of rings (size 3 to 8) (size 9 to 14) (size 15 to 20)
#    0.000    0.667    3.333    1.000   16.333    1.333 
#    0.000    0.000    0.000    0.000    0.000    0.000 
#    0.000    0.000    0.000    0.000    0.000    0.000 
#
# Total GULP energy -67122.795018 kJ/mol
# GULP energy per Si atom -5593.566251 kJ/mol
# Density = 2.413497 g / cm^3
# Si number density = 24.190028 Si / 1000 Ang^3
#
#
#
# Elastic Constant Matrix: (Units=GPa)
#
#
# Indices 1 2 3 4 5 6 
#
# 1 135.8769 75.6200 37.9803 22.6083 1.0845 27.1499
# 2 75.6200 172.5430 52.3941 36.4932 13.5190 12.6462
# 3 37.9803 52.3941 101.4276 30.9347 5.1795 14.6058
# 4 22.6083 36.4932 30.9347 57.2645 -3.9699 -0.5605
# 5 1.0845 13.5190 5.1795 -3.9699 50.5008 -1.1751
# 6 27.1499 12.6462 14.6058 -0.5605 -1.1751 38.5836
#
#
#
# Elastic Compliance Matrix: (Units=1/GPa)
#
#
# Indices 1 2 3 4 5 6 
#
# 1 0.011319 -0.003971 -0.000850 -0.001496 0.000642 -0.006343
# 2 -0.003971 0.009004 -0.002159 -0.003161 -0.002339 0.000544
# 3 -0.000850 -0.002159 0.013720 -0.005834 -0.001363 -0.004014
# 4 -0.001496 -0.003161 -0.005834 0.023504 0.003435 0.004743
# 5 0.000642 -0.002339 -0.001363 0.003435 0.020859 0.001516
# 6 -0.006343 0.000544 -0.004014 0.004743 0.001516 0.031838
#
#
# Mechanical properties :
#
#
# Convention : Reuss Voigt Hill
#
# Bulk Modulus (GPa) = 49.79598 82.42623 66.11111
# Shear Modulus (GPa) = 38.19803 45.52667 41.86235
#
# Velocity S-wave (km/s) = 3.97808 4.34296 4.16452
# Velocity P-wave (km/s) = 6.45989 7.70044 7.10728
#
# Compressibility (1/GPa) = 0.02008194
#
# Stress axis : x y z
#
# Youngs Moduli (GPa) = 88.34912 111.06597 72.88852
#
# Poissons Ratio (x) = 0.44110 0.06194
# Poissons Ratio (y) = 0.35088 0.15734
# Poissons Ratio (z) = 0.07508 0.23976
#
# Static dielectric constant tensor:
#      x y z
#    x 1.986770 -0.056630 0.074610 
#    y -0.056630 1.934470 -0.087570 
#    z 0.074610 -0.087570 2.035260 
# 
# From -- ./inp_files/65713.got.cif
#   From: 2010.05.17/outbox.cif.g08.bks.cpg/sg2_33_cif.got.tgz:65713.got - 2010.06.03 11:33:40.
