data_PCOD9068965
_publ_section_title
;
Structure prediction by ZEFSAII (Michael W. Deem and Ramdas Pophale) SiO2 
 PCOD9068965
Probable space group: P -1
;
_chemical_formula_sum "Si O2"
_cell_formula_units_Z 16
_cell_length_a 23.318520
_cell_length_b 15.271948
_cell_length_c 8.236405
_cell_angle_alpha 49.521385
_cell_angle_beta 130.398117
_cell_angle_gamma 159.457963
_cell_volume 773.943054
_symmetry_space_group_name_H-M "P -1"
_symmetry_group_IT_number 2
_symmetry_cell_setting 'triclinic'
loop_
_space_group_symop_operation_xyz
x,y,z
-x,-y,-z
loop_
_atom_site_type_symbol
_atom_site_label
_atom_site_fract_x
_atom_site_fract_y
_atom_site_fract_z
Si Si1 0.437912 0.907271 0.309870
Si Si2 0.669789 0.666660 0.162089
Si Si3 0.118519 0.446699 0.448553
Si Si4 0.511521 0.771256 0.094071
Si Si5 0.873467 0.311244 0.642457
Si Si6 0.541387 0.806331 0.479969
Si Si7 0.172531 0.266062 0.913058
Si Si8 0.825096 0.090604 0.112482
O O1 0.241273 0.630421 0.301365
O O2 0.497877 0.877976 0.359198
O O3 0.500000 0.000000 0.500000
O O4 0.489390 0.093242 0.093380
O O5 0.602238 0.469900 0.383054
O O6 0.772489 0.750228 0.103498
O O7 0.781595 0.909782 0.169491
O O8 0.500000 0.500000 0.000000
O O9 0.161667 0.606795 0.460935
O O10 0.150917 0.364587 0.679091
O O11 0.935789 0.219680 0.318627
O O12 0.558962 0.808311 0.320000
O O13 0.651140 0.912331 0.059052
O O14 0.329053 0.480010 0.064164
O O15 0.000000 0.500000 0.500000
O O16 0.714928 0.027032 0.624851
O O17 0.916626 0.298133 0.900179
O O18 0.000000 0.000000 0.000000
#
# Coordination Sequence:
#
# PCOD9068965 Si02
#       8
#     2   2   2   2   2   2   2   2
#     4  12  21  46  72  99 143 181 230 288 357 416
#     4  12  25  50  74  99 142 196 241 286 361 428
#     4  12  26  45  74 104 141 184 234 297 353 416
#     4  12  25  46  73 105 140 189 238 290 358 425
#     4  12  25  44  70 107 145 181 232 296 359 419
#     4  12  25  43  74 105 135 188 239 287 351 432
#     4  12  28  48  73 104 145 190 239 300 356 421
#     4  12  27  46  74 102 144 189 236 294 354 429
#
# _framework density 20.673355000000001
#
# number of rings (size 3 to 8) (size 9 to 14) (size 15 to 20)
#    0.000    0.000    7.500    1.500    5.250    3.000 
#    0.000    0.000    0.000    0.000    0.000    0.000 
#    0.000    0.000    0.000    0.000    0.000    0.000 
#
# Total GULP energy -89472.088863 kJ/mol
# GULP energy per Si atom -5592.005554 kJ/mol
# Density = 2.062630 g / cm^3
# Si number density = 20.673355 Si / 1000 Ang^3
#
#
#
# Elastic Constant Matrix: (Units=GPa)
#
#
# Indices 1 2 3 4 5 6 
#
# 1 108.2677 30.6591 42.7708 -17.1359 -3.9999 -6.2018
# 2 30.6591 84.9847 25.8500 -9.8806 -0.1693 2.7193
# 3 42.7708 25.8500 55.5005 8.6222 -5.6243 -8.7020
# 4 -17.1359 -9.8806 8.6222 32.0295 1.2789 4.6009
# 5 -3.9999 -0.1693 -5.6243 1.2789 31.5686 -6.5801
# 6 -6.2018 2.7193 -8.7020 4.6009 -6.5801 37.3832
#
#
#
# Elastic Compliance Matrix: (Units=1/GPa)
#
#
# Indices 1 2 3 4 5 6 
#
# 1 0.017947 0.000576 -0.017140 0.014943 -0.002061 -0.003256
# 2 0.000576 0.015887 -0.010333 0.008848 -0.003104 -0.005101
# 3 -0.017140 -0.010333 0.043027 -0.026137 0.009155 0.012752
# 4 0.014943 0.008848 -0.026137 0.050964 -0.007239 -0.011795
# 5 -0.002061 -0.003104 0.009155 -0.007239 0.035222 0.009106
# 6 -0.003256 -0.005101 0.012752 -0.011795 0.009106 0.032604
#
#
# Mechanical properties :
#
#
# Convention : Reuss Voigt Hill
#
# Bulk Modulus (GPa) = 43.34880 49.70140 46.52510
# Shear Modulus (GPa) = 19.44529 30.16113 24.80321
#
# Velocity S-wave (km/s) = 3.07024 3.82375 3.46752
# Velocity P-wave (km/s) = 5.79504 6.60214 6.21171
#
# Compressibility (1/GPa) = 0.02306869
#
# Stress axis : x y z
#
# Youngs Moduli (GPa) = 55.72114 62.94261 23.24148
#
# Poissons Ratio (x) = -0.03628 0.39835
# Poissons Ratio (y) = -0.03212 0.24015
# Poissons Ratio (z) = 0.95504 0.65037
#
# Static dielectric constant tensor:
#      x y z
#    x 1.746610 0.018110 -0.000120 
#    y 0.018110 1.757340 0.031170 
#    z -0.000120 0.031170 1.748680 
# 
# From -- ./inp_files/354521.got.cif
#   From: 2010.05.17/outbox.cif.g08.bks.cpg/sg2_178_cif.got.tgz:354521.got - 2010.06.03 11:33:40.
