data_PCOD9068520
_publ_section_title
;
Structure prediction by ZEFSAII (Michael W. Deem and Ramdas Pophale) SiO2 
 PCOD9068520
Probable space group: P -1
;
_chemical_formula_sum "Si O2"
_cell_formula_units_Z 10
_cell_length_a 15.760448
_cell_length_b 4.997096
_cell_length_c 5.290783
_cell_angle_alpha 91.665037
_cell_angle_beta 99.425134
_cell_angle_gamma 98.837535
_cell_volume 405.549546
_symmetry_space_group_name_H-M "P -1"
_symmetry_group_IT_number 2
_symmetry_cell_setting 'triclinic'
loop_
_space_group_symop_operation_xyz
x,y,z
-x,-y,-z
loop_
_atom_site_type_symbol
_atom_site_label
_atom_site_fract_x
_atom_site_fract_y
_atom_site_fract_z
Si Si1 0.500050 0.315164 0.748946
Si Si2 0.898557 0.028218 0.442480
Si Si3 0.898561 0.370362 0.955532
Si Si4 0.352460 0.926026 0.426330
Si Si5 0.767421 0.633853 0.633505
O O1 0.500000 0.500000 0.500000
O O2 0.416003 0.082501 0.673516
O O3 0.500000 0.500000 0.000000
O O4 0.415819 0.833038 0.242299
O O5 0.832022 0.752856 0.443212
O O6 0.884625 0.192564 0.691885
O O7 0.000000 0.000000 0.500000
O O8 0.882259 0.190948 0.190708
O O9 0.832035 0.579297 0.888515
O O10 0.706883 0.854976 0.680607
O O11 0.000000 0.500000 0.000000
O O12 0.293194 0.647719 0.474215
#
# Coordination Sequence:
#
# PCOD9068520 Si02
#       5
#     2   2   2   2   2
#     4  11  26  56  87 119 164 215 267 336 425 511
#     4  12  27  49  79 113 161 223 281 340 405 478
#     4  12  27  49  79 113 161 223 281 340 405 478
#     4  11  26  54  82 128 164 216 272 348 416 495
#     4  12  26  53  78 126 168 216 282 347 402 492
#
# _framework density 24.657905
#
# number of rings (size 3 to 8) (size 9 to 14) (size 15 to 20)
#    0.000    0.400    6.000    1.200    0.000    3.200 
#   14.400    0.000    0.000    0.000    0.000    0.000 
#    0.000    0.000    0.000    0.000    0.000    0.000 
#
# Total GULP energy -56081.387456 kJ/mol
# GULP energy per Si atom -5608.138746 kJ/mol
# Density = 2.460178 g / cm^3
# Si number density = 24.657905 Si / 1000 Ang^3
#
#
#
# Elastic Constant Matrix: (Units=GPa)
#
#
# Indices 1 2 3 4 5 6 
#
# 1 218.0319 107.6246 86.1618 -1.8726 29.6317 -15.0626
# 2 107.6246 226.2774 107.2546 -2.5535 14.3952 13.3219
# 3 86.1618 107.2546 197.0904 -20.1999 -28.9125 -0.7427
# 4 -1.8726 -2.5535 -20.1999 59.9571 -15.7827 5.7508
# 5 29.6317 14.3952 -28.9125 -15.7827 18.9574 14.2414
# 6 -15.0626 13.3219 -0.7427 5.7508 14.2414 57.8843
#
#
#
# Elastic Compliance Matrix: (Units=1/GPa)
#
#
# Indices 1 2 3 4 5 6 
#
# 1 0.000661 -0.004542 0.006592 0.008888 0.023987 -0.005483
# 2 -0.004542 0.006430 -0.000085 0.002677 0.007993 -0.004895
# 3 0.006592 -0.000085 -0.003630 -0.010696 -0.032811 0.010823
# 4 0.008888 0.002677 -0.010696 0.002326 -0.038396 0.010775
# 5 0.023987 0.007993 -0.032811 -0.038396 -0.096515 0.031542
# 6 -0.005483 -0.004895 0.010823 0.010775 0.031542 0.008284
#
#
# Mechanical properties :
#
#
# Convention : Reuss Voigt Hill
#
# Bulk Modulus (GPa) = 135.31214 138.16464 136.73839
# Shear Modulus (GPa) = -59.58742 50.05032 -4.76855
#
# Velocity S-wave (km/s) = -4.92119 4.51020 -1.39215
# Velocity P-wave (km/s) = 4.76488 9.12561 7.27945
#
# Compressibility (1/GPa) = 0.00739032
#
# Stress axis : x y z
#
# Youngs Moduli (GPa) = 1512.53117 155.52657 -275.46485
#
# Poissons Ratio (x) = 0.70636 1.81575
# Poissons Ratio (y) = 6.86953 -0.02342
# Poissons Ratio (z) = -9.97000 0.01323
#
# Static dielectric constant tensor:
#      x y z
#    x 2.004960 -0.015430 0.013700 
#    y -0.015430 2.028250 0.020530 
#    z 0.013700 0.020530 1.926490 
# 
# From -- ./inp_files/102168.got.cif
#   From: 2010.05.17/outbox.cif.g08.bks.cpg/sg2_52_cif.got.tgz:102168.got - 2010.06.03 11:33:40.
