data_PCOD9068202
_publ_section_title
;
Structure prediction by ZEFSAII (Michael W. Deem and Ramdas Pophale) SiO2 
 PCOD9068202
Probable space group: P -1
;
_chemical_formula_sum "Si O2"
_cell_formula_units_Z 14
_cell_length_a 19.226400
_cell_length_b 4.969354
_cell_length_c 18.989050
_cell_angle_alpha 70.324673
_cell_angle_beta 156.165920
_cell_angle_gamma 121.796079
_cell_volume 564.617645
_symmetry_space_group_name_H-M "P -1"
_symmetry_group_IT_number 2
_symmetry_cell_setting 'triclinic'
loop_
_space_group_symop_operation_xyz
x,y,z
-x,-y,-z
loop_
_atom_site_type_symbol
_atom_site_label
_atom_site_fract_x
_atom_site_fract_y
_atom_site_fract_z
Si Si1 0.305693 0.347228 0.662313
Si Si2 0.825749 0.823441 0.228860
Si Si3 0.216780 0.913146 0.366398
Si Si4 0.559791 0.860082 0.737071
Si Si5 0.048897 0.870321 0.826368
Si Si6 0.849152 0.123335 0.855427
Si Si7 0.559720 0.141816 0.134042
O O1 0.403593 0.488551 0.663247
O O2 0.370691 0.679367 0.740219
O O3 0.405040 0.161107 0.806103
O O4 0.055633 0.080734 0.452125
O O5 0.865677 0.841592 0.180742
O O6 0.711496 0.449203 0.192863
O O7 0.671291 0.947755 0.084093
O O8 0.433488 0.032687 0.593327
O O9 0.228867 0.894499 0.294608
O O10 0.116318 0.113241 0.280472
O O11 0.056363 0.504682 0.273832
O O12 0.653428 0.873591 0.746830
O O13 0.760665 0.062221 0.956097
O O14 0.000000 0.500000 0.000000
O O15 0.000000 0.000000 0.000000
#
# Coordination Sequence:
#
# PCOD9068202 Si02
#       7
#     2   2   2   2   2   2   2
#     4  12  27  45  74 106 144 187 243 295 353 428
#     4  11  26  48  74 104 147 189 241 294 360 420
#     4  12  27  49  73 107 143 191 233 294 359 422
#     4  12  27  47  77 105 146 190 240 289 365 417
#     4  12  27  45  74 105 146 186 240 296 349 428
#     4  12  25  48  75 105 146 185 235 295 352 424
#     4  11  28  47  72 107 143 192 236 298 359 423
#
# _framework density 24.795541
#
# number of rings (size 3 to 8) (size 9 to 14) (size 15 to 20)
#    0.000    0.286    5.714    1.286    4.000    8.000 
#    0.000    2.857    0.000    0.000    0.000    0.000 
#    0.000    0.000    0.000    0.000    0.000    0.000 
#
# Total GULP energy -78506.584531 kJ/mol
# GULP energy per Si atom -5607.613181 kJ/mol
# Density = 2.473911 g / cm^3
# Si number density = 24.795541 Si / 1000 Ang^3
#
#
#
# Elastic Constant Matrix: (Units=GPa)
#
#
# Indices 1 2 3 4 5 6 
#
# 1 121.7460 31.7639 28.9664 3.6426 5.6277 22.4333
# 2 31.7639 69.0485 27.8940 -1.4065 3.6338 8.8297
# 3 28.9664 27.8940 167.5673 -19.3463 13.3636 -4.1711
# 4 3.6426 -1.4065 -19.3463 28.8681 17.8257 2.5018
# 5 5.6277 3.6338 13.3636 17.8257 27.4666 1.5672
# 6 22.4333 8.8297 -4.1711 2.5018 1.5672 59.8083
#
#
#
# Elastic Compliance Matrix: (Units=1/GPa)
#
#
# Indices 1 2 3 4 5 6 
#
# 1 0.010240 -0.003734 -0.001746 -0.003351 0.001609 -0.003313
# 2 -0.003734 0.017285 -0.002175 0.000349 -0.000616 -0.001301
# 3 -0.001746 -0.002175 0.009447 0.014708 -0.013575 0.001375
# 4 -0.003351 0.000349 0.014708 0.081670 -0.059541 0.000375
# 5 0.001609 -0.000616 -0.013575 -0.059541 0.081469 -0.001104
# 6 -0.003313 -0.001301 0.001375 0.000375 -0.001104 0.018264
#
#
# Mechanical properties :
#
#
# Convention : Reuss Voigt Hill
#
# Bulk Modulus (GPa) = 46.16657 59.51225 52.83941
# Shear Modulus (GPa) = 20.75501 41.21110 30.98305
#
# Velocity S-wave (km/s) = 2.89631 4.08123 3.53872
# Velocity P-wave (km/s) = 5.46298 6.80161 6.16871
#
# Compressibility (1/GPa) = 0.02166070
#
# Stress axis : x y z
#
# Youngs Moduli (GPa) = 97.65618 57.85367 105.85896
#
# Poissons Ratio (x) = 0.21605 0.18485
# Poissons Ratio (y) = 0.36470 0.23022
# Poissons Ratio (z) = 0.17052 0.12582
#
# Static dielectric constant tensor:
#      x y z
#    x 1.989940 0.038700 -0.030930 
#    y 0.038700 1.945700 0.030070 
#    z -0.030930 0.030070 1.946430 
# 
# From -- ./inp_files/600748.got.cif
#   From: 2010.05.17/outbox.cif.g08.bks.cpg/sg2_301_cif.got.tgz:600748.got - 2010.06.03 11:33:40.
