data_PCOD9068313
_publ_section_title
;
Structure prediction by ZEFSAII (Michael W. Deem and Ramdas Pophale) SiO2 
 PCOD9068313
Probable space group: P -1
;
_chemical_formula_sum "Si O2"
_cell_formula_units_Z 16
_cell_length_a 9.355861
_cell_length_b 16.675129
_cell_length_c 5.151396
_cell_angle_alpha 118.225695
_cell_angle_beta 82.505640
_cell_angle_gamma 94.682551
_cell_volume 701.875043
_symmetry_space_group_name_H-M "P -1"
_symmetry_group_IT_number 2
_symmetry_cell_setting 'triclinic'
loop_
_space_group_symop_operation_xyz
x,y,z
-x,-y,-z
loop_
_atom_site_type_symbol
_atom_site_label
_atom_site_fract_x
_atom_site_fract_y
_atom_site_fract_z
Si Si1 0.643998 0.958764 0.795389
Si Si2 0.130632 0.600936 0.872692
Si Si3 0.417597 0.408769 0.790524
Si Si4 0.061648 0.948433 0.155397
Si Si5 0.544014 0.322967 0.116888
Si Si6 0.925004 0.749034 0.891910
Si Si7 0.359557 0.158766 0.891396
Si Si8 0.892901 0.590907 0.304303
O O1 0.616594 0.911114 0.453180
O O2 0.767839 0.035199 0.853340
O O3 0.692768 0.889359 0.903892
O O4 0.500000 0.000000 0.000000
O O5 0.289545 0.644799 0.883386
O O6 0.132256 0.494662 0.623790
O O7 0.020635 0.671889 0.884760
O O8 0.055913 0.587221 0.151867
O O9 0.463141 0.381252 0.446009
O O10 0.246417 0.420781 0.865551
O O11 0.500000 0.500000 0.000000
O O12 0.477443 0.337417 0.870684
O O13 0.000000 0.000000 0.500000
O O14 0.016245 0.842556 0.994450
O O15 0.000000 0.000000 0.000000
O O16 0.501457 0.218305 0.020950
O O17 0.881333 0.694140 0.560463
O O18 0.771474 0.779276 0.083109
#
# Coordination Sequence:
#
# PCOD9068313 Si02
#       8
#     2   2   2   2   2   2   2   2
#     4  12  27  50  75 112 151 191 239 320 385 447
#     4  11  28  45  73 111 158 194 262 311 378 428
#     4  12  25  46  75 101 148 198 256 303 373 444
#     4  12  26  48  78 111 147 190 249 305 374 454
#     4  12  27  46  74 111 144 199 255 313 368 445
#     4  12  26  45  79 105 154 199 257 303 376 452
#     4  12  26  48  77 110 149 197 252 300 380 462
#     4  11  26  49  72 111 152 210 249 316 375 447
#
# _framework density 22.79608
#
# number of rings (size 3 to 8) (size 9 to 14) (size 15 to 20)
#    0.000    0.250    5.000    2.625    7.000    1.000 
#    0.000    0.000    0.000    0.000    0.000    0.000 
#    0.000    0.000    0.000    0.000    0.000    0.000 
#
# Total GULP energy -89399.927380 kJ/mol
# GULP energy per Si atom -5587.495461 kJ/mol
# Density = 2.274419 g / cm^3
# Si number density = 22.796080 Si / 1000 Ang^3
#
#
#
# Elastic Constant Matrix: (Units=GPa)
#
#
# Indices 1 2 3 4 5 6 
#
# 1 149.4352 33.3373 39.6248 9.5482 -9.2900 35.9708
# 2 33.3373 108.9003 31.0989 22.4899 13.9392 24.2639
# 3 39.6248 31.0989 115.8898 20.9174 7.7053 23.6028
# 4 9.5482 22.4899 20.9174 44.9243 5.8139 13.8028
# 5 -9.2900 13.9392 7.7053 5.8139 33.2877 5.6831
# 6 35.9708 24.2639 23.6028 13.8028 5.6831 62.3765
#
#
#
# Elastic Compliance Matrix: (Units=1/GPa)
#
#
# Indices 1 2 3 4 5 6 
#
# 1 0.008899 -0.001910 -0.002111 0.000761 0.004348 -0.004155
# 2 -0.001910 0.011851 -0.001176 -0.003872 -0.004236 -0.001821
# 3 -0.002111 -0.001176 0.010671 -0.003249 -0.001746 -0.001485
# 4 0.000761 -0.003872 -0.003249 0.026819 -0.001501 -0.003501
# 5 0.004348 -0.004236 -0.001746 -0.001501 0.034204 -0.002983
# 6 -0.004155 -0.001821 -0.001485 -0.003501 -0.002983 0.020745
#
#
# Mechanical properties :
#
#
# Convention : Reuss Voigt Hill
#
# Bulk Modulus (GPa) = 47.55359 64.70526 56.12943
# Shear Modulus (GPa) = 38.28755 46.12864 42.20809
#
# Velocity S-wave (km/s) = 4.10270 4.50325 4.30763
# Velocity P-wave (km/s) = 6.58396 7.44883 7.02971
#
# Compressibility (1/GPa) = 0.02102891
#
# Stress axis : x y z
#
# Youngs Moduli (GPa) = 112.36668 84.38412 93.71095
#
# Poissons Ratio (x) = 0.16114 0.19779
# Poissons Ratio (y) = 0.21457 0.11019
# Poissons Ratio (z) = 0.23717 0.09922
#
# Static dielectric constant tensor:
#      x y z
#    x 1.834320 -0.073980 0.007940 
#    y -0.073980 1.742130 0.001510 
#    z 0.007940 0.001510 1.921340 
# 
# From -- ./inp_files/49274.got.cif
#   From: 2010.05.17/outbox.cif.g08.bks.cpg/sg2_25_cif.got.tgz:49274.got - 2010.06.03 11:33:40.
