data_PCOD9068042
_publ_section_title
;
Structure prediction by ZEFSAII (Michael W. Deem and Ramdas Pophale) SiO2 
 PCOD9068042
Probable space group: P -1
;
_chemical_formula_sum "Si O2"
_cell_formula_units_Z 12
_cell_length_a 5.291791
_cell_length_b 11.888687
_cell_length_c 10.754472
_cell_angle_alpha 52.073310
_cell_angle_beta 103.485129
_cell_angle_gamma 105.327949
_cell_volume 512.480178
_symmetry_space_group_name_H-M "P -1"
_symmetry_group_IT_number 2
_symmetry_cell_setting 'triclinic'
loop_
_space_group_symop_operation_xyz
x,y,z
-x,-y,-z
loop_
_atom_site_type_symbol
_atom_site_label
_atom_site_fract_x
_atom_site_fract_y
_atom_site_fract_z
Si Si1 0.696494 0.819166 0.078056
Si Si2 0.027533 0.670622 0.407916
Si Si3 0.025099 0.636904 0.695682
Si Si4 0.737143 0.059131 0.391466
Si Si5 0.430710 0.917487 0.226529
Si Si6 0.501851 0.473322 0.872175
O O1 0.911407 0.744547 0.226328
O O2 0.525581 0.864079 0.142530
O O3 0.542959 0.693092 0.060891
O O4 0.762603 0.964346 0.905080
O O5 0.000000 0.500000 0.500000
O O6 0.907698 0.688297 0.518105
O O7 0.307965 0.772155 0.381622
O O8 0.179464 0.769504 0.700893
O O9 0.249208 0.541656 0.750005
O O10 0.780225 0.549852 0.799178
O O11 0.500000 0.000000 0.500000
O O12 0.650035 0.005596 0.280274
O O13 0.000000 0.000000 0.500000
O O14 0.500000 0.500000 0.000000
#
# Coordination Sequence:
#
# PCOD9068042 Si02
#       6
#     2   2   2   2   2   2
#     4  11  26  47  73 107 154 202 255 310 389 451
#     4  12  24  44  75 108 149 194 253 316 374 451
#     4  12  26  46  78 110 146 197 259 311 377 447
#     4  12  25  46  75 111 155 199 251 314 381 452
#     4  11  26  47  72 110 153 203 250 318 380 459
#     4  12  27  50  75 108 151 198 252 315 381 454
#
# _framework density 23.415538000000002
#
# number of rings (size 3 to 8) (size 9 to 14) (size 15 to 20)
#    0.000    0.333    3.333    5.000    2.333    1.333 
#    3.000    0.000    0.000    0.000    0.000    0.000 
#    0.000    0.000    0.000    0.000    0.000    0.000 
#
# Total GULP energy -67092.813651 kJ/mol
# GULP energy per Si atom -5591.067804 kJ/mol
# Density = 2.336224 g / cm^3
# Si number density = 23.415538 Si / 1000 Ang^3
#
#
#
# Elastic Constant Matrix: (Units=GPa)
#
#
# Indices 1 2 3 4 5 6 
#
# 1 101.4403 43.5249 31.0377 -23.8876 -1.3395 13.9607
# 2 43.5249 232.0612 62.9284 -10.2074 -9.1093 5.0995
# 3 31.0377 62.9284 102.1303 -7.2821 5.7348 10.6295
# 4 -23.8876 -10.2074 -7.2821 58.1701 2.7752 -0.9727
# 5 -1.3395 -9.1093 5.7348 2.7752 49.0373 -2.4986
# 6 13.9607 5.0995 10.6295 -0.9727 -2.4986 28.7642
#
#
#
# Elastic Compliance Matrix: (Units=1/GPa)
#
#
# Indices 1 2 3 4 5 6 
#
# 1 0.012980 -0.001551 -0.002109 0.004719 -0.000214 -0.005104
# 2 -0.001551 0.005465 -0.003091 -0.000114 0.001394 0.001043
# 3 -0.002109 -0.003091 0.012835 0.000253 -0.002319 -0.003364
# 4 0.004719 -0.000114 0.000253 0.019162 -0.001099 -0.001811
# 5 -0.000214 0.001394 -0.002319 -0.001099 0.021107 0.002510
# 6 -0.005104 0.001043 -0.003364 -0.001811 0.002510 0.038458
#
#
# Mechanical properties :
#
#
# Convention : Reuss Voigt Hill
#
# Bulk Modulus (GPa) = 56.25045 78.95709 67.60377
# Shear Modulus (GPa) = 38.62923 47.07038 42.84981
#
# Velocity S-wave (km/s) = 4.06609 4.48841 4.28246
# Velocity P-wave (km/s) = 6.79109 7.78809 7.30661
#
# Compressibility (1/GPa) = 0.01777763
#
# Stress axis : x y z
#
# Youngs Moduli (GPa) = 77.04301 182.97927 77.91055
#
# Poissons Ratio (x) = 0.28384 0.16432
# Poissons Ratio (y) = 0.11951 0.24082
# Poissons Ratio (z) = 0.16249 0.56558
#
# Static dielectric constant tensor:
#      x y z
#    x 1.993160 0.009140 0.035930 
#    y 0.009140 1.860610 0.011770 
#    z 0.035930 0.011770 2.020130 
# 
# From -- ./inp_files/363751.got.cif
#   From: 2010.05.17/outbox.cif.g08.bks.cpg/sg2_182_cif.got.tgz:363751.got - 2010.06.03 11:33:40.
