data_PCOD9068639
_publ_section_title
;
Structure prediction by ZEFSAII (Michael W. Deem and Ramdas Pophale) SiO2 
 PCOD9068639
Probable space group: P -1
;
_chemical_formula_sum "Si O2"
_cell_formula_units_Z 14
_cell_length_a 5.128730
_cell_length_b 10.777687
_cell_length_c 15.043917
_cell_angle_alpha 42.129549
_cell_angle_beta 97.841546
_cell_angle_gamma 97.955674
_cell_volume 551.737910
_symmetry_space_group_name_H-M "P -1"
_symmetry_group_IT_number 2
_symmetry_cell_setting 'triclinic'
loop_
_space_group_symop_operation_xyz
x,y,z
-x,-y,-z
loop_
_atom_site_type_symbol
_atom_site_label
_atom_site_fract_x
_atom_site_fract_y
_atom_site_fract_z
Si Si1 0.595824 0.987427 0.683870
Si Si2 0.849175 0.297304 0.419964
Si Si3 0.691441 0.659885 0.243513
Si Si4 0.706226 0.674711 0.433973
Si Si5 0.842879 0.179548 0.925323
Si Si6 0.915224 0.741756 0.930054
Si Si7 0.192765 0.654643 0.805849
O O1 0.756535 0.922640 0.811118
O O2 0.441490 0.800314 0.744129
O O3 0.761271 0.090754 0.558277
O O4 0.413553 0.144527 0.626955
O O5 0.613814 0.440084 0.345597
O O6 0.932324 0.306174 0.316579
O O7 0.058695 0.367018 0.467363
O O8 0.791476 0.718861 0.313954
O O9 0.448371 0.783721 0.141756
O O10 0.945008 0.674003 0.184898
O O11 0.500000 0.500000 0.500000
O O12 0.852547 0.210028 0.015219
O O13 0.000000 0.000000 0.000000
O O14 0.015494 0.698557 0.859187
O O15 0.753610 0.561097 0.058684
#
# Coordination Sequence:
#
# PCOD9068639 Si02
#       7
#     2   2   2   2   2   2   2
#     4  12  27  46  80 112 160 209 270 331 409 484
#     4  12  27  49  79 115 160 211 267 332 409 488
#     4  12  27  49  80 116 162 207 272 328 417 478
#     4  12  27  48  77 115 162 206 264 338 409 483
#     4  12  28  49  83 119 161 213 268 340 408 491
#     4  11  27  49  79 113 160 209 272 335 403 480
#     4  11  27  51  76 112 160 212 274 332 405 481
#
# _framework density 25.374368
#
# number of rings (size 3 to 8) (size 9 to 14) (size 15 to 20)
#    0.000    0.286    2.857    4.286    8.000    5.714 
#    0.000    0.000    0.000    0.000    0.000    0.000 
#    0.000    0.000    0.000    0.000    0.000    0.000 
#
# Total GULP energy -78322.738679 kJ/mol
# GULP energy per Si atom -5594.481334 kJ/mol
# Density = 2.531661 g / cm^3
# Si number density = 25.374368 Si / 1000 Ang^3
#
#
#
# Elastic Constant Matrix: (Units=GPa)
#
#
# Indices 1 2 3 4 5 6 
#
# 1 76.5289 23.9858 51.3606 18.7153 13.4110 2.8462
# 2 23.9858 103.2118 77.4751 34.1173 -3.6245 5.2460
# 3 51.3606 77.4751 190.4472 12.3628 7.0774 6.5403
# 4 18.7153 34.1173 12.3628 61.3226 0.0945 -1.8415
# 5 13.4110 -3.6245 7.0774 0.0945 48.3360 -5.7394
# 6 2.8462 5.2460 6.5403 -1.8415 -5.7394 40.3663
#
#
#
# Elastic Compliance Matrix: (Units=1/GPa)
#
#
# Indices 1 2 3 4 5 6 
#
# 1 0.017996 0.000953 -0.004694 -0.005114 -0.004401 -0.001491
# 2 0.000953 0.017697 -0.006910 -0.008788 0.001928 -0.001374
# 3 -0.004694 -0.006910 0.009133 0.003432 -0.000581 -0.000177
# 4 -0.005114 -0.008788 0.003432 0.022125 0.000454 0.002021
# 5 -0.004401 0.001928 -0.000581 0.000454 0.022540 0.003379
# 6 -0.001491 -0.001374 -0.000177 0.002021 0.003379 0.025658
#
#
# Mechanical properties :
#
#
# Convention : Reuss Voigt Hill
#
# Bulk Modulus (GPa) = 42.51102 75.09230 58.80166
# Shear Modulus (GPa) = 34.65177 44.49606 39.57391
#
# Velocity S-wave (km/s) = 3.69944 4.19212 3.95346
# Velocity P-wave (km/s) = 5.91927 7.28628 6.63806
#
# Compressibility (1/GPa) = 0.02352331
#
# Stress axis : x y z
#
# Youngs Moduli (GPa) = 55.56745 56.50711 109.49510
#
# Poissons Ratio (x) = -0.05387 0.51401
# Poissons Ratio (y) = -0.05298 0.75665
# Poissons Ratio (z) = 0.26085 0.39048
#
# Static dielectric constant tensor:
#      x y z
#    x 2.067250 0.017460 -0.071540 
#    y 0.017460 2.073690 -0.105110 
#    z -0.071540 -0.105110 2.175880 
# 
# From -- ./inp_files/482570.got.cif
#   From: 2010.05.17/outbox.cif.g08.bks.cpg/sg2_242_cif.got.tgz:482570.got - 2010.06.03 11:33:40.
