data_PCOD9068306
_publ_section_title
;
Structure prediction by ZEFSAII (Michael W. Deem and Ramdas Pophale) SiO2 
 PCOD9068306
Probable space group: P -1
;
_chemical_formula_sum "Si O2"
_cell_formula_units_Z 12
_cell_length_a 6.794093
_cell_length_b 12.462911
_cell_length_c 14.985584
_cell_angle_alpha 28.522114
_cell_angle_beta 83.832704
_cell_angle_gamma 75.572931
_cell_volume 569.482111
_symmetry_space_group_name_H-M "P -1"
_symmetry_group_IT_number 2
_symmetry_cell_setting 'triclinic'
loop_
_space_group_symop_operation_xyz
x,y,z
-x,-y,-z
loop_
_atom_site_type_symbol
_atom_site_label
_atom_site_fract_x
_atom_site_fract_y
_atom_site_fract_z
Si Si1 0.657786 0.132699 0.931099
Si Si2 0.413049 0.832101 0.686870
Si Si3 0.974153 0.240039 0.701703
Si Si4 0.796438 0.719843 0.874111
Si Si5 0.688844 0.522482 0.188476
Si Si6 0.976485 0.127079 0.577551
O O1 0.518133 0.351368 0.837694
O O2 0.774441 0.229750 0.776630
O O3 0.500000 0.000000 0.000000
O O4 0.829911 0.942735 0.122173
O O5 0.599876 0.706256 0.837394
O O6 0.349039 0.655611 0.753211
O O7 0.500000 0.000000 0.500000
O O8 0.211643 0.992666 0.633111
O O9 0.964351 0.154467 0.663912
O O10 0.000000 0.500000 0.500000
O O11 0.752205 0.711339 0.987484
O O12 0.842636 0.960956 0.674623
O O13 0.000000 0.500000 0.000000
O O14 0.875065 0.377870 0.350146
#
# Coordination Sequence:
#
# PCOD9068306 Si02
#       6
#     2   2   2   2   2   2
#     4  11  26  49  71 103 137 179 238 285 345 410
#     4  12  25  44  68 103 141 180 226 277 345 406
#     4  11  27  47  73 101 137 184 231 290 345 407
#     4  12  25  43  68 100 140 181 227 275 340 409
#     4  12  25  44  72 100 139 182 225 285 339 408
#     4  12  26  46  68 102 140 179 228 282 341 408
#
# _framework density 21.071778999999999
#
# number of rings (size 3 to 8) (size 9 to 14) (size 15 to 20)
#    0.000    0.333    3.333    5.000    4.667    5.333 
#    0.000    0.000    0.000    0.000    0.000    0.000 
#    0.000    0.000    0.000    0.000    0.000    0.000 
#
# Total GULP energy -67177.281313 kJ/mol
# GULP energy per Si atom -5598.106776 kJ/mol
# Density = 2.102382 g / cm^3
# Si number density = 21.071779 Si / 1000 Ang^3
#
#
#
# Elastic Constant Matrix: (Units=GPa)
#
#
# Indices 1 2 3 4 5 6 
#
# 1 126.5384 62.3435 52.2912 14.5364 16.4288 -24.0025
# 2 62.3435 143.9774 47.9525 14.0739 17.3536 -34.3125
# 3 52.2912 47.9525 109.0544 20.8683 9.9883 -13.1459
# 4 14.5364 14.0739 20.8683 38.5542 1.1608 1.9204
# 5 16.4288 17.3536 9.9883 1.1608 42.6080 -3.0611
# 6 -24.0025 -34.3125 -13.1459 1.9204 -3.0611 44.4063
#
#
#
# Elastic Compliance Matrix: (Units=1/GPa)
#
#
# Indices 1 2 3 4 5 6 
#
# 1 0.011803 -0.002746 -0.003555 -0.001608 -0.002332 0.003114
# 2 -0.002746 0.010771 -0.002080 -0.002006 -0.002344 0.006148
# 3 -0.003555 -0.002080 0.012826 -0.004845 -0.000626 0.000435
# 4 -0.001608 -0.002006 -0.004845 0.030109 0.001389 -0.005060
# 5 -0.002332 -0.002344 -0.000626 0.001389 0.025319 -0.001571
# 6 0.003114 0.006148 0.000435 -0.005060 -0.001571 0.029192
#
#
# Mechanical properties :
#
#
# Convention : Reuss Voigt Hill
#
# Bulk Modulus (GPa) = 53.65485 78.30497 65.97991
# Shear Modulus (GPa) = 34.96597 39.57924 37.27261
#
# Velocity S-wave (km/s) = 4.07796 4.33864 4.21032
# Velocity P-wave (km/s) = 6.90588 7.89558 7.41726
#
# Compressibility (1/GPa) = 0.01863764
#
# Stress axis : x y z
#
# Youngs Moduli (GPa) = 84.72274 92.84013 77.96776
#
# Poissons Ratio (x) = 0.25498 0.27720
# Poissons Ratio (y) = 0.23268 0.16214
# Poissons Ratio (z) = 0.30121 0.19307
#
# Static dielectric constant tensor:
#      x y z
#    x 1.745830 0.011210 -0.015960 
#    y 0.011210 1.728760 0.004230 
#    z -0.015960 0.004230 1.812980 
# 
# From -- ./inp_files/21259.got.cif
#   From: 2010.05.17/outbox.cif.g08.bks.cpg/sg2_11_cif.got.tgz:21259.got - 2010.06.03 11:33:40.
