data_PCOD9068743
_publ_section_title
;
Structure prediction by ZEFSAII (Michael W. Deem and Ramdas Pophale) SiO2 
 PCOD9068743
Probable space group: P -1
;
_chemical_formula_sum "Si O2"
_cell_formula_units_Z 14
_cell_length_a 5.560175
_cell_length_b 12.438600
_cell_length_c 11.141939
_cell_angle_alpha 123.739887
_cell_angle_beta 59.662454
_cell_angle_gamma 91.679035
_cell_volume 518.052877
_symmetry_space_group_name_H-M "P -1"
_symmetry_group_IT_number 2
_symmetry_cell_setting 'triclinic'
loop_
_space_group_symop_operation_xyz
x,y,z
-x,-y,-z
loop_
_atom_site_type_symbol
_atom_site_label
_atom_site_fract_x
_atom_site_fract_y
_atom_site_fract_z
Si Si1 0.645871 0.544573 0.150138
Si Si2 0.350646 0.026105 0.312305
Si Si3 0.230795 0.375848 0.172139
Si Si4 0.129730 0.777312 0.283981
Si Si5 0.079524 0.180757 0.892533
Si Si6 0.510588 0.169908 0.167645
Si Si7 0.372845 0.394732 0.533211
O O1 0.530837 0.413179 0.109879
O O2 0.586076 0.610878 0.338443
O O3 0.000000 0.500000 0.000000
O O4 0.594226 0.350729 0.814439
O O5 0.102077 0.159718 0.511711
O O6 0.429991 0.044747 0.166170
O O7 0.662102 0.969092 0.267296
O O8 0.239552 0.899073 0.285300
O O9 0.256403 0.277972 0.218800
O O10 0.979347 0.524527 0.342491
O O11 0.152898 0.290928 0.030191
O O12 0.946516 0.767079 0.205412
O O13 0.806362 0.152867 0.008893
O O14 0.517474 0.252775 0.339908
O O15 0.500000 0.500000 0.500000
#
# Coordination Sequence:
#
# PCOD9068743 Si02
#       7
#     2   2   2   2   2   2   2
#     4  12  31  56  85 123 167 221 280 346 420 499
#     4  11  28  53  84 118 165 222 279 340 416 488
#     4  12  27  51  83 121 169 216 277 344 421 491
#     4  11  29  55  81 122 171 218 276 343 419 501
#     4  12  27  50  83 119 169 217 275 344 412 505
#     4  12  27  50  82 121 164 217 279 341 406 496
#     4  12  26  51  82 122 167 215 268 346 417 495
#
# _framework density 27.024270999999999
#
# number of rings (size 3 to 8) (size 9 to 14) (size 15 to 20)
#    0.000    0.286    2.857    3.000    8.000    9.143 
#    5.143    0.000    0.000    0.000    0.000    0.000 
#    0.000    0.000    0.000    0.000    0.000    0.000 
#
# Total GULP energy -78441.036823 kJ/mol
# GULP energy per Si atom -5602.931202 kJ/mol
# Density = 2.696276 g / cm^3
# Si number density = 27.024271 Si / 1000 Ang^3
#
#
#
# Elastic Constant Matrix: (Units=GPa)
#
#
# Indices 1 2 3 4 5 6 
#
# 1 120.9765 50.9994 50.5050 -12.6378 5.9064 -22.1956
# 2 50.9994 171.5025 28.4523 -31.6864 -8.9562 -11.6213
# 3 50.5050 28.4523 116.1444 -29.9249 -6.9102 -4.9326
# 4 -12.6378 -31.6864 -29.9249 54.9436 -13.8090 -1.2899
# 5 5.9064 -8.9562 -6.9102 -13.8090 49.1273 -8.0860
# 6 -22.1956 -11.6213 -4.9326 -1.2899 -8.0860 59.1350
#
#
#
# Elastic Compliance Matrix: (Units=1/GPa)
#
#
# Indices 1 2 3 4 5 6 
#
# 1 0.012247 -0.003195 -0.005255 -0.002574 -0.003014 0.003062
# 2 -0.003195 0.007844 0.001102 0.005328 0.003639 0.001048
# 3 -0.005255 0.001102 0.012893 0.007665 0.004825 0.000146
# 4 -0.002574 0.005328 0.007665 0.027576 0.010566 0.002767
# 5 -0.003014 0.003639 0.004825 0.010566 0.025642 0.003723
# 6 0.003062 0.001048 0.000146 0.002767 0.003723 0.018847
#
#
# Mechanical properties :
#
#
# Convention : Reuss Voigt Hill
#
# Bulk Modulus (GPa) = 54.68458 74.28183 64.48321
# Shear Modulus (GPa) = 39.73183 51.21897 45.47540
#
# Velocity S-wave (km/s) = 3.83851 4.35822 4.10660
# Velocity P-wave (km/s) = 6.31861 7.27133 6.81165
#
# Compressibility (1/GPa) = 0.01828669
#
# Stress axis : x y z
#
# Youngs Moduli (GPa) = 81.65139 127.49173 77.55847
#
# Poissons Ratio (x) = 0.40739 0.40758
# Poissons Ratio (y) = 0.26091 -0.08545
# Poissons Ratio (z) = 0.42909 -0.14047
#
# Static dielectric constant tensor:
#      x y z
#    x 2.218110 0.086400 -0.006310 
#    y 0.086400 2.181690 0.042150 
#    z -0.006310 0.042150 2.119290 
# 
# From -- ./inp_files/69479.got.cif
#   From: 2010.05.17/outbox.cif.g08.bks.cpg/sg2_35_cif.got.tgz:69479.got - 2010.06.03 11:33:40.
