data_PCOD9068789
_publ_section_title
;
Structure prediction by ZEFSAII (Michael W. Deem and Ramdas Pophale) SiO2 
 PCOD9068789
Probable space group: P -1
;
_chemical_formula_sum "Si O2"
_cell_formula_units_Z 16
_cell_length_a 11.164305
_cell_length_b 11.479510
_cell_length_c 11.352338
_cell_angle_alpha 77.364554
_cell_angle_beta 154.176019
_cell_angle_gamma 103.946867
_cell_volume 615.086952
_symmetry_space_group_name_H-M "P -1"
_symmetry_group_IT_number 2
_symmetry_cell_setting 'triclinic'
loop_
_space_group_symop_operation_xyz
x,y,z
-x,-y,-z
loop_
_atom_site_type_symbol
_atom_site_label
_atom_site_fract_x
_atom_site_fract_y
_atom_site_fract_z
Si Si1 0.469825 0.027846 0.747301
Si Si2 0.742904 0.735488 0.843401
Si Si3 0.084197 0.049819 0.193252
Si Si4 0.471456 0.772968 0.839547
Si Si5 0.088563 0.385634 0.673766
Si Si6 0.479564 0.294499 0.742679
Si Si7 0.714533 0.382058 0.678044
Si Si8 0.998128 0.434106 0.253720
O O1 0.277973 0.989645 0.471065
O O2 0.377514 0.153653 0.683607
O O3 0.456574 0.908139 0.841357
O O4 0.791272 0.062801 0.991442
O O5 0.729530 0.829041 0.704159
O O6 0.655030 0.785976 0.878918
O O7 0.517129 0.628439 0.627461
O O8 0.058276 0.708683 0.126206
O O9 0.000000 0.000000 0.000000
O O10 0.170621 0.712904 0.551444
O O11 0.635485 0.680779 0.080317
O O12 0.107791 0.449895 0.804740
O O13 0.000000 0.500000 0.500000
O O14 0.580357 0.343469 0.691592
O O15 0.240738 0.375918 0.547758
O O16 0.754495 0.329041 0.051899
O O17 0.877512 0.513772 0.771991
#
# Coordination Sequence:
#
# PCOD9068789 Si02
#       8
#     2   2   2   2   2   2   2   2
#     4  12  25  39  61  93 140 180 220 258 314 397
#     4  12  20  35  59  91 138 171 218 265 311 367
#     4  12  22  34  55  89 135 191 222 255 298 364
#     4  12  24  43  70  99 128 168 215 282 343 386
#     4  12  27  50  76  99 121 156 221 299 357 389
#     4  12  24  40  60  97 140 188 212 247 309 392
#     4  12  22  38  59  94 136 182 226 256 306 373
#     4  12  24  42  66  91 131 175 223 273 320 386
#
# _framework density 26.01258
#
# number of rings (size 3 to 8) (size 9 to 14) (size 15 to 20)
#    0.000    0.000    6.250    5.250    1.750    0.000 
#    0.000    0.000    0.000    4.500    0.000    0.000 
#    0.000    0.000    0.000    0.000    0.000    0.000 
#
# Total GULP energy -89559.901109 kJ/mol
# GULP energy per Si atom -5597.493819 kJ/mol
# Density = 2.595337 g / cm^3
# Si number density = 26.012580 Si / 1000 Ang^3
#
#
#
# Elastic Constant Matrix: (Units=GPa)
#
#
# Indices 1 2 3 4 5 6 
#
# 1 29.6303 11.4137 6.4770 -3.8544 -4.5840 3.6244
# 2 11.4137 156.6878 20.7378 -2.4941 3.2097 -8.9751
# 3 6.4770 20.7378 136.8663 5.6996 -4.7088 -6.9564
# 4 -3.8544 -2.4941 5.6996 45.5478 7.2305 1.4641
# 5 -4.5840 3.2097 -4.7088 7.2305 24.7718 -11.5977
# 6 3.6244 -8.9751 -6.9564 1.4641 -11.5977 19.7931
#
#
#
# Elastic Compliance Matrix: (Units=1/GPa)
#
#
# Indices 1 2 3 4 5 6 
#
# 1 0.036932 -0.002891 -0.001726 0.003021 0.002522 -0.007426
# 2 -0.002891 0.006886 -0.000742 0.000121 -0.000028 0.003366
# 3 -0.001726 -0.000742 0.008030 -0.002094 0.004545 0.005620
# 4 0.003021 0.000121 -0.002094 0.024653 -0.011689 -0.009907
# 5 0.002522 -0.000028 0.004545 -0.011689 0.063452 0.039167
# 6 -0.007426 0.003366 0.005620 -0.009907 0.039167 0.079067
#
#
# Mechanical properties :
#
#
# Convention : Reuss Voigt Hill
#
# Bulk Modulus (GPa) = 24.31285 44.49350 34.40318
# Shear Modulus (GPa) = 20.53841 36.99295 28.76568
#
# Velocity S-wave (km/s) = 2.81295 3.77519 3.32902
# Velocity P-wave (km/s) = 4.46286 6.01203 5.29441
#
# Compressibility (1/GPa) = 0.04113051
#
# Stress axis : x y z
#
# Youngs Moduli (GPa) = 27.07709 145.21951 124.53812
#
# Poissons Ratio (x) = 0.41978 0.21498
# Poissons Ratio (y) = 0.07827 0.09235
# Poissons Ratio (z) = 0.04674 0.10768
#
# Static dielectric constant tensor:
#      x y z
#    x 2.117440 -0.006830 -0.098370 
#    y -0.006830 2.074510 0.004440 
#    z -0.098370 0.004440 2.015060 
# 
# From -- ./inp_files/532540.got.cif
#   From: 2010.05.17/outbox.cif.g08.bks.cpg/sg2_267_cif.got.tgz:532540.got - 2010.06.03 11:33:40.
