data_PCOD9068449
_publ_section_title
;
Structure prediction by ZEFSAII (Michael W. Deem and Ramdas Pophale) SiO2 
 PCOD9068449
Probable space group: P -1
;
_chemical_formula_sum "Si O2"
_cell_formula_units_Z 13
_cell_length_a 5.408869
_cell_length_b 16.423514
_cell_length_c 9.523334
_cell_angle_alpha 136.349650
_cell_angle_beta 72.153527
_cell_angle_gamma 119.850900
_cell_volume 504.428506
_symmetry_space_group_name_H-M "P -1"
_symmetry_group_IT_number 2
_symmetry_cell_setting 'triclinic'
loop_
_space_group_symop_operation_xyz
x,y,z
-x,-y,-z
loop_
_atom_site_type_symbol
_atom_site_label
_atom_site_fract_x
_atom_site_fract_y
_atom_site_fract_z
Si Si1 0.000000 0.500000 0.000000
Si Si2 0.128699 0.904919 0.797566
Si Si3 0.208840 0.708428 0.731776
Si Si4 0.257672 0.494968 0.257002
Si Si5 0.471652 0.848084 0.113786
Si Si6 0.838142 0.688458 0.356238
Si Si7 0.874115 0.849334 0.293865
O O1 0.094163 0.653257 0.221237
O O2 0.111542 0.471515 0.102062
O O3 0.229572 0.841056 0.826052
O O4 0.916083 0.782267 0.591826
O O5 0.370058 0.000637 0.771059
O O6 0.000000 0.000000 0.000000
O O7 0.251214 0.620292 0.493226
O O8 0.908136 0.620507 0.749899
O O9 0.442802 0.751986 0.868890
O O10 0.598087 0.538814 0.231410
O O11 0.653454 0.825483 0.177182
O O12 0.151150 0.826849 0.175129
O O13 0.746420 0.758762 0.337594
O O14 0.000000 0.000000 0.500000
#
# Coordination Sequence:
#
# PCOD9068449 Si02
#       7
#     1   2   2   2   2   2   2
#     4  12  26  52  72 112 156 214 266 328 390 478
#     4  12  26  50  80 119 160 210 267 339 411 484
#     4  11  26  50  79 118 157 208 271 327 411 482
#     4  11  27  50  78 113 156 213 268 338 391 485
#     4  12  27  50  81 121 164 210 265 339 410 490
#     4  12  28  49  83 113 162 211 272 333 408 484
#     4  12  28  48  81 122 164 210 268 334 415 483
#
# _framework density 25.771739
#
# number of rings (size 3 to 8) (size 9 to 14) (size 15 to 20)
#    0.000    0.308    3.077    4.154    6.462    0.615 
#    5.538    0.000    0.000    0.000    0.000    0.000 
#    0.000    0.000    0.000    0.000    0.000    0.000 
#
# Total GULP energy -72653.235560 kJ/mol
# GULP energy per Si atom -5588.710428 kJ/mol
# Density = 2.571308 g / cm^3
# Si number density = 25.771739 Si / 1000 Ang^3
#
#
#
# Elastic Constant Matrix: (Units=GPa)
#
#
# Indices 1 2 3 4 5 6 
#
# 1 106.7290 28.0980 35.9764 -13.6118 30.8155 -14.3508
# 2 28.0980 101.4741 -10.5208 -0.7083 16.5807 -1.8596
# 3 35.9764 -10.5208 177.5752 -7.2082 13.9539 -17.6949
# 4 -13.6118 -0.7083 -7.2082 42.9496 -18.1761 1.5633
# 5 30.8155 16.5807 13.9539 -18.1761 40.5870 4.1577
# 6 -14.3508 -1.8596 -17.6949 1.5633 4.1577 43.6201
#
#
#
# Elastic Compliance Matrix: (Units=1/GPa)
#
#
# Indices 1 2 3 4 5 6 
#
# 1 0.013970 -0.002404 -0.001759 -0.000122 -0.009555 0.004695
# 2 -0.002404 0.011398 0.001500 -0.002224 -0.004425 0.000805
# 3 -0.001759 0.001500 0.006438 -0.000328 -0.001872 0.002287
# 4 -0.000122 -0.002224 -0.000328 0.029415 0.014565 -0.002710
# 5 -0.009555 -0.004425 -0.001872 0.014565 0.041748 -0.008593
# 6 0.004695 0.000805 0.002287 -0.002710 -0.008593 0.026348
#
#
# Mechanical properties :
#
#
# Convention : Reuss Voigt Hill
#
# Bulk Modulus (GPa) = 37.76338 54.76504 46.26421
# Shear Modulus (GPa) = 34.85041 47.57965 41.21503
#
# Velocity S-wave (km/s) = 3.68131 4.30140 4.00338
# Velocity P-wave (km/s) = 5.72313 6.77979 6.27375
#
# Compressibility (1/GPa) = 0.02648068
#
# Stress axis : x y z
#
# Youngs Moduli (GPa) = 71.58189 87.73251 155.31913
#
# Poissons Ratio (x) = 0.21092 0.27320
# Poissons Ratio (y) = 0.17209 -0.23299
# Poissons Ratio (z) = 0.12591 -0.13160
#
# Static dielectric constant tensor:
#      x y z
#    x 1.484840 -0.178480 0.162030 
#    y -0.178480 1.903290 0.061920 
#    z 0.162030 0.061920 1.938570 
# 
# From -- ./inp_files/90006.got.cif
#   From: 2010.05.17/outbox.cif.g08.bks.cpg/sg2_46_cif.got.tgz:90006.got - 2010.06.03 11:33:40.
