data_PCOD9068893
_publ_section_title
;
Structure prediction by ZEFSAII (Michael W. Deem and Ramdas Pophale) SiO2 
 PCOD9068893
Probable space group: P -1
;
_chemical_formula_sum "Si O2"
_cell_formula_units_Z 16
_cell_length_a 20.214698
_cell_length_b 12.038140
_cell_length_c 17.716135
_cell_angle_alpha 158.336430
_cell_angle_beta 30.408768
_cell_angle_gamma 138.538648
_cell_volume 773.590994
_symmetry_space_group_name_H-M "P -1"
_symmetry_group_IT_number 2
_symmetry_cell_setting 'triclinic'
loop_
_space_group_symop_operation_xyz
x,y,z
-x,-y,-z
loop_
_atom_site_type_symbol
_atom_site_label
_atom_site_fract_x
_atom_site_fract_y
_atom_site_fract_z
Si Si1 0.190170 0.732047 0.363266
Si Si2 0.883963 0.900858 0.743999
Si Si3 0.526016 0.334031 0.023412
Si Si4 0.136002 0.730923 0.709772
Si Si5 0.530136 0.670745 0.387603
Si Si6 0.230206 0.051655 0.947027
Si Si7 0.401825 0.760171 0.813463
Si Si8 0.318335 0.818700 0.448765
O O1 0.313591 0.793383 0.232480
O O2 0.225285 0.789385 0.451480
O O3 0.038558 0.920343 0.606450
O O4 0.200547 0.360277 0.118629
O O5 0.881343 0.603787 0.507288
O O6 0.843583 0.853735 0.840873
O O7 0.756044 0.176081 0.014169
O O8 0.450463 0.071676 0.950551
O O9 0.509493 0.564790 0.256633
O O10 0.453485 0.530240 0.146220
O O11 0.181616 0.781925 0.781590
O O12 0.240940 0.802296 0.591972
O O13 0.000000 0.000000 0.000000
O O14 0.391361 0.904947 0.704270
O O15 0.575092 0.369988 0.206900
O O16 0.639587 0.864656 0.401471
O O17 0.500000 0.500000 0.500000
#
# Coordination Sequence:
#
# PCOD9068893 Si02
#       8
#     2   2   2   2   2   2   2   2
#     4  12  24  39  68 102 141 173 226 288 351 402
#     4  12  25  45  67 101 143 186 228 284 345 414
#     4  12  24  44  69 104 137 178 231 294 340 411
#     4  12  23  38  68 104 143 175 226 284 352 410
#     4  12  25  42  71 102 135 177 237 287 342 408
#     4  12  21  40  68 102 135 180 226 286 345 401
#     4  12  25  47  71  94 136 190 236 276 343 418
#     4  12  23  41  68 107 137 178 230 287 344 411
#
# _framework density 20.682765
#
# number of rings (size 3 to 8) (size 9 to 14) (size 15 to 20)
#    0.000    0.000    7.500    3.750    0.000    0.000 
#    0.000    3.125    0.000    0.000    0.000    0.000 
#    0.000    0.000    0.000    0.000    0.000    0.000 
#
# Total GULP energy -89484.590351 kJ/mol
# GULP energy per Si atom -5592.786897 kJ/mol
# Density = 2.063569 g / cm^3
# Si number density = 20.682765 Si / 1000 Ang^3
#
#
#
# Elastic Constant Matrix: (Units=GPa)
#
#
# Indices 1 2 3 4 5 6 
#
# 1 110.9399 29.0209 38.4243 1.6257 -1.2665 20.0846
# 2 29.0209 61.8365 15.2650 -0.8149 -15.2644 11.5388
# 3 38.4243 15.2650 84.5891 -10.7485 -14.4672 17.3736
# 4 1.6257 -0.8149 -10.7485 32.1954 19.9613 -7.8235
# 5 -1.2665 -15.2644 -14.4672 19.9613 46.2303 1.3963
# 6 20.0846 11.5388 17.3736 -7.8235 1.3963 29.2129
#
#
#
# Elastic Compliance Matrix: (Units=1/GPa)
#
#
# Indices 1 2 3 4 5 6 
#
# 1 0.012596 -0.004165 -0.004470 -0.002801 -0.001067 -0.005055
# 2 -0.004165 0.022341 0.000605 -0.008212 0.011271 -0.009059
# 3 -0.004470 0.000605 0.016080 0.000935 0.004909 -0.006713
# 4 -0.002801 -0.008212 0.000935 0.051917 -0.025509 0.019737
# 5 -0.001067 0.011271 0.004909 -0.025509 0.038335 -0.015302
# 6 -0.005055 -0.009059 -0.006713 0.019737 -0.015302 0.051295
#
#
# Mechanical properties :
#
#
# Convention : Reuss Voigt Hill
#
# Bulk Modulus (GPa) = 28.60601 46.97622 37.79111
# Shear Modulus (GPa) = 22.69866 33.17141 27.93504
#
# Velocity S-wave (km/s) = 3.31640 4.00912 3.67910
# Velocity P-wave (km/s) = 5.34093 6.64776 6.02985
#
# Compressibility (1/GPa) = 0.03495769
#
# Stress axis : x y z
#
# Youngs Moduli (GPa) = 79.39240 44.75985 62.18803
#
# Poissons Ratio (x) = 0.18642 0.27798
# Poissons Ratio (y) = 0.33065 -0.03762
# Poissons Ratio (z) = 0.35488 -0.02708
#
# Static dielectric constant tensor:
#      x y z
#    x 1.769160 0.027240 0.006320 
#    y 0.027240 1.730900 -0.017880 
#    z 0.006320 -0.017880 1.819670 
# 
# From -- ./inp_files/333921.got.cif
#   From: 2010.05.17/outbox.cif.g08.bks.cpg/sg2_167_cif.got.tgz:333921.got - 2010.06.03 11:33:40.
