data_PCOD9068557
_publ_section_title
;
Structure prediction by ZEFSAII (Michael W. Deem and Ramdas Pophale) SiO2 
 PCOD9068557
Probable space group: P -1
;
_chemical_formula_sum "Si O2"
_cell_formula_units_Z 16
_cell_length_a 17.574397
_cell_length_b 4.883773
_cell_length_c 14.277206
_cell_angle_alpha 110.628216
_cell_angle_beta 146.557780
_cell_angle_gamma 82.834062
_cell_volume 597.026456
_symmetry_space_group_name_H-M "P -1"
_symmetry_group_IT_number 2
_symmetry_cell_setting 'triclinic'
loop_
_space_group_symop_operation_xyz
x,y,z
-x,-y,-z
loop_
_atom_site_type_symbol
_atom_site_label
_atom_site_fract_x
_atom_site_fract_y
_atom_site_fract_z
Si Si1 0.148751 0.793532 0.191270
Si Si2 0.213797 0.631152 0.691306
Si Si3 0.769824 0.916365 0.083861
Si Si4 0.378750 0.187008 0.802411
Si Si5 0.007489 0.648058 0.325683
Si Si6 0.230725 0.478906 0.403857
Si Si7 0.505287 0.347570 0.758226
Si Si8 0.260801 0.891576 0.109575
O O1 0.246520 0.663504 0.345032
O O2 0.219022 0.891328 0.173592
O O3 0.130888 0.112881 0.248905
O O4 0.000000 0.500000 0.000000
O O5 0.237841 0.303039 0.668617
O O6 0.066263 0.629186 0.487628
O O7 0.235500 0.772023 0.834493
O O8 0.338924 0.884991 0.788846
O O9 0.929761 0.904762 0.267513
O O10 0.637833 0.648223 0.964055
O O11 0.733690 0.841064 0.927375
O O12 0.431572 0.145512 0.747804
O O13 0.500000 0.500000 0.000000
O O14 0.143124 0.642709 0.399867
O O15 0.874148 0.365993 0.111682
O O16 0.380831 0.450630 0.593014
O O17 0.587240 0.169932 0.756501
#
# Coordination Sequence:
#
# PCOD9068557 Si02
#       8
#     2   2   2   2   2   2   2   2
#     4  12  29  52  82 113 149 196 254 316 392 452
#     4  12  27  46  78 110 155 204 262 303 371 450
#     4  11  27  49  74 111 162 206 248 313 382 446
#     4  12  25  44  74 109 147 207 251 307 371 447
#     4  11  27  46  74 116 150 203 252 319 369 454
#     4  12  29  48  82 115 149 198 258 317 375 459
#     4  11  27  47  74 112 158 198 252 312 380 445
#     4  11  28  48  78 105 157 197 251 315 391 444
#
# _framework density 26.799485000000001
#
# number of rings (size 3 to 8) (size 9 to 14) (size 15 to 20)
#    0.000    0.500    3.750    1.875   14.000    1.500 
#    0.000    0.000    0.000    0.000    0.000    0.000 
#    0.000    0.000    0.000    0.000    0.000    0.000 
#
# Total GULP energy -89661.561308 kJ/mol
# GULP energy per Si atom -5603.847582 kJ/mol
# Density = 2.673849 g / cm^3
# Si number density = 26.799485 Si / 1000 Ang^3
#
#
#
# Elastic Constant Matrix: (Units=GPa)
#
#
# Indices 1 2 3 4 5 6 
#
# 1 167.4540 46.9723 54.1910 -20.8415 -0.8445 5.3079
# 2 46.9723 130.8074 37.9821 -19.1383 2.6552 1.8424
# 3 54.1910 37.9821 134.4405 -27.4633 18.4450 -1.5447
# 4 -20.8415 -19.1383 -27.4633 60.0919 3.8894 3.0723
# 5 -0.8445 2.6552 18.4450 3.8894 45.7688 -6.1888
# 6 5.3079 1.8424 -1.5447 3.0723 -6.1888 48.2125
#
#
#
# Elastic Compliance Matrix: (Units=1/GPa)
#
#
# Indices 1 2 3 4 5 6 
#
# 1 0.007414 -0.001839 -0.002453 0.000834 0.001061 -0.000742
# 2 -0.001839 0.008965 -0.001453 0.001578 -0.000144 -0.000306
# 3 -0.002453 -0.001453 0.010180 0.003631 -0.004391 -0.000143
# 4 0.000834 0.001578 0.003631 0.019401 -0.003419 -0.001711
# 5 0.001061 -0.000144 -0.004391 -0.003419 0.024355 0.003092
# 6 -0.000742 -0.000306 -0.000143 -0.001711 0.003092 0.021336
#
#
# Mechanical properties :
#
#
# Convention : Reuss Voigt Hill
#
# Bulk Modulus (GPa) = 66.35762 78.99919 72.67840
# Shear Modulus (GPa) = 46.22591 50.38509 48.30550
#
# Velocity S-wave (km/s) = 4.15767 4.34069 4.25017
# Velocity P-wave (km/s) = 6.91830 7.39351 7.15985
#
# Compressibility (1/GPa) = 0.01506986
#
# Stress axis : x y z
#
# Youngs Moduli (GPa) = 134.87875 111.54100 98.23397
#
# Poissons Ratio (x) = 0.20516 0.24092
# Poissons Ratio (y) = 0.24808 0.14272
# Poissons Ratio (z) = 0.33080 0.16205
#
# Static dielectric constant tensor:
#      x y z
#    x 2.123490 0.071680 0.006100 
#    y 0.071680 2.176350 0.028390 
#    z 0.006100 0.028390 2.145490 
# 
# From -- ./inp_files/536426.got.cif
#   From: 2010.05.17/outbox.cif.g08.bks.cpg/sg2_269_cif.got.tgz:536426.got - 2010.06.03 11:33:40.
