data_PCOD9068695
_publ_section_title
;
Structure prediction by ZEFSAII (Michael W. Deem and Ramdas Pophale) SiO2 
 PCOD9068695
Probable space group: P -1
;
_chemical_formula_sum "Si O2"
_cell_formula_units_Z 12
_cell_length_a 13.670332
_cell_length_b 4.770144
_cell_length_c 12.925531
_cell_angle_alpha 78.120178
_cell_angle_beta 31.604310
_cell_angle_gamma 86.015269
_cell_volume 422.938242
_symmetry_space_group_name_H-M "P -1"
_symmetry_group_IT_number 2
_symmetry_cell_setting 'triclinic'
loop_
_space_group_symop_operation_xyz
x,y,z
-x,-y,-z
loop_
_atom_site_type_symbol
_atom_site_label
_atom_site_fract_x
_atom_site_fract_y
_atom_site_fract_z
Si Si1 0.333488 0.239915 0.213521
Si Si2 0.325037 0.351850 0.537591
Si Si3 0.825635 0.826521 0.102833
Si Si4 0.947636 0.568253 0.809223
Si Si5 0.500319 0.959077 0.280205
Si Si6 0.929317 0.176281 0.675266
O O1 0.238367 0.985196 0.237862
O O2 0.431156 0.089952 0.229739
O O3 0.500000 0.500000 0.000000
O O4 0.135931 0.327105 0.427871
O O5 0.311159 0.346365 0.673440
O O6 0.474561 0.608428 0.326743
O O7 0.130518 0.425167 0.667061
O O8 0.367512 0.047920 0.483033
O O9 0.714075 0.042473 0.125703
O O10 0.887099 0.622575 0.976530
O O11 0.000000 0.000000 0.000000
O O12 0.981413 0.898171 0.709469
O O13 0.851900 0.386410 0.809446
#
# Coordination Sequence:
#
# PCOD9068695 Si02
#       6
#     2   2   2   2   2   2
#     4  11  27  55  91 129 173 231 299 362 446 526
#     4  12  25  51  84 117 170 224 279 354 429 516
#     4  12  29  51  86 128 168 234 290 351 441 532
#     4  12  25  53  84 126 178 222 286 357 438 526
#     4  12  28  54  79 125 171 219 290 365 426 517
#     4  11  27  53  88 127 176 230 284 365 448 517
#
# _framework density 28.372934000000001
#
# number of rings (size 3 to 8) (size 9 to 14) (size 15 to 20)
#    0.000    0.333    3.333    3.500    0.000   13.333 
#    0.000    7.500    3.667    0.000    0.000    0.000 
#    0.000    0.000    0.000    0.000    0.000    0.000 
#
# Total GULP energy -67286.139557 kJ/mol
# GULP energy per Si atom -5607.178296 kJ/mol
# Density = 2.830836 g / cm^3
# Si number density = 28.372934 Si / 1000 Ang^3
#
#
#
# Elastic Constant Matrix: (Units=GPa)
#
#
# Indices 1 2 3 4 5 6 
#
# 1 245.7342 73.9113 109.0416 0.7835 -11.1943 10.1753
# 2 73.9113 137.5467 42.3671 6.2081 -5.2465 26.2298
# 3 109.0416 42.3671 146.7619 -17.5777 -11.7207 21.4039
# 4 0.7835 6.2081 -17.5777 59.4004 -11.5608 5.0518
# 5 -11.1943 -5.2465 -11.7207 -11.5608 63.3151 6.4455
# 6 10.1753 26.2298 21.4039 5.0518 6.4455 65.2965
#
#
#
# Elastic Compliance Matrix: (Units=1/GPa)
#
#
# Indices 1 2 3 4 5 6 
#
# 1 0.006883 -0.002467 -0.004844 -0.001469 -0.000321 0.001652
# 2 -0.002467 0.009404 -0.000461 -0.000723 0.000455 -0.003231
# 3 -0.004844 -0.000461 0.011774 0.004368 0.002439 -0.003498
# 4 -0.001469 -0.000723 0.004368 0.019300 0.004301 -0.002830
# 5 -0.000321 0.000455 0.002439 0.004301 0.017315 -0.002974
# 6 0.001652 -0.003231 -0.003498 -0.002830 -0.002974 0.018015
#
#
# Mechanical properties :
#
#
# Convention : Reuss Voigt Hill
#
# Bulk Modulus (GPa) = 79.89300 108.96476 94.42888
# Shear Modulus (GPa) = 48.82525 57.91726 53.37126
#
# Velocity S-wave (km/s) = 4.15280 4.52296 4.34183
# Velocity P-wave (km/s) = 7.15637 8.10950 7.64780
#
# Compressibility (1/GPa) = 0.01251674
#
# Stress axis : x y z
#
# Youngs Moduli (GPa) = 145.29291 106.33632 84.93427
#
# Poissons Ratio (x) = 0.26236 0.41141
# Poissons Ratio (y) = 0.35848 0.03913
# Poissons Ratio (z) = 0.70378 0.04899
#
# Static dielectric constant tensor:
#      x y z
#    x 2.220860 0.009960 -0.084080 
#    y 0.009960 2.131170 -0.122210 
#    z -0.084080 -0.122210 2.428780 
# 
# From -- ./inp_files/228778.got.cif
#   From: 2010.05.17/outbox.cif.g08.bks.cpg/sg2_115_cif.got.tgz:228778.got - 2010.06.03 11:33:40.
