data_PCOD9068660
_publ_section_title
;
Structure prediction by ZEFSAII (Michael W. Deem and Ramdas Pophale) SiO2 
 PCOD9068660
Probable space group: P -1
;
_chemical_formula_sum "Si O2"
_cell_formula_units_Z 10
_cell_length_a 9.622734
_cell_length_b 8.689553
_cell_length_c 12.550393
_cell_angle_alpha 132.310559
_cell_angle_beta 48.677830
_cell_angle_gamma 91.587439
_cell_volume 385.218440
_symmetry_space_group_name_H-M "P -1"
_symmetry_group_IT_number 2
_symmetry_cell_setting 'triclinic'
loop_
_space_group_symop_operation_xyz
x,y,z
-x,-y,-z
loop_
_atom_site_type_symbol
_atom_site_label
_atom_site_fract_x
_atom_site_fract_y
_atom_site_fract_z
Si Si1 0.767115 0.187232 0.370988
Si Si2 0.907805 0.194253 0.530264
Si Si3 0.524113 0.092366 0.918503
Si Si4 0.267807 0.336006 0.719003
Si Si5 0.973806 0.696294 0.852280
O O1 0.902306 0.066492 0.363906
O O2 0.438493 0.411723 0.657303
O O3 0.849043 0.336044 0.343581
O O4 0.884749 0.925913 0.102019
O O5 0.608198 0.562544 0.856129
O O6 0.000000 0.000000 0.500000
O O7 0.146034 0.167325 0.385245
O O8 0.313959 0.149458 0.973912
O O9 0.500000 0.000000 0.000000
O O10 0.169743 0.371127 0.665427
O O11 0.500000 0.000000 0.500000
O O12 0.000000 0.500000 0.000000
#
# Coordination Sequence:
#
# PCOD9068660 Si02
#       5
#     2   2   2   2   2
#     4  11  27  50  79 114 155 203 264 310 395 456
#     4  12  30  51  79 113 164 203 259 327 396 461
#     4  12  28  52  78 115 155 210 261 317 392 472
#     4  12  27  46  74 113 156 196 256 319 387 452
#     4  11  27  50  82 110 160 204 262 320 381 473
#
# _framework density 25.959296999999999
#
# number of rings (size 3 to 8) (size 9 to 14) (size 15 to 20)
#    0.000    0.400    4.000    1.800   11.200    0.000 
#    0.000    0.000    0.000    0.000    0.000    0.000 
#    0.000    0.000    0.000    0.000    0.000    0.000 
#
# Total GULP energy -55963.537361 kJ/mol
# GULP energy per Si atom -5596.353736 kJ/mol
# Density = 2.590021 g / cm^3
# Si number density = 25.959297 Si / 1000 Ang^3
#
#
#
# Elastic Constant Matrix: (Units=GPa)
#
#
# Indices 1 2 3 4 5 6 
#
# 1 210.1518 32.3400 43.1909 -18.8381 -14.0555 -38.2064
# 2 32.3400 118.1449 20.4185 -28.4526 1.5370 -38.6506
# 3 43.1909 20.4185 135.3894 -19.2635 -33.8654 -4.5533
# 4 -18.8381 -28.4526 -19.2635 57.5902 7.3664 -14.1121
# 5 -14.0555 1.5370 -33.8654 7.3664 53.3619 -2.6982
# 6 -38.2064 -38.6506 -4.5533 -14.1121 -2.6982 58.3701
#
#
#
# Elastic Compliance Matrix: (Units=1/GPa)
#
#
# Indices 1 2 3 4 5 6 
#
# 1 0.006224 0.001207 -0.001342 0.003494 0.000556 0.005639
# 2 0.001207 0.015504 -0.001087 0.011242 -0.001682 0.013612
# 3 -0.001342 -0.001087 0.009561 0.001455 0.005532 -0.000245
# 4 0.003494 0.011242 0.001455 0.028858 -0.001617 0.016747
# 5 0.000556 -0.001682 0.005532 -0.001617 0.022686 0.000339
# 6 0.005639 0.013612 -0.000245 0.016747 0.000339 0.033882
#
#
# Mechanical properties :
#
#
# Convention : Reuss Voigt Hill
#
# Bulk Modulus (GPa) = 34.66672 72.84279 53.75475
# Shear Modulus (GPa) = 38.82820 58.38021 48.60421
#
# Velocity S-wave (km/s) = 3.87167 4.74742 4.33173
# Velocity P-wave (km/s) = 5.77665 7.62705 6.76541
#
# Compressibility (1/GPa) = 0.02884611
#
# Stress axis : x y z
#
# Youngs Moduli (GPa) = 160.66555 64.50078 104.59643
#
# Poissons Ratio (x) = -0.07788 0.14034
# Poissons Ratio (y) = -0.19399 0.11367
# Poissons Ratio (z) = 0.21557 0.07010
#
# Static dielectric constant tensor:
#      x y z
#    x 2.050960 0.097370 0.120420 
#    y 0.097370 2.122860 0.184020 
#    z 0.120420 0.184020 2.309100 
# 
# From -- ./inp_files/17693.got.cif
#   From: 2010.05.17/outbox.cif.g08.bks.cpg/sg2_9_cif.got.tgz:17693.got - 2010.06.03 11:33:40.
