data_PCOD9068295
_publ_section_title
;
Structure prediction by ZEFSAII (Michael W. Deem and Ramdas Pophale) SiO2 
 PCOD9068295
Probable space group: P -1
;
_chemical_formula_sum "Si O2"
_cell_formula_units_Z 12
_cell_length_a 7.160628
_cell_length_b 7.688649
_cell_length_c 13.467535
_cell_angle_alpha 105.649651
_cell_angle_beta 140.522434
_cell_angle_gamma 77.689285
_cell_volume 453.913704
_symmetry_space_group_name_H-M "P -1"
_symmetry_group_IT_number 2
_symmetry_cell_setting 'triclinic'
loop_
_space_group_symop_operation_xyz
x,y,z
-x,-y,-z
loop_
_atom_site_type_symbol
_atom_site_label
_atom_site_fract_x
_atom_site_fract_y
_atom_site_fract_z
Si Si1 0.117946 0.306877 0.488166
Si Si2 0.207828 0.639431 0.832550
Si Si3 0.388670 0.899245 0.682300
Si Si4 0.274360 0.866383 0.274802
Si Si5 0.078184 0.316430 0.062265
Si Si6 0.258207 0.223163 0.823740
O O1 0.994140 0.276461 0.322036
O O2 0.000000 0.500000 0.500000
O O3 0.465300 0.281556 0.631493
O O4 0.940855 0.173403 0.466817
O O5 0.066213 0.664040 0.886208
O O6 0.239976 0.422732 0.797378
O O7 0.520223 0.737116 0.987405
O O8 0.538879 0.956309 0.648965
O O9 0.388710 0.071336 0.782194
O O10 0.411922 0.259051 0.211746
O O11 0.074329 0.834579 0.090975
O O12 0.948876 0.156348 0.729865
O O13 0.000000 0.500000 0.000000
#
# Coordination Sequence:
#
# PCOD9068295 Si02
#       6
#     2   2   2   2   2   2
#     4  12  29  50  77 111 160 202 251 319 389 449
#     4  11  26  50  80 114 154 202 259 310 381 452
#     4  12  28  50  79 111 156 199 261 314 381 454
#     4  12  26  49  75 114 156 198 254 314 385 450
#     4  12  25  50  79 112 149 208 258 314 373 458
#     4  11  26  48  83 112 151 201 260 309 376 450
#
# _framework density 26.436741999999999
#
# number of rings (size 3 to 8) (size 9 to 14) (size 15 to 20)
#    0.000    0.333    3.333    4.000    7.000    2.667 
#    3.000    0.000    0.000    0.000    0.000    0.000 
#    0.000    0.000    0.000    0.000    0.000    0.000 
#
# Total GULP energy -67346.188513 kJ/mol
# GULP energy per Si atom -5612.182376 kJ/mol
# Density = 2.637657 g / cm^3
# Si number density = 26.436742 Si / 1000 Ang^3
#
#
#
# Elastic Constant Matrix: (Units=GPa)
#
#
# Indices 1 2 3 4 5 6 
#
# 1 156.7609 51.1580 37.9145 1.4788 39.8636 7.9478
# 2 51.1580 123.3875 30.8354 -0.7791 5.1115 -2.2579
# 3 37.9145 30.8354 111.8400 -12.2868 14.3262 2.8510
# 4 1.4788 -0.7791 -12.2868 54.8176 -1.5793 4.1843
# 5 39.8636 5.1115 14.3262 -1.5793 31.6969 0.6408
# 6 7.9478 -2.2579 2.8510 4.1843 0.6408 50.5071
#
#
#
# Elastic Compliance Matrix: (Units=1/GPa)
#
#
# Indices 1 2 3 4 5 6 
#
# 1 0.011376 -0.003922 -0.001142 -0.000871 -0.013169 -0.001662
# 2 -0.003922 0.010086 -0.002037 -0.000174 0.004195 0.001144
# 3 -0.001142 -0.002037 0.010530 0.002330 -0.002865 -0.000662
# 4 -0.000871 -0.000174 0.002330 0.018937 0.001046 -0.001584
# 5 -0.013169 0.004195 -0.002865 0.001046 0.048747 0.001716
# 6 -0.001662 0.001144 -0.000662 -0.001584 0.001716 0.020259
#
#
# Mechanical properties :
#
#
# Convention : Reuss Voigt Hill
#
# Bulk Modulus (GPa) = 56.20802 70.20045 63.20423
# Shear Modulus (GPa) = 35.69767 45.54303 40.62035
#
# Velocity S-wave (km/s) = 3.67864 4.15507 3.92409
# Velocity P-wave (km/s) = 6.27301 7.04494 6.67015
#
# Compressibility (1/GPa) = 0.01779106
#
# Stress axis : x y z
#
# Youngs Moduli (GPa) = 87.90116 99.15073 94.96778
#
# Poissons Ratio (x) = 0.38885 0.10844
# Poissons Ratio (y) = 0.34473 0.19343
# Poissons Ratio (z) = 0.10037 0.20195
#
# Static dielectric constant tensor:
#      x y z
#    x 2.051870 0.009690 -0.010420 
#    y 0.009690 2.107980 0.018150 
#    z -0.010420 0.018150 2.055910 
# 
# From -- ./inp_files/303981.got.cif
#   From: 2010.05.17/outbox.cif.g08.bks.cpg/sg2_152_cif.got.tgz:303981.got - 2010.06.03 11:33:40.
