data_PCOD9068679
_publ_section_title
;
Structure prediction by ZEFSAII (Michael W. Deem and Ramdas Pophale) SiO2 
 PCOD9068679
Probable space group: P -1
;
_chemical_formula_sum "Si O2"
_cell_formula_units_Z 15
_cell_length_a 9.027065
_cell_length_b 9.913601
_cell_length_c 12.533707
_cell_angle_alpha 57.477193
_cell_angle_beta 111.946548
_cell_angle_gamma 133.986059
_cell_volume 680.475646
_symmetry_space_group_name_H-M "P -1"
_symmetry_group_IT_number 2
_symmetry_cell_setting 'triclinic'
loop_
_space_group_symop_operation_xyz
x,y,z
-x,-y,-z
loop_
_atom_site_type_symbol
_atom_site_label
_atom_site_fract_x
_atom_site_fract_y
_atom_site_fract_z
Si Si1 0.850001 0.871189 0.681656
Si Si2 0.626406 0.484893 0.629141
Si Si3 0.500000 0.000000 0.000000
Si Si4 0.973173 0.475636 0.629629
Si Si5 0.280285 0.275653 0.052445
Si Si6 0.127511 0.850478 0.102480
Si Si7 0.314534 0.924092 0.560960
Si Si8 0.686206 0.962683 0.252806
O O1 0.735332 0.676063 0.655615
O O2 0.748081 0.794887 0.802697
O O3 0.824490 0.029701 0.555077
O O4 0.084936 0.962299 0.713752
O O5 0.500000 0.500000 0.500000
O O6 0.792919 0.478247 0.619647
O O7 0.459838 0.268772 0.735230
O O8 0.294080 0.854690 0.081900
O O9 0.650022 0.084178 0.111665
O O10 0.927437 0.271688 0.749805
O O11 0.000000 0.500000 0.500000
O O12 0.181124 0.681199 0.647089
O O13 0.241435 0.092054 0.049314
O O14 0.500000 0.500000 0.000000
O O15 0.084453 0.259875 0.972158
O O16 0.500000 0.000000 0.500000
O O17 0.379087 0.034905 0.645536
#
# Coordination Sequence:
#
# PCOD9068679 Si02
#       8
#     2   2   1   2   2   2   2   2
#     4  12  26  49  73 109 149 197 251 313 379 462
#     4  12  25  45  74 106 145 195 242 306 380 439
#     4  12  26  48  78 106 150 204 248 318 374 450
#     4  12  26  46  74 110 147 192 249 315 378 437
#     4  11  28  48  76 106 150 202 248 309 388 456
#     4  11  27  52  72 111 152 195 258 315 375 461
#     4  12  27  47  75 112 152 196 253 318 376 452
#     4  12  25  49  73 107 151 194 254 308 379 454
#
# _framework density 22.043403999999999
#
# number of rings (size 3 to 8) (size 9 to 14) (size 15 to 20)
#    0.000    0.267    5.333    2.800    5.600    0.000 
#    0.000    2.667    0.000    0.000    0.000    0.000 
#    0.000    0.000    0.000    0.000    0.000    0.000 
#
# Total GULP energy -83701.942580 kJ/mol
# GULP energy per Si atom -5580.129505 kJ/mol
# Density = 2.199323 g / cm^3
# Si number density = 22.043404 Si / 1000 Ang^3
#
#
#
# Elastic Constant Matrix: (Units=GPa)
#
#
# Indices 1 2 3 4 5 6 
#
# 1 68.3627 38.0792 31.2023 7.5198 3.3564 29.3086
# 2 38.0792 115.0865 13.0513 -15.1443 2.5245 29.7327
# 3 31.2023 13.0513 112.0627 16.8111 -8.5596 4.0280
# 4 7.5198 -15.1443 16.8111 30.3508 10.0366 -1.7471
# 5 3.3564 2.5245 -8.5596 10.0366 35.6769 -0.2074
# 6 29.3086 29.7327 4.0280 -1.7471 -0.2074 29.1583
#
#
#
# Elastic Compliance Matrix: (Units=1/GPa)
#
#
# Indices 1 2 3 4 5 6 
#
# 1 0.033189 -0.003463 -0.006970 -0.006854 -0.002792 -0.029297
# 2 -0.003463 0.014012 -0.002072 0.009733 -0.003959 -0.009966
# 3 -0.006970 -0.002072 0.012490 -0.007821 0.006040 0.006967
# 4 -0.006854 0.009733 -0.007821 0.049085 -0.015724 0.000874
# 5 -0.002792 -0.003959 0.006040 -0.015724 0.034475 0.005312
# 6 -0.029297 -0.009966 0.006967 0.000874 0.005312 0.073033
#
#
# Mechanical properties :
#
#
# Convention : Reuss Voigt Hill
#
# Bulk Modulus (GPa) = 28.83360 51.13083 39.98221
# Shear Modulus (GPa) = 19.77427 33.24915 26.51171
#
# Velocity S-wave (km/s) = 2.99835 3.88796 3.47177
# Velocity P-wave (km/s) = 5.00955 6.58793 5.85220
#
# Compressibility (1/GPa) = 0.03468176
#
# Stress axis : x y z
#
# Youngs Moduli (GPa) = 30.13057 71.36608 80.06605
#
# Poissons Ratio (x) = 0.24713 0.55804
# Poissons Ratio (y) = 0.10434 0.16590
# Poissons Ratio (z) = 0.21000 0.14787
#
# Static dielectric constant tensor:
#      x y z
#    x 1.803130 -0.019940 0.039140 
#    y -0.019940 1.832260 -0.045480 
#    z 0.039140 -0.045480 1.841740 
# 
# From -- ./inp_files/381440.got.cif
#   From: 2010.05.17/outbox.cif.g08.bks.cpg/sg2_191_cif.got.tgz:381440.got - 2010.06.03 11:33:40.
