data_PCOD9068386
_publ_section_title
;
Structure prediction by ZEFSAII (Michael W. Deem and Ramdas Pophale) SiO2 
 PCOD9068386
Probable space group: P -1
;
_chemical_formula_sum "Si O2"
_cell_formula_units_Z 10
_cell_length_a 5.109991
_cell_length_b 7.562851
_cell_length_c 14.301110
_cell_angle_alpha 131.767811
_cell_angle_beta 103.543680
_cell_angle_gamma 83.827818
_cell_volume 399.858415
_symmetry_space_group_name_H-M "P -1"
_symmetry_group_IT_number 2
_symmetry_cell_setting 'triclinic'
loop_
_space_group_symop_operation_xyz
x,y,z
-x,-y,-z
loop_
_atom_site_type_symbol
_atom_site_label
_atom_site_fract_x
_atom_site_fract_y
_atom_site_fract_z
Si Si1 0.217436 0.853262 0.916550
Si Si2 0.103514 0.873558 0.698515
Si Si3 0.830369 0.413517 0.565096
Si Si4 0.677421 0.616298 0.141336
Si Si5 0.423510 0.257269 0.621197
O O1 0.191169 0.825666 0.794147
O O2 0.189919 0.605085 0.880140
O O3 0.500000 0.000000 0.000000
O O4 0.000000 0.000000 0.000000
O O5 0.857344 0.669922 0.606163
O O6 0.262707 0.778122 0.589560
O O7 0.888041 0.689347 0.408824
O O8 0.122518 0.158654 0.792416
O O9 0.626021 0.429940 0.638890
O O10 0.520961 0.709506 0.252116
O O11 0.500000 0.500000 0.000000
O O12 0.500000 0.000000 0.500000
#
# Coordination Sequence:
#
# PCOD9068386 Si02
#       5
#     2   2   2   2   2
#     4  12  29  52  76 112 160 206 260 325 393 469
#     4  11  26  49  80 116 155 206 265 322 393 467
#     4  11  27  49  77 115 158 206 254 328 391 463
#     4  12  27  52  82 119 157 212 266 324 394 472
#     4  12  26  50  79 115 159 203 263 321 388 469
#
# _framework density 25.008849999999999
#
# number of rings (size 3 to 8) (size 9 to 14) (size 15 to 20)
#    0.000    0.400    6.000    0.600    2.800    7.200 
#    0.000    0.000    0.000    0.000    0.000    0.000 
#    0.000    0.000    0.000    0.000    0.000    0.000 
#
# Total GULP energy -55866.588740 kJ/mol
# GULP energy per Si atom -5586.658874 kJ/mol
# Density = 2.495193 g / cm^3
# Si number density = 25.008850 Si / 1000 Ang^3
#
#
#
# Elastic Constant Matrix: (Units=GPa)
#
#
# Indices 1 2 3 4 5 6 
#
# 1 138.5779 39.6408 49.7254 -2.6284 -16.2575 -4.6358
# 2 39.6408 209.3955 82.1685 27.3286 -4.9886 7.7461
# 3 49.7254 82.1685 207.7492 -9.2974 -11.8607 -12.1701
# 4 -2.6284 27.3286 -9.2974 84.0579 2.5153 0.0093
# 5 -16.2575 -4.9886 -11.8607 2.5153 21.2452 -4.0280
# 6 -4.6358 7.7461 -12.1701 0.0093 -4.0280 30.2887
#
#
#
# Elastic Compliance Matrix: (Units=1/GPa)
#
#
# Indices 1 2 3 4 5 6 
#
# 1 0.008757 -0.001181 -0.001147 0.000348 0.006121 0.001995
# 2 -0.001181 0.006415 -0.002603 -0.002376 -0.001142 -0.003018
# 3 -0.001147 -0.002603 0.006537 0.001454 0.002646 0.003468
# 4 0.000348 -0.002376 0.001454 0.012864 -0.000788 0.001136
# 5 0.006121 -0.001142 0.002646 -0.000788 0.054873 0.009589
# 6 0.001995 -0.003018 0.003468 0.001136 0.009589 0.036761
#
#
# Mechanical properties :
#
#
# Convention : Reuss Voigt Hill
#
# Bulk Modulus (GPa) = 84.40978 99.86579 92.13779
# Shear Modulus (GPa) = 35.70942 52.73089 44.22016
#
# Velocity S-wave (km/s) = 3.78282 4.59681 4.20954
# Velocity P-wave (km/s) = 7.27357 8.25791 7.78132
#
# Compressibility (1/GPa) = 0.01184697
#
# Stress axis : x y z
#
# Youngs Moduli (GPa) = 114.19481 155.87904 152.97908
#
# Poissons Ratio (x) = 0.18410 0.17547
# Poissons Ratio (y) = 0.13487 0.39820
# Poissons Ratio (z) = 0.13098 0.40575
#
# Static dielectric constant tensor:
#      x y z
#    x 2.059800 0.012410 0.110950 
#    y 0.012410 2.000960 -0.043390 
#    z 0.110950 -0.043390 1.958570 
# 
# From -- ./inp_files/480915.got.cif
#   From: 2010.05.17/outbox.cif.g08.bks.cpg/sg2_241_cif.got.tgz:480915.got - 2010.06.03 11:33:40.
