data_PCOD9068261
_publ_section_title
;
Structure prediction by ZEFSAII (Michael W. Deem and Ramdas Pophale) SiO2 
 PCOD9068261
Probable space group: P -1
;
_chemical_formula_sum "Si O2"
_cell_formula_units_Z 13
_cell_length_a 12.264434
_cell_length_b 9.106951
_cell_length_c 9.466162
_cell_angle_alpha 134.422662
_cell_angle_beta 46.704168
_cell_angle_gamma 107.278071
_cell_volume 514.407802
_symmetry_space_group_name_H-M "P -1"
_symmetry_group_IT_number 2
_symmetry_cell_setting 'triclinic'
loop_
_space_group_symop_operation_xyz
x,y,z
-x,-y,-z
loop_
_atom_site_type_symbol
_atom_site_label
_atom_site_fract_x
_atom_site_fract_y
_atom_site_fract_z
Si Si1 0.532795 0.459727 0.777625
Si Si2 0.867129 0.755447 0.966015
Si Si3 0.641991 0.765526 0.703649
Si Si4 0.500000 0.000000 0.500000
Si Si5 0.063121 0.943435 0.126919
Si Si6 0.999377 0.288114 0.621662
Si Si7 0.719393 0.433238 0.167872
O O1 0.645002 0.590607 0.707534
O O2 0.578527 0.198761 0.544876
O O3 0.385349 0.572469 0.877423
O O4 0.500000 0.500000 0.000000
O O5 0.958128 0.825240 0.061208
O O6 0.679480 0.816035 0.203222
O O7 0.945446 0.495733 0.705960
O O8 0.900285 0.885739 0.893095
O O9 0.812949 0.791407 0.571983
O O10 0.636727 0.648801 0.479390
O O11 0.500000 0.000000 0.000000
O O12 0.967758 0.085751 0.439502
O O13 0.234995 0.771038 0.904335
O O14 0.894841 0.390789 0.920835
#
# Coordination Sequence:
#
# PCOD9068261 Si02
#       7
#     2   2   2   1   2   2   2
#     4  12  31  51  82 122 166 219 277 345 419 499
#     4  11  26  48  77 119 164 215 277 339 413 492
#     4  12  29  52  87 124 170 219 281 349 423 496
#     4  12  28  48  80 112 172 212 276 336 410 484
#     4  11  26  48  83 114 164 218 275 343 413 496
#     4  12  26  49  81 119 165 217 280 334 423 496
#     4  12  26  56  79 119 168 219 276 345 420 497
#
# _framework density 25.271777
#
# number of rings (size 3 to 8) (size 9 to 14) (size 15 to 20)
#    0.000    0.308    3.077    3.692    8.615    0.000 
#    0.000    0.000    0.000    0.000    0.000    0.000 
#    0.000    0.000    0.000    0.000    0.000    0.000 
#
# Total GULP energy -72583.356496 kJ/mol
# GULP energy per Si atom -5583.335115 kJ/mol
# Density = 2.521426 g / cm^3
# Si number density = 25.271777 Si / 1000 Ang^3
#
#
#
# Elastic Constant Matrix: (Units=GPa)
#
#
# Indices 1 2 3 4 5 6 
#
# 1 97.3470 17.6189 66.4714 1.1048 4.3178 -17.4284
# 2 17.6189 116.9214 43.0198 7.6792 20.6215 -0.2154
# 3 66.4714 43.0198 181.9752 14.4742 0.7345 -4.7718
# 4 1.1048 7.6792 14.4742 55.3831 -2.8774 0.1575
# 5 4.3178 20.6215 0.7345 -2.8774 44.9603 -6.1035
# 6 -17.4284 -0.2154 -4.7718 0.1575 -6.1035 37.5714
#
#
#
# Elastic Compliance Matrix: (Units=1/GPa)
#
#
# Indices 1 2 3 4 5 6 
#
# 1 0.015122 -0.000311 -0.005373 0.001112 -0.000299 0.006277
# 2 -0.000311 0.010369 -0.002262 -0.001093 -0.004917 -0.001166
# 3 -0.005373 -0.002262 0.008084 -0.001629 0.001142 -0.001286
# 4 0.001112 -0.001093 -0.001629 0.018697 0.001685 0.000498
# 5 -0.000299 -0.004917 0.001142 0.001685 0.025166 0.004060
# 6 0.006277 -0.001166 -0.001286 0.000498 0.004060 0.030015
#
#
# Mechanical properties :
#
#
# Convention : Reuss Voigt Hill
#
# Bulk Modulus (GPa) = 56.54815 72.27375 64.41095
# Shear Modulus (GPa) = 38.68839 45.52520 42.10679
#
# Velocity S-wave (km/s) = 3.91691 4.24892 4.08629
# Velocity P-wave (km/s) = 6.54834 7.26167 6.91421
#
# Compressibility (1/GPa) = 0.01768405
#
# Stress axis : x y z
#
# Youngs Moduli (GPa) = 66.12853 96.44596 123.70519
#
# Poissons Ratio (x) = 0.02996 0.66466
# Poissons Ratio (y) = 0.02054 0.27976
# Poissons Ratio (z) = 0.35531 0.21811
#
# Static dielectric constant tensor:
#      x y z
#    x 2.015490 -0.016490 0.021250 
#    y -0.016490 2.102530 -0.066780 
#    z 0.021250 -0.066780 1.971970 
# 
# From -- ./inp_files/245737.got.cif
#   From: 2010.05.17/outbox.cif.g08.bks.cpg/sg2_123_cif.got.tgz:245737.got - 2010.06.03 11:33:40.
