data_PCOD9068384
_publ_section_title
;
Structure prediction by ZEFSAII (Michael W. Deem and Ramdas Pophale) SiO2 
 PCOD9068384
Probable space group: P -1
;
_chemical_formula_sum "Si O2"
_cell_formula_units_Z 12
_cell_length_a 9.061830
_cell_length_b 11.416643
_cell_length_c 8.943091
_cell_angle_alpha 64.955764
_cell_angle_beta 86.771096
_cell_angle_gamma 135.583570
_cell_volume 483.757986
_symmetry_space_group_name_H-M "P -1"
_symmetry_group_IT_number 2
_symmetry_cell_setting 'triclinic'
loop_
_space_group_symop_operation_xyz
x,y,z
-x,-y,-z
loop_
_atom_site_type_symbol
_atom_site_label
_atom_site_fract_x
_atom_site_fract_y
_atom_site_fract_z
Si Si1 0.641407 0.463878 0.472296
Si Si2 0.373058 0.705357 0.155404
Si Si3 0.773812 0.640615 0.854953
Si Si4 0.711639 0.236740 0.153350
Si Si5 0.700628 0.960265 0.489036
Si Si6 0.043083 0.880507 0.024766
O O1 0.310257 0.549210 0.121839
O O2 0.742191 0.438253 0.609635
O O3 0.446993 0.248964 0.491162
O O4 0.891158 0.684688 0.252980
O O5 0.500000 0.500000 0.500000
O O6 0.660142 0.918458 0.077628
O O7 0.930436 0.761566 0.935319
O O8 0.995715 0.854367 0.613957
O O9 0.500000 0.500000 0.000000
O O10 0.676335 0.205568 0.993276
O O11 0.701882 0.098052 0.324858
O O12 0.476480 0.147644 0.294886
O O13 0.000000 0.500000 0.000000
O O14 0.000000 0.000000 0.000000
#
# Coordination Sequence:
#
# PCOD9068384 Si02
#       6
#     2   2   2   2   2   2
#     4  12  25  46  73 111 159 199 255 321 389 468
#     4  12  26  45  76 110 152 204 254 318 390 457
#     4  12  23  45  76 111 152 199 251 319 393 458
#     4  11  26  51  81 109 157 205 271 319 374 470
#     4  11  26  49  80 114 155 206 260 321 389 461
#     4  12  24  47  68 108 156 197 253 316 384 467
#
# _framework density 24.805790999999999
#
# number of rings (size 3 to 8) (size 9 to 14) (size 15 to 20)
#    0.000    0.333    6.667    1.000    2.333    0.667 
#    0.000    5.000    0.000    0.000    0.000    0.000 
#    0.000    0.000    0.000    0.000    0.000    0.000 
#
# Total GULP energy -66948.098256 kJ/mol
# GULP energy per Si atom -5579.008188 kJ/mol
# Density = 2.474933 g / cm^3
# Si number density = 24.805791 Si / 1000 Ang^3
#
#
#
# Elastic Constant Matrix: (Units=GPa)
#
#
# Indices 1 2 3 4 5 6 
#
# 1 62.6909 26.7697 43.0713 2.8842 -3.4119 8.3965
# 2 26.7697 136.4114 50.9939 -22.6945 -2.8104 2.7261
# 3 43.0713 50.9939 227.7229 -6.0571 -6.2585 -0.9992
# 4 2.8842 -22.6945 -6.0571 40.1453 -4.8853 -0.1117
# 5 -3.4119 -2.8104 -6.2585 -4.8853 42.9794 -2.5724
# 6 8.3965 2.7261 -0.9992 -0.1117 -2.5724 47.3961
#
#
#
# Elastic Compliance Matrix: (Units=1/GPa)
#
#
# Indices 1 2 3 4 5 6 
#
# 1 0.020215 -0.003332 -0.003185 -0.003791 0.000286 -0.003450
# 2 -0.003332 0.009394 -0.001307 0.005448 0.000783 0.000078
# 3 -0.003185 -0.001307 0.005314 0.000358 0.000523 0.000781
# 4 -0.003791 0.005448 0.000358 0.028733 0.003410 0.000619
# 5 0.000286 0.000783 0.000523 0.003410 0.023878 0.001219
# 6 -0.003450 0.000078 0.000781 0.000619 0.001219 0.021790
#
#
# Mechanical properties :
#
#
# Convention : Reuss Voigt Hill
#
# Bulk Modulus (GPa) = 51.88262 74.27722 63.07992
# Shear Modulus (GPa) = 38.05313 46.50352 42.27833
#
# Velocity S-wave (km/s) = 3.92093 4.33448 4.13288
# Velocity P-wave (km/s) = 6.43888 7.42016 6.94687
#
# Compressibility (1/GPa) = 0.01927428
#
# Stress axis : x y z
#
# Youngs Moduli (GPa) = 49.46901 106.44945 188.19383
#
# Poissons Ratio (x) = 0.35471 0.59946
# Poissons Ratio (y) = 0.16484 0.24589
# Poissons Ratio (z) = 0.15758 0.13909
#
# Static dielectric constant tensor:
#      x y z
#    x 2.213790 -0.080720 0.059020 
#    y -0.080720 1.911310 0.014990 
#    z 0.059020 0.014990 1.937730 
# 
# From -- ./inp_files/498832.got.cif
#   From: 2010.05.17/outbox.cif.g08.bks.cpg/sg2_250_cif.got.tgz:498832.got - 2010.06.03 11:33:40.
