data_PCOD9068559
_publ_section_title
;
Structure prediction by ZEFSAII (Michael W. Deem and Ramdas Pophale) SiO2 
 PCOD9068559
Probable space group: P -1
;
_chemical_formula_sum "Si O2"
_cell_formula_units_Z 12
_cell_length_a 23.489486
_cell_length_b 13.356401
_cell_length_c 4.952669
_cell_angle_alpha 83.770431
_cell_angle_beta 83.735107
_cell_angle_gamma 17.979138
_cell_volume 476.699800
_symmetry_space_group_name_H-M "P -1"
_symmetry_group_IT_number 2
_symmetry_cell_setting 'triclinic'
loop_
_space_group_symop_operation_xyz
x,y,z
-x,-y,-z
loop_
_atom_site_type_symbol
_atom_site_label
_atom_site_fract_x
_atom_site_fract_y
_atom_site_fract_z
Si Si1 0.324890 0.289542 0.697162
Si Si2 0.470340 0.872740 0.107527
Si Si3 0.031205 0.056175 0.597236
Si Si4 0.227421 0.778829 0.079220
Si Si5 0.791095 0.847750 0.620396
Si Si6 0.302606 0.870719 0.903814
O O1 0.363787 0.329964 0.821818
O O2 0.146648 0.585895 0.515236
O O3 0.500000 0.000000 0.500000
O O4 0.346997 0.154540 0.910043
O O5 0.581201 0.596648 0.983728
O O6 0.328566 0.055184 0.332810
O O7 0.072559 0.985086 0.911531
O O8 0.000000 0.000000 0.500000
O O9 0.200265 0.817214 0.402495
O O10 0.193205 0.949685 0.950531
O O11 0.000000 0.500000 0.500000
O O12 0.687055 0.097933 0.402441
O O13 0.783330 0.906708 0.907109
O O14 0.500000 0.500000 0.000000
#
# Coordination Sequence:
#
# PCOD9068559 Si02
#       6
#     2   2   2   2   2   2
#     4  11  27  46  75 109 154 198 250 309 391 457
#     4  11  27  47  75 109 152 203 249 317 386 453
#     4  12  26  45  75 109 149 195 255 309 380 449
#     4  12  27  47  76 108 152 196 252 317 375 450
#     4  12  29  51  79 114 157 199 259 319 388 455
#     4  12  27  50  78 112 146 205 261 311 381 456
#
# _framework density 25.173075000000001
#
# number of rings (size 3 to 8) (size 9 to 14) (size 15 to 20)
#    0.000    0.333    3.333    3.500   11.667    1.333 
#    0.000    0.000    0.000    0.000    0.000    0.000 
#    0.000    0.000    0.000    0.000    0.000    0.000 
#
# Total GULP energy -67156.980843 kJ/mol
# GULP energy per Si atom -5596.415070 kJ/mol
# Density = 2.511578 g / cm^3
# Si number density = 25.173075 Si / 1000 Ang^3
#
#
#
# Elastic Constant Matrix: (Units=GPa)
#
#
# Indices 1 2 3 4 5 6 
#
# 1 108.7182 3.5157 23.8181 -3.0268 -27.3338 6.0761
# 2 3.5157 123.8841 -0.2259 0.6956 -6.7757 -10.7753
# 3 23.8181 -0.2259 79.5463 1.6412 -23.0352 -0.3724
# 4 -3.0268 0.6956 1.6412 39.1280 2.0895 -4.6510
# 5 -27.3338 -6.7757 -23.0352 2.0895 57.7768 0.1486
# 6 6.0761 -10.7753 -0.3724 -4.6510 0.1486 28.7436
#
#
#
# Elastic Compliance Matrix: (Units=1/GPa)
#
#
# Indices 1 2 3 4 5 6 
#
# 1 0.010877 -0.000288 -0.002035 0.000419 0.004292 -0.002388
# 2 -0.000288 0.008417 0.000412 0.000142 0.001002 0.003239
# 3 -0.002035 0.000412 0.014640 -0.000973 0.004956 0.000591
# 4 0.000419 0.000142 -0.000973 0.026187 -0.001131 0.004195
# 5 0.004292 0.001002 0.004956 -0.001131 0.021475 -0.000762
# 6 -0.002388 0.003239 0.000591 0.004195 -0.000762 0.037200
#
#
# Mechanical properties :
#
#
# Convention : Reuss Voigt Hill
#
# Bulk Modulus (GPa) = 33.20725 40.70716 36.95720
# Shear Modulus (GPa) = 37.69216 44.13239 40.91227
#
# Velocity S-wave (km/s) = 3.87372 4.19162 4.03580
# Velocity P-wave (km/s) = 5.76436 6.29541 6.03573
#
# Compressibility (1/GPa) = 0.03011391
#
# Stress axis : x y z
#
# Youngs Moduli (GPa) = 91.93387 118.81116 68.30697
#
# Poissons Ratio (x) = 0.03418 0.13898
# Poissons Ratio (y) = 0.02645 -0.02817
# Poissons Ratio (z) = 0.18706 -0.04900
#
# Static dielectric constant tensor:
#      x y z
#    x 2.097120 -0.049150 0.040300 
#    y -0.049150 2.013960 0.011320 
#    z 0.040300 0.011320 1.962500 
# 
# From -- ./inp_files/69747.got.cif
#   From: 2010.05.17/outbox.cif.g08.bks.cpg/sg2_35_cif.got.tgz:69747.got - 2010.06.03 11:33:40.
