data_PCOD9068745
_publ_section_title
;
Structure prediction by ZEFSAII (Michael W. Deem and Ramdas Pophale) SiO2 
 PCOD9068745
Probable space group: P -1
;
_chemical_formula_sum "Si O2"
_cell_formula_units_Z 10
_cell_length_a 4.960286
_cell_length_b 11.419997
_cell_length_c 7.431535
_cell_angle_alpha 54.602640
_cell_angle_beta 98.201950
_cell_angle_gamma 86.967382
_cell_volume 334.818568
_symmetry_space_group_name_H-M "P -1"
_symmetry_group_IT_number 2
_symmetry_cell_setting 'triclinic'
loop_
_space_group_symop_operation_xyz
x,y,z
-x,-y,-z
loop_
_atom_site_type_symbol
_atom_site_label
_atom_site_fract_x
_atom_site_fract_y
_atom_site_fract_z
Si Si1 0.663492 0.643359 0.612151
Si Si2 0.275557 0.079905 0.049919
Si Si3 0.176384 0.632896 0.290558
Si Si4 0.999142 0.117740 0.548782
Si Si5 0.541031 0.285664 0.122409
O O1 0.736575 0.805582 0.467247
O O2 0.391552 0.637568 0.469114
O O3 0.884982 0.526702 0.628239
O O4 0.670920 0.613796 0.855212
O O5 0.905784 0.034740 0.786434
O O6 0.079826 0.235163 0.845798
O O7 0.436054 0.138163 0.182300
O O8 0.351041 0.659203 0.101747
O O9 0.780161 0.245684 0.327005
O O10 0.000000 0.000000 0.500000
O O11 0.500000 0.000000 0.000000
#
# Coordination Sequence:
#
# PCOD9068745 Si02
#       5
#     2   2   2   2   2
#     4  11  28  54  90 123 174 222 292 354 434 513
#     4  12  30  55  86 126 177 226 289 353 436 514
#     4  11  28  56  85 128 170 231 282 357 431 519
#     4  12  26  54  85 128 169 228 285 361 426 517
#     4  12  26  49  87 124 172 220 287 353 437 507
#
# _framework density 29.866924000000001
#
# number of rings (size 3 to 8) (size 9 to 14) (size 15 to 20)
#    0.000    0.400    4.000    1.200    2.800    9.600 
#    7.200    5.000    0.000    0.000    0.000    0.000 
#    0.000    0.000    0.000    0.000    0.000    0.000 
#
# Total GULP energy -56093.929010 kJ/mol
# GULP energy per Si atom -5609.392901 kJ/mol
# Density = 2.979895 g / cm^3
# Si number density = 29.866924 Si / 1000 Ang^3
#
#
#
# Elastic Constant Matrix: (Units=GPa)
#
#
# Indices 1 2 3 4 5 6 
#
# 1 133.8988 77.2720 45.2016 14.0462 5.9684 8.9375
# 2 77.2720 264.0659 76.5225 59.9208 -0.5897 -11.4639
# 3 45.2016 76.5225 176.9811 28.6778 -3.5929 -18.9481
# 4 14.0462 59.9208 28.6778 77.9727 -17.2012 -14.4022
# 5 5.9684 -0.5897 -3.5929 -17.2012 56.8373 8.1122
# 6 8.9375 -11.4639 -18.9481 -14.4022 8.1122 76.9862
#
#
#
# Elastic Compliance Matrix: (Units=1/GPa)
#
#
# Indices 1 2 3 4 5 6 
#
# 1 0.009563 -0.002467 -0.001622 0.000272 -0.000802 -0.001742
# 2 -0.002467 0.005701 -0.001238 -0.003633 -0.000895 0.000245
# 3 -0.001622 -0.001238 0.006927 -0.001008 0.000074 0.001512
# 4 0.000272 -0.003633 -0.001008 0.017363 0.004851 0.001916
# 5 -0.000802 -0.000895 0.000074 0.004851 0.019306 -0.001149
# 6 -0.001742 0.000245 0.001512 0.001916 -0.001149 0.014080
#
#
# Mechanical properties :
#
#
# Convention : Reuss Voigt Hill
#
# Bulk Modulus (GPa) = 86.68844 108.10423 97.39634
# Shear Modulus (GPa) = 57.18187 67.42254 62.30220
#
# Velocity S-wave (km/s) = 4.38031 4.75640 4.57222
# Velocity P-wave (km/s) = 7.39397 8.15097 7.78168
#
# Compressibility (1/GPa) = 0.01153556
#
# Stress axis : x y z
#
# Youngs Moduli (GPa) = 104.56509 175.41572 144.36794
#
# Poissons Ratio (x) = 0.43281 0.23423
# Poissons Ratio (y) = 0.25800 0.17871
# Poissons Ratio (z) = 0.16965 0.21714
#
# Static dielectric constant tensor:
#      x y z
#    x 2.790340 -0.271680 0.103980 
#    y -0.271680 2.539640 -0.217980 
#    z 0.103980 -0.217980 2.438530 
# 
# From -- ./inp_files/3967.got.cif
#   From: 2010.05.17/outbox.cif.g08.bks.cpg/sg2_2_cif.got.tgz:3967.got - 2010.06.03 11:33:40.
