data_PCOD9068043
_publ_section_title
;
Structure prediction by ZEFSAII (Michael W. Deem and Ramdas Pophale) SiO2 
 PCOD9068043
Probable space group: P -1
;
_chemical_formula_sum "Si O2"
_cell_formula_units_Z 16
_cell_length_a 18.281949
_cell_length_b 15.250307
_cell_length_c 6.076764
_cell_angle_alpha 67.154119
_cell_angle_beta 100.482483
_cell_angle_gamma 152.412492
_cell_volume 668.814053
_symmetry_space_group_name_H-M "P -1"
_symmetry_group_IT_number 2
_symmetry_cell_setting 'triclinic'
loop_
_space_group_symop_operation_xyz
x,y,z
-x,-y,-z
loop_
_atom_site_type_symbol
_atom_site_label
_atom_site_fract_x
_atom_site_fract_y
_atom_site_fract_z
Si Si1 0.339482 0.866676 0.645724
Si Si2 0.681946 0.883742 0.006523
Si Si3 0.105959 0.230067 0.291640
Si Si4 0.411914 0.560803 0.797761
Si Si5 0.092412 0.702294 0.434123
Si Si6 0.244206 0.243465 0.658836
Si Si7 0.525888 0.207686 0.724695
Si Si8 0.850847 0.504544 0.865655
O O1 0.276160 0.874785 0.440906
O O2 0.500000 0.000000 0.500000
O O3 0.386317 0.971147 0.798146
O O4 0.194519 0.621916 0.846583
O O5 0.707971 0.812087 0.203431
O O6 0.557237 0.808126 0.151400
O O7 0.584601 0.751665 0.850010
O O8 0.857458 0.145952 0.823435
O O9 0.184652 0.285389 0.512987
O O10 0.094326 0.329729 0.185086
O O11 0.248893 0.362720 0.063057
O O12 0.920243 0.979552 0.365947
O O13 0.384775 0.447743 0.712078
O O14 0.412263 0.664630 0.583018
O O15 0.000000 0.500000 0.500000
O O16 0.988924 0.618958 0.668967
O O17 0.676805 0.325568 0.810687
#
# Coordination Sequence:
#
# PCOD9068043 Si02
#       8
#     2   2   2   2   2   2   2   2
#     4  12  25  47  79 108 146 192 239 302 368 437
#     4  12  27  47  75 109 150 195 245 306 363 433
#     4  11  26  47  72 113 148 192 248 299 376 431
#     4  12  23  48  72 104 149 193 251 297 368 427
#     4  12  28  47  71 113 146 188 245 296 367 440
#     4  11  27  45  75 105 152 193 247 305 367 435
#     4  12  25  47  73 110 147 191 246 297 366 436
#     4  12  25  46  75 103 151 192 236 303 360 439
#
# _framework density 23.922943
#
# number of rings (size 3 to 8) (size 9 to 14) (size 15 to 20)
#    0.000    0.250    3.750    4.500    5.250    5.000 
#    0.000    0.000    0.000    0.000    0.000    0.000 
#    0.000    0.000    0.000    0.000    0.000    0.000 
#
# Total GULP energy -89076.062407 kJ/mol
# GULP energy per Si atom -5567.253900 kJ/mol
# Density = 2.386849 g / cm^3
# Si number density = 23.922943 Si / 1000 Ang^3
#
#
#
# Elastic Constant Matrix: (Units=GPa)
#
#
# Indices 1 2 3 4 5 6 
#
# 1 114.2702 33.9717 62.3774 -18.9049 35.9533 -5.0981
# 2 33.9717 133.2894 31.5215 5.4168 2.8672 -24.7038
# 3 62.3774 31.5215 72.1298 -25.4606 -32.0996 15.2198
# 4 -18.9049 5.4168 -25.4606 50.6155 44.4060 6.9522
# 5 35.9533 2.8672 -32.0996 44.4060 37.1091 -2.8962
# 6 -5.0981 -24.7038 15.2198 6.9522 -2.8962 39.4934
#
#
#
# Elastic Compliance Matrix: (Units=1/GPa)
#
#
# Indices 1 2 3 4 5 6 
#
# 1 0.001334 0.000929 -0.000533 -0.014951 0.016440 0.004796
# 2 0.000929 0.014084 -0.013736 -0.013069 0.003076 0.016749
# 3 -0.000533 -0.013736 0.030869 0.040073 -0.021955 -0.029222
# 4 -0.014951 -0.013069 0.040073 0.035895 0.004746 -0.031519
# 5 0.016440 0.003076 -0.021955 0.004746 -0.013051 0.010714
# 6 0.004796 0.016749 -0.029222 -0.031519 0.010714 0.054012
#
#
# Mechanical properties :
#
#
# Convention : Reuss Voigt Hill
#
# Bulk Modulus (GPa) = 51.00721 63.93676 57.47199
# Shear Modulus (GPa) = 31.97775 38.23151 35.10463
#
# Velocity S-wave (km/s) = 3.66005 4.00197 3.83483
# Velocity P-wave (km/s) = 6.26331 6.93819 6.60937
#
# Compressibility (1/GPa) = 0.01960507
#
# Stress axis : x y z
#
# Youngs Moduli (GPa) = 749.57750 71.00503 32.39532
#
# Poissons Ratio (x) = -0.06596 0.01727
# Poissons Ratio (y) = -0.69627 0.44500
# Poissons Ratio (z) = 0.39952 0.97536
#
# Static dielectric constant tensor:
#      x y z
#    x 1.821780 -0.012580 0.003260 
#    y -0.012580 1.909630 -0.008420 
#    z 0.003260 -0.008420 1.981640 
# 
# From -- ./inp_files/110747.got.cif
#   From: 2010.05.17/outbox.cif.g08.bks.cpg/sg2_56_cif.got.tgz:110747.got - 2010.06.03 11:33:40.
