data_PCOD9068222
_publ_section_title
;
Structure prediction by ZEFSAII (Michael W. Deem and Ramdas Pophale) SiO2 
 PCOD9068222
Probable space group: P -1
;
_chemical_formula_sum "Si O2"
_cell_formula_units_Z 12
_cell_length_a 4.979800
_cell_length_b 6.997215
_cell_length_c 17.360731
_cell_angle_alpha 51.381854
_cell_angle_beta 81.627567
_cell_angle_gamma 70.264471
_cell_volume 443.134077
_symmetry_space_group_name_H-M "P -1"
_symmetry_group_IT_number 2
_symmetry_cell_setting 'triclinic'
loop_
_space_group_symop_operation_xyz
x,y,z
-x,-y,-z
loop_
_atom_site_type_symbol
_atom_site_label
_atom_site_fract_x
_atom_site_fract_y
_atom_site_fract_z
Si Si1 0.338444 0.186543 0.604244
Si Si2 0.699026 0.407458 0.088138
Si Si3 0.436865 0.421361 0.793927
Si Si4 0.944884 0.852154 0.658185
Si Si5 0.129954 0.087438 0.048689
Si Si6 0.197785 0.439493 0.389686
O O1 0.349072 0.361067 0.485457
O O2 0.113151 0.359351 0.630367
O O3 0.652164 0.037037 0.660227
O O4 0.183324 0.988120 0.627594
O O5 0.526615 0.421656 0.170176
O O6 0.923840 0.139155 0.119524
O O7 0.500000 0.500000 0.000000
O O8 0.157833 0.367998 0.961834
O O9 0.101795 0.559843 0.755023
O O10 0.571595 0.123358 0.887120
O O11 0.612375 0.464447 0.702427
O O12 0.853668 0.806097 0.587674
O O13 0.000000 0.000000 0.000000
#
# Coordination Sequence:
#
# PCOD9068222 Si02
#       6
#     2   2   2   2   2   2
#     4  11  28  50  77 109 159 213 250 308 398 448
#     4  11  26  49  77 103 153 206 250 319 399 463
#     4  12  28  45  77 120 147 202 260 324 375 463
#     4  12  27  48  76 113 157 202 257 322 374 462
#     4  11  26  48  75 110 154 200 254 322 397 467
#     4  11  28  48  78 112 156 202 261 315 377 462
#
# _framework density 27.079840999999998
#
# number of rings (size 3 to 8) (size 9 to 14) (size 15 to 20)
#    0.000    0.667    3.333    1.500    9.333    1.333 
#    0.000    0.000    0.000    0.000    0.000    0.000 
#    0.000    0.000    0.000    0.000    0.000    0.000 
#
# Total GULP energy -67266.714649 kJ/mol
# GULP energy per Si atom -5605.559554 kJ/mol
# Density = 2.701821 g / cm^3
# Si number density = 27.079841 Si / 1000 Ang^3
#
#
#
# Elastic Constant Matrix: (Units=GPa)
#
#
# Indices 1 2 3 4 5 6 
#
# 1 115.3195 35.6000 38.9446 -4.3361 12.2688 -7.3271
# 2 35.6000 225.8818 59.2603 13.9846 3.2895 -45.5302
# 3 38.9446 59.2603 128.2964 20.9469 -15.9900 -18.4533
# 4 -4.3361 13.9846 20.9469 52.3444 2.2313 12.1016
# 5 12.2688 3.2895 -15.9900 2.2313 28.7666 -0.6339
# 6 -7.3271 -45.5302 -18.4533 12.1016 -0.6339 63.0269
#
#
#
# Elastic Compliance Matrix: (Units=1/GPa)
#
#
# Indices 1 2 3 4 5 6 
#
# 1 0.011501 -0.000986 -0.004881 0.003880 -0.007842 -0.001628
# 2 -0.000986 0.005976 -0.001686 -0.001902 -0.000962 0.004064
# 3 -0.004881 -0.001686 0.012781 -0.006245 0.009935 0.003256
# 4 0.003880 -0.001902 -0.006245 0.024469 -0.006972 -0.007520
# 5 -0.007842 -0.000962 0.009935 -0.006972 0.044348 0.003087
# 6 -0.001628 0.004064 0.003256 -0.007520 0.003087 0.021041
#
#
# Mechanical properties :
#
#
# Convention : Reuss Voigt Hill
#
# Bulk Modulus (GPa) = 65.99738 81.90083 73.94911
# Shear Modulus (GPa) = 35.64521 51.20711 43.42616
#
# Velocity S-wave (km/s) = 3.63202 4.35324 4.00888
# Velocity P-wave (km/s) = 6.48175 7.45503 6.98536
#
# Compressibility (1/GPa) = 0.01515212
#
# Stress axis : x y z
#
# Youngs Moduli (GPa) = 86.94832 167.34222 78.24364
#
# Poissons Ratio (x) = 0.16507 0.38188
# Poissons Ratio (y) = 0.08577 0.13188
# Poissons Ratio (z) = 0.42437 0.28207
#
# Static dielectric constant tensor:
#      x y z
#    x 2.155020 0.014540 -0.081250 
#    y 0.014540 2.129610 0.007830 
#    z -0.081250 0.007830 2.185060 
# 
# From -- ./inp_files/287518.got.cif
#   From: 2010.05.17/outbox.cif.g08.bks.cpg/sg2_144_cif.got.tgz:287518.got - 2010.06.03 11:33:40.
