data_PCOD9068214
_publ_section_title
;
Structure prediction by ZEFSAII (Michael W. Deem and Ramdas Pophale) SiO2 
 PCOD9068214
Probable space group: P -1
;
_chemical_formula_sum "Si O2"
_cell_formula_units_Z 10
_cell_length_a 15.451747
_cell_length_b 5.636386
_cell_length_c 6.784092
_cell_angle_alpha 134.648697
_cell_angle_beta 87.133051
_cell_angle_gamma 86.788671
_cell_volume 416.344659
_symmetry_space_group_name_H-M "P -1"
_symmetry_group_IT_number 2
_symmetry_cell_setting 'triclinic'
loop_
_space_group_symop_operation_xyz
x,y,z
-x,-y,-z
loop_
_atom_site_type_symbol
_atom_site_label
_atom_site_fract_x
_atom_site_fract_y
_atom_site_fract_z
Si Si1 0.987936 0.102489 0.331949
Si Si2 0.592784 0.874289 0.013418
Si Si3 0.739080 0.885035 0.686860
Si Si4 0.591660 0.150725 0.570386
Si Si5 0.858322 0.270035 0.153126
O O1 0.891671 0.068179 0.232624
O O2 0.000000 0.500000 0.500000
O O3 0.000000 0.000000 0.500000
O O4 0.056261 0.831590 0.050596
O O5 0.672975 0.792584 0.808887
O O6 0.583107 0.509193 0.885812
O O7 0.500000 0.000000 0.000000
O O8 0.610431 0.144009 0.331276
O O9 0.820398 0.629393 0.453297
O O10 0.674419 0.953311 0.551060
O O11 0.782492 0.172480 0.963031
O O12 0.500000 0.000000 0.500000
#
# Coordination Sequence:
#
# PCOD9068214 Si02
#       5
#     2   2   2   2   2
#     4  11  26  54  83 113 157 200 250 316 393 471
#     4  12  26  44  71 101 144 201 253 310 368 438
#     4  12  26  47  70 110 150 188 258 305 374 444
#     4  12  26  44  71 101 144 201 253 310 368 438
#     4  11  26  48  74 116 146 196 246 324 380 461
#
# _framework density 24.018560000000001
#
# number of rings (size 3 to 8) (size 9 to 14) (size 15 to 20)
#    0.000    0.400    4.000    3.600    2.800    8.000 
#    7.200    0.000    0.000    0.000    0.000    0.000 
#    0.000    0.000    0.000    0.000    0.000    0.000 
#
# Total GULP energy -55759.205730 kJ/mol
# GULP energy per Si atom -5575.920573 kJ/mol
# Density = 2.396389 g / cm^3
# Si number density = 24.018560 Si / 1000 Ang^3
#
#
#
# Elastic Constant Matrix: (Units=GPa)
#
#
# Indices 1 2 3 4 5 6 
#
# 1 92.4475 19.9952 3.4940 -4.6320 6.6431 -31.5316
# 2 19.9952 42.4600 21.1366 -12.8608 -14.9417 -20.5011
# 3 3.4940 21.1366 142.8826 -7.5089 -6.3049 -2.3754
# 4 -4.6320 -12.8608 -7.5089 46.1864 -13.9060 12.5333
# 5 6.6431 -14.9417 -6.3049 -13.9060 56.7927 -2.8980
# 6 -31.5316 -20.5011 -2.3754 12.5333 -2.8980 35.9668
#
#
#
# Elastic Compliance Matrix: (Units=1/GPa)
#
#
# Indices 1 2 3 4 5 6 
#
# 1 0.016109 -0.003417 -0.000005 -0.003857 -0.003051 0.013273
# 2 -0.003417 0.046625 -0.005196 0.010943 0.015825 0.020699
# 3 -0.000005 -0.005196 0.007718 0.000352 -0.000557 -0.002624
# 4 -0.003857 0.010943 0.000352 0.029192 0.010187 -0.006472
# 5 -0.003051 0.015825 -0.000557 0.010187 0.024803 0.004758
# 6 0.013273 0.020699 -0.002624 -0.006472 0.004758 0.053704
#
#
# Mechanical properties :
#
#
# Convention : Reuss Voigt Hill
#
# Bulk Modulus (GPa) = 18.79141 40.78243 29.78692
# Shear Modulus (GPa) = 23.46022 43.33346 33.39684
#
# Velocity S-wave (km/s) = 3.12870 4.25216 3.73293
# Velocity P-wave (km/s) = 4.57081 6.41281 5.56851
#
# Compressibility (1/GPa) = 0.05321580
#
# Stress axis : x y z
#
# Youngs Moduli (GPa) = 62.07615 21.44768 129.57069
#
# Poissons Ratio (x) = 0.07328 0.00067
# Poissons Ratio (y) = 0.21211 0.67327
# Poissons Ratio (z) = 0.00032 0.11145
#
# Static dielectric constant tensor:
#      x y z
#    x 2.042330 0.022920 -0.060180 
#    y 0.022920 2.045360 0.020250 
#    z -0.060180 0.020250 1.940100 
# 
# From -- ./inp_files/2810.got.cif
#   From: 2010.05.17/outbox.cif.g08.bks.cpg/sg2_2_cif.got.tgz:2810.got - 2010.06.03 11:33:40.
