data_PCOD9068825
_publ_section_title
;
Structure prediction by ZEFSAII (Michael W. Deem and Ramdas Pophale) SiO2 
 PCOD9068825
Probable space group: P -1
;
_chemical_formula_sum "Si O2"
_cell_formula_units_Z 16
_cell_length_a 9.953288
_cell_length_b 9.916593
_cell_length_c 11.650861
_cell_angle_alpha 103.860380
_cell_angle_beta 83.218118
_cell_angle_gamma 135.985743
_cell_volume 773.269819
_symmetry_space_group_name_H-M "P -1"
_symmetry_group_IT_number 2
_symmetry_cell_setting 'triclinic'
loop_
_space_group_symop_operation_xyz
x,y,z
-x,-y,-z
loop_
_atom_site_type_symbol
_atom_site_label
_atom_site_fract_x
_atom_site_fract_y
_atom_site_fract_z
Si Si1 0.217449 0.715326 0.251850
Si Si2 0.026970 0.783338 0.121261
Si Si3 0.666811 0.659002 0.257698
Si Si4 0.662363 0.977015 0.257648
Si Si5 0.277465 0.223208 0.220264
Si Si6 0.187821 0.224356 0.485538
Si Si7 0.968362 0.712826 0.851055
Si Si8 0.071022 0.705935 0.502845
O O1 0.104817 0.701433 0.154705
O O2 0.136315 0.500098 0.230886
O O3 0.165135 0.765373 0.379897
O O4 0.447587 0.878147 0.246451
O O5 0.864503 0.735317 0.208226
O O6 0.207078 0.022137 0.145344
O O7 0.941004 0.699418 0.986937
O O8 0.485296 0.428605 0.198690
O O9 0.672667 0.675448 0.398743
O O10 0.649427 0.800889 0.237853
O O11 0.773254 0.120623 0.387008
O O12 0.804726 0.120751 0.168703
O O13 0.268436 0.220979 0.359164
O O14 0.122277 0.219768 0.187292
O O15 0.109708 0.321480 0.487821
O O16 0.000000 0.000000 0.500000
O O17 0.000000 0.500000 0.500000
#
# Coordination Sequence:
#
# PCOD9068825 Si02
#       8
#     2   2   2   2   2   2   2   2
#     4  12  26  46  68 101 137 176 221 276 341 397
#     4  12  27  45  70  99 136 175 229 285 319 392
#     4  12  25  43  73 102 132 178 223 274 340 398
#     4  12  25  44  72  99 137 177 219 277 340 401
#     4  12  24  44  71 102 132 177 226 276 332 398
#     4  12  20  43  70  97 136 173 212 277 338 391
#     4  12  25  47  69  96 137 181 225 274 334 392
#     4  12  22  41  71  97 134 176 214 270 343 398
#
# _framework density 20.691354
#
# number of rings (size 3 to 8) (size 9 to 14) (size 15 to 20)
#    0.000    0.000    8.750    1.500    0.000    4.000 
#    0.000    0.000    0.000    0.000    0.000    0.000 
#    0.000    0.000    0.000    0.000    0.000    0.000 
#
# Total GULP energy -89557.283186 kJ/mol
# GULP energy per Si atom -5597.330199 kJ/mol
# Density = 2.064426 g / cm^3
# Si number density = 20.691354 Si / 1000 Ang^3
#
#
#
# Elastic Constant Matrix: (Units=GPa)
#
#
# Indices 1 2 3 4 5 6 
#
# 1 32.7829 -2.5430 -6.2073 -1.1260 -0.0479 4.5409
# 2 -2.5430 86.6828 -24.8396 3.0116 -4.4593 8.2933
# 3 -6.2073 -24.8396 71.5888 -14.3139 -1.1335 5.7527
# 4 -1.1260 3.0116 -14.3139 20.9113 -5.2761 3.0138
# 5 -0.0479 -4.4593 -1.1335 -5.2761 8.4518 2.9800
# 6 4.5409 8.2933 5.7527 3.0138 2.9800 36.9380
#
#
#
# Elastic Compliance Matrix: (Units=1/GPa)
#
#
# Indices 1 2 3 4 5 6 
#
# 1 0.033739 0.004177 0.007374 0.010702 0.012939 -0.008151
# 2 0.004177 0.015384 0.008452 0.009350 0.017748 -0.007478
# 3 0.007374 0.008452 0.023436 0.023243 0.025833 -0.010434
# 4 0.010702 0.009350 0.023243 0.082448 0.066319 -0.019112
# 5 0.012939 0.017748 0.025833 0.066319 0.183120 -0.029783
# 6 -0.008151 -0.007478 -0.010434 -0.019112 -0.029783 0.035341
#
#
# Mechanical properties :
#
#
# Convention : Reuss Voigt Hill
#
# Bulk Modulus (GPa) = 8.88378 13.76385 11.32381
# Shear Modulus (GPa) = 13.47765 28.23651 20.85708
#
# Velocity S-wave (km/s) = 2.55496 3.69813 3.17836
# Velocity P-wave (km/s) = 3.60646 4.99012 4.35361
#
# Compressibility (1/GPa) = 0.11256476
#
# Stress axis : x y z
#
# Youngs Moduli (GPa) = 29.63887 65.00099 42.67029
#
# Poissons Ratio (x) = -0.27149 -0.31467
# Poissons Ratio (y) = -0.12379 -0.36063
# Poissons Ratio (z) = -0.21857 -0.54937
#
# Static dielectric constant tensor:
#      x y z
#    x 1.705480 0.011070 0.006050 
#    y 0.011070 1.724810 -0.000370 
#    z 0.006050 -0.000370 1.731370 
# 
# From -- ./inp_files/188871.got.cif
#   From: 2010.05.17/outbox.cif.g08.bks.cpg/sg2_95_cif.got.tgz:188871.got - 2010.06.03 11:33:40.
