data_PCOD9068794
_publ_section_title
;
Structure prediction by ZEFSAII (Michael W. Deem and Ramdas Pophale) SiO2 
 PCOD9068794
Probable space group: P -1
;
_chemical_formula_sum "Si O2"
_cell_formula_units_Z 16
_cell_length_a 14.112589
_cell_length_b 8.508673
_cell_length_c 10.083782
_cell_angle_alpha 83.852683
_cell_angle_beta 136.848100
_cell_angle_gamma 85.807326
_cell_volume 802.762079
_symmetry_space_group_name_H-M "P -1"
_symmetry_group_IT_number 2
_symmetry_cell_setting 'triclinic'
loop_
_space_group_symop_operation_xyz
x,y,z
-x,-y,-z
loop_
_atom_site_type_symbol
_atom_site_label
_atom_site_fract_x
_atom_site_fract_y
_atom_site_fract_z
Si Si1 0.687633 0.326765 0.897402
Si Si2 0.688415 0.674758 0.730402
Si Si3 0.089727 0.425868 0.469290
Si Si4 0.370282 0.446604 0.609238
Si Si5 0.619207 0.213195 0.547238
Si Si6 0.099756 0.921612 0.226139
Si Si7 0.978141 0.117143 0.340497
Si Si8 0.982602 0.623989 0.092736
O O1 0.702696 0.504700 0.842812
O O2 0.534197 0.354421 0.811904
O O3 0.668979 0.238676 0.746434
O O4 0.821446 0.227010 0.128134
O O5 0.680040 0.631293 0.570085
O O6 0.543482 0.796171 0.610670
O O7 0.827712 0.735547 0.903814
O O8 0.251272 0.445668 0.601369
O O9 0.000000 0.500000 0.500000
O O10 0.079362 0.241202 0.459068
O O11 0.997317 0.519799 0.247688
O O12 0.383955 0.624791 0.558383
O O13 0.736604 0.070973 0.617458
O O14 0.094908 0.733813 0.216091
O O15 0.031648 0.000594 0.282677
O O16 0.000000 0.000000 0.000000
O O17 0.000000 0.000000 0.500000
O O18 0.000000 0.500000 0.000000
#
# Coordination Sequence:
#
# PCOD9068794 Si02
#       8
#     2   2   2   2   2   2   2   2
#     4   9  17  37  60  92 120 159 193 248 308 354
#     4   9  17  32  63  96 118 147 202 259 291 346
#     4  12  24  41  62  89 118 160 216 251 288 358
#     4   9  18  34  65  90 119 150 206 255 293 349
#     4   9  17  34  60  95 123 150 195 250 306 353
#     4  12  23  37  60  93 129 158 192 249 314 360
#     4  12  26  42  58  87 129 165 198 248 312 364
#     4  12  20  37  64  93 118 154 213 251 286 354
#
# _framework density 19.931184999999999
#
# number of rings (size 3 to 8) (size 9 to 14) (size 15 to 20)
#    0.000    1.500    5.000    3.750    0.000    0.000 
#    0.000    4.375    0.000    0.000    0.000    0.000 
#    0.000    0.000    0.000    0.000    0.000    0.000 
#
# Total GULP energy -89179.457856 kJ/mol
# GULP energy per Si atom -5573.716116 kJ/mol
# Density = 1.988582 g / cm^3
# Si number density = 19.931185 Si / 1000 Ang^3
#
#
#
# Elastic Constant Matrix: (Units=GPa)
#
#
# Indices 1 2 3 4 5 6 
#
# 1 156.4345 26.2123 61.6881 -5.7234 10.9551 -20.2767
# 2 26.2123 48.6855 16.3571 -6.7818 -8.6033 -3.8300
# 3 61.6881 16.3571 86.8383 -21.1032 10.9749 -14.1855
# 4 -5.7234 -6.7818 -21.1032 29.6680 -1.3200 0.5533
# 5 10.9551 -8.6033 10.9749 -1.3200 52.2208 -2.2000
# 6 -20.2767 -3.8300 -14.1855 0.5533 -2.2000 27.6729
#
#
#
# Elastic Compliance Matrix: (Units=1/GPa)
#
#
# Indices 1 2 3 4 5 6 
#
# 1 0.010002 -0.003637 -0.006608 -0.003722 -0.001259 0.003412
# 2 -0.003637 0.024573 -0.001729 0.003917 0.005282 0.000191
# 3 -0.006608 -0.001729 0.020871 0.012958 -0.002741 0.005140
# 4 -0.003722 0.003917 0.012958 0.043031 -0.000058 0.003592
# 5 -0.001259 0.005282 -0.002741 -0.000058 0.020861 0.000063
# 6 0.003412 0.000191 0.005140 0.003592 0.000063 0.041231
#
#
# Mechanical properties :
#
#
# Convention : Reuss Voigt Hill
#
# Bulk Modulus (GPa) = 31.74946 55.60814 43.67880
# Shear Modulus (GPa) = 25.63872 34.42574 30.03223
#
# Velocity S-wave (km/s) = 3.59048 4.16050 3.88596
# Velocity P-wave (km/s) = 5.75785 7.14425 6.48819
#
# Compressibility (1/GPa) = 0.03149660
#
# Stress axis : x y z
#
# Youngs Moduli (GPa) = 99.97951 40.69434 47.91441
#
# Poissons Ratio (x) = 0.14803 0.31662
# Poissons Ratio (y) = 0.36367 0.08285
# Poissons Ratio (z) = 0.66067 0.07037
#
# Static dielectric constant tensor:
#      x y z
#    x 1.764980 0.009280 0.046410 
#    y 0.009280 1.755770 -0.038820 
#    z 0.046410 -0.038820 1.686600 
# 
# From -- ./inp_files/243707.got.cif
#   From: 2010.05.17/outbox.cif.g08.bks.cpg/sg2_122_cif.got.tgz:243707.got - 2010.06.03 11:33:40.
