data_PCOD9068053
_publ_section_title
;
Structure prediction by ZEFSAII (Michael W. Deem and Ramdas Pophale) SiO2 
 PCOD9068053
Probable space group: P -1
;
_chemical_formula_sum "Si O2"
_cell_formula_units_Z 12
_cell_length_a 9.147167
_cell_length_b 5.046557
_cell_length_c 19.927327
_cell_angle_alpha 92.884416
_cell_angle_beta 147.820802
_cell_angle_gamma 98.982031
_cell_volume 453.849746
_symmetry_space_group_name_H-M "P -1"
_symmetry_group_IT_number 2
_symmetry_cell_setting 'triclinic'
loop_
_space_group_symop_operation_xyz
x,y,z
-x,-y,-z
loop_
_atom_site_type_symbol
_atom_site_label
_atom_site_fract_x
_atom_site_fract_y
_atom_site_fract_z
Si Si1 0.765710 0.221657 0.936623
Si Si2 0.121951 0.108310 0.400927
Si Si3 0.341680 0.693731 0.968083
Si Si4 0.692104 0.840397 0.789666
Si Si5 0.866732 0.534994 0.377052
Si Si6 0.231683 0.804357 0.308674
O O1 0.582435 0.288820 0.923485
O O2 0.965095 0.090949 0.057736
O O3 0.000000 0.500000 0.000000
O O4 0.598194 0.024378 0.810081
O O5 0.103396 0.950067 0.319385
O O6 0.995737 0.851455 0.401924
O O7 0.477705 0.246319 0.553638
O O8 0.967317 0.338334 0.359606
O O9 0.998581 0.497614 0.814789
O O10 0.500000 0.500000 0.000000
O O11 0.500000 0.000000 0.000000
O O12 0.472132 0.539387 0.729126
O O13 0.676329 0.961484 0.712521
O O14 0.000000 0.500000 0.500000
#
# Coordination Sequence:
#
# PCOD9068053 Si02
#       6
#     2   2   2   2   2   2
#     4  11  26  47  73 108 142 200 251 300 384 437
#     4  11  29  48  77 115 148 205 244 307 376 446
#     4  12  29  46  74 108 148 195 249 306 369 436
#     4  11  26  47  75 105 152 194 245 314 367 447
#     4  12  27  47  78 113 151 192 258 305 371 439
#     4  11  26  52  75 106 158 197 249 306 379 446
#
# _framework density 26.440470000000001
#
# number of rings (size 3 to 8) (size 9 to 14) (size 15 to 20)
#    0.000    0.667    3.333    1.500   11.667    5.333 
#    0.000    0.000    0.000    0.000    0.000    0.000 
#    0.000    0.000    0.000    0.000    0.000    0.000 
#
# Total GULP energy -67131.051327 kJ/mol
# GULP energy per Si atom -5594.254277 kJ/mol
# Density = 2.638029 g / cm^3
# Si number density = 26.440470 Si / 1000 Ang^3
#
#
#
# Elastic Constant Matrix: (Units=GPa)
#
#
# Indices 1 2 3 4 5 6 
#
# 1 134.6676 13.0791 20.4174 -4.6753 -16.2354 15.4152
# 2 13.0791 108.3729 4.4752 8.7752 4.1347 2.0179
# 3 20.4174 4.4752 72.3120 3.7093 6.6178 9.2308
# 4 -4.6753 8.7752 3.7093 34.3484 2.7047 8.5420
# 5 -16.2354 4.1347 6.6178 2.7047 60.3316 -3.7762
# 6 15.4152 2.0179 9.2308 8.5420 -3.7762 51.2335
#
#
#
# Elastic Compliance Matrix: (Units=1/GPa)
#
#
# Indices 1 2 3 4 5 6 
#
# 1 0.008517 -0.001148 -0.002371 0.002082 0.002396 -0.002261
# 2 -0.001148 0.009607 -0.000108 -0.002625 -0.000815 0.000364
# 3 -0.002371 -0.000108 0.015033 -0.001248 -0.002346 -0.001956
# 4 0.002082 -0.002625 -0.001248 0.031677 -0.000896 -0.005646
# 5 0.002396 -0.000815 -0.002346 -0.000896 0.017647 0.001184
# 6 -0.002261 0.000364 -0.001956 -0.005646 0.001184 0.021565
#
#
# Mechanical properties :
#
#
# Convention : Reuss Voigt Hill
#
# Bulk Modulus (GPa) = 38.60396 43.47734 41.04065
# Shear Modulus (GPa) = 41.68937 47.67474 44.68206
#
# Velocity S-wave (km/s) = 3.97511 4.25090 4.11531
# Velocity P-wave (km/s) = 5.97500 6.36967 6.17549
#
# Compressibility (1/GPa) = 0.02590408
#
# Stress axis : x y z
#
# Youngs Moduli (GPa) = 117.41866 104.08779 66.51816
#
# Poissons Ratio (x) = 0.11947 0.15772
# Poissons Ratio (y) = 0.13477 0.00716
# Poissons Ratio (z) = 0.27841 0.01121
#
# Static dielectric constant tensor:
#      x y z
#    x 2.183070 -0.051530 0.211840 
#    y -0.051530 2.064810 0.087540 
#    z 0.211840 0.087540 2.603500 
# 
# From -- ./inp_files/135954.got.cif
#   From: 2010.05.17/outbox.cif.g08.bks.cpg/sg2_68_cif.got.tgz:135954.got - 2010.06.03 11:33:40.
