data_PCOD9068391
_publ_section_title
;
Structure prediction by ZEFSAII (Michael W. Deem and Ramdas Pophale) SiO2 
 PCOD9068391
Probable space group: P -1
;
_chemical_formula_sum "Si O2"
_cell_formula_units_Z 12
_cell_length_a 19.585814
_cell_length_b 15.401017
_cell_length_c 5.254086
_cell_angle_alpha 84.336953
_cell_angle_beta 80.884887
_cell_angle_gamma 18.546613
_cell_volume 490.995972
_symmetry_space_group_name_H-M "P -1"
_symmetry_group_IT_number 2
_symmetry_cell_setting 'triclinic'
loop_
_space_group_symop_operation_xyz
x,y,z
-x,-y,-z
loop_
_atom_site_type_symbol
_atom_site_label
_atom_site_fract_x
_atom_site_fract_y
_atom_site_fract_z
Si Si1 0.385687 0.052877 0.925140
Si Si2 0.973823 0.607676 0.687193
Si Si3 0.095680 0.803838 0.647876
Si Si4 0.554978 0.332515 0.579247
Si Si5 0.161446 0.011319 0.981157
Si Si6 0.837298 0.448558 0.664544
O O1 0.171593 0.350329 0.836176
O O2 0.579263 0.779064 0.723483
O O3 0.270587 0.113700 0.139665
O O4 0.500000 0.000000 0.000000
O O5 0.032564 0.628961 0.523188
O O6 0.000000 0.500000 0.500000
O O7 0.334256 0.542839 0.677434
O O8 0.115546 0.697256 0.474143
O O9 0.000000 0.000000 0.500000
O O10 0.929320 0.977709 0.921988
O O11 0.500000 0.500000 0.500000
O O12 0.697108 0.146853 0.802075
O O13 0.685507 0.151237 0.300018
O O14 0.933600 0.329526 0.931759
#
# Coordination Sequence:
#
# PCOD9068391 Si02
#       6
#     2   2   2   2   2   2
#     4  11  26  49  81 113 158 204 260 331 408 477
#     4  11  26  50  77 111 158 203 260 328 399 482
#     4  12  29  52  80 114 163 216 269 333 394 479
#     4  12  27  50  81 108 158 215 272 333 401 460
#     4  12  28  51  75 120 159 208 278 327 402 475
#     4  12  28  48  78 119 161 208 271 327 406 476
#
# _framework density 24.440118999999999
#
# number of rings (size 3 to 8) (size 9 to 14) (size 15 to 20)
#    0.000    0.333    5.000    1.000    4.667    5.333 
#    0.000    0.000    0.000    0.000    0.000    0.000 
#    0.000    0.000    0.000    0.000    0.000    0.000 
#
# Total GULP energy -67120.558564 kJ/mol
# GULP energy per Si atom -5593.379880 kJ/mol
# Density = 2.438449 g / cm^3
# Si number density = 24.440119 Si / 1000 Ang^3
#
#
#
# Elastic Constant Matrix: (Units=GPa)
#
#
# Indices 1 2 3 4 5 6 
#
# 1 153.6198 63.7075 43.5016 -1.6130 -15.8609 -16.6198
# 2 63.7075 122.7196 44.0947 4.3438 -4.0699 -37.0540
# 3 43.5016 44.0947 124.9454 -11.2856 -19.0088 -29.1518
# 4 -1.6130 4.3438 -11.2856 47.0725 -6.1352 0.0497
# 5 -15.8609 -4.0699 -19.0088 -6.1352 46.2117 1.3225
# 6 -16.6198 -37.0540 -29.1518 0.0497 1.3225 66.1475
#
#
#
# Elastic Compliance Matrix: (Units=1/GPa)
#
#
# Indices 1 2 3 4 5 6 
#
# 1 0.008817 -0.004292 -0.001354 0.000662 0.002203 -0.000830
# 2 -0.004292 0.012747 -0.002263 -0.002094 -0.001705 0.005101
# 3 -0.001354 -0.002263 0.010941 0.003328 0.004189 0.003128
# 4 0.000662 -0.002094 0.003328 0.022835 0.004433 0.000354
# 5 0.002203 -0.001705 0.004189 0.004433 0.024530 0.000951
# 6 -0.000830 0.005101 0.003128 0.000354 0.000951 0.019126
#
#
# Mechanical properties :
#
#
# Convention : Reuss Voigt Hill
#
# Bulk Modulus (GPa) = 59.92108 78.21026 69.06567
# Shear Modulus (GPa) = 41.53606 48.55172 45.04389
#
# Velocity S-wave (km/s) = 4.12698 4.46192 4.29771
# Velocity P-wave (km/s) = 6.87604 7.65606 7.27651
#
# Compressibility (1/GPa) = 0.01668862
#
# Stress axis : x y z
#
# Youngs Moduli (GPa) = 113.41088 78.44686 91.39774
#
# Poissons Ratio (x) = 0.33669 0.12376
# Poissons Ratio (y) = 0.48675 0.20682
# Poissons Ratio (z) = 0.15356 0.17751
#
# Static dielectric constant tensor:
#      x y z
#    x 1.951750 0.046560 0.044650 
#    y 0.046560 1.978880 0.000590 
#    z 0.044650 0.000590 2.036570 
# 
# From -- ./inp_files/110253.got.cif
#   From: 2010.05.17/outbox.cif.g08.bks.cpg/sg2_56_cif.got.tgz:110253.got - 2010.06.03 11:33:40.
