data_PCOD9068800
_publ_section_title
;
Structure prediction by ZEFSAII (Michael W. Deem and Ramdas Pophale) SiO2 
 PCOD9068800
Probable space group: P -1
;
_chemical_formula_sum "Si O2"
_cell_formula_units_Z 16
_cell_length_a 8.982261
_cell_length_b 13.178844
_cell_length_c 11.493516
_cell_angle_alpha 145.902736
_cell_angle_beta 106.519969
_cell_angle_gamma 70.613709
_cell_volume 719.365487
_symmetry_space_group_name_H-M "P -1"
_symmetry_group_IT_number 2
_symmetry_cell_setting 'triclinic'
loop_
_space_group_symop_operation_xyz
x,y,z
-x,-y,-z
loop_
_atom_site_type_symbol
_atom_site_label
_atom_site_fract_x
_atom_site_fract_y
_atom_site_fract_z
Si Si1 0.916694 0.410819 0.632471
Si Si2 0.451932 0.582360 0.194565
Si Si3 0.346131 0.919005 0.352818
Si Si4 0.401651 0.920437 0.103866
Si Si5 0.273985 0.288714 0.998794
Si Si6 0.745940 0.662921 0.488398
Si Si7 0.335342 0.622989 0.622794
Si Si8 0.071524 0.171306 0.634289
O O1 0.833562 0.622737 0.834578
O O2 0.784350 0.316407 0.451554
O O3 0.080595 0.377530 0.567922
O O4 0.955155 0.328205 0.690781
O O5 0.334734 0.767559 0.304660
O O6 0.371956 0.444758 0.124098
O O7 0.606419 0.629049 0.336744
O O8 0.500000 0.500000 0.000000
O O9 0.361546 0.851391 0.159085
O O10 0.500000 0.000000 0.500000
O O11 0.200757 0.083427 0.484893
O O12 0.312581 0.130321 0.280345
O O13 0.592730 0.888689 0.113250
O O14 0.358491 0.792390 0.869955
O O15 0.163185 0.246577 0.830668
O O16 0.745406 0.515217 0.449305
O O17 0.500000 0.500000 0.500000
O O18 0.000000 0.000000 0.500000
#
# Coordination Sequence:
#
# PCOD9068800 Si02
#       8
#     2   2   2   2   2   2   2   2
#     4  12  26  48  69 106 150 187 238 303 362 426
#     4  12  20  37  73 101 144 195 237 294 359 430
#     4  12  20  40  68 103 140 184 244 290 350 440
#     4  12  24  45  77 102 139 193 247 288 356 429
#     4  12  24  45  71 105 143 194 238 290 366 436
#     4  12  25  46  74 108 144 189 245 303 357 420
#     4  12  27  51  74 103 144 194 252 294 354 436
#     4  12  26  44  68 108 150 181 233 301 365 429
#
# _framework density 22.241823
#
# number of rings (size 3 to 8) (size 9 to 14) (size 15 to 20)
#    0.000    0.000    7.500    2.250    0.000    4.000 
#    2.250    0.000    0.000    0.000    0.000    0.000 
#    0.000    0.000    0.000    0.000    0.000    0.000 
#
# Total GULP energy -89511.534166 kJ/mol
# GULP energy per Si atom -5594.470885 kJ/mol
# Density = 2.219120 g / cm^3
# Si number density = 22.241823 Si / 1000 Ang^3
#
#
#
# Elastic Constant Matrix: (Units=GPa)
#
#
# Indices 1 2 3 4 5 6 
#
# 1 120.6831 14.4632 62.3128 -0.7823 -9.3252 -16.4869
# 2 14.4632 26.8895 16.7579 -3.4093 5.0556 -17.7684
# 3 62.3128 16.7579 163.1071 -22.8990 -10.3990 -17.7520
# 4 -0.7823 -3.4093 -22.8990 42.5144 -8.2790 9.9523
# 5 -9.3252 5.0556 -10.3990 -8.2790 40.7479 4.1115
# 6 -16.4869 -17.7684 -17.7520 9.9523 4.1115 31.3123
#
#
#
# Elastic Compliance Matrix: (Units=1/GPa)
#
#
# Indices 1 2 3 4 5 6 
#
# 1 0.011070 -0.001780 -0.004014 -0.002706 0.000848 0.003292
# 2 -0.001780 0.070330 -0.004422 -0.009745 -0.016452 0.041723
# 3 -0.004014 -0.004422 0.008889 0.005375 0.003163 -0.001707
# 4 -0.002706 -0.009745 0.005375 0.031013 0.009781 -0.015049
# 5 0.000848 -0.016452 0.003163 0.009781 0.031011 -0.014277
# 6 0.003292 0.041723 -0.001707 -0.015049 -0.014277 0.063036
#
#
# Mechanical properties :
#
#
# Convention : Reuss Voigt Hill
#
# Bulk Modulus (GPa) = 14.31485 55.30528 34.81006
# Shear Modulus (GPa) = 19.30013 37.39131 28.34572
#
# Velocity S-wave (km/s) = 2.94894 4.10460 3.57379
# Velocity P-wave (km/s) = 4.24794 6.88354 5.71962
#
# Compressibility (1/GPa) = 0.06985751
#
# Stress axis : x y z
#
# Youngs Moduli (GPa) = 90.33769 14.21868 112.49695
#
# Poissons Ratio (x) = 0.02531 0.45153
# Poissons Ratio (y) = 0.16080 0.49745
# Poissons Ratio (z) = 0.36259 0.06287
#
# Static dielectric constant tensor:
#      x y z
#    x 1.789520 -0.000610 -0.031230 
#    y -0.000610 1.862520 0.024130 
#    z -0.031230 0.024130 1.822990 
# 
# From -- ./inp_files/400135.got.cif
#   From: 2010.05.17/outbox.cif.g08.bks.cpg/sg2_201_cif.got.tgz:400135.got - 2010.06.03 11:33:40.
