data_PCOD9068426
_publ_section_title
;
Structure prediction by ZEFSAII (Michael W. Deem and Ramdas Pophale) SiO2 
 PCOD9068426
Probable space group: P -1
;
_chemical_formula_sum "Si O2"
_cell_formula_units_Z 12
_cell_length_a 10.927247
_cell_length_b 13.793489
_cell_length_c 8.447988
_cell_angle_alpha 31.874470
_cell_angle_beta 136.000899
_cell_angle_gamma 137.990662
_cell_volume 435.706347
_symmetry_space_group_name_H-M "P -1"
_symmetry_group_IT_number 2
_symmetry_cell_setting 'triclinic'
loop_
_space_group_symop_operation_xyz
x,y,z
-x,-y,-z
loop_
_atom_site_type_symbol
_atom_site_label
_atom_site_fract_x
_atom_site_fract_y
_atom_site_fract_z
Si Si1 0.584848 0.267866 0.810269
Si Si2 0.839230 0.580651 0.806979
Si Si3 0.046390 0.900677 0.332976
Si Si4 0.079905 0.668767 0.208044
Si Si5 0.670445 0.164085 0.525715
Si Si6 0.384810 0.153150 0.491151
O O1 0.639660 0.411773 0.811292
O O2 0.758977 0.347031 0.737952
O O3 0.413085 0.248401 0.558592
O O4 0.578474 0.053106 0.156774
O O5 0.876394 0.762614 0.469050
O O6 0.000000 0.500000 0.000000
O O7 0.911995 0.652551 0.952091
O O8 0.170724 0.779308 0.540986
O O9 0.184173 0.071199 0.335298
O O10 0.000000 0.000000 0.000000
O O11 0.201961 0.852199 0.179941
O O12 0.000000 0.500000 0.500000
O O13 0.500000 0.000000 0.500000
O O14 0.545126 0.273292 0.346158
#
# Coordination Sequence:
#
# PCOD9068426 Si02
#       6
#     2   2   2   2   2   2
#     4   9  17  31  57  80 106 138 186 226 264 305
#     4  10  18  33  55  79 108 142 184 220 266 316
#     4  11  21  36  55  82 113 143 174 223 279 323
#     4  10  18  28  50  83 108 130 181 232 263 300
#     4   9  19  32  52  79 106 141 181 220 261 319
#     4   9  17  33  57  84 106 139 183 223 263 321
#
# _framework density 27.541485000000002
#
# number of rings (size 3 to 8) (size 9 to 14) (size 15 to 20)
#    0.000    2.333    3.333    2.000    2.333    0.000 
#    0.000    1.667    0.000    1.000    0.000    0.000 
#    0.000    0.000    0.000    0.000    0.000    0.000 
#
# Total GULP energy -66882.720461 kJ/mol
# GULP energy per Si atom -5573.560038 kJ/mol
# Density = 2.747880 g / cm^3
# Si number density = 27.541485 Si / 1000 Ang^3
#
#
#
# Elastic Constant Matrix: (Units=GPa)
#
#
# Indices 1 2 3 4 5 6 
#
# 1 107.6585 39.8015 23.9197 -17.8957 -31.0988 -14.9516
# 2 39.8015 234.6528 82.9012 72.5055 -14.1598 -37.2640
# 3 23.9197 82.9012 137.1544 36.2368 -31.2566 -1.6072
# 4 -17.8957 72.5055 36.2368 63.1939 -2.6863 -18.2828
# 5 -31.0988 -14.1598 -31.2566 -2.6863 42.6233 0.9112
# 6 -14.9516 -37.2640 -1.6072 -18.2828 0.9112 63.1922
#
#
#
# Elastic Compliance Matrix: (Units=1/GPa)
#
#
# Indices 1 2 3 4 5 6 
#
# 1 0.017638 -0.005509 -0.000700 0.013545 0.011280 0.004663
# 2 -0.005509 0.009402 -0.002725 -0.010603 -0.003587 0.001156
# 3 -0.000700 -0.002725 0.011770 -0.004342 0.007002 -0.002830
# 4 0.013545 -0.010603 -0.004342 0.036676 0.005330 0.007376
# 5 0.011280 -0.003587 0.007002 0.005330 0.035933 0.001756
# 6 0.004663 0.001156 -0.002830 0.007376 0.001756 0.019646
#
#
# Mechanical properties :
#
#
# Convention : Reuss Voigt Hill
#
# Bulk Modulus (GPa) = 47.74741 85.85670 66.80206
# Shear Modulus (GPa) = 32.06914 55.99144 44.03029
#
# Velocity S-wave (km/s) = 3.41602 4.51376 4.00270
# Velocity P-wave (km/s) = 5.73874 7.64242 6.75795
#
# Compressibility (1/GPa) = 0.02094354
#
# Stress axis : x y z
#
# Youngs Moduli (GPa) = 56.69478 106.36180 84.96287
#
# Poissons Ratio (x) = 0.58591 0.05947
# Poissons Ratio (y) = 0.31231 0.23150
# Poissons Ratio (z) = 0.03968 0.28980
#
# Static dielectric constant tensor:
#      x y z
#    x 2.254040 0.022180 -0.001500 
#    y 0.022180 2.187180 -0.026670 
#    z -0.001500 -0.026670 2.069540 
# 
# From -- ./inp_files/266552.got.cif
#   From: 2010.05.17/outbox.cif.g08.bks.cpg/sg2_134_cif.got.tgz:266552.got - 2010.06.03 11:33:40.
