data_PCOD9068412
_publ_section_title
;
Structure prediction by ZEFSAII (Michael W. Deem and Ramdas Pophale) SiO2 
 PCOD9068412
Probable space group: P -1
;
_chemical_formula_sum "Si O2"
_cell_formula_units_Z 13
_cell_length_a 9.449378
_cell_length_b 8.824098
_cell_length_c 13.137568
_cell_angle_alpha 82.815841
_cell_angle_beta 146.055787
_cell_angle_gamma 115.782366
_cell_volume 486.478364
_symmetry_space_group_name_H-M "P -1"
_symmetry_group_IT_number 2
_symmetry_cell_setting 'triclinic'
loop_
_space_group_symop_operation_xyz
x,y,z
-x,-y,-z
loop_
_atom_site_type_symbol
_atom_site_label
_atom_site_fract_x
_atom_site_fract_y
_atom_site_fract_z
Si Si1 0.074708 0.738560 0.836719
Si Si2 0.336877 0.543907 0.683728
Si Si3 0.420860 0.226661 0.393514
Si Si4 0.688955 0.113564 0.729896
Si Si5 0.428281 0.162031 0.029521
Si Si6 0.000000 0.500000 0.000000
Si Si7 0.029744 0.126762 0.600039
O O1 0.760530 0.727098 0.641807
O O2 0.021873 0.578184 0.891695
O O3 0.318645 0.952116 0.010886
O O4 0.225314 0.737002 0.821872
O O5 0.450801 0.621586 0.632222
O O6 0.265934 0.343075 0.681846
O O7 0.000000 0.500000 0.500000
O O8 0.549660 0.703119 0.882264
O O9 0.650973 0.202096 0.597557
O O10 0.208998 0.020543 0.228506
O O11 0.903153 0.292938 0.915036
O O12 0.331249 0.963122 0.575744
O O13 0.203163 0.128111 0.804261
O O14 0.000000 0.000000 0.500000
#
# Coordination Sequence:
#
# PCOD9068412 Si02
#       7
#     2   2   2   2   2   1   2
#     4  11  27  49  79 108 152 198 259 309 381 449
#     4  12  28  47  79 113 152 198 262 310 383 452
#     4  11  26  52  78 109 151 202 252 317 378 455
#     4  11  26  50  75 111 154 197 252 316 381 453
#     4  11  27  52  77 109 153 206 252 313 381 457
#     4  12  28  44  74 118 148 194 252 316 376 448
#     4  12  27  51  76 110 154 202 252 316 381 455
#
# _framework density 26.722667000000001
#
# number of rings (size 3 to 8) (size 9 to 14) (size 15 to 20)
#    0.000    0.615    3.077    2.308   10.769    3.077 
#    0.000    0.000    0.000    0.000    0.000    0.000 
#    0.000    0.000    0.000    0.000    0.000    0.000 
#
# Total GULP energy -72675.106016 kJ/mol
# GULP energy per Si atom -5590.392770 kJ/mol
# Density = 2.666185 g / cm^3
# Si number density = 26.722667 Si / 1000 Ang^3
#
#
#
# Elastic Constant Matrix: (Units=GPa)
#
#
# Indices 1 2 3 4 5 6 
#
# 1 96.3630 25.1585 20.5942 12.5648 -6.2629 -4.3099
# 2 25.1585 214.8539 28.5200 16.1922 -18.7091 26.8775
# 3 20.5942 28.5200 86.8249 20.0795 -14.1642 -5.0382
# 4 12.5648 16.1922 20.0795 46.7449 -15.8238 -24.0576
# 5 -6.2629 -18.7091 -14.1642 -15.8238 40.8924 -0.0567
# 6 -4.3099 26.8775 -5.0382 -24.0576 -0.0567 42.2711
#
#
#
# Elastic Compliance Matrix: (Units=1/GPa)
#
#
# Indices 1 2 3 4 5 6 
#
# 1 0.011291 -0.001050 -0.001955 -0.001426 0.000021 0.000775
# 2 -0.001050 0.006175 -0.000990 -0.004834 0.000441 -0.006902
# 3 -0.001955 -0.000990 0.013686 -0.004510 0.002242 -0.000503
# 4 -0.001426 -0.004834 -0.004510 0.043896 0.013032 0.027391
# 5 0.000021 0.000441 0.002242 0.013032 0.030489 0.007447
# 6 0.000775 -0.006902 -0.000503 0.027391 0.007447 0.043663
#
#
# Mechanical properties :
#
#
# Convention : Reuss Voigt Hill
#
# Bulk Modulus (GPa) = 43.17446 60.73191 51.95318
# Shear Modulus (GPa) = 30.31919 47.56629 38.94274
#
# Velocity S-wave (km/s) = 3.37202 4.22358 3.82159
# Velocity P-wave (km/s) = 5.59931 6.82356 6.24152
#
# Compressibility (1/GPa) = 0.02316184
#
# Stress axis : x y z
#
# Youngs Moduli (GPa) = 88.56315 161.94736 73.06770
#
# Poissons Ratio (x) = 0.17009 0.14286
# Poissons Ratio (y) = 0.09302 0.07232
# Poissons Ratio (z) = 0.17316 0.16028
#
# Static dielectric constant tensor:
#      x y z
#    x 2.114640 0.032030 0.094950 
#    y 0.032030 2.610260 0.019180 
#    z 0.094950 0.019180 2.159560 
# 
# From -- ./inp_files/382172.got.cif
#   From: 2010.05.17/outbox.cif.g08.bks.cpg/sg2_192_cif.got.tgz:382172.got - 2010.06.03 11:33:40.
