data_PCOD9068090
_publ_section_title
;
Structure prediction by ZEFSAII (Michael W. Deem and Ramdas Pophale) SiO2 
 PCOD9068090
Probable space group: P -1
;
_chemical_formula_sum "Si O2"
_cell_formula_units_Z 10
_cell_length_a 8.899555
_cell_length_b 8.452670
_cell_length_c 11.386453
_cell_angle_alpha 117.012572
_cell_angle_beta 76.008530
_cell_angle_gamma 146.488407
_cell_volume 404.663473
_symmetry_space_group_name_H-M "P -1"
_symmetry_group_IT_number 2
_symmetry_cell_setting 'triclinic'
loop_
_space_group_symop_operation_xyz
x,y,z
-x,-y,-z
loop_
_atom_site_type_symbol
_atom_site_label
_atom_site_fract_x
_atom_site_fract_y
_atom_site_fract_z
Si Si1 0.289870 0.663989 0.988375
Si Si2 0.868029 0.610644 0.848252
Si Si3 0.365795 0.178026 0.392154
Si Si4 0.946646 0.534293 0.394650
Si Si5 0.317222 0.209855 0.149580
O O1 0.369920 0.560454 0.866676
O O2 0.360588 0.679478 0.113394
O O3 0.000000 0.500000 0.000000
O O4 0.500000 0.000000 0.000000
O O5 0.728217 0.623515 0.796145
O O6 0.992219 0.564135 0.741231
O O7 0.101672 0.923787 0.996248
O O8 0.500000 0.500000 0.500000
O O9 0.628297 0.296702 0.375661
O O10 0.245676 0.075350 0.247939
O O11 0.146709 0.889798 0.432141
O O12 0.000000 0.500000 0.500000
#
# Coordination Sequence:
#
# PCOD9068090 Si02
#       5
#     2   2   2   2   2
#     4  12  23  42  67 102 144 187 240 295 359 429
#     4  11  26  47  75 112 153 193 247 307 372 441
#     4  12  28  51  78 108 149 199 252 309 373 449
#     4  12  28  51  78 109 148 200 250 311 373 448
#     4  11  26  47  75 113 152 195 245 309 371 441
#
# _framework density 24.711893
#
# number of rings (size 3 to 8) (size 9 to 14) (size 15 to 20)
#    0.000    0.400    2.000    5.400    5.600    0.000 
#    3.600    0.000    0.000    0.000    0.000    0.000 
#    0.000    0.000    0.000    0.000    0.000    0.000 
#
# Total GULP energy -55975.814704 kJ/mol
# GULP energy per Si atom -5597.581470 kJ/mol
# Density = 2.465565 g / cm^3
# Si number density = 24.711893 Si / 1000 Ang^3
#
#
#
# Elastic Constant Matrix: (Units=GPa)
#
#
# Indices 1 2 3 4 5 6 
#
# 1 134.7622 32.7536 3.3348 7.1437 24.8239 -8.9888
# 2 32.7536 160.1146 25.4272 -14.6515 29.4952 0.9033
# 3 3.3348 25.4272 88.9370 -10.2570 11.8711 -13.8645
# 4 7.1437 -14.6515 -10.2570 37.6639 -16.3319 7.5256
# 5 24.8239 29.4952 11.8711 -16.3319 52.7812 -11.6497
# 6 -8.9888 0.9033 -13.8645 7.5256 -11.6497 44.7590
#
#
#
# Elastic Compliance Matrix: (Units=1/GPa)
#
#
# Indices 1 2 3 4 5 6 
#
# 1 0.008933 -0.001477 0.000417 -0.004410 -0.004498 0.001524
# 2 -0.001477 0.007575 -0.001823 0.001841 -0.003025 -0.002111
# 3 0.000417 -0.001823 0.012587 0.001615 -0.000723 0.003560
# 4 -0.004410 0.001841 0.001615 0.033716 0.010366 -0.003393
# 5 -0.004498 -0.003025 -0.000723 0.010366 0.027056 0.004233
# 6 0.001524 -0.002111 0.003560 -0.003393 0.004233 0.025466
#
#
# Mechanical properties :
#
#
# Convention : Reuss Voigt Hill
#
# Bulk Modulus (GPa) = 42.86797 56.31612 49.59205
# Shear Modulus (GPa) = 38.79688 48.52737 43.66212
#
# Velocity S-wave (km/s) = 3.96658 4.43620 4.20795
# Velocity P-wave (km/s) = 6.19380 7.00560 6.61217
#
# Compressibility (1/GPa) = 0.02332744
#
# Stress axis : x y z
#
# Youngs Moduli (GPa) = 111.94228 132.01774 79.44548
#
# Poissons Ratio (x) = 0.19501 -0.03310
# Poissons Ratio (y) = 0.16535 0.14486
# Poissons Ratio (z) = -0.04664 0.24071
#
# Static dielectric constant tensor:
#      x y z
#    x 1.960690 -0.030520 -0.010000 
#    y -0.030520 2.072980 0.101970 
#    z -0.010000 0.101970 2.046710 
# 
# From -- ./inp_files/374776.got.cif
#   From: 2010.05.17/outbox.cif.g08.bks.cpg/sg2_188_cif.got.tgz:374776.got - 2010.06.03 11:33:40.
