data_PCOD9068485
_publ_section_title
;
Structure prediction by ZEFSAII (Michael W. Deem and Ramdas Pophale) SiO2 
 PCOD9068485
Probable space group: P -1
;
_chemical_formula_sum "Si O2"
_cell_formula_units_Z 12
_cell_length_a 8.498581
_cell_length_b 9.292730
_cell_length_c 11.372604
_cell_angle_alpha 117.662881
_cell_angle_beta 140.836434
_cell_angle_gamma 83.696550
_cell_volume 449.330168
_symmetry_space_group_name_H-M "P -1"
_symmetry_group_IT_number 2
_symmetry_cell_setting 'triclinic'
loop_
_space_group_symop_operation_xyz
x,y,z
-x,-y,-z
loop_
_atom_site_type_symbol
_atom_site_label
_atom_site_fract_x
_atom_site_fract_y
_atom_site_fract_z
Si Si1 0.876076 0.420483 0.207933
Si Si2 0.174680 0.016848 0.428123
Si Si3 0.136864 0.398731 0.965082
Si Si4 0.201404 0.183479 0.257731
Si Si5 0.588681 0.938600 0.168560
Si Si6 0.432326 0.704183 0.701352
O O1 0.782823 0.503731 0.077052
O O2 0.044665 0.309891 0.221008
O O3 0.101841 0.589101 0.474254
O O4 0.613927 0.266280 0.063245
O O5 0.084088 0.810391 0.259945
O O6 0.896192 0.011105 0.322618
O O7 0.254326 0.135750 0.402008
O O8 0.391491 0.071838 0.681481
O O9 0.395766 0.389784 0.175975
O O10 0.000000 0.500000 0.000000
O O11 0.479551 0.280952 0.379526
O O12 0.000000 0.000000 0.000000
O O13 0.479399 0.086750 0.134144
#
# Coordination Sequence:
#
# PCOD9068485 Si02
#       6
#     2   2   2   2   2   2
#     4  12  26  45  76 113 152 197 253 311 379 452
#     4  11  26  51  79 109 155 203 254 312 379 455
#     4  12  25  45  77 114 152 192 253 323 372 444
#     4  12  23  46  76 109 148 196 252 313 370 442
#     4  11  27  52  76 110 156 205 250 308 383 458
#     4  12  26  48  77 115 150 197 258 309 384 450
#
# _framework density 26.706422
#
# number of rings (size 3 to 8) (size 9 to 14) (size 15 to 20)
#    0.000    0.333    6.667    0.500    2.333    4.000 
#    0.000    1.667    0.000    0.000    0.000    0.000 
#    0.000    0.000    0.000    0.000    0.000    0.000 
#
# Total GULP energy -67439.550072 kJ/mol
# GULP energy per Si atom -5619.962506 kJ/mol
# Density = 2.664564 g / cm^3
# Si number density = 26.706422 Si / 1000 Ang^3
#
#
#
# Elastic Constant Matrix: (Units=GPa)
#
#
# Indices 1 2 3 4 5 6 
#
# 1 110.7449 61.3372 7.1042 -11.4526 -3.7226 18.9745
# 2 61.3372 218.2428 58.5020 -26.2341 -5.4512 21.9470
# 3 7.1042 58.5020 111.1604 -5.8774 -7.6431 29.1286
# 4 -11.4526 -26.2341 -5.8774 58.5222 3.9811 -16.1548
# 5 -3.7226 -5.4512 -7.6431 3.9811 37.6408 6.4308
# 6 18.9745 21.9470 29.1286 -16.1548 6.4308 66.2331
#
#
#
# Elastic Compliance Matrix: (Units=1/GPa)
#
#
# Indices 1 2 3 4 5 6 
#
# 1 0.011363 -0.003377 0.001991 -0.000078 0.001592 -0.003186
# 2 -0.003377 0.006614 -0.003403 0.002230 -0.000450 0.000860
# 3 0.001991 -0.003403 0.012258 -0.001666 0.003319 -0.005562
# 4 -0.000078 0.002230 -0.001666 0.019502 -0.002950 0.005059
# 5 0.001592 -0.000450 0.003319 -0.002950 0.028543 -0.005258
# 6 -0.003186 0.000860 -0.005562 0.005059 -0.005258 0.019916
#
#
# Mechanical properties :
#
#
# Convention : Reuss Voigt Hill
#
# Bulk Modulus (GPa) = 48.41068 77.11499 62.76284
# Shear Modulus (GPa) = 43.60720 53.35952 48.48336
#
# Velocity S-wave (km/s) = 4.04522 4.47475 4.26540
# Velocity P-wave (km/s) = 6.32335 7.45893 6.91449
#
# Compressibility (1/GPa) = 0.02065660
#
# Stress axis : x y z
#
# Youngs Moduli (GPa) = 88.00112 151.20167 81.58265
#
# Poissons Ratio (x) = 0.51055 -0.16242
# Poissons Ratio (y) = 0.29715 0.27765
# Poissons Ratio (z) = -0.17520 0.51459
#
# Static dielectric constant tensor:
#      x y z
#    x 2.107880 0.036580 -0.032740 
#    y 0.036580 1.999300 -0.003490 
#    z -0.032740 -0.003490 2.074010 
# 
# From -- ./inp_files/243933.got.cif
#   From: 2010.05.17/outbox.cif.g08.bks.cpg/sg2_122_cif.got.tgz:243933.got - 2010.06.03 11:33:40.
