data_PCOD9068441
_publ_section_title
;
Structure prediction by ZEFSAII (Michael W. Deem and Ramdas Pophale) SiO2 
 PCOD9068441
Probable space group: P -1
;
_chemical_formula_sum "Si O2"
_cell_formula_units_Z 12
_cell_length_a 9.608808
_cell_length_b 17.049215
_cell_length_c 5.148087
_cell_angle_alpha 74.598248
_cell_angle_beta 92.731756
_cell_angle_gamma 144.428633
_cell_volume 451.167997
_symmetry_space_group_name_H-M "P -1"
_symmetry_group_IT_number 2
_symmetry_cell_setting 'triclinic'
loop_
_space_group_symop_operation_xyz
x,y,z
-x,-y,-z
loop_
_atom_site_type_symbol
_atom_site_label
_atom_site_fract_x
_atom_site_fract_y
_atom_site_fract_z
Si Si1 0.720453 0.381512 0.018540
Si Si2 0.388404 0.510042 0.779866
Si Si3 0.890632 0.046497 0.190562
Si Si4 0.833731 0.189469 0.834811
Si Si5 0.543328 0.122778 0.368103
Si Si6 0.651854 0.760140 0.250808
O O1 0.673567 0.443367 0.091811
O O2 0.580008 0.236054 0.243394
O O3 0.627175 0.344807 0.749243
O O4 0.000000 0.500000 0.000000
O O5 0.602371 0.650964 0.485244
O O6 0.125173 0.356547 0.756372
O O7 0.500000 0.500000 0.000000
O O8 0.752473 0.019428 0.449391
O O9 0.786550 0.904158 0.262230
O O10 0.827393 0.087650 0.941467
O O11 0.186543 0.178320 0.051402
O O12 0.706019 0.165078 0.586589
O O13 0.670707 0.145574 0.102925
#
# Coordination Sequence:
#
# PCOD9068441 Si02
#       6
#     2   2   2   2   2   2
#     4  12  25  47  80 115 157 210 269 330 397 473
#     4  12  28  49  80 115 156 213 270 335 395 475
#     4  11  26  50  78 114 166 209 262 329 404 484
#     4  12  28  49  81 118 160 209 272 330 394 473
#     4  12  26  49  79 119 158 212 260 328 399 477
#     4  11  27  51  78 115 162 213 264 329 407 477
#
# _framework density 26.597632000000001
#
# number of rings (size 3 to 8) (size 9 to 14) (size 15 to 20)
#    0.000    0.333    3.333    4.000    2.333    4.667 
#    6.000    0.000    0.000    0.000    0.000    0.000 
#    0.000    0.000    0.000    0.000    0.000    0.000 
#
# Total GULP energy -67089.956687 kJ/mol
# GULP energy per Si atom -5590.829724 kJ/mol
# Density = 2.653710 g / cm^3
# Si number density = 26.597632 Si / 1000 Ang^3
#
#
#
# Elastic Constant Matrix: (Units=GPa)
#
#
# Indices 1 2 3 4 5 6 
#
# 1 175.5849 43.7439 70.2270 -11.7274 3.4136 3.3763
# 2 43.7439 104.3224 61.9303 -15.1725 -5.7311 12.5703
# 3 70.2270 61.9303 157.3244 -0.2913 17.4396 -3.1687
# 4 -11.7274 -15.1725 -0.2913 45.6172 -12.9102 11.4642
# 5 3.4136 -5.7311 17.4396 -12.9102 53.4771 -2.9804
# 6 3.3763 12.5703 -3.1687 11.4642 -2.9804 32.8581
#
#
#
# Elastic Compliance Matrix: (Units=1/GPa)
#
#
# Indices 1 2 3 4 5 6 
#
# 1 0.007267 -0.000614 -0.003135 0.002301 0.000963 -0.001530
# 2 -0.000614 0.017163 -0.007339 0.009749 0.006065 -0.010062
# 3 -0.003135 -0.007339 0.011357 -0.006200 -0.005459 0.005893
# 4 0.002301 0.009749 -0.006200 0.032262 0.009877 -0.014924
# 5 0.000963 0.006065 -0.005459 0.009877 0.023214 -0.004286
# 6 -0.001530 -0.010062 0.005893 -0.014924 -0.004286 0.039827
#
#
# Mechanical properties :
#
#
# Convention : Reuss Voigt Hill
#
# Bulk Modulus (GPa) = 73.47315 87.67043 80.57179
# Shear Modulus (GPa) = 31.68490 43.81251 37.74870
#
# Velocity S-wave (km/s) = 3.45522 4.06302 3.77138
# Velocity P-wave (km/s) = 6.60318 7.41917 7.02304
#
# Compressibility (1/GPa) = 0.01361041
#
# Stress axis : x y z
#
# Youngs Moduli (GPa) = 137.61683 58.26334 88.04966
#
# Poissons Ratio (x) = 0.03576 0.27606
# Poissons Ratio (y) = 0.08448 0.64622
# Poissons Ratio (z) = 0.43147 0.42761
#
# Static dielectric constant tensor:
#      x y z
#    x -5.639070 -11.715930 0.881450 
#    y -11.715930 -15.762610 1.428350 
#    z 0.881450 1.428350 2.011260 
# 
# From -- ./inp_files/46740.got.cif
#   From: 2010.05.17/outbox.cif.g08.bks.cpg/sg2_24_cif.got.tgz:46740.got - 2010.06.03 11:33:40.
