data_PCOD9068799
_publ_section_title
;
Structure prediction by ZEFSAII (Michael W. Deem and Ramdas Pophale) SiO2 
 PCOD9068799
Probable space group: P -1
;
_chemical_formula_sum "Si O2"
_cell_formula_units_Z 15
_cell_length_a 13.965167
_cell_length_b 11.202208
_cell_length_c 17.026663
_cell_angle_alpha 148.526132
_cell_angle_beta 33.699073
_cell_angle_gamma 127.453448
_cell_volume 722.754314
_symmetry_space_group_name_H-M "P -1"
_symmetry_group_IT_number 2
_symmetry_cell_setting 'triclinic'
loop_
_space_group_symop_operation_xyz
x,y,z
-x,-y,-z
loop_
_atom_site_type_symbol
_atom_site_label
_atom_site_fract_x
_atom_site_fract_y
_atom_site_fract_z
Si Si1 0.931007 0.294279 0.621155
Si Si2 0.924395 0.404504 0.420822
Si Si3 0.508153 0.985009 0.217091
Si Si4 0.500000 0.500000 0.000000
Si Si5 0.848490 0.223765 0.897816
Si Si6 0.102160 0.372435 0.706122
Si Si7 0.153092 0.856111 0.962060
Si Si8 0.482450 0.230133 0.085221
O O1 0.715264 0.347081 0.792603
O O2 0.979140 0.511788 0.669596
O O3 0.014454 0.268731 0.636617
O O4 0.039531 0.053399 0.361683
O O5 0.707335 0.550283 0.647209
O O6 0.000000 0.500000 0.500000
O O7 0.987022 0.114600 0.218490
O O8 0.310667 0.195035 0.478407
O O9 0.669882 0.097954 0.169037
O O10 0.536919 0.761679 0.130965
O O11 0.518310 0.856803 0.052423
O O12 0.973409 0.375446 0.869726
O O13 0.810068 0.220492 0.014448
O O14 0.656346 0.306192 0.028657
O O15 0.106428 0.637629 0.831977
O O16 0.500000 0.000000 0.000000
#
# Coordination Sequence:
#
# PCOD9068799 Si02
#       8
#     2   2   2   1   2   2   2   2
#     4  12  22  42  70  94 131 169 220 277 316 383
#     4  12  21  40  68  96 128 171 222 270 317 385
#     4  12  22  42  67  98 131 169 215 274 321 390
#     4  12  24  38  68 104 124 160 224 278 324 364
#     4  12  23  44  68  95 126 177 223 269 315 389
#     4  12  27  43  64  99 138 173 212 268 337 389
#     4  12  26  44  65  96 137 177 212 264 336 394
#     4  12  20  37  70 100 118 161 232 271 310 375
#
# _framework density 20.75394
#
# number of rings (size 3 to 8) (size 9 to 14) (size 15 to 20)
#    0.000    0.000    9.333    2.000    0.000    0.533 
#    0.000    0.667    0.000    0.000    0.000    0.000 
#    0.000    0.000    0.000    0.000    0.000    0.000 
#
# Total GULP energy -83671.466974 kJ/mol
# GULP energy per Si atom -5578.097798 kJ/mol
# Density = 2.070670 g / cm^3
# Si number density = 20.753940 Si / 1000 Ang^3
#
#
#
# Elastic Constant Matrix: (Units=GPa)
#
#
# Indices 1 2 3 4 5 6 
#
# 1 43.9573 4.6585 27.2538 -5.6015 -11.0972 18.4801
# 2 4.6585 123.4751 43.1878 -0.3924 -12.7228 25.6471
# 3 27.2538 43.1878 103.5334 -1.9182 -45.6555 27.4636
# 4 -5.6015 -0.3924 -1.9182 35.1092 5.4059 -4.4953
# 5 -11.0972 -12.7228 -45.6555 5.4059 40.6640 -6.9792
# 6 18.4801 25.6471 27.4636 -4.4953 -6.9792 29.4238
#
#
#
# Elastic Compliance Matrix: (Units=1/GPa)
#
#
# Indices 1 2 3 4 5 6 
#
# 1 0.034707 0.004890 -0.004947 0.002430 0.001571 -0.020699
# 2 0.004890 0.011133 -0.003985 -0.000327 -0.001226 -0.009396
# 3 -0.004947 -0.003985 0.028530 -0.005370 0.027694 -0.014299
# 4 0.002430 -0.000327 -0.005370 0.030700 -0.008441 0.006460
# 5 0.001571 -0.001226 0.027694 -0.008441 0.054425 -0.014148
# 6 -0.020699 -0.009396 -0.014299 0.006460 -0.014148 0.066154
#
#
# Mechanical properties :
#
#
# Convention : Reuss Voigt Hill
#
# Bulk Modulus (GPa) = 15.08675 46.79621 30.94148
# Shear Modulus (GPa) = 19.54442 34.09712 26.82077
#
# Velocity S-wave (km/s) = 3.07208 4.05770 3.59879
# Velocity P-wave (km/s) = 4.45743 6.67460 5.67534
#
# Compressibility (1/GPa) = 0.06628332
#
# Stress axis : x y z
#
# Youngs Moduli (GPa) = 28.81277 89.82687 35.05143
#
# Poissons Ratio (x) = -0.43926 0.17341
# Poissons Ratio (y) = -0.14090 0.13970
# Poissons Ratio (z) = 0.14255 0.35800
#
# Static dielectric constant tensor:
#      x y z
#    x 1.822000 -0.034910 0.009230 
#    y -0.034910 1.804230 -0.014740 
#    z 0.009230 -0.014740 1.721920 
# 
# From -- ./inp_files/159430.got.cif
#   From: 2010.05.17/outbox.cif.g08.bks.cpg/sg2_80_cif.got.tgz:159430.got - 2010.06.03 11:33:40.
