data_PCOD9068933
_publ_section_title
;
Structure prediction by ZEFSAII (Michael W. Deem and Ramdas Pophale) SiO2 
 PCOD9068933
Probable space group: P -1
;
_chemical_formula_sum "Si O2"
_cell_formula_units_Z 14
_cell_length_a 8.902326
_cell_length_b 14.002182
_cell_length_c 10.008850
_cell_angle_alpha 91.325479
_cell_angle_beta 134.232483
_cell_angle_gamma 53.811740
_cell_volume 534.143162
_symmetry_space_group_name_H-M "P -1"
_symmetry_group_IT_number 2
_symmetry_cell_setting 'triclinic'
loop_
_space_group_symop_operation_xyz
x,y,z
-x,-y,-z
loop_
_atom_site_type_symbol
_atom_site_label
_atom_site_fract_x
_atom_site_fract_y
_atom_site_fract_z
Si Si1 0.769479 0.782537 0.924781
Si Si2 0.348364 0.094035 0.544930
Si Si3 0.300799 0.970957 0.871045
Si Si4 0.620992 0.170071 0.820271
Si Si5 0.534185 0.684136 0.656903
Si Si6 0.464192 0.425393 0.616414
Si Si7 0.368221 0.608065 0.786729
O O1 0.723159 0.717675 0.784091
O O2 0.483632 0.853616 0.856127
O O3 0.623418 0.940756 0.805045
O O4 0.172280 0.655626 0.203183
O O5 0.958630 0.212428 0.351836
O O6 0.500000 0.000000 0.500000
O O7 0.400096 0.864537 0.048124
O O8 0.885010 0.142163 0.614265
O O9 0.500000 0.000000 0.000000
O O10 0.361604 0.202563 0.569684
O O11 0.559893 0.302829 0.769302
O O12 0.000000 0.000000 0.000000
O O13 0.658291 0.581565 0.596897
O O14 0.574901 0.608728 0.818579
O O15 0.267741 0.569737 0.601196
O O16 0.500000 0.500000 0.000000
#
# Coordination Sequence:
#
# PCOD9068933 Si02
#       7
#     2   2   2   2   2   2   2
#     4  12  25  44  81 110 147 191 257 313 374 449
#     4  12  25  45  76 110 147 192 251 312 371 448
#     4  12  21  43  74 116 146 189 250 318 371 438
#     4  12  23  43  79 112 145 193 249 312 380 438
#     4  12  25  47  79 108 147 206 251 305 384 443
#     4  12  27  51  75 111 159 196 248 314 378 455
#     4  12  30  49  71 113 157 199 252 312 375 453
#
# _framework density 26.210204000000001
#
# number of rings (size 3 to 8) (size 9 to 14) (size 15 to 20)
#    0.000    0.000    7.143    2.571    2.000    1.143 
#    0.000    1.429    0.000    0.000    0.000    0.000 
#    0.000    0.000    0.000    0.000    0.000    0.000 
#
# Total GULP energy -78205.843395 kJ/mol
# GULP energy per Si atom -5586.131671 kJ/mol
# Density = 2.615055 g / cm^3
# Si number density = 26.210204 Si / 1000 Ang^3
#
#
#
# Elastic Constant Matrix: (Units=GPa)
#
#
# Indices 1 2 3 4 5 6 
#
# 1 46.2609 20.9472 9.5906 -3.2710 -8.5682 12.9074
# 2 20.9472 155.6330 23.3707 3.1571 -1.1421 -13.5839
# 3 9.5906 23.3707 58.2985 -6.8888 -11.7952 -7.0538
# 4 -3.2710 3.1571 -6.8888 44.3849 -0.6103 -6.1108
# 5 -8.5682 -1.1421 -11.7952 -0.6103 55.0750 1.4946
# 6 12.9074 -13.5839 -7.0538 -6.1108 1.4946 65.2640
#
#
#
# Elastic Compliance Matrix: (Units=1/GPa)
#
#
# Indices 1 2 3 4 5 6 
#
# 1 0.026337 -0.003667 -0.002777 0.000958 0.003607 -0.006265
# 2 -0.003667 0.007472 -0.002470 -0.000931 -0.001008 0.001949
# 3 -0.002777 -0.002470 0.020073 0.003475 0.003788 0.002443
# 4 0.000958 -0.000931 0.003475 0.023520 0.001076 0.002170
# 5 0.003607 -0.001008 0.003788 0.001076 0.019544 -0.000861
# 6 -0.006265 0.001949 0.002443 0.002170 -0.000861 0.017454
#
#
# Mechanical properties :
#
#
# Convention : Reuss Voigt Hill
#
# Bulk Modulus (GPa) = 27.73813 40.88994 34.31404
# Shear Modulus (GPa) = 34.66310 46.69705 40.68008
#
# Velocity S-wave (km/s) = 3.64057 4.22552 3.94391
# Velocity P-wave (km/s) = 5.31767 6.28024 5.81889
#
# Compressibility (1/GPa) = 0.03605146
#
# Stress axis : x y z
#
# Youngs Moduli (GPa) = 37.96960 133.84185 49.81892
#
# Poissons Ratio (x) = 0.49086 0.13837
# Poissons Ratio (y) = 0.13925 0.12304
# Poissons Ratio (z) = 0.10546 0.33057
#
# Static dielectric constant tensor:
#      x y z
#    x 2.460600 0.067100 0.278690 
#    y 0.067100 1.833410 0.020010 
#    z 0.278690 0.020010 2.270350 
# 
# From -- ./inp_files/404175.got.cif
#   From: 2010.05.17/outbox.cif.g08.bks.cpg/sg2_203_cif.got.tgz:404175.got - 2010.06.03 11:33:40.
