data_PCOD9068079
_publ_section_title
;
Structure prediction by ZEFSAII (Michael W. Deem and Ramdas Pophale) SiO2 
 PCOD9068079
Probable space group: P -1
;
_chemical_formula_sum "Si O2"
_cell_formula_units_Z 14
_cell_length_a 11.694591
_cell_length_b 6.433478
_cell_length_c 22.543725
_cell_angle_alpha 126.424519
_cell_angle_beta 29.814395
_cell_angle_gamma 123.397486
_cell_volume 675.908131
_symmetry_space_group_name_H-M "P -1"
_symmetry_group_IT_number 2
_symmetry_cell_setting 'triclinic'
loop_
_space_group_symop_operation_xyz
x,y,z
-x,-y,-z
loop_
_atom_site_type_symbol
_atom_site_label
_atom_site_fract_x
_atom_site_fract_y
_atom_site_fract_z
Si Si1 0.140861 0.232371 0.513497
Si Si2 0.928001 0.160931 0.718415
Si Si3 0.555895 0.020351 0.048010
Si Si4 0.940333 0.682996 0.872109
Si Si5 0.176308 0.427357 0.959886
Si Si6 0.398781 0.040622 0.713097
Si Si7 0.350864 0.814412 0.488439
O O1 0.234436 0.522400 0.500616
O O2 0.975766 0.274303 0.650825
O O3 0.380639 0.114361 0.400875
O O4 0.000000 0.000000 0.500000
O O5 0.944005 0.391940 0.797797
O O6 0.678552 0.013474 0.814669
O O7 0.130519 0.974675 0.603487
O O8 0.678942 0.304100 0.047640
O O9 0.500000 0.000000 0.000000
O O10 0.724345 0.812909 0.962130
O O11 0.929346 0.679230 0.948131
O O12 0.171459 0.846540 0.773673
O O13 0.337381 0.222782 0.825253
O O14 0.000000 0.500000 0.000000
O O15 0.472178 0.201058 0.648517
O O16 0.500000 0.000000 0.500000
#
# Coordination Sequence:
#
# PCOD9068079 Si02
#       7
#     2   2   2   2   2   2   2
#     4  11  28  45  74 102 142 193 239 310 359 427
#     4  11  27  44  71 105 141 185 246 297 362 433
#     4  12  28  45  73 110 146 195 240 299 371 436
#     4  12  26  47  74 109 148 190 242 302 364 442
#     4  12  28  45  73 110 146 195 240 299 371 436
#     4  11  27  44  71 105 141 185 246 297 362 433
#     4  11  26  47  74  98 138 191 240 301 358 430
#
# _framework density 20.712872999999998
#
# number of rings (size 3 to 8) (size 9 to 14) (size 15 to 20)
#    0.000    0.571    2.857    2.571   14.000    3.429 
#    0.000    0.000    0.000    0.000    0.000    0.000 
#    0.000    0.000    0.000    0.000    0.000    0.000 
#
# Total GULP energy -78182.362655 kJ/mol
# GULP energy per Si atom -5584.454475 kJ/mol
# Density = 2.066573 g / cm^3
# Si number density = 20.712873 Si / 1000 Ang^3
#
#
#
# Elastic Constant Matrix: (Units=GPa)
#
#
# Indices 1 2 3 4 5 6 
#
# 1 84.4896 29.9012 26.4494 -22.6869 -13.8065 8.9480
# 2 29.9012 124.9440 20.7454 -28.9548 -7.7961 15.5746
# 3 26.4494 20.7454 108.0823 -32.6868 -15.3138 -2.4363
# 4 -22.6869 -28.9548 -32.6868 53.2826 1.7149 0.7142
# 5 -13.8065 -7.7961 -15.3138 1.7149 29.2788 -0.0484
# 6 8.9480 15.5746 -2.4363 0.7142 -0.0484 37.5405
#
#
#
# Elastic Compliance Matrix: (Units=1/GPa)
#
#
# Indices 1 2 3 4 5 6 
#
# 1 0.015369 -0.001607 -0.001253 0.004755 0.005881 -0.003161
# 2 -0.001607 0.010087 0.000070 0.004838 0.001675 -0.003887
# 3 -0.001253 0.000070 0.012454 0.006954 0.005536 0.000953
# 4 0.004755 0.004838 0.006954 0.027552 0.005549 -0.003206
# 5 0.005881 0.001675 0.005536 0.005549 0.039941 -0.001791
# 6 -0.003161 -0.003887 0.000953 -0.003206 -0.001791 0.029124
#
#
# Mechanical properties :
#
#
# Convention : Reuss Voigt Hill
#
# Bulk Modulus (GPa) = 30.92991 52.41199 41.67095
# Shear Modulus (GPa) = 33.13795 40.04837 36.59316
#
# Velocity S-wave (km/s) = 4.00418 4.40193 4.20776
# Velocity P-wave (km/s) = 6.02852 7.15507 6.61582
#
# Compressibility (1/GPa) = 0.03233117
#
# Stress axis : x y z
#
# Youngs Moduli (GPa) = 65.06494 99.13905 80.29405
#
# Poissons Ratio (x) = 0.15934 0.10057
# Poissons Ratio (y) = 0.10457 -0.00563
# Poissons Ratio (z) = 0.08149 -0.00695
#
# Static dielectric constant tensor:
#      x y z
#    x 1.782590 -0.092970 -0.002150 
#    y -0.092970 2.166050 0.123140 
#    z -0.002150 0.123140 1.764210 
# 
# From -- ./inp_files/68745.got.cif
#   From: 2010.05.17/outbox.cif.g08.bks.cpg/sg2_35_cif.got.tgz:68745.got - 2010.06.03 11:33:40.
