data_PCOD9068606
_publ_section_title
;
Structure prediction by ZEFSAII (Michael W. Deem and Ramdas Pophale) SiO2 
 PCOD9068606
Probable space group: P -1
;
_chemical_formula_sum "Si O2"
_cell_formula_units_Z 13
_cell_length_a 9.461489
_cell_length_b 4.950524
_cell_length_c 12.235796
_cell_angle_alpha 109.689502
_cell_angle_beta 113.524187
_cell_angle_gamma 77.720524
_cell_volume 492.727570
_symmetry_space_group_name_H-M "P -1"
_symmetry_group_IT_number 2
_symmetry_cell_setting 'triclinic'
loop_
_space_group_symop_operation_xyz
x,y,z
-x,-y,-z
loop_
_atom_site_type_symbol
_atom_site_label
_atom_site_fract_x
_atom_site_fract_y
_atom_site_fract_z
Si Si1 0.578875 0.572759 0.700848
Si Si2 0.448137 0.098405 0.877705
Si Si3 0.685382 0.747767 0.520200
Si Si4 0.000000 0.000000 0.000000
Si Si5 0.891562 0.219947 0.568832
Si Si6 0.742269 0.267598 0.898770
Si Si7 0.900382 0.684382 0.149047
O O1 0.634489 0.708201 0.624407
O O2 0.459902 0.333400 0.605733
O O3 0.712536 0.409333 0.793851
O O4 0.480211 0.826215 0.770920
O O5 0.575494 0.308206 0.907507
O O6 0.271349 0.222219 0.846211
O O7 0.500000 0.000000 0.000000
O O8 0.821292 0.490112 0.514020
O O9 0.752390 0.041534 0.545845
O O10 0.179301 0.051494 0.109788
O O11 0.049203 0.103798 0.899852
O O12 0.988171 0.327705 0.715260
O O13 0.000000 0.000000 0.500000
O O14 0.881399 0.384675 0.034385
#
# Coordination Sequence:
#
# PCOD9068606 Si02
#       7
#     2   2   2   1   2   2   2
#     4  11  27  48  78 108 153 197 266 318 390 462
#     4  12  25  46  72 112 151 196 250 319 390 465
#     4  11  29  51  79 113 152 213 262 324 380 464
#     4  12  26  46  72 110 154 190 254 308 404 456
#     4  12  29  51  78 113 158 208 265 318 391 463
#     4  12  26  45  75 110 149 199 251 320 389 468
#     4  12  28  45  76 110 155 199 252 323 391 465
#
# _framework density 26.383749000000002
#
# number of rings (size 3 to 8) (size 9 to 14) (size 15 to 20)
#    0.000    0.308    3.077    3.231   12.923    1.231 
#    0.000    0.000    0.000    0.000    0.000    0.000 
#    0.000    0.000    0.000    0.000    0.000    0.000 
#
# Total GULP energy -72776.154235 kJ/mol
# GULP energy per Si atom -5598.165710 kJ/mol
# Density = 2.632370 g / cm^3
# Si number density = 26.383749 Si / 1000 Ang^3
#
#
#
# Elastic Constant Matrix: (Units=GPa)
#
#
# Indices 1 2 3 4 5 6 
#
# 1 144.0864 1.1687 16.3164 2.7665 -5.5837 -30.0344
# 2 1.1687 78.7472 40.4166 -20.2669 13.2802 -10.4762
# 3 16.3164 40.4166 151.0024 5.4042 14.7803 -8.6123
# 4 2.7665 -20.2669 5.4042 40.0477 -9.2048 3.5776
# 5 -5.5837 13.2802 14.7803 -9.2048 47.8714 0.7837
# 6 -30.0344 -10.4762 -8.6123 3.5776 0.7837 56.0992
#
#
#
# Elastic Compliance Matrix: (Units=1/GPa)
#
#
# Indices 1 2 3 4 5 6 
#
# 1 0.007961 0.000681 -0.000877 -0.000263 0.000890 0.004259
# 2 0.000681 0.018235 -0.004979 0.009243 -0.001705 0.002440
# 3 -0.000877 -0.004979 0.008413 -0.004096 -0.002109 0.000183
# 4 -0.000263 0.009243 -0.004096 0.031405 0.004726 -0.001112
# 5 0.000890 -0.001705 -0.002109 0.004726 0.023039 -0.000789
# 6 0.004259 0.002440 0.000183 -0.001112 -0.000789 0.020672
#
#
# Mechanical properties :
#
#
# Convention : Reuss Voigt Hill
#
# Bulk Modulus (GPa) = 41.22170 54.40436 47.81303
# Shear Modulus (GPa) = 39.01295 49.86594 44.43945
#
# Velocity S-wave (km/s) = 3.84952 4.35216 4.10853
# Velocity P-wave (km/s) = 5.95116 6.77645 6.37717
#
# Compressibility (1/GPa) = 0.02425907
#
# Stress axis : x y z
#
# Youngs Moduli (GPa) = 125.60471 54.83870 118.85853
#
# Poissons Ratio (x) = -0.03734 0.10428
# Poissons Ratio (y) = -0.08553 0.59182
# Poissons Ratio (z) = 0.11020 0.27305
#
# Static dielectric constant tensor:
#      x y z
#    x 2.177900 -0.310070 -0.116770 
#    y -0.310070 2.853560 0.411800 
#    z -0.116770 0.411800 2.298170 
# 
# From -- ./inp_files/23110.got.cif
#   From: 2010.05.17/outbox.cif.g08.bks.cpg/sg2_12_cif.got.tgz:23110.got - 2010.06.03 11:33:40.
