data_PCOD9068621
_publ_section_title
;
Structure prediction by ZEFSAII (Michael W. Deem and Ramdas Pophale) SiO2 
 PCOD9068621
Probable space group: P -1
;
_chemical_formula_sum "Si O2"
_cell_formula_units_Z 14
_cell_length_a 10.783531
_cell_length_b 9.373136
_cell_length_c 15.817524
_cell_angle_alpha 102.622563
_cell_angle_beta 156.925727
_cell_angle_gamma 78.068398
_cell_volume 611.381968
_symmetry_space_group_name_H-M "P -1"
_symmetry_group_IT_number 2
_symmetry_cell_setting 'triclinic'
loop_
_space_group_symop_operation_xyz
x,y,z
-x,-y,-z
loop_
_atom_site_type_symbol
_atom_site_label
_atom_site_fract_x
_atom_site_fract_y
_atom_site_fract_z
Si Si1 0.212190 0.639245 0.634194
Si Si2 0.787046 0.922921 0.425963
Si Si3 0.734548 0.103674 0.027652
Si Si4 0.355924 0.288520 0.419261
Si Si5 0.934589 0.135427 0.697590
Si Si6 0.655029 0.545355 0.745781
Si Si7 0.617859 0.652759 0.054569
O O1 0.422810 0.625306 0.679067
O O2 0.000000 0.500000 0.500000
O O3 0.955584 0.766250 0.508721
O O4 0.467094 0.651039 0.868494
O O5 0.824985 0.017518 0.545402
O O6 0.428906 0.918310 0.167967
O O7 0.000000 0.000000 0.500000
O O8 0.052434 0.194693 0.237497
O O9 0.503218 0.211316 0.948191
O O10 0.789989 0.949302 0.088925
O O11 0.648896 0.176784 0.583887
O O12 0.457163 0.406909 0.568190
O O13 0.294647 0.362029 0.297485
O O14 0.029352 0.291595 0.735756
O O15 0.000000 0.500000 0.000000
O O16 0.500000 0.500000 0.000000
#
# Coordination Sequence:
#
# PCOD9068621 Si02
#       7
#     2   2   2   2   2   2   2
#     4  12  26  45  75 111 143 190 251 304 362 436
#     4  12  25  45  74 107 146 188 244 309 367 431
#     4  12  26  47  76 108 150 195 246 302 373 444
#     4  11  28  47  74 107 151 202 245 302 373 445
#     4  12  26  50  71 110 150 192 248 307 370 440
#     4  11  27  49  73 107 156 194 248 307 368 438
#     4  12  26  45  78 109 147 193 248 311 371 434
#
# _framework density 22.898942000000002
#
# number of rings (size 3 to 8) (size 9 to 14) (size 15 to 20)
#    0.000    0.286    2.857    5.143   10.000    1.714 
#    0.000    0.000    0.000    0.000    0.000    0.000 
#    0.000    0.000    0.000    0.000    0.000    0.000 
#
# Total GULP energy -78243.977051 kJ/mol
# GULP energy per Si atom -5588.855504 kJ/mol
# Density = 2.284682 g / cm^3
# Si number density = 22.898942 Si / 1000 Ang^3
#
#
#
# Elastic Constant Matrix: (Units=GPa)
#
#
# Indices 1 2 3 4 5 6 
#
# 1 26.0391 -6.3100 25.0081 13.1616 -37.7902 7.7268
# 2 -6.3100 89.2904 27.6498 22.9769 -38.5718 10.1315
# 3 25.0081 27.6498 121.8733 19.3401 -25.3867 3.3214
# 4 13.1616 22.9769 19.3401 35.1805 10.2883 5.9881
# 5 -37.7902 -38.5718 -25.3867 10.2883 40.4505 11.8177
# 6 7.7268 10.1315 3.3214 5.9881 11.8177 33.9511
#
#
#
# Elastic Compliance Matrix: (Units=1/GPa)
#
#
# Indices 1 2 3 4 5 6 
#
# 1 0.000130 -0.012180 -0.004012 0.014577 -0.020189 0.008454
# 2 -0.012180 0.005887 -0.001174 0.003203 -0.008328 0.003464
# 3 -0.004012 -0.001174 0.010601 -0.004409 0.002909 -0.000009
# 4 0.014577 0.003203 -0.004409 0.021864 0.011793 -0.011803
# 5 -0.020189 -0.008328 0.002909 0.011793 -0.005157 0.006510
# 6 0.008454 0.003464 -0.000009 -0.011803 0.006510 0.026313
#
#
# Mechanical properties :
#
#
# Convention : Reuss Voigt Hill
#
# Bulk Modulus (GPa) = -55.20398 36.65540 -9.27429
# Shear Modulus (GPa) = 56.60509 34.64008 45.62259
#
# Velocity S-wave (km/s) = 4.97727 3.89361 4.46841
# Velocity P-wave (km/s) = 2.97841 6.02128 4.75009
#
# Compressibility (1/GPa) = -0.01811464
#
# Stress axis : x y z
#
# Youngs Moduli (GPa) = 7719.59889 169.86088 94.33228
#
# Poissons Ratio (x) = 2.06888 0.37849
# Poissons Ratio (y) = 94.02336 0.11074
# Poissons Ratio (z) = 30.97359 0.19940
#
# Static dielectric constant tensor:
#      x y z
#    x 1.827340 0.093330 0.025770 
#    y 0.093330 1.671420 -0.108570 
#    z 0.025770 -0.108570 1.834240 
# 
# From -- ./inp_files/566833.got.cif
#   From: 2010.05.17/outbox.cif.g08.bks.cpg/sg2_284_cif.got.tgz:566833.got - 2010.06.03 11:33:40.
