data_PCOD9068344
_publ_section_title
;
Structure prediction by ZEFSAII (Michael W. Deem and Ramdas Pophale) SiO2 
 PCOD9068344
Probable space group: P -1
;
_chemical_formula_sum "Si O2"
_cell_formula_units_Z 14
_cell_length_a 16.003353
_cell_length_b 6.975031
_cell_length_c 8.282724
_cell_angle_alpha 84.363146
_cell_angle_beta 54.947343
_cell_angle_gamma 122.780032
_cell_volume 511.672090
_symmetry_space_group_name_H-M "P -1"
_symmetry_group_IT_number 2
_symmetry_cell_setting 'triclinic'
loop_
_space_group_symop_operation_xyz
x,y,z
-x,-y,-z
loop_
_atom_site_type_symbol
_atom_site_label
_atom_site_fract_x
_atom_site_fract_y
_atom_site_fract_z
Si Si1 0.800877 0.377426 0.557374
Si Si2 0.938573 0.478959 0.832952
Si Si3 0.551618 0.339566 0.239642
Si Si4 0.664918 0.423206 0.455110
Si Si5 0.787002 0.996050 0.291871
Si Si6 0.834273 0.703340 0.747435
Si Si7 0.470258 0.236385 0.000727
O O1 0.754113 0.359568 0.425972
O O2 0.779431 0.557587 0.644952
O O3 0.971424 0.551358 0.370331
O O4 0.700419 0.074328 0.776417
O O5 0.849495 0.526496 0.845128
O O6 0.081932 0.777458 0.741579
O O7 0.832274 0.200017 0.081418
O O8 0.590299 0.301272 0.372404
O O9 0.526194 0.198864 0.106076
O O10 0.389677 0.213271 0.455015
O O11 0.712171 0.661306 0.982661
O O12 0.782716 0.762326 0.281365
O O13 0.539854 0.297551 0.742146
O O14 0.000000 0.000000 0.500000
O O15 0.500000 0.500000 0.000000
#
# Coordination Sequence:
#
# PCOD9068344 Si02
#       7
#     2   2   2   2   2   2   2
#     4  12  27  49  77 112 156 210 254 325 390 462
#     4  11  27  48  75 111 159 202 263 320 387 466
#     4  12  28  49  81 113 155 206 258 323 389 464
#     4  12  27  46  80 115 156 202 265 316 389 463
#     4  11  26  49  75 114 154 206 258 319 391 460
#     4  12  30  50  79 116 156 205 263 324 391 460
#     4  12  26  49  79 114 158 201 264 321 384 463
#
# _framework density 27.361274999999999
#
# number of rings (size 3 to 8) (size 9 to 14) (size 15 to 20)
#    0.000    0.286    4.286    2.143   10.000    1.714 
#    0.000    0.000    0.000    0.000    0.000    0.000 
#    0.000    0.000    0.000    0.000    0.000    0.000 
#
# Total GULP energy -78176.180267 kJ/mol
# GULP energy per Si atom -5584.012876 kJ/mol
# Density = 2.729900 g / cm^3
# Si number density = 27.361275 Si / 1000 Ang^3
#
#
#
# Elastic Constant Matrix: (Units=GPa)
#
#
# Indices 1 2 3 4 5 6 
#
# 1 123.7593 16.6363 48.2770 -1.1129 20.7336 17.1891
# 2 16.6363 83.4467 56.1534 -15.3501 20.8112 -5.4778
# 3 48.2770 56.1534 212.3650 -8.4850 3.0481 2.2426
# 4 -1.1129 -15.3501 -8.4850 49.7783 -1.8356 16.7338
# 5 20.7336 20.8112 3.0481 -1.8356 50.4099 2.6259
# 6 17.1891 -5.4778 2.2426 16.7338 2.6259 47.3456
#
#
#
# Elastic Compliance Matrix: (Units=1/GPa)
#
#
# Indices 1 2 3 4 5 6 
#
# 1 0.010090 0.000470 -0.002280 0.001065 -0.003977 -0.003657
# 2 0.000470 0.017465 -0.004474 0.004028 -0.007040 0.001029
# 3 -0.002280 -0.004474 0.006366 -0.000244 0.002393 -0.000038
# 4 0.001065 0.004028 -0.000244 0.024104 -0.000772 -0.008385
# 5 -0.003977 -0.007040 0.002393 -0.000772 0.024236 -0.000555
# 6 -0.003657 0.001029 -0.000038 -0.008385 -0.000555 0.025564
#
#
# Mechanical properties :
#
#
# Convention : Reuss Voigt Hill
#
# Bulk Modulus (GPa) = 46.82896 73.52272 60.17584
# Shear Modulus (GPa) = 39.21275 49.40706 44.30990
#
# Velocity S-wave (km/s) = 3.78980 4.25400 4.02859
# Velocity P-wave (km/s) = 6.02514 7.14549 6.60910
#
# Compressibility (1/GPa) = 0.02135431
#
# Stress axis : x y z
#
# Youngs Moduli (GPa) = 99.10739 57.25850 157.07470
#
# Poissons Ratio (x) = -0.02693 0.35811
# Poissons Ratio (y) = -0.04660 0.70271
# Poissons Ratio (z) = 0.22595 0.25616
#
# Static dielectric constant tensor:
#      x y z
#    x 2.212340 0.009660 -0.067060 
#    y 0.009660 2.236460 0.031260 
#    z -0.067060 0.031260 2.188030 
# 
# From -- ./inp_files/328852.got.cif
#   From: 2010.05.17/outbox.cif.g08.bks.cpg/sg2_165_cif.got.tgz:328852.got - 2010.06.03 11:33:40.
