data_PCOD9068353
_publ_section_title
;
Structure prediction by ZEFSAII (Michael W. Deem and Ramdas Pophale) SiO2 
 PCOD9068353
Probable space group: P -1
;
_chemical_formula_sum "Si O2"
_cell_formula_units_Z 10
_cell_length_a 11.736200
_cell_length_b 7.851185
_cell_length_c 11.420974
_cell_angle_alpha 52.367389
_cell_angle_beta 51.213929
_cell_angle_gamma 94.225840
_cell_volume 437.685171
_symmetry_space_group_name_H-M "P -1"
_symmetry_group_IT_number 2
_symmetry_cell_setting 'triclinic'
loop_
_space_group_symop_operation_xyz
x,y,z
-x,-y,-z
loop_
_atom_site_type_symbol
_atom_site_label
_atom_site_fract_x
_atom_site_fract_y
_atom_site_fract_z
Si Si1 0.930177 0.261677 0.377713
Si Si2 0.169926 0.121079 0.171076
Si Si3 0.426031 0.447071 0.436278
Si Si4 0.735329 0.140701 0.325569
Si Si5 0.040969 0.243685 0.781060
O O1 0.732950 0.087926 0.487506
O O2 0.039010 0.609214 0.191727
O O3 0.092770 0.268459 0.207772
O O4 0.851612 0.065127 0.629765
O O5 0.399279 0.373628 0.853543
O O6 0.028766 0.894164 0.246159
O O7 0.500000 0.500000 0.500000
O O8 0.300672 0.534663 0.482727
O O9 0.275002 0.084817 0.648725
O O10 0.500000 0.000000 0.500000
O O11 0.000000 0.500000 0.000000
O O12 0.000000 0.000000 0.000000
#
# Coordination Sequence:
#
# PCOD9068353 Si02
#       5
#     2   2   2   2   2
#     4  11  26  49  76 111 158 211 259 332 403 478
#     4  11  26  50  73 112 160 206 266 325 405 480
#     4  12  25  45  75 111 154 205 267 333 391 480
#     4  12  26  47  77 115 156 208 271 330 396 479
#     4  12  24  46  75 110 154 203 268 329 397 477
#
# _framework density 22.847473000000001
#
# number of rings (size 3 to 8) (size 9 to 14) (size 15 to 20)
#    0.000    0.400    4.000    4.200    0.000    1.600 
#    7.200    0.000    0.000    0.000    0.000    0.000 
#    0.000    0.000    0.000    0.000    0.000    0.000 
#
# Total GULP energy -55685.502033 kJ/mol
# GULP energy per Si atom -5568.550203 kJ/mol
# Density = 2.279547 g / cm^3
# Si number density = 22.847473 Si / 1000 Ang^3
#
#
#
# Elastic Constant Matrix: (Units=GPa)
#
#
# Indices 1 2 3 4 5 6 
#
# 1 158.0959 67.7701 73.4866 11.3715 20.4273 12.5112
# 2 67.7701 189.7008 63.6488 14.4475 21.3877 2.8918
# 3 73.4866 63.6488 137.5714 23.3448 13.5981 3.3194
# 4 11.3715 14.4475 23.3448 36.6145 6.6161 1.3014
# 5 20.4273 21.3877 13.5981 6.6161 39.1556 5.6611
# 6 12.5112 2.8918 3.3194 1.3014 5.6611 44.6819
#
#
#
# Elastic Compliance Matrix: (Units=1/GPa)
#
#
# Indices 1 2 3 4 5 6 
#
# 1 0.009359 -0.001751 -0.004054 0.000869 -0.002386 -0.001929
# 2 -0.001751 0.006817 -0.001927 -0.000552 -0.002116 0.000476
# 3 -0.004054 -0.001927 0.011178 -0.005140 0.000072 0.000570
# 4 0.000869 -0.000552 -0.005140 0.031197 -0.003598 -0.000279
# 5 -0.002386 -0.002116 0.000072 -0.003598 0.028922 -0.002760
# 6 -0.001929 0.000476 0.000570 -0.000279 -0.002760 0.023205
#
#
# Mechanical properties :
#
#
# Convention : Reuss Voigt Hill
#
# Bulk Modulus (GPa) = 84.11393 99.46433 91.78913
# Shear Modulus (GPa) = 38.43052 42.78792 40.60922
#
# Velocity S-wave (km/s) = 4.10573 4.33224 4.22050
# Velocity P-wave (km/s) = 7.70528 8.28571 8.00076
#
# Compressibility (1/GPa) = 0.01188864
#
# Stress axis : x y z
#
# Youngs Moduli (GPa) = 106.85210 146.69195 89.46404
#
# Poissons Ratio (x) = 0.25684 0.36270
# Poissons Ratio (y) = 0.18709 0.17243
# Poissons Ratio (z) = 0.43319 0.28273
#
# Static dielectric constant tensor:
#      x y z
#    x 1.916480 -0.044210 -0.054280 
#    y -0.044210 1.853730 0.014780 
#    z -0.054280 0.014780 2.027890 
# 
# From -- ./inp_files/416273.got.cif
#   From: 2010.05.17/outbox.cif.g08.bks.cpg/sg2_209_cif.got.tgz:416273.got - 2010.06.03 11:33:40.
