data_PCOD9068896
_publ_section_title
;
Structure prediction by ZEFSAII (Michael W. Deem and Ramdas Pophale) SiO2 
 PCOD9068896
Probable space group: P -1
;
_chemical_formula_sum "Si O2"
_cell_formula_units_Z 14
_cell_length_a 9.690617
_cell_length_b 23.744806
_cell_length_c 8.003120
_cell_angle_alpha 57.121076
_cell_angle_beta 132.623814
_cell_angle_gamma 152.771175
_cell_volume 610.301978
_symmetry_space_group_name_H-M "P -1"
_symmetry_group_IT_number 2
_symmetry_cell_setting 'triclinic'
loop_
_space_group_symop_operation_xyz
x,y,z
-x,-y,-z
loop_
_atom_site_type_symbol
_atom_site_label
_atom_site_fract_x
_atom_site_fract_y
_atom_site_fract_z
Si Si1 0.214899 0.921442 0.745301
Si Si2 0.447145 0.907546 0.550001
Si Si3 0.240270 0.287367 0.878625
Si Si4 0.032796 0.730598 0.965300
Si Si5 0.503074 0.219383 0.175016
Si Si6 0.348394 0.151057 0.532247
Si Si7 0.760488 0.549298 0.773677
O O1 0.825708 0.829258 0.611826
O O2 0.372045 0.025355 0.588916
O O3 0.165033 0.830337 0.791603
O O4 0.500000 0.000000 0.000000
O O5 0.606562 0.889503 0.796391
O O6 0.042780 0.773822 0.390895
O O7 0.500000 0.000000 0.500000
O O8 0.605028 0.432403 0.900395
O O9 0.119504 0.279156 0.975679
O O10 0.260779 0.212719 0.989866
O O11 0.369268 0.789253 0.201366
O O12 0.779930 0.606427 0.854130
O O13 0.543462 0.217021 0.409325
O O14 0.855278 0.341730 0.166872
O O15 0.000000 0.000000 0.500000
O O16 0.500000 0.500000 0.500000
#
# Coordination Sequence:
#
# PCOD9068896 Si02
#       7
#     2   2   2   2   2   2   2
#     4  12  21  40  70 107 141 179 230 287 355 425
#     4  12  25  42  70 106 144 181 225 288 365 419
#     4  12  25  48  72  99 140 189 241 291 345 423
#     4  12  25  45  73 104 138 192 237 290 353 421
#     4  12  24  47  70 102 141 181 235 292 351 416
#     4  12  21  42  72 102 143 179 229 285 349 427
#     4  12  27  51  70  98 144 190 243 299 350 411
#
# _framework density 22.939463
#
# number of rings (size 3 to 8) (size 9 to 14) (size 15 to 20)
#    0.000    0.000    8.571    1.714    0.000    1.714 
#    2.571    1.429    0.000    0.000    0.000    0.000 
#    0.000    0.000    0.000    0.000    0.000    0.000 
#
# Total GULP energy -78081.295904 kJ/mol
# GULP energy per Si atom -5577.235422 kJ/mol
# Density = 2.288725 g / cm^3
# Si number density = 22.939463 Si / 1000 Ang^3
#
#
#
# Elastic Constant Matrix: (Units=GPa)
#
#
# Indices 1 2 3 4 5 6 
#
# 1 118.4737 33.3506 52.1060 8.3297 23.0169 -11.8259
# 2 33.3506 116.4731 31.4074 -19.0053 3.0535 -9.0390
# 3 52.1060 31.4074 98.6154 -5.2631 31.2803 -12.1347
# 4 8.3297 -19.0053 -5.2631 32.4016 -8.7941 1.5168
# 5 23.0169 3.0535 31.2803 -8.7941 35.9396 -9.3562
# 6 -11.8259 -9.0390 -12.1347 1.5168 -9.3562 46.0755
#
#
#
# Elastic Compliance Matrix: (Units=1/GPa)
#
#
# Indices 1 2 3 4 5 6 
#
# 1 0.013151 -0.003759 -0.004097 -0.008001 -0.006357 0.000532
# 2 -0.003759 0.012033 -0.003378 0.009306 0.007026 0.001627
# 3 -0.004097 -0.003378 0.017280 -0.001504 -0.012401 0.000368
# 4 -0.008001 0.009306 -0.001504 0.042520 0.016386 0.001304
# 5 -0.006357 0.007026 -0.012401 0.016386 0.047559 0.005599
# 6 0.000532 0.001627 0.000368 0.001304 0.005599 0.023350
#
#
# Mechanical properties :
#
#
# Convention : Reuss Voigt Hill
#
# Bulk Modulus (GPa) = 50.00838 63.03223 56.52031
# Shear Modulus (GPa) = 27.02317 37.32989 32.17653
#
# Velocity S-wave (km/s) = 3.43595 4.03838 3.74929
# Velocity P-wave (km/s) = 6.13095 7.02012 6.59054
#
# Compressibility (1/GPa) = 0.01999665
#
# Stress axis : x y z
#
# Youngs Moduli (GPa) = 76.03849 83.10191 57.87185
#
# Poissons Ratio (x) = 0.31234 0.23711
# Poissons Ratio (y) = 0.28579 0.19550
# Poissons Ratio (z) = 0.31154 0.28073
#
# Static dielectric constant tensor:
#      x y z
#    x 2.222080 0.016750 -0.023380 
#    y 0.016750 1.829340 -0.039120 
#    z -0.023380 -0.039120 1.819930 
# 
# From -- ./inp_files/223520.got.cif
#   From: 2010.05.17/outbox.cif.g08.bks.cpg/sg2_112_cif.got.tgz:223520.got - 2010.06.03 11:33:40.
