data_PCOD9068681
_publ_section_title
;
Structure prediction by ZEFSAII (Michael W. Deem and Ramdas Pophale) SiO2 
 PCOD9068681
Probable space group: P -1
;
_chemical_formula_sum "Si O2"
_cell_formula_units_Z 12
_cell_length_a 16.041042
_cell_length_b 9.697360
_cell_length_c 7.742891
_cell_angle_alpha 31.862320
_cell_angle_beta 118.621611
_cell_angle_gamma 133.856661
_cell_volume 439.108125
_symmetry_space_group_name_H-M "P -1"
_symmetry_group_IT_number 2
_symmetry_cell_setting 'triclinic'
loop_
_space_group_symop_operation_xyz
x,y,z
-x,-y,-z
loop_
_atom_site_type_symbol
_atom_site_label
_atom_site_fract_x
_atom_site_fract_y
_atom_site_fract_z
Si Si1 0.784574 0.563295 0.199773
Si Si2 0.228932 0.391716 0.485091
Si Si3 0.019971 0.415643 0.802903
Si Si4 0.490993 0.719502 0.389762
Si Si5 0.832096 0.132398 0.212875
Si Si6 0.367294 0.179901 0.261648
O O1 0.840444 0.684553 0.316924
O O2 0.888502 0.662010 0.063533
O O3 0.693827 0.159337 0.543433
O O4 0.720139 0.722694 0.920274
O O5 0.359125 0.515731 0.563814
O O6 0.213532 0.663035 0.107935
O O7 0.246826 0.258779 0.462065
O O8 0.000000 0.500000 0.500000
O O9 0.902928 0.145109 0.091671
O O10 0.087619 0.704308 0.710861
O O11 0.500000 0.500000 0.500000
O O12 0.602944 0.887914 0.450672
O O13 0.500000 0.000000 0.000000
O O14 0.500000 0.500000 0.000000
#
# Coordination Sequence:
#
# PCOD9068681 Si02
#       6
#     2   2   2   2   2   2
#     4  12  27  46  79 109 149 199 257 315 371 450
#     4  12  26  50  74 110 151 196 249 307 384 443
#     4  11  27  52  77 112 147 198 255 310 384 452
#     4  12  28  45  73 109 155 199 247 306 376 448
#     4  11  28  50  76 110 153 193 247 321 375 452
#     4  12  27  48  73 111 150 200 253 305 370 451
#
# _framework density 27.328122
#
# number of rings (size 3 to 8) (size 9 to 14) (size 15 to 20)
#    0.000    0.333    3.333    3.500    9.333    4.667 
#    0.000    0.000    0.000    0.000    0.000    0.000 
#    0.000    0.000    0.000    0.000    0.000    0.000 
#
# Total GULP energy -67066.319858 kJ/mol
# GULP energy per Si atom -5588.859988 kJ/mol
# Density = 2.726592 g / cm^3
# Si number density = 27.328122 Si / 1000 Ang^3
#
#
#
# Elastic Constant Matrix: (Units=GPa)
#
#
# Indices 1 2 3 4 5 6 
#
# 1 221.6958 78.2982 162.1606 -46.0255 -7.9153 6.6838
# 2 78.2982 207.7111 105.1108 -14.1835 39.4297 -26.0603
# 3 162.1606 105.1108 300.5723 -46.7277 34.7789 27.3178
# 4 -46.0255 -14.1835 -46.7277 79.0442 -8.6959 -9.3960
# 5 -7.9153 39.4297 34.7789 -8.6959 55.8058 -6.2240
# 6 6.6838 -26.0603 27.3178 -9.3960 -6.2240 58.3111
#
#
#
# Elastic Compliance Matrix: (Units=1/GPa)
#
#
# Indices 1 2 3 4 5 6 
#
# 1 0.009661 -0.001981 -0.004903 0.003269 0.006505 0.001525
# 2 -0.001981 0.007590 -0.001533 -0.000734 -0.004384 0.003751
# 3 -0.004903 -0.001533 0.007463 0.000284 -0.004673 -0.004073
# 4 0.003269 -0.000734 0.000284 0.015199 0.003394 0.001975
# 5 0.006505 -0.004384 -0.004673 0.003394 0.025690 0.002773
# 6 0.001525 0.003751 -0.004073 0.001975 0.002773 0.021173
#
#
# Mechanical properties :
#
#
# Convention : Reuss Voigt Hill
#
# Bulk Modulus (GPa) = 126.89832 157.90203 142.40017
# Shear Modulus (GPa) = 47.06447 64.25953 55.66200
#
# Velocity S-wave (km/s) = 4.15444 4.85439 4.51799
# Velocity P-wave (km/s) = 8.33957 9.45122 8.91274
#
# Compressibility (1/GPa) = 0.00788033
#
# Stress axis : x y z
#
# Youngs Moduli (GPa) = 103.50480 131.75672 133.99242
#
# Poissons Ratio (x) = 0.26105 0.65692
# Poissons Ratio (y) = 0.20507 0.20541
# Poissons Ratio (z) = 0.50745 0.20199
#
# Static dielectric constant tensor:
#      x y z
#    x 2.409770 0.061520 -0.193820 
#    y 0.061520 1.754940 0.283810 
#    z -0.193820 0.283810 2.017100 
# 
# From -- ./inp_files/297226.got.cif
#   From: 2010.05.17/outbox.cif.g08.bks.cpg/sg2_149_cif.got.tgz:297226.got - 2010.06.03 11:33:40.
