data_PCOD9068428
_publ_section_title
;
Structure prediction by ZEFSAII (Michael W. Deem and Ramdas Pophale) SiO2 
 PCOD9068428
Probable space group: P -1
;
_chemical_formula_sum "Si O2"
_cell_formula_units_Z 11
_cell_length_a 10.789323
_cell_length_b 14.137789
_cell_length_c 5.169785
_cell_angle_alpha 63.117745
_cell_angle_beta 106.616383
_cell_angle_gamma 139.352142
_cell_volume 455.961548
_symmetry_space_group_name_H-M "P -1"
_symmetry_group_IT_number 2
_symmetry_cell_setting 'triclinic'
loop_
_space_group_symop_operation_xyz
x,y,z
-x,-y,-z
loop_
_atom_site_type_symbol
_atom_site_label
_atom_site_fract_x
_atom_site_fract_y
_atom_site_fract_z
Si Si1 0.232992 0.451951 0.277703
Si Si2 0.197595 0.564921 0.619563
Si Si3 0.615420 0.103231 0.693207
Si Si4 0.500000 0.500000 0.000000
Si Si5 0.927472 0.129978 0.713585
Si Si6 0.827719 0.863187 0.760103
O O1 0.246677 0.502082 0.518815
O O2 0.421953 0.516352 0.189671
O O3 0.057346 0.263044 0.407514
O O4 0.182266 0.512103 0.965883
O O5 0.348156 0.750119 0.465592
O O6 0.000000 0.500000 0.500000
O O7 0.812165 0.155495 0.743224
O O8 0.500000 0.000000 0.500000
O O9 0.500000 0.000000 0.000000
O O10 0.357551 0.311502 0.224254
O O11 0.785526 0.951844 0.755181
O O12 0.075317 0.159299 0.951303
O O13 0.000000 0.000000 0.500000
#
# Coordination Sequence:
#
# PCOD9068428 Si02
#       6
#     2   2   2   1   2   2
#     4  12  27  49  79 113 154 207 262 331 385 478
#     4  12  27  48  79 109 152 206 264 312 399 469
#     4  12  30  48  77 116 157 206 260 329 393 476
#     4  12  28  46  82 114 156 202 278 314 406 454
#     4  11  27  50  75 105 162 204 261 319 416 450
#     4  11  26  50  77 111 152 211 255 336 381 474
#
# _framework density 24.124842999999998
#
# number of rings (size 3 to 8) (size 9 to 14) (size 15 to 20)
#    0.000    0.364    3.636    2.727   10.182    2.909 
#    0.000    0.000    0.000    0.000    0.000    0.000 
#    0.000    0.000    0.000    0.000    0.000    0.000 
#
# Total GULP energy -61364.923470 kJ/mol
# GULP energy per Si atom -5578.629406 kJ/mol
# Density = 2.406993 g / cm^3
# Si number density = 24.124843 Si / 1000 Ang^3
#
#
#
# Elastic Constant Matrix: (Units=GPa)
#
#
# Indices 1 2 3 4 5 6 
#
# 1 101.0331 9.3837 3.5667 -18.6619 -22.9862 -6.1480
# 2 9.3837 121.9609 40.8622 -30.4019 7.3076 -22.5168
# 3 3.5667 40.8622 165.8917 -40.0305 -6.9963 7.0113
# 4 -18.6619 -30.4019 -40.0305 48.5382 -4.7582 10.0714
# 5 -22.9862 7.3076 -6.9963 -4.7582 46.9099 -5.1581
# 6 -6.1480 -22.5168 7.0113 10.0714 -5.1581 39.0088
#
#
#
# Elastic Compliance Matrix: (Units=1/GPa)
#
#
# Indices 1 2 3 4 5 6 
#
# 1 0.012819 -0.000139 0.001660 0.006749 0.007331 0.000869
# 2 -0.000139 0.010940 -0.002037 0.003869 -0.001077 0.005518
# 3 0.001660 -0.002037 0.008608 0.007571 0.002736 -0.004054
# 4 0.006749 0.003869 0.007571 0.033736 0.006607 -0.005901
# 5 0.007331 -0.001077 0.002736 0.006607 0.026356 0.001821
# 6 0.000869 0.005518 -0.004054 -0.005901 0.001821 0.031450
#
#
# Mechanical properties :
#
#
# Convention : Reuss Voigt Hill
#
# Bulk Modulus (GPa) = 31.91351 55.16786 43.54068
# Shear Modulus (GPa) = 36.93138 49.22957 43.08047
#
# Velocity S-wave (km/s) = 3.91685 4.52222 4.23038
# Velocity P-wave (km/s) = 5.80627 7.08411 6.47678
#
# Compressibility (1/GPa) = 0.03133469
#
# Stress axis : x y z
#
# Youngs Moduli (GPa) = 78.00704 91.40703 116.17567
#
# Poissons Ratio (x) = 0.01269 -0.19280
# Poissons Ratio (y) = 0.01083 0.23664
# Poissons Ratio (z) = -0.12946 0.18619
#
# Static dielectric constant tensor:
#      x y z
#    x 1.959240 0.024670 0.032480 
#    y 0.024670 2.019120 0.018490 
#    z 0.032480 0.018490 1.868560 
# 
# From -- ./inp_files/63545.got.cif
#   From: 2010.05.17/outbox.cif.g08.bks.cpg/sg2_32_cif.got.tgz:63545.got - 2010.06.03 11:33:40.
