data_PCOD9068744
_publ_section_title
;
Structure prediction by ZEFSAII (Michael W. Deem and Ramdas Pophale) SiO2 
 PCOD9068744
Probable space group: P -1
;
_chemical_formula_sum "Si O2"
_cell_formula_units_Z 14
_cell_length_a 9.725090
_cell_length_b 14.107615
_cell_length_c 4.852202
_cell_angle_alpha 88.093365
_cell_angle_beta 70.131432
_cell_angle_gamma 118.371686
_cell_volume 535.405220
_symmetry_space_group_name_H-M "P -1"
_symmetry_group_IT_number 2
_symmetry_cell_setting 'triclinic'
loop_
_space_group_symop_operation_xyz
x,y,z
-x,-y,-z
loop_
_atom_site_type_symbol
_atom_site_label
_atom_site_fract_x
_atom_site_fract_y
_atom_site_fract_z
Si Si1 0.345897 0.413042 0.919165
Si Si2 0.621561 0.277017 0.830067
Si Si3 0.260722 0.098995 0.839281
Si Si4 0.853114 0.496923 0.287745
Si Si5 0.634058 0.707211 0.619693
Si Si6 0.965820 0.137098 0.181362
Si Si7 0.060513 0.735533 0.304321
O O1 0.603035 0.634578 0.373269
O O2 0.462728 0.685387 0.884830
O O3 0.500000 0.500000 0.000000
O O4 0.263288 0.316375 0.214319
O O5 0.452186 0.172639 0.821852
O O6 0.734096 0.380642 0.536226
O O7 0.751648 0.245589 0.873719
O O8 0.270884 0.166926 0.553015
O O9 0.197088 0.974009 0.819517
O O10 0.081746 0.818317 0.524514
O O11 0.751591 0.532983 0.150954
O O12 0.943861 0.601391 0.428297
O O13 0.000000 0.500000 0.000000
O O14 0.889596 0.896493 0.892275
O O15 0.012375 0.231376 0.909940
#
# Coordination Sequence:
#
# PCOD9068744 Si02
#       7
#     2   2   2   2   2   2   2
#     4  12  29  50  79 116 160 214 272 337 397 492
#     4  12  30  52  84 123 164 223 270 341 407 501
#     4  11  28  54  89 118 164 209 281 342 413 476
#     4  12  31  55  83 119 173 221 268 338 414 491
#     4  12  28  48  81 121 161 202 280 338 402 478
#     4  11  30  55  85 121 161 216 272 348 408 488
#     4  12  30  55  79 118 170 216 273 332 417 488
#
# _framework density 26.148419000000001
#
# number of rings (size 3 to 8) (size 9 to 14) (size 15 to 20)
#    0.000    0.286    1.429    3.429   14.000    4.571 
#    2.571    0.000    0.000    0.000    0.000    0.000 
#    0.000    0.000    0.000    0.000    0.000    0.000 
#
# Total GULP energy -78501.390642 kJ/mol
# GULP energy per Si atom -5607.242189 kJ/mol
# Density = 2.608890 g / cm^3
# Si number density = 26.148419 Si / 1000 Ang^3
#
#
#
# Elastic Constant Matrix: (Units=GPa)
#
#
# Indices 1 2 3 4 5 6 
#
# 1 154.8848 42.4068 15.5809 14.7469 -11.7244 3.5875
# 2 42.4068 180.7364 39.8793 19.0305 -25.6225 12.6801
# 3 15.5809 39.8793 118.2746 27.3911 -7.5488 -4.0028
# 4 14.7469 19.0305 27.3911 52.1231 3.1509 -7.1466
# 5 -11.7244 -25.6225 -7.5488 3.1509 50.4841 6.5845
# 6 3.5875 12.6801 -4.0028 -7.1466 6.5845 46.9256
#
#
#
# Elastic Compliance Matrix: (Units=1/GPa)
#
#
# Indices 1 2 3 4 5 6 
#
# 1 0.007070 -0.001258 -0.000068 -0.001662 0.001178 -0.000625
# 2 -0.001258 0.007092 -0.001638 -0.001965 0.003545 -0.002757
# 3 -0.000068 -0.001638 0.010184 -0.004725 0.000910 0.000469
# 4 -0.001662 -0.001965 -0.004725 0.023717 -0.004151 0.004450
# 5 0.001178 0.003545 0.000910 -0.004151 0.022904 -0.004816
# 6 -0.000625 -0.002757 0.000469 0.004450 -0.004816 0.023497
#
#
# Mechanical properties :
#
#
# Convention : Reuss Voigt Hill
#
# Bulk Modulus (GPa) = 54.29187 72.18108 63.23648
# Shear Modulus (GPa) = 46.93465 53.64181 50.28823
#
# Velocity S-wave (km/s) = 4.24126 4.53419 4.39017
# Velocity P-wave (km/s) = 6.69271 7.42133 7.06642
#
# Compressibility (1/GPa) = 0.01841896
#
# Stress axis : x y z
#
# Youngs Moduli (GPa) = 141.45108 140.99928 98.19015
#
# Poissons Ratio (x) = 0.17735 0.00670
# Poissons Ratio (y) = 0.17792 0.16079
# Poissons Ratio (z) = 0.00965 0.23089
#
# Static dielectric constant tensor:
#      x y z
#    x 2.090150 0.081620 -0.027650 
#    y 0.081620 2.108510 -0.031780 
#    z -0.027650 -0.031780 2.110240 
# 
# From -- ./inp_files/73981.got.cif
#   From: 2010.05.17/outbox.cif.g08.bks.cpg/sg2_37_cif.got.tgz:73981.got - 2010.06.03 11:33:40.
