data_PCOD9068134
_publ_section_title
;
Structure prediction by ZEFSAII (Michael W. Deem and Ramdas Pophale) SiO2 
 PCOD9068134
Probable space group: P -1
;
_chemical_formula_sum "Si O2"
_cell_formula_units_Z 16
_cell_length_a 14.182073
_cell_length_b 11.102316
_cell_length_c 8.777970
_cell_angle_alpha 79.626094
_cell_angle_beta 110.801000
_cell_angle_gamma 148.623891
_cell_volume 650.824963
_symmetry_space_group_name_H-M "P -1"
_symmetry_group_IT_number 2
_symmetry_cell_setting 'triclinic'
loop_
_space_group_symop_operation_xyz
x,y,z
-x,-y,-z
loop_
_atom_site_type_symbol
_atom_site_label
_atom_site_fract_x
_atom_site_fract_y
_atom_site_fract_z
Si Si1 0.264028 0.404467 0.305993
Si Si2 0.086385 0.860027 0.660978
Si Si3 0.576735 0.600734 0.191363
Si Si4 0.253919 0.432287 0.000567
Si Si5 0.415874 0.801791 0.821473
Si Si6 0.828449 0.300523 0.073282
Si Si7 0.494021 0.722641 0.615988
Si Si8 0.123183 0.977477 0.318995
O O1 0.159081 0.378304 0.113538
O O2 0.468131 0.674017 0.431322
O O3 0.131290 0.325640 0.384709
O O4 0.212868 0.205248 0.351103
O O5 0.139513 0.791388 0.794335
O O6 0.096918 0.873659 0.481004
O O7 0.234625 0.120038 0.746875
O O8 0.384991 0.475362 0.173396
O O9 0.592687 0.489306 0.306352
O O10 0.500000 0.500000 0.000000
O O11 0.414204 0.674540 0.947601
O O12 0.083997 0.213308 0.841985
O O13 0.221902 0.658101 0.823518
O O14 0.420922 0.764845 0.657234
O O15 0.617965 0.081068 0.913046
O O16 0.000000 0.500000 0.000000
O O17 0.730317 0.947151 0.722393
#
# Coordination Sequence:
#
# PCOD9068134 Si02
#       8
#     2   2   2   2   2   2   2   2
#     4  12  25  41  68 109 155 200 237 289 364 446
#     4  12  25  45  70 103 144 195 245 301 367 432
#     4  12  22  39  69 102 149 192 233 295 370 440
#     4  12  24  41  71 104 145 195 248 291 357 440
#     4  11  26  47  78 107 145 188 248 311 363 435
#     4  11  26  52  81 106 138 194 254 311 369 425
#     4  12  25  44  68 112 155 191 238 298 364 445
#     4  12  26  41  69 109 157 196 238 293 368 443
#
# _framework density 24.584185000000002
#
# number of rings (size 3 to 8) (size 9 to 14) (size 15 to 20)
#    0.000    0.250    5.000    4.125    5.250    0.000 
#    0.000    3.125    0.000    0.000    0.000    0.000 
#    0.000    0.000    0.000    0.000    0.000    0.000 
#
# Total GULP energy -89221.934323 kJ/mol
# GULP energy per Si atom -5576.370895 kJ/mol
# Density = 2.452823 g / cm^3
# Si number density = 24.584185 Si / 1000 Ang^3
#
#
#
# Elastic Constant Matrix: (Units=GPa)
#
#
# Indices 1 2 3 4 5 6 
#
# 1 97.9338 6.1444 21.0112 1.7282 -29.9981 13.5446
# 2 6.1444 67.0939 21.7642 -1.9093 -15.2790 14.5803
# 3 21.0112 21.7642 135.8615 2.0306 -28.8977 3.0509
# 4 1.7282 -1.9093 2.0306 38.2541 5.0211 -1.9145
# 5 -29.9981 -15.2790 -28.8977 5.0211 38.9227 -0.9643
# 6 13.5446 14.5803 3.0509 -1.9145 -0.9643 24.3294
#
#
#
# Elastic Compliance Matrix: (Units=1/GPa)
#
#
# Indices 1 2 3 4 5 6 
#
# 1 0.015733 0.003937 0.000181 -0.002891 0.013910 -0.010817
# 2 0.003937 0.020190 -0.001461 -0.001053 0.009669 -0.013808
# 3 0.000181 -0.001461 0.008951 -0.001405 0.006388 -0.000205
# 4 -0.002891 -0.001053 -0.001405 0.027443 -0.007118 0.004294
# 5 0.013910 0.009669 0.006388 -0.007118 0.045544 -0.013094
# 6 -0.010817 -0.013808 -0.000205 0.004294 -0.013094 0.055244
#
#
# Mechanical properties :
#
#
# Convention : Reuss Voigt Hill
#
# Bulk Modulus (GPa) = 19.92526 44.30321 32.11423
# Shear Modulus (GPa) = 27.09723 37.09920 32.09822
#
# Velocity S-wave (km/s) = 3.32357 3.88889 3.61729
# Velocity P-wave (km/s) = 4.78024 6.18261 5.52609
#
# Compressibility (1/GPa) = 0.05018755
#
# Stress axis : x y z
#
# Youngs Moduli (GPa) = 63.56057 49.52872 111.72325
#
# Poissons Ratio (x) = -0.19497 -0.02023
# Poissons Ratio (y) = -0.25021 0.16321
# Poissons Ratio (z) = -0.01151 0.07235
#
# Static dielectric constant tensor:
#      x y z
#    x 2.342550 0.093030 0.058930 
#    y 0.093030 1.962800 0.005500 
#    z 0.058930 0.005500 2.038260 
# 
# From -- ./inp_files/307399.got.cif
#   From: 2010.05.17/outbox.cif.g08.bks.cpg/sg2_154_cif.got.tgz:307399.got - 2010.06.03 11:33:40.
