data_PCOD9068512
_publ_section_title
;
Structure prediction by ZEFSAII (Michael W. Deem and Ramdas Pophale) SiO2 
 PCOD9068512
Probable space group: P -1
;
_chemical_formula_sum "Si O2"
_cell_formula_units_Z 13
_cell_length_a 9.225840
_cell_length_b 10.844226
_cell_length_c 9.644439
_cell_angle_alpha 41.061044
_cell_angle_beta 94.652131
_cell_angle_gamma 69.230041
_cell_volume 487.979549
_symmetry_space_group_name_H-M "P -1"
_symmetry_group_IT_number 2
_symmetry_cell_setting 'triclinic'
loop_
_space_group_symop_operation_xyz
x,y,z
-x,-y,-z
loop_
_atom_site_type_symbol
_atom_site_label
_atom_site_fract_x
_atom_site_fract_y
_atom_site_fract_z
Si Si1 0.167704 0.221688 0.114160
Si Si2 0.648500 0.499801 0.600077
Si Si3 0.897614 0.969828 0.139993
Si Si4 0.290707 0.240213 0.818271
Si Si5 0.500000 0.500000 0.000000
Si Si6 0.283963 0.341946 0.271353
Si Si7 0.868894 0.149493 0.497553
O O1 0.275213 0.171162 0.311212
O O2 0.170784 0.997711 0.282984
O O3 0.256032 0.265778 0.958463
O O4 0.942715 0.443023 0.914375
O O5 0.500000 0.500000 0.500000
O O6 0.749265 0.530931 0.455824
O O7 0.627267 0.695850 0.537573
O O8 0.737389 0.261759 0.905341
O O9 0.830558 0.830622 0.190366
O O10 0.995890 0.843063 0.400102
O O11 0.000000 0.000000 0.000000
O O12 0.500000 0.000000 0.000000
O O13 0.393047 0.408992 0.137980
O O14 0.664422 0.370063 0.244936
O O15 0.000000 0.000000 0.500000
#
# Coordination Sequence:
#
# PCOD9068512 Si02
#       7
#     2   2   2   2   1   2   2
#     4  11  26  53  76 118 165 209 272 347 415 487
#     4  12  27  49  78 117 163 214 276 336 410 495
#     4  12  26  50  80 116 165 210 270 347 415 489
#     4  12  28  49  84 122 165 221 277 347 420 499
#     4  12  28  46  84 112 152 226 264 332 416 490
#     4  11  27  49  79 118 157 213 276 332 412 498
#     4  12  26  51  79 116 164 210 274 344 415 492
#
# _framework density 26.640460999999998
#
# number of rings (size 3 to 8) (size 9 to 14) (size 15 to 20)
#    0.000    0.308    6.154    0.000    8.615    4.308 
#    0.000    0.000    0.000    0.000    0.000    0.000 
#    0.000    0.000    0.000    0.000    0.000    0.000 
#
# Total GULP energy -72392.109308 kJ/mol
# GULP energy per Si atom -5568.623793 kJ/mol
# Density = 2.657983 g / cm^3
# Si number density = 26.640461 Si / 1000 Ang^3
#
#
#
# Elastic Constant Matrix: (Units=GPa)
#
#
# Indices 1 2 3 4 5 6 
#
# 1 165.6729 41.5127 33.7559 16.9491 9.5300 8.2700
# 2 41.5127 93.1817 36.3855 29.6778 28.0522 30.7479
# 3 33.7559 36.3855 123.4398 17.6756 1.3167 0.8210
# 4 16.9491 29.6778 17.6756 40.8226 9.3597 13.8297
# 5 9.5300 28.0522 1.3167 9.3597 52.3525 8.6577
# 6 8.2700 30.7479 0.8210 13.8297 8.6577 43.6425
#
#
#
# Elastic Compliance Matrix: (Units=1/GPa)
#
#
# Indices 1 2 3 4 5 6 
#
# 1 0.006967 -0.002870 -0.000959 -0.000762 0.000280 0.000906
# 2 -0.002870 0.022250 -0.004555 -0.007390 -0.008130 -0.011092
# 3 -0.000959 -0.004555 0.009989 -0.002304 0.002198 0.003497
# 4 -0.000762 -0.007390 -0.002304 0.033057 -0.000944 -0.004894
# 5 0.000280 -0.008130 0.002198 -0.000944 0.023304 0.001310
# 6 0.000906 -0.011092 0.003497 -0.004894 0.001310 0.031782
#
#
# Mechanical properties :
#
#
# Convention : Reuss Voigt Hill
#
# Bulk Modulus (GPa) = 44.56600 67.28919 55.92760
# Shear Modulus (GPa) = 32.98221 45.40621 39.19421
#
# Velocity S-wave (km/s) = 3.52241 4.13293 3.83982
# Velocity P-wave (km/s) = 5.77132 6.93454 6.37950
#
# Compressibility (1/GPa) = 0.02243863
#
# Stress axis : x y z
#
# Youngs Moduli (GPa) = 143.53066 44.94335 100.10684
#
# Poissons Ratio (x) = 0.12898 0.09603
# Poissons Ratio (y) = 0.41190 0.45599
# Poissons Ratio (z) = 0.13768 0.20472
#
# Static dielectric constant tensor:
#      x y z
#    x 2.052500 -0.093420 0.126930 
#    y -0.093420 2.765530 0.011510 
#    z 0.126930 0.011510 2.201100 
# 
# From -- ./inp_files/183765.got.cif
#   From: 2010.05.17/outbox.cif.g08.bks.cpg/sg2_92_cif.got.tgz:183765.got - 2010.06.03 11:33:40.
