data_PCOD9068763
_publ_section_title
;
Structure prediction by ZEFSAII (Michael W. Deem and Ramdas Pophale) SiO2 
 PCOD9068763
Probable space group: P -1
;
_chemical_formula_sum "Si O2"
_cell_formula_units_Z 10
_cell_length_a 11.976796
_cell_length_b 7.637249
_cell_length_c 7.039351
_cell_angle_alpha 80.515745
_cell_angle_beta 97.387010
_cell_angle_gamma 139.812162
_cell_volume 409.814812
_symmetry_space_group_name_H-M "P -1"
_symmetry_group_IT_number 2
_symmetry_cell_setting 'triclinic'
loop_
_space_group_symop_operation_xyz
x,y,z
-x,-y,-z
loop_
_atom_site_type_symbol
_atom_site_label
_atom_site_fract_x
_atom_site_fract_y
_atom_site_fract_z
Si Si1 0.448674 0.101976 0.599170
Si Si2 0.751314 0.237539 0.023976
Si Si3 0.789252 0.635172 0.723560
Si Si4 0.697138 0.804268 0.967193
Si Si5 0.874773 0.118693 0.324394
O O1 0.613309 0.424701 0.603474
O O2 0.500000 0.000000 0.500000
O O3 0.274385 0.005529 0.539157
O O4 0.402979 0.962541 0.819943
O O5 0.777643 0.458906 0.903212
O O6 0.708179 0.029834 0.902349
O O7 0.904221 0.340531 0.176209
O O8 0.796441 0.814798 0.826045
O O9 0.949426 0.765676 0.605031
O O10 0.500000 0.500000 0.000000
O O11 0.786920 0.894903 0.178521
#
# Coordination Sequence:
#
# PCOD9068763 Si02
#       5
#     2   2   2   2   2
#     4   9  20  32  47  74 101 128 165 193 235 298
#     4   8  20  32  50  77  96 121 170 194 242 288
#     4  12  16  34  56  69 101 128 154 211 243 272
#     4   9  17  29  48  78 101 116 159 207 240 282
#     4   8  20  30  50  78  95 124 166 196 243 286
#
# _framework density 24.401264000000001
#
# number of rings (size 3 to 8) (size 9 to 14) (size 15 to 20)
#    2.400    0.000    4.000    1.800    0.000    0.800 
#    0.000    0.000    0.000   10.800    0.000    5.600 
#    0.000    0.000    0.000    0.000    0.000    0.000 
#
# Total GULP energy -55722.410045 kJ/mol
# GULP energy per Si atom -5572.241005 kJ/mol
# Density = 2.434573 g / cm^3
# Si number density = 24.401264 Si / 1000 Ang^3
#
#
#
# Elastic Constant Matrix: (Units=GPa)
#
#
# Indices 1 2 3 4 5 6 
#
# 1 152.1644 46.5061 64.4589 -21.1090 -54.9409 2.3066
# 2 46.5061 46.9973 20.4749 -3.7224 -7.0984 -2.6240
# 3 64.4589 20.4749 63.6369 0.5100 -32.5329 -10.0165
# 4 -21.1090 -3.7224 0.5100 13.2053 -23.7192 -11.9485
# 5 -54.9409 -7.0984 -32.5329 -23.7192 62.8100 -11.9108
# 6 2.3066 -2.6240 -10.0165 -11.9485 -11.9108 59.4090
#
#
#
# Elastic Compliance Matrix: (Units=1/GPa)
#
#
# Indices 1 2 3 4 5 6 
#
# 1 0.005317 -0.004438 -0.011579 -0.023064 -0.012354 -0.009470
# 2 -0.004438 0.028457 -0.001547 0.014067 0.004785 0.004957
# 3 -0.011579 -0.001547 0.031965 -0.003988 0.005914 0.006154
# 4 -0.023064 0.014067 -0.003988 -0.044127 -0.040372 -0.016125
# 5 -0.012354 0.004785 0.005914 -0.040372 -0.008052 -0.008046
# 6 -0.009470 0.004957 0.006154 -0.016125 -0.008046 0.013601
#
#
# Mechanical properties :
#
#
# Convention : Reuss Voigt Hill
#
# Bulk Modulus (GPa) = 32.66816 58.40869 45.53843
# Shear Modulus (GPa) = 68.97463 35.84208 52.40836
#
# Velocity S-wave (km/s) = 5.32242 3.83673 4.63943
# Velocity P-wave (km/s) = 7.15457 6.60425 6.88491
#
# Compressibility (1/GPa) = 0.03061085
#
# Stress axis : x y z
#
# Youngs Moduli (GPa) = 188.08807 35.14060 31.28468
#
# Poissons Ratio (x) = 0.15596 0.36224
# Poissons Ratio (y) = 0.83475 0.04839
# Poissons Ratio (z) = 2.17784 0.05435
#
# Static dielectric constant tensor:
#      x y z
#    x 2.008910 0.085180 0.029860 
#    y 0.085180 1.996840 -0.061910 
#    z 0.029860 -0.061910 1.955830 
# 
# From -- ./inp_files/146581.got.cif
#   From: 2010.05.17/outbox.cif.g08.bks.cpg/sg2_74_cif.got.tgz:146581.got - 2010.06.03 11:33:40.
