data_PCOD9068173
_publ_section_title
;
Structure prediction by ZEFSAII (Michael W. Deem and Ramdas Pophale) SiO2 
 PCOD9068173
Probable space group: P -1
;
_chemical_formula_sum "Si O2"
_cell_formula_units_Z 14
_cell_length_a 9.360367
_cell_length_b 15.265468
_cell_length_c 16.228051
_cell_angle_alpha 27.151013
_cell_angle_beta 133.417249
_cell_angle_gamma 114.205480
_cell_volume 610.189119
_symmetry_space_group_name_H-M "P -1"
_symmetry_group_IT_number 2
_symmetry_cell_setting 'triclinic'
loop_
_space_group_symop_operation_xyz
x,y,z
-x,-y,-z
loop_
_atom_site_type_symbol
_atom_site_label
_atom_site_fract_x
_atom_site_fract_y
_atom_site_fract_z
Si Si1 0.030119 0.633593 0.644925
Si Si2 0.257488 0.909789 0.509714
Si Si3 0.877832 0.757520 0.117940
Si Si4 0.424009 0.550991 0.522424
Si Si5 0.519680 0.914143 0.449315
Si Si6 0.129685 0.531785 0.141381
Si Si7 0.495765 0.098829 0.005251
O O1 0.049570 0.482320 0.857825
O O2 0.055447 0.487201 0.694958
O O3 0.753216 0.885636 0.326782
O O4 0.203773 0.716433 0.649993
O O5 0.399707 0.916218 0.638725
O O6 0.414898 0.872507 0.523058
O O7 0.007956 0.188970 0.169489
O O8 0.126467 0.732668 0.250708
O O9 0.730321 0.821005 0.091585
O O10 0.694259 0.959092 0.809737
O O11 0.500000 0.500000 0.500000
O O12 0.620029 0.581142 0.612317
O O13 0.478234 0.331452 0.782006
O O14 0.762880 0.658255 0.730510
O O15 0.500000 0.000000 0.000000
#
# Coordination Sequence:
#
# PCOD9068173 Si02
#       7
#     2   2   2   2   2   2   2
#     4  12  25  45  73 102 146 183 235 294 351 424
#     4  11  26  48  74 101 140 190 235 297 350 411
#     4  12  26  46  70 110 146 185 236 290 358 423
#     4  12  24  44  72 102 145 185 229 293 354 420
#     4  11  26  48  71 105 140 183 243 290 354 419
#     4  12  24  48  70 106 139 185 239 288 352 425
#     4  12  25  45  68 106 145 187 240 283 352 427
#
# _framework density 22.943707
#
# number of rings (size 3 to 8) (size 9 to 14) (size 15 to 20)
#    0.000    0.286    7.143    0.857    2.000    1.714 
#    0.000    0.000    0.000    0.000    0.000    0.000 
#    0.000    0.000    0.000    0.000    0.000    0.000 
#
# Total GULP energy -78322.620807 kJ/mol
# GULP energy per Si atom -5594.472915 kJ/mol
# Density = 2.289149 g / cm^3
# Si number density = 22.943707 Si / 1000 Ang^3
#
#
#
# Elastic Constant Matrix: (Units=GPa)
#
#
# Indices 1 2 3 4 5 6 
#
# 1 132.1711 38.4937 19.2732 -10.2202 23.4263 -2.9527
# 2 38.4937 79.8751 22.8537 -12.4197 25.4798 10.6285
# 3 19.2732 22.8537 109.7684 5.8009 15.5704 3.7177
# 4 -10.2202 -12.4197 5.8009 34.3834 3.0414 9.4672
# 5 23.4263 25.4798 15.5704 3.0414 33.8679 -8.4520
# 6 -2.9527 10.6285 3.7177 9.4672 -8.4520 45.5949
#
#
#
# Elastic Compliance Matrix: (Units=1/GPa)
#
#
# Indices 1 2 3 4 5 6 
#
# 1 0.009377 -0.002493 -0.000602 0.002425 -0.004580 -0.000115
# 2 -0.002493 0.024414 -0.002122 0.013554 -0.019925 -0.012187
# 3 -0.000602 -0.002122 0.010153 -0.002336 -0.002534 -0.000357
# 4 0.002425 0.013554 -0.002336 0.040723 -0.018106 -0.014624
# 5 -0.004580 -0.019925 -0.002534 -0.018106 0.055099 0.018528
# 6 -0.000115 -0.012187 -0.000357 -0.014624 0.018528 0.031266
#
#
# Mechanical properties :
#
#
# Convention : Reuss Voigt Hill
#
# Bulk Modulus (GPa) = 29.84400 53.67285 41.75842
# Shear Modulus (GPa) = 25.95589 38.84884 32.40236
#
# Velocity S-wave (km/s) = 3.36711 4.11934 3.76208
# Velocity P-wave (km/s) = 5.30587 6.78744 6.09187
#
# Compressibility (1/GPa) = 0.03350757
#
# Stress axis : x y z
#
# Youngs Moduli (GPa) = 106.64951 40.96083 98.49722
#
# Poissons Ratio (x) = 0.10213 0.05928
# Poissons Ratio (y) = 0.26592 0.20904
# Poissons Ratio (z) = 0.06419 0.08693
#
# Static dielectric constant tensor:
#      x y z
#    x 1.804880 -0.013440 0.037220 
#    y -0.013440 1.920000 -0.029220 
#    z 0.037220 -0.029220 1.901660 
# 
# From -- ./inp_files/221242.got.cif
#   From: 2010.05.17/outbox.cif.g08.bks.cpg/sg2_111_cif.got.tgz:221242.got - 2010.06.03 11:33:40.
