data_PCOD9068231
_publ_section_title
;
Structure prediction by ZEFSAII (Michael W. Deem and Ramdas Pophale) SiO2 
 PCOD9068231
Probable space group: P -1
;
_chemical_formula_sum "Si O2"
_cell_formula_units_Z 15
_cell_length_a 8.753908
_cell_length_b 10.887138
_cell_length_c 10.672917
_cell_angle_alpha 62.385034
_cell_angle_beta 68.804096
_cell_angle_gamma 39.923252
_cell_volume 578.390938
_symmetry_space_group_name_H-M "P -1"
_symmetry_group_IT_number 2
_symmetry_cell_setting 'triclinic'
loop_
_space_group_symop_operation_xyz
x,y,z
-x,-y,-z
loop_
_atom_site_type_symbol
_atom_site_label
_atom_site_fract_x
_atom_site_fract_y
_atom_site_fract_z
Si Si1 0.707014 0.368281 0.395676
Si Si2 0.248356 0.381284 0.424355
Si Si3 0.500000 0.000000 0.500000
Si Si4 0.712124 0.313585 0.753077
Si Si5 0.213821 0.207212 0.995523
Si Si6 0.155829 0.970385 0.651325
Si Si7 0.064553 0.376008 0.239659
Si Si8 0.770693 0.271204 0.031763
O O1 0.500000 0.500000 0.500000
O O2 0.566725 0.540384 0.246096
O O3 0.780284 0.175650 0.409214
O O4 0.934477 0.324524 0.364260
O O5 0.440230 0.169448 0.536220
O O6 0.273979 0.527378 0.331634
O O7 0.000000 0.500000 0.500000
O O8 0.262388 0.296235 0.323432
O O9 0.734690 0.945034 0.412723
O O10 0.806531 0.206374 0.907995
O O11 0.873077 0.154228 0.670166
O O12 0.174193 0.275224 0.120213
O O13 0.002653 0.222013 0.025132
O O14 0.122251 0.384978 0.844097
O O15 0.500000 0.000000 0.000000
O O16 0.248790 0.836268 0.810805
O O17 0.500000 0.500000 0.000000
#
# Coordination Sequence:
#
# PCOD9068231 Si02
#       8
#     2   2   1   2   2   2   2   2
#     4  12  27  49  75 108 155 208 254 324 398 471
#     4  12  24  46  72 108 146 200 254 319 381 459
#     4  12  26  46  74 108 150 196 262 316 384 462
#     4  12  25  48  77 110 153 196 263 325 393 470
#     4  11  26  49  77 115 158 203 257 329 405 474
#     4  12  27  46  76 113 147 204 260 322 395 469
#     4  11  26  48  76 109 156 202 257 324 399 474
#     4  12  23  51  80 113 158 203 264 334 401 471
#
# _framework density 25.934017000000001
#
# number of rings (size 3 to 8) (size 9 to 14) (size 15 to 20)
#    0.000    0.267    6.667    1.200    1.867    2.667 
#    2.400    0.000    0.000    0.000    0.000    0.000 
#    0.000    0.000    0.000    0.000    0.000    0.000 
#
# Total GULP energy -83645.116027 kJ/mol
# GULP energy per Si atom -5576.341068 kJ/mol
# Density = 2.587499 g / cm^3
# Si number density = 25.934017 Si / 1000 Ang^3
#
#
#
# Elastic Constant Matrix: (Units=GPa)
#
#
# Indices 1 2 3 4 5 6 
#
# 1 148.8744 43.6947 50.7768 -3.2921 -5.8491 -5.6634
# 2 43.6947 171.1341 25.9240 5.2782 2.2077 -10.2168
# 3 50.7768 25.9240 98.2485 1.0924 -11.3659 9.1686
# 4 -3.2921 5.2782 1.0924 44.8513 12.3831 10.8785
# 5 -5.8491 2.2077 -11.3659 12.3831 41.5181 -5.2334
# 6 -5.6634 -10.2168 9.1686 10.8785 -5.2334 52.3267
#
#
#
# Elastic Compliance Matrix: (Units=1/GPa)
#
#
# Indices 1 2 3 4 5 6 
#
# 1 0.008656 -0.001520 -0.004180 0.000568 0.000147 0.001269
# 2 -0.001520 0.006528 -0.001104 -0.001124 -0.000339 0.001503
# 3 -0.004180 -0.001104 0.013219 -0.000705 0.002979 -0.002540
# 4 0.000568 -0.001124 -0.000705 0.026458 -0.008753 -0.006410
# 5 0.000147 -0.000339 0.002979 -0.008753 0.028062 0.004054
# 6 0.001269 0.001503 -0.002540 -0.006410 0.004054 0.021725
#
#
# Mechanical properties :
#
#
# Convention : Reuss Voigt Hill
#
# Bulk Modulus (GPa) = 67.59301 73.22756 70.41028
# Shear Modulus (GPa) = 40.58893 47.59664 44.09278
#
# Velocity S-wave (km/s) = 3.96041 4.28869 4.12781
# Velocity P-wave (km/s) = 6.85807 7.26782 7.06591
#
# Compressibility (1/GPa) = 0.01479443
#
# Stress axis : x y z
#
# Youngs Moduli (GPa) = 115.53244 153.19780 75.64756
#
# Poissons Ratio (x) = 0.23293 0.31621
# Poissons Ratio (y) = 0.17566 0.08348
# Poissons Ratio (z) = 0.48292 0.16906
#
# Static dielectric constant tensor:
#      x y z
#    x 2.192970 -0.203260 0.114610 
#    y -0.203260 2.178580 0.125580 
#    z 0.114610 0.125580 1.959190 
# 
# From -- ./inp_files/389357.got.cif
#   From: 2010.05.17/outbox.cif.g08.bks.cpg/sg2_195_cif.got.tgz:389357.got - 2010.06.03 11:33:40.
