data_PCOD9068888
_publ_section_title
;
Structure prediction by ZEFSAII (Michael W. Deem and Ramdas Pophale) SiO2 
 PCOD9068888
Probable space group: P -1
;
_chemical_formula_sum "Si O2"
_cell_formula_units_Z 16
_cell_length_a 9.078342
_cell_length_b 18.761544
_cell_length_c 12.283099
_cell_angle_alpha 150.564123
_cell_angle_beta 116.035034
_cell_angle_gamma 76.431553
_cell_volume 870.655823
_symmetry_space_group_name_H-M "P -1"
_symmetry_group_IT_number 2
_symmetry_cell_setting 'triclinic'
loop_
_space_group_symop_operation_xyz
x,y,z
-x,-y,-z
loop_
_atom_site_type_symbol
_atom_site_label
_atom_site_fract_x
_atom_site_fract_y
_atom_site_fract_z
Si Si1 0.462995 0.908660 0.477751
Si Si2 0.686999 0.509129 0.360546
Si Si3 0.015804 0.640979 0.495378
Si Si4 0.061389 0.853531 0.333614
Si Si5 0.087849 0.329414 0.163654
Si Si6 0.968964 0.651202 0.240245
Si Si7 0.761366 0.193942 0.029044
Si Si8 0.566474 0.607710 0.061165
O O1 0.260869 0.877271 0.396791
O O2 0.506432 0.753876 0.263417
O O3 0.500000 0.000000 0.500000
O O4 0.604951 0.032803 0.763599
O O5 0.743638 0.617169 0.630413
O O6 0.704053 0.342389 0.175820
O O7 0.826445 0.600551 0.435313
O O8 0.509800 0.466388 0.178771
O O9 0.056069 0.488790 0.341848
O O10 0.151315 0.777810 0.787007
O O11 0.026799 0.666258 0.404544
O O12 0.052006 0.788175 0.365159
O O13 0.000000 0.000000 0.500000
O O14 0.926689 0.740306 0.053890
O O15 0.922778 0.215466 0.026020
O O16 0.769780 0.641125 0.165661
O O17 0.000000 0.500000 0.000000
O O18 0.500000 0.500000 0.000000
#
# Coordination Sequence:
#
# PCOD9068888 Si02
#       8
#     2   2   2   2   2   2   2   2
#     4  12  21  40  63  89 118 155 212 250 285 355
#     4   9  17  34  62  92 115 148 209 258 283 345
#     4   9  17  37  59  91 116 160 198 246 304 350
#     4  12  25  39  58  93 129 159 194 245 317 361
#     4   9  17  35  61  89 119 154 200 251 298 349
#     4  12  24  40  60  88 129 160 191 247 311 365
#     4   9  18  33  66  88 115 152 210 254 286 344
#     4  12  23  38  63  94 119 155 210 246 290 358
#
# _framework density 18.376953
#
# number of rings (size 3 to 8) (size 9 to 14) (size 15 to 20)
#    0.000    1.500    5.000    3.750    0.000    0.000 
#    0.000    4.375    0.000    0.000    0.000    0.000 
#    0.000    0.000    0.000    0.000    0.000    0.000 
#
# Total GULP energy -89071.035719 kJ/mol
# GULP energy per Si atom -5566.939732 kJ/mol
# Density = 1.833513 g / cm^3
# Si number density = 18.376953 Si / 1000 Ang^3
#
#
#
# Elastic Constant Matrix: (Units=GPa)
#
#
# Indices 1 2 3 4 5 6 
#
# 1 85.9243 43.9420 20.2166 3.8476 7.2690 -0.3721
# 2 43.9420 122.9756 38.0184 -14.9640 3.9061 13.7105
# 3 20.2166 38.0184 98.5075 -21.6145 7.3418 -5.3239
# 4 3.8476 -14.9640 -21.6145 46.7627 -1.1468 -6.3406
# 5 7.2690 3.9061 7.3418 -1.1468 17.4491 1.7422
# 6 -0.3721 13.7105 -5.3239 -6.3406 1.7422 31.3626
#
#
#
# Elastic Compliance Matrix: (Units=1/GPa)
#
#
# Indices 1 2 3 4 5 6 
#
# 1 0.015392 -0.005588 -0.001288 -0.003506 -0.005047 0.001979
# 2 -0.005588 0.012018 -0.003496 0.001972 0.001799 -0.005615
# 3 -0.001288 -0.003496 0.013691 0.005920 -0.004580 0.005289
# 4 -0.003506 0.001972 0.005920 0.025755 -0.000311 0.005325
# 5 -0.005047 0.001799 -0.004580 -0.000311 0.061425 -0.005099
# 6 0.001979 -0.005615 0.005289 0.005325 -0.005099 0.036621
#
#
# Mechanical properties :
#
#
# Convention : Reuss Voigt Hill
#
# Bulk Modulus (GPa) = 49.12576 56.86239 52.99407
# Shear Modulus (GPa) = 25.98298 32.79689 29.38994
#
# Velocity S-wave (km/s) = 3.76425 4.22912 4.00344
# Velocity P-wave (km/s) = 6.75893 7.40653 7.09013
#
# Compressibility (1/GPa) = 0.02035592
#
# Stress axis : x y z
#
# Youngs Moduli (GPa) = 64.97025 83.20634 73.03803
#
# Poissons Ratio (x) = 0.46499 0.09408
# Poissons Ratio (y) = 0.36308 0.25536
# Poissons Ratio (z) = 0.08369 0.29091
#
# Static dielectric constant tensor:
#      x y z
#    x 1.561070 -0.005730 -0.015090 
#    y -0.005730 1.622100 -0.029140 
#    z -0.015090 -0.029140 1.672130 
# 
# From -- ./inp_files/217032.got.cif
#   From: 2010.05.17/outbox.cif.g08.bks.cpg/sg2_109_cif.got.tgz:217032.got - 2010.06.03 11:33:40.
