data_PCOD9068510
_publ_section_title
;
Structure prediction by ZEFSAII (Michael W. Deem and Ramdas Pophale) SiO2 
 PCOD9068510
Probable space group: P -1
;
_chemical_formula_sum "Si O2"
_cell_formula_units_Z 12
_cell_length_a 6.622908
_cell_length_b 12.323050
_cell_length_c 9.015018
_cell_angle_alpha 119.933909
_cell_angle_beta 107.953293
_cell_angle_gamma 43.084810
_cell_volume 433.569328
_symmetry_space_group_name_H-M "P -1"
_symmetry_group_IT_number 2
_symmetry_cell_setting 'triclinic'
loop_
_space_group_symop_operation_xyz
x,y,z
-x,-y,-z
loop_
_atom_site_type_symbol
_atom_site_label
_atom_site_fract_x
_atom_site_fract_y
_atom_site_fract_z
Si Si1 0.279448 0.199269 0.873696
Si Si2 0.580234 0.334885 0.980037
Si Si3 0.908427 0.177800 0.561289
Si Si4 0.328598 0.538603 0.637864
Si Si5 0.076224 0.950044 0.808652
Si Si6 0.712714 0.801636 0.788153
O O1 0.585046 0.155426 0.227060
O O2 0.089279 0.211617 0.710277
O O3 0.572922 0.990633 0.826853
O O4 0.017390 0.856943 0.623293
O O5 0.646188 0.350164 0.174640
O O6 0.350587 0.313195 0.923081
O O7 0.500000 0.500000 0.000000
O O8 0.859606 0.151918 0.843153
O O9 0.557138 0.341700 0.619576
O O10 0.000000 0.000000 0.500000
O O11 0.500000 0.500000 0.500000
O O12 0.984525 0.643336 0.641991
O O13 0.843984 0.750056 0.950732
O O14 0.000000 0.000000 0.000000
#
# Coordination Sequence:
#
# PCOD9068510 Si02
#       6
#     2   2   2   2   2   2
#     4  11  26  52  92 132 172 238 299 362 456 532
#     4  12  28  53  88 125 178 228 292 368 446 522
#     4  12  28  54  87 129 178 225 296 372 438 526
#     4  12  31  54  84 128 177 233 301 369 435 537
#     4  12  25  55  92 124 178 235 284 363 449 529
#     4  11  26  52  91 133 169 238 298 357 456 531
#
# _framework density 27.677233000000001
#
# number of rings (size 3 to 8) (size 9 to 14) (size 15 to 20)
#    0.000    0.333    3.333    4.000    4.667    2.000 
#    0.000    0.000    0.000    1.000    0.000    0.000 
#    0.000    0.000    0.000    0.000    0.000    0.000 
#
# Total GULP energy -67117.548404 kJ/mol
# GULP energy per Si atom -5593.129034 kJ/mol
# Density = 2.761424 g / cm^3
# Si number density = 27.677233 Si / 1000 Ang^3
#
#
#
# Elastic Constant Matrix: (Units=GPa)
#
#
# Indices 1 2 3 4 5 6 
#
# 1 158.0345 55.4919 97.0784 7.1057 -4.4388 -7.2601
# 2 55.4919 153.5717 67.2402 29.6671 -23.3013 2.2523
# 3 97.0784 67.2402 233.0524 11.7056 -4.0427 -7.0210
# 4 7.1057 29.6671 11.7056 58.3640 -6.0739 0.2356
# 5 -4.4388 -23.3013 -4.0427 -6.0739 62.9210 6.6052
# 6 -7.2601 2.2523 -7.0210 0.2356 6.6052 47.9717
#
#
#
# Elastic Compliance Matrix: (Units=1/GPa)
#
#
# Indices 1 2 3 4 5 6 
#
# 1 0.009001 -0.002045 -0.003161 0.000533 -0.000384 0.001046
# 2 -0.002045 0.009134 -0.001585 -0.003767 0.002915 -0.001353
# 3 -0.003161 -0.001585 0.006077 -0.000081 -0.000485 0.000553
# 4 0.000533 -0.003767 -0.000081 0.019048 0.000467 0.000088
# 5 -0.000384 0.002915 -0.000485 0.000467 0.017237 -0.002642
# 6 0.001046 -0.001353 0.000553 0.000088 -0.002642 0.021512
#
#
# Mechanical properties :
#
#
# Convention : Reuss Voigt Hill
#
# Bulk Modulus (GPa) = 94.06561 109.36439 101.71500
# Shear Modulus (GPa) = 50.43663 55.50788 52.97226
#
# Velocity S-wave (km/s) = 4.27349 4.48319 4.37959
# Velocity P-wave (km/s) = 7.64269 8.14853 7.89966
#
# Compressibility (1/GPa) = 0.01063088
#
# Stress axis : x y z
#
# Youngs Moduli (GPa) = 111.09858 109.47822 164.54850
#
# Poissons Ratio (x) = 0.22387 0.52019
# Poissons Ratio (y) = 0.22718 0.26074
# Poissons Ratio (z) = 0.35122 0.17348
#
# Static dielectric constant tensor:
#      x y z
#    x 2.250900 -0.004060 0.002260 
#    y -0.004060 2.504620 -0.189990 
#    z 0.002260 -0.189990 2.206290 
# 
# From -- ./inp_files/385037.got.cif
#   From: 2010.05.17/outbox.cif.g08.bks.cpg/sg2_193_cif.got.tgz:385037.got - 2010.06.03 11:33:40.
