data_PCOD9068266
_publ_section_title
;
Structure prediction by ZEFSAII (Michael W. Deem and Ramdas Pophale) SiO2 
 PCOD9068266
Probable space group: P -1
;
_chemical_formula_sum "Si O2"
_cell_formula_units_Z 13
_cell_length_a 10.668212
_cell_length_b 9.004083
_cell_length_c 5.408745
_cell_angle_alpha 103.264997
_cell_angle_beta 102.273459
_cell_angle_gamma 89.301340
_cell_volume 493.764712
_symmetry_space_group_name_H-M "P -1"
_symmetry_group_IT_number 2
_symmetry_cell_setting 'triclinic'
loop_
_space_group_symop_operation_xyz
x,y,z
-x,-y,-z
loop_
_atom_site_type_symbol
_atom_site_label
_atom_site_fract_x
_atom_site_fract_y
_atom_site_fract_z
Si Si1 0.687304 0.380354 0.509581
Si Si2 0.143535 0.138090 0.221846
Si Si3 0.545885 0.142547 0.741542
Si Si4 0.128054 0.410376 0.994974
Si Si5 0.221419 0.887263 0.835124
Si Si6 0.668252 0.658185 0.339653
Si Si7 0.000000 0.000000 0.500000
O O1 0.620806 0.258653 0.623305
O O2 0.773635 0.285380 0.320696
O O3 0.607058 0.500262 0.361762
O O4 0.775134 0.495172 0.751185
O O5 0.276799 0.219712 0.389060
O O6 0.035316 0.139031 0.383681
O O7 0.098104 0.238823 0.012772
O O8 0.151984 0.963667 0.070376
O O9 0.428981 0.244594 0.821761
O O10 0.500000 0.000000 0.500000
O O11 0.632273 0.093222 0.990126
O O12 0.205801 0.392463 0.770074
O O13 0.000000 0.500000 0.000000
O O14 0.158508 0.979303 0.618531
#
# Coordination Sequence:
#
# PCOD9068266 Si02
#       7
#     2   2   2   2   2   2   1
#     4  11  28  47  79 119 162 211 268 336 409 477
#     4  11  26  48  78 114 157 207 275 337 402 476
#     4  12  27  51  82 120 164 213 274 332 406 485
#     4  11  28  50  80 115 164 219 273 333 403 486
#     4  12  27  47  79 116 159 210 265 340 396 479
#     4  11  26  52  78 117 161 212 269 335 404 485
#     4  12  28  46  74 116 160 208 272 334 402 472
#
# _framework density 26.328327000000002
#
# number of rings (size 3 to 8) (size 9 to 14) (size 15 to 20)
#    0.000    0.615    1.538    3.692   10.769    6.769 
#    0.000    0.000    0.000    0.000    0.000    0.000 
#    0.000    0.000    0.000    0.000    0.000    0.000 
#
# Total GULP energy -72424.375967 kJ/mol
# GULP energy per Si atom -5571.105844 kJ/mol
# Density = 2.626840 g / cm^3
# Si number density = 26.328327 Si / 1000 Ang^3
#
#
#
# Elastic Constant Matrix: (Units=GPa)
#
#
# Indices 1 2 3 4 5 6 
#
# 1 91.4881 56.7634 8.4046 -8.4816 -8.5905 -14.6633
# 2 56.7634 132.8704 32.3031 8.3504 -4.3525 0.7652
# 3 8.4046 32.3031 97.9811 16.1007 4.3941 -8.2737
# 4 -8.4816 8.3504 16.1007 52.0083 -6.1779 2.3681
# 5 -8.5905 -4.3525 4.3941 -6.1779 39.5363 -11.0380
# 6 -14.6633 0.7652 -8.2737 2.3681 -11.0380 63.0252
#
#
#
# Elastic Compliance Matrix: (Units=1/GPa)
#
#
# Indices 1 2 3 4 5 6 
#
# 1 0.017246 -0.007632 0.000535 0.004229 0.004868 0.004869
# 2 -0.007632 0.011627 -0.002971 -0.002208 -0.001066 -0.002411
# 3 0.000535 -0.002971 0.011901 -0.003384 -0.001625 0.001565
# 4 0.004229 -0.002208 -0.003384 0.021843 0.004620 0.000555
# 5 0.004868 -0.001066 -0.001625 0.004620 0.028754 0.005794
# 6 0.004869 -0.002411 0.001565 0.000555 0.005794 0.018228
#
#
# Mechanical properties :
#
#
# Convention : Reuss Voigt Hill
#
# Bulk Modulus (GPa) = 48.45773 57.47577 52.96675
# Shear Modulus (GPa) = 36.59922 45.90519 41.25220
#
# Velocity S-wave (km/s) = 3.73246 4.18013 3.96262
# Velocity P-wave (km/s) = 6.08442 6.72129 6.41077
#
# Compressibility (1/GPa) = 0.02063654
#
# Stress axis : x y z
#
# Youngs Moduli (GPa) = 57.98450 86.00867 84.02647
#
# Poissons Ratio (x) = 0.65642 -0.04494
# Poissons Ratio (y) = 0.44254 0.24967
# Poissons Ratio (z) = -0.03101 0.25556
#
# Static dielectric constant tensor:
#      x y z
#    x 2.206780 -0.028050 -0.007850 
#    y -0.028050 1.994860 -0.043750 
#    z -0.007850 -0.043750 2.226900 
# 
# From -- ./inp_files/58018.got.cif
#   From: 2010.05.17/outbox.cif.g08.bks.cpg/sg2_30_cif.got.tgz:58018.got - 2010.06.03 11:33:40.
