data_PCOD9068810
_publ_section_title
;
Structure prediction by ZEFSAII (Michael W. Deem and Ramdas Pophale) SiO2 
 PCOD9068810
Probable space group: P -1
;
_chemical_formula_sum "Si O2"
_cell_formula_units_Z 15
_cell_length_a 9.378022
_cell_length_b 12.914943
_cell_length_c 12.347105
_cell_angle_alpha 92.176533
_cell_angle_beta 76.663223
_cell_angle_gamma 148.171454
_cell_volume 730.109123
_symmetry_space_group_name_H-M "P -1"
_symmetry_group_IT_number 2
_symmetry_cell_setting 'triclinic'
loop_
_space_group_symop_operation_xyz
x,y,z
-x,-y,-z
loop_
_atom_site_type_symbol
_atom_site_label
_atom_site_fract_x
_atom_site_fract_y
_atom_site_fract_z
Si Si1 0.700337 0.077746 0.680300
Si Si2 0.169804 0.817515 0.086976
Si Si3 0.171650 0.538822 0.198712
Si Si4 0.854343 0.015470 0.067712
Si Si5 0.102373 0.836734 0.719348
Si Si6 0.879171 0.499471 0.429031
Si Si7 0.000000 0.500000 0.000000
Si Si8 0.235783 0.060483 0.497077
O O1 0.793481 0.131300 0.791352
O O2 0.964884 0.296083 0.582612
O O3 0.410100 0.967847 0.702132
O O4 0.672285 0.950480 0.624116
O O5 0.006295 0.610890 0.080254
O O6 0.500000 0.000000 0.000000
O O7 0.076320 0.856154 0.030439
O O8 0.506013 0.780350 0.133221
O O9 0.129154 0.399137 0.253486
O O10 0.000991 0.517074 0.301181
O O11 0.029999 0.447379 0.101260
O O12 0.962529 0.125155 0.168467
O O13 0.000000 0.000000 0.000000
O O14 0.138325 0.924448 0.606506
O O15 0.535042 0.297252 0.490019
O O16 0.000000 0.500000 0.500000
O O17 0.000000 0.000000 0.500000
#
# Coordination Sequence:
#
# PCOD9068810 Si02
#       8
#     2   2   2   2   2   2   1   2
#     4  12  23  43  74 101 131 187 239 287 348 429
#     4  12  22  42  69 102 139 177 234 291 340 427
#     4  12  23  41  71 100 131 182 234 278 343 429
#     4  12  27  44  67 103 146 181 226 295 360 416
#     4  12  23  47  70  98 137 188 238 284 348 436
#     4  12  22  43  76  98 130 188 238 281 345 427
#     4  12  20  40  70 104 130 168 236 288 330 408
#     4  12  29  46  68 108 145 179 236 311 359 411
#
# _framework density 20.544874
#
# number of rings (size 3 to 8) (size 9 to 14) (size 15 to 20)
#    0.000    0.000    9.333    1.200    1.867    1.067 
#    2.400    0.000    0.000    0.000    0.000    0.000 
#    0.000    0.000    0.000    0.000    0.000    0.000 
#
# Total GULP energy -83564.782707 kJ/mol
# GULP energy per Si atom -5570.985514 kJ/mol
# Density = 2.049811 g / cm^3
# Si number density = 20.544874 Si / 1000 Ang^3
#
#
#
# Elastic Constant Matrix: (Units=GPa)
#
#
# Indices 1 2 3 4 5 6 
#
# 1 105.3196 28.1459 35.4885 0.8133 -2.2027 -8.5941
# 2 28.1459 75.2433 9.9295 -12.2555 6.6507 -12.1184
# 3 35.4885 9.9295 83.9422 13.4476 22.0290 2.7399
# 4 0.8133 -12.2555 13.4476 46.0702 -5.0795 1.1969
# 5 -2.2027 6.6507 22.0290 -5.0795 35.6643 3.6213
# 6 -8.5941 -12.1184 2.7399 1.1969 3.6213 32.1990
#
#
#
# Elastic Compliance Matrix: (Units=1/GPa)
#
#
# Indices 1 2 3 4 5 6 
#
# 1 0.013148 -0.004008 -0.006877 0.001299 0.005801 0.001885
# 2 -0.004008 0.016644 -0.000282 0.004093 -0.003145 0.005420
# 3 -0.006877 -0.000282 0.019523 -0.007065 -0.013249 -0.001850
# 4 0.001299 0.004093 -0.007065 0.025615 0.007256 0.000720
# 5 0.005801 -0.003145 -0.013249 0.007256 0.038517 -0.003109
# 6 0.001885 0.005420 -0.001850 0.000720 -0.003109 0.034080
#
#
# Mechanical properties :
#
#
# Convention : Reuss Voigt Hill
#
# Bulk Modulus (GPa) = 37.06120 45.73698 41.39909
# Shear Modulus (GPa) = 27.95560 35.51611 31.73585
#
# Velocity S-wave (km/s) = 3.69278 4.16229 3.93454
# Velocity P-wave (km/s) = 6.02167 6.73868 6.39024
#
# Compressibility (1/GPa) = 0.02698240
#
# Stress axis : x y z
#
# Youngs Moduli (GPa) = 76.05496 60.08061 51.22237
#
# Poissons Ratio (x) = 0.24082 0.35224
# Poissons Ratio (y) = 0.30485 0.01442
# Poissons Ratio (z) = 0.52300 0.01692
#
# Static dielectric constant tensor:
#      x y z
#    x 1.735070 -0.016240 0.054550 
#    y -0.016240 1.787880 -0.008760 
#    z 0.054550 -0.008760 1.775160 
# 
# From -- ./inp_files/390196.got.cif
#   From: 2010.05.17/outbox.cif.g08.bks.cpg/sg2_196_cif.got.tgz:390196.got - 2010.06.03 11:33:40.
