data_PCOD9068740
_publ_section_title
;
Structure prediction by ZEFSAII (Michael W. Deem and Ramdas Pophale) SiO2 
 PCOD9068740
Probable space group: P -1
;
_chemical_formula_sum "Si O2"
_cell_formula_units_Z 14
_cell_length_a 5.966856
_cell_length_b 4.952990
_cell_length_c 23.881969
_cell_angle_alpha 67.695450
_cell_angle_beta 60.866155
_cell_angle_gamma 85.174300
_cell_volume 565.939204
_symmetry_space_group_name_H-M "P -1"
_symmetry_group_IT_number 2
_symmetry_cell_setting 'triclinic'
loop_
_space_group_symop_operation_xyz
x,y,z
-x,-y,-z
loop_
_atom_site_type_symbol
_atom_site_label
_atom_site_fract_x
_atom_site_fract_y
_atom_site_fract_z
Si Si1 0.022579 0.758946 0.839042
Si Si2 0.690233 0.164046 0.386175
Si Si3 0.503113 0.030016 0.696262
Si Si4 0.163539 0.229844 0.502139
Si Si5 0.780280 0.453420 0.713197
Si Si6 0.849370 0.678065 0.047959
Si Si7 0.707406 0.249160 0.856817
O O1 0.833202 0.954797 0.878974
O O2 0.244248 0.990737 0.767921
O O3 0.130244 0.516353 0.883629
O O4 0.883259 0.556052 0.823382
O O5 0.580664 0.005585 0.355263
O O6 0.453355 0.280667 0.438627
O O7 0.915670 0.433781 0.328613
O O8 0.807548 0.925578 0.429551
O O9 0.642091 0.743132 0.713588
O O10 0.689191 0.303934 0.677120
O O11 0.000000 0.500000 0.500000
O O12 0.000000 0.000000 0.500000
O O13 0.680471 0.238625 0.793433
O O14 0.549105 0.723258 0.078846
O O15 0.000000 0.500000 0.000000
O O16 0.000000 0.000000 0.000000
#
# Coordination Sequence:
#
# PCOD9068740 Si02
#       7
#     2   2   2   2   2   2   2
#     4  12  26  48  76 111 155 199 253 320 386 457
#     4  11  28  52  82 120 156 202 262 318 384 462
#     4  12  27  47  78 118 157 201 255 321 394 454
#     4  11  28  55  81 112 159 207 256 313 383 462
#     4  12  27  47  78 118 157 201 255 321 394 454
#     4  12  28  48  76 108 152 205 258 313 380 460
#     4  12  26  48  76 111 155 199 253 320 386 457
#
# _framework density 24.737639000000001
#
# number of rings (size 3 to 8) (size 9 to 14) (size 15 to 20)
#    0.000    0.286    2.857    4.286    2.000   12.571 
#    0.000    2.143    0.000    0.000    0.000    0.000 
#    0.000    0.000    0.000    0.000    0.000    0.000 
#
# Total GULP energy -78492.726183 kJ/mol
# GULP energy per Si atom -5606.623299 kJ/mol
# Density = 2.468134 g / cm^3
# Si number density = 24.737639 Si / 1000 Ang^3
#
#
#
# Elastic Constant Matrix: (Units=GPa)
#
#
# Indices 1 2 3 4 5 6 
#
# 1 73.4650 29.8419 19.3138 12.3468 -19.1634 10.9029
# 2 29.8419 174.7192 16.9812 20.4245 -19.4787 -12.0746
# 3 19.3138 16.9812 100.1644 12.9339 -23.7921 -1.0899
# 4 12.3468 20.4245 12.9339 31.8676 -3.7307 -2.4222
# 5 -19.1634 -19.4787 -23.7921 -3.7307 37.9606 5.6343
# 6 10.9029 -12.0746 -1.0899 -2.4222 5.6343 56.6138
#
#
#
# Elastic Compliance Matrix: (Units=1/GPa)
#
#
# Indices 1 2 3 4 5 6 
#
# 1 0.018240 -0.001910 -0.000693 -0.004997 0.008037 -0.004947
# 2 -0.001910 0.006750 0.000153 -0.003297 0.002054 0.001465
# 3 -0.000693 0.000153 0.012294 -0.004024 0.007110 -0.000477
# 4 -0.004997 -0.003297 -0.004024 0.036820 -0.003429 0.002098
# 5 0.008037 0.002054 0.007110 -0.003429 0.036276 -0.004730
# 6 -0.004947 0.001465 -0.000477 0.002098 -0.004730 0.019480
#
#
# Mechanical properties :
#
#
# Convention : Reuss Voigt Hill
#
# Bulk Modulus (GPa) = 30.87693 53.40252 42.13973
# Shear Modulus (GPa) = 34.35129 44.10253 39.22691
#
# Velocity S-wave (km/s) = 3.73047 4.22691 3.98643
# Velocity P-wave (km/s) = 5.57351 6.74217 6.18550
#
# Compressibility (1/GPa) = 0.03238664
#
# Stress axis : x y z
#
# Youngs Moduli (GPa) = 54.82357 148.13835 81.33821
#
# Poissons Ratio (x) = 0.28292 0.05636
# Poissons Ratio (y) = 0.10470 -0.01248
# Poissons Ratio (z) = 0.03799 -0.02274
#
# Static dielectric constant tensor:
#      x y z
#    x 1.990800 -0.009390 0.022950 
#    y -0.009390 1.882310 -0.006960 
#    z 0.022950 -0.006960 2.024970 
# 
# From -- ./inp_files/603130.got.cif
#   From: 2010.05.17/outbox.cif.g08.bks.cpg/sg2_302_cif.got.tgz:603130.got - 2010.06.03 11:33:40.
