data_PCOD9068571
_publ_section_title
;
Structure prediction by ZEFSAII (Michael W. Deem and Ramdas Pophale) SiO2 
 PCOD9068571
Probable space group: P -1
;
_chemical_formula_sum "Si O2"
_cell_formula_units_Z 12
_cell_length_a 4.979444
_cell_length_b 9.022714
_cell_length_c 14.333865
_cell_angle_alpha 130.652065
_cell_angle_beta 102.403150
_cell_angle_gamma 90.499581
_cell_volume 467.480734
_symmetry_space_group_name_H-M "P -1"
_symmetry_group_IT_number 2
_symmetry_cell_setting 'triclinic'
loop_
_space_group_symop_operation_xyz
x,y,z
-x,-y,-z
loop_
_atom_site_type_symbol
_atom_site_label
_atom_site_fract_x
_atom_site_fract_y
_atom_site_fract_z
Si Si1 0.742872 0.881931 0.990710
Si Si2 0.280908 0.163415 0.601510
Si Si3 0.263265 0.975930 0.335438
Si Si4 0.193745 0.349830 0.917585
Si Si5 0.898686 0.653454 0.629740
Si Si6 0.572869 0.421724 0.285881
O O1 0.648348 0.671788 0.845702
O O2 0.787164 0.819020 0.073033
O O3 0.500000 0.000000 0.000000
O O4 0.000000 0.000000 0.000000
O O5 0.478630 0.140210 0.694181
O O6 0.244305 0.384821 0.669832
O O7 0.403862 0.119995 0.490767
O O8 0.000000 0.000000 0.500000
O O9 0.995233 0.788956 0.234725
O O10 0.185387 0.146339 0.333870
O O11 0.500000 0.500000 0.000000
O O12 0.000000 0.500000 0.000000
O O13 0.627731 0.556550 0.631887
O O14 0.000000 0.500000 0.500000
O O15 0.195639 0.710393 0.728951
#
# Coordination Sequence:
#
# PCOD9068571 Si02
#       6
#     2   2   2   2   2   2
#     4  12  26  50  76 111 151 205 253 313 383 452
#     4  11  28  46  75 109 153 199 246 317 390 443
#     4  11  27  47  73 108 153 190 255 310 381 451
#     4  12  28  49  78 112 150 203 257 315 381 455
#     4  12  27  47  76 112 148 193 248 313 384 450
#     4  12  27  48  77 109 154 193 256 311 379 461
#
# _framework density 25.669508
#
# number of rings (size 3 to 8) (size 9 to 14) (size 15 to 20)
#    0.000    0.333    1.667    5.500   11.667    0.000 
#    0.000    0.000    0.000    0.000    0.000    0.000 
#    0.000    0.000    0.000    0.000    0.000    0.000 
#
# Total GULP energy -66819.582781 kJ/mol
# GULP energy per Si atom -5568.298565 kJ/mol
# Density = 2.561108 g / cm^3
# Si number density = 25.669508 Si / 1000 Ang^3
#
#
#
# Elastic Constant Matrix: (Units=GPa)
#
#
# Indices 1 2 3 4 5 6 
#
# 1 190.5867 78.4256 4.0983 1.7651 42.0263 -20.5245
# 2 78.4256 186.8454 35.7686 13.9801 25.1090 -16.1041
# 3 4.0983 35.7686 97.1884 7.1738 41.2305 -1.3412
# 4 1.7651 13.9801 7.1738 38.6467 -0.5026 10.9087
# 5 42.0263 25.1090 41.2305 -0.5026 40.8722 2.6120
# 6 -20.5245 -16.1041 -1.3412 10.9087 2.6120 39.7353
#
#
#
# Elastic Compliance Matrix: (Units=1/GPa)
#
#
# Indices 1 2 3 4 5 6 
#
# 1 0.011588 -0.003085 0.009575 -0.003529 -0.020192 0.007354
# 2 -0.003085 0.007363 -0.003034 -0.002465 0.001561 0.001862
# 3 0.009575 -0.003034 0.026804 -0.007312 -0.035684 0.008974
# 4 -0.003529 -0.002465 -0.007312 0.032070 0.013730 -0.012775
# 5 -0.020192 0.001561 -0.035684 0.013730 0.081723 -0.020143
# 6 0.007354 0.001862 0.008974 -0.012775 -0.020143 0.034854
#
#
# Mechanical properties :
#
#
# Convention : Reuss Voigt Hill
#
# Bulk Modulus (GPa) = 18.98773 79.02283 49.00528
# Shear Modulus (GPa) = 24.38467 47.60603 35.99535
#
# Velocity S-wave (km/s) = 3.08546 4.31115 3.74874
# Velocity P-wave (km/s) = 4.48403 7.45875 6.15384
#
# Compressibility (1/GPa) = 0.05266558
#
# Stress axis : x y z
#
# Youngs Moduli (GPa) = 86.29662 135.81198 37.30778
#
# Poissons Ratio (x) = 0.41904 -0.35722
# Poissons Ratio (y) = 0.26627 0.11320
# Poissons Ratio (z) = -0.82629 0.41209
#
# Static dielectric constant tensor:
#      x y z
#    x 1.705470 -0.019040 0.288120 
#    y -0.019040 2.117150 -0.060850 
#    z 0.288120 -0.060850 1.823350 
# 
# From -- ./inp_files/548467.got.cif
#   From: 2010.05.17/outbox.cif.g08.bks.cpg/sg2_275_cif.got.tgz:548467.got - 2010.06.03 11:33:40.
