data_PCOD9068050
_publ_section_title
;
Structure prediction by ZEFSAII (Michael W. Deem and Ramdas Pophale) SiO2 
 PCOD9068050
Probable space group: P -1
;
_chemical_formula_sum "Si O2"
_cell_formula_units_Z 16
_cell_length_a 11.602701
_cell_length_b 8.898639
_cell_length_c 28.642741
_cell_angle_alpha 150.486083
_cell_angle_beta 152.483241
_cell_angle_gamma 38.707384
_cell_volume 672.612227
_symmetry_space_group_name_H-M "P -1"
_symmetry_group_IT_number 2
_symmetry_cell_setting 'triclinic'
loop_
_space_group_symop_operation_xyz
x,y,z
-x,-y,-z
loop_
_atom_site_type_symbol
_atom_site_label
_atom_site_fract_x
_atom_site_fract_y
_atom_site_fract_z
Si Si1 0.317792 0.382819 0.007346
Si Si2 0.641814 0.282096 0.529702
Si Si3 0.144008 0.249358 0.590551
Si Si4 0.236187 0.257485 0.457463
Si Si5 0.800900 0.689056 0.223755
Si Si6 0.560112 0.334109 0.285737
Si Si7 0.947667 0.436188 0.809780
Si Si8 0.501531 0.287647 0.140901
O O1 0.553636 0.574858 0.128335
O O2 0.283253 0.359585 0.044533
O O3 0.075030 0.480157 0.917275
O O4 0.392266 0.046242 0.923727
O O5 0.500000 0.500000 0.500000
O O6 0.473876 0.285021 0.516330
O O7 0.931246 0.349359 0.663943
O O8 0.660355 0.951112 0.423444
O O9 0.295491 0.472406 0.736919
O O10 0.962462 0.482243 0.560451
O O11 0.000000 0.000000 0.500000
O O12 0.311487 0.368305 0.565940
O O13 0.136248 0.917256 0.322851
O O14 0.854481 0.515600 0.147103
O O15 0.735271 0.043309 0.283739
O O16 0.295347 0.342160 0.219417
O O17 0.495709 0.321973 0.204160
#
# Coordination Sequence:
#
# PCOD9068050 Si02
#       8
#     2   2   2   2   2   2   2   2
#     4  11  26  50  75 101 150 202 248 301 365 429
#     4  12  26  43  74 113 151 185 239 308 373 444
#     4  12  23  43  74 107 146 185 241 301 370 435
#     4  12  25  44  72 115 147 189 237 311 380 434
#     4  12  26  48  76 108 145 198 243 309 362 435
#     4  12  26  46  77 111 145 194 247 307 371 438
#     4  12  26  47  77 108 148 193 251 302 369 443
#     4  11  26  47  73 107 146 200 242 302 371 435
#
# _framework density 23.787851
#
# number of rings (size 3 to 8) (size 9 to 14) (size 15 to 20)
#    0.000    0.250    6.250    2.250    1.750    2.000 
#    0.000    0.000    0.000    0.000    0.000    0.000 
#    0.000    0.000    0.000    0.000    0.000    0.000 
#
# Total GULP energy -89456.294433 kJ/mol
# GULP energy per Si atom -5591.018402 kJ/mol
# Density = 2.373371 g / cm^3
# Si number density = 23.787851 Si / 1000 Ang^3
#
#
#
# Elastic Constant Matrix: (Units=GPa)
#
#
# Indices 1 2 3 4 5 6 
#
# 1 110.9687 40.4199 25.2680 -10.2156 -7.2169 7.7924
# 2 40.4199 144.7954 39.2859 -21.2787 -10.5902 -19.7869
# 3 25.2680 39.2859 135.1143 15.7102 -49.8207 -32.0724
# 4 -10.2156 -21.2787 15.7102 69.1635 -19.2905 -36.5404
# 5 -7.2169 -10.5902 -49.8207 -19.2905 68.3859 29.6781
# 6 7.7924 -19.7869 -32.0724 -36.5404 29.6781 88.3748
#
#
#
# Elastic Compliance Matrix: (Units=1/GPa)
#
#
# Indices 1 2 3 4 5 6 
#
# 1 0.010578 -0.002827 -0.001483 -0.000028 0.000595 -0.002315
# 2 -0.002827 0.009445 -0.002123 0.004790 -0.000682 0.003803
# 3 -0.001483 -0.002123 0.011218 -0.000949 0.006992 0.000986
# 4 -0.000028 0.004790 -0.000949 0.021443 0.002261 0.008837
# 5 0.000595 -0.000682 0.006992 0.002261 0.022117 -0.004160
# 6 -0.002315 0.003803 0.000986 0.008837 -0.004160 0.017780
#
#
# Mechanical properties :
#
#
# Convention : Reuss Voigt Hill
#
# Bulk Modulus (GPa) = 54.42401 66.75843 60.59122
# Shear Modulus (GPa) = 44.81358 64.24514 54.52936
#
# Velocity S-wave (km/s) = 4.34508 5.20252 4.79301
# Velocity P-wave (km/s) = 6.93553 8.01332 7.49382
#
# Compressibility (1/GPa) = 0.01837424
#
# Stress axis : x y z
#
# Youngs Moduli (GPa) = 94.53736 105.87268 89.13952
#
# Poissons Ratio (x) = 0.29935 0.13220
# Poissons Ratio (y) = 0.26730 0.18926
# Poissons Ratio (z) = 0.14020 0.22478
#
# Static dielectric constant tensor:
#      x y z
#    x 1.954870 0.046660 0.001230 
#    y 0.046660 1.904370 -0.040440 
#    z 0.001230 -0.040440 1.933240 
# 
# From -- ./inp_files/618243.got.cif
#   From: 2010.05.17/outbox.cif.g08.bks.cpg/sg2_310_cif.got.tgz:618243.got - 2010.06.03 11:33:40.
