data_PCOD9068091
_publ_section_title
;
Structure prediction by ZEFSAII (Michael W. Deem and Ramdas Pophale) SiO2 
 PCOD9068091
Probable space group: P -1
;
_chemical_formula_sum "Si O2"
_cell_formula_units_Z 12
_cell_length_a 21.718392
_cell_length_b 5.690071
_cell_length_c 15.842331
_cell_angle_alpha 102.586538
_cell_angle_beta 159.974879
_cell_angle_gamma 65.486506
_cell_volume 508.725399
_symmetry_space_group_name_H-M "P -1"
_symmetry_group_IT_number 2
_symmetry_cell_setting 'triclinic'
loop_
_space_group_symop_operation_xyz
x,y,z
-x,-y,-z
loop_
_atom_site_type_symbol
_atom_site_label
_atom_site_fract_x
_atom_site_fract_y
_atom_site_fract_z
Si Si1 0.572999 0.546356 0.276976
Si Si2 0.844756 0.723884 0.740731
Si Si3 0.377863 0.860293 0.366374
Si Si4 0.154477 0.609206 0.799992
Si Si5 0.647525 0.979266 0.110113
Si Si6 0.012202 0.869172 0.812683
O O1 0.691859 0.650570 0.494384
O O2 0.754817 0.174331 0.481147
O O3 0.328952 0.679130 0.012757
O O4 0.513748 0.694759 0.119911
O O5 0.993065 0.730378 0.861603
O O6 0.684801 0.044496 0.609264
O O7 0.000000 0.500000 0.000000
O O8 0.500000 0.500000 0.500000
O O9 0.500000 0.000000 0.500000
O O10 0.160448 0.981496 0.035171
O O11 0.274255 0.287214 0.879503
O O12 0.896546 0.868031 0.452206
O O13 0.120308 0.623206 0.857359
O O14 0.500000 0.000000 0.000000
#
# Coordination Sequence:
#
# PCOD9068091 Si02
#       6
#     2   2   2   2   2   2
#     4  12  26  46  78 109 154 196 266 314 407 462
#     4  12  26  50  73 111 157 212 260 329 394 472
#     4  12  28  48  78 112 160 214 273 330 395 474
#     4  11  26  47  75 114 149 198 255 325 395 480
#     4  11  26  51  78 108 154 196 256 322 408 475
#     4  12  28  47  76 111 157 202 265 325 399 470
#
# _framework density 23.588365
#
# number of rings (size 3 to 8) (size 9 to 14) (size 15 to 20)
#    0.000    0.333    1.667    6.000    7.000    6.667 
#    0.000    0.000    0.000    0.000    0.000    0.000 
#    0.000    0.000    0.000    0.000    0.000    0.000 
#
# Total GULP energy -67205.200642 kJ/mol
# GULP energy per Si atom -5600.433387 kJ/mol
# Density = 2.353468 g / cm^3
# Si number density = 23.588365 Si / 1000 Ang^3
#
#
#
# Elastic Constant Matrix: (Units=GPa)
#
#
# Indices 1 2 3 4 5 6 
#
# 1 216.0861 66.3983 65.1979 0.4168 7.0621 -4.6395
# 2 66.3983 101.0754 45.2174 3.9548 8.3168 -13.3610
# 3 65.1979 45.2174 173.5985 12.7651 13.0305 20.1542
# 4 0.4168 3.9548 12.7651 51.2625 11.0437 -5.2480
# 5 7.0621 8.3168 13.0305 11.0437 33.8724 -5.0999
# 6 -4.6395 -13.3610 20.1542 -5.2480 -5.0999 51.5614
#
#
#
# Elastic Compliance Matrix: (Units=1/GPa)
#
#
# Indices 1 2 3 4 5 6 
#
# 1 0.006110 -0.003312 -0.001516 0.000625 -0.000029 0.000345
# 2 -0.003312 0.014001 -0.002853 0.000342 -0.001103 0.004371
# 3 -0.001516 -0.002853 0.007859 -0.001716 -0.002099 -0.004330
# 4 0.000625 0.000342 -0.001716 0.021483 -0.006199 0.002389
# 5 -0.000029 -0.001103 -0.002099 -0.006199 0.033107 0.003176
# 6 0.000345 0.004371 -0.004330 0.002389 0.003176 0.022808
#
#
# Mechanical properties :
#
#
# Convention : Reuss Voigt Hill
#
# Bulk Modulus (GPa) = 79.30984 93.82082 86.56533
# Shear Modulus (GPa) = 40.02200 48.26900 44.14550
#
# Velocity S-wave (km/s) = 4.12355 4.52852 4.33077
# Velocity P-wave (km/s) = 7.50780 8.19780 7.86037
#
# Compressibility (1/GPa) = 0.01260878
#
# Stress axis : x y z
#
# Youngs Moduli (GPa) = 163.66527 71.42485 127.24044
#
# Poissons Ratio (x) = 0.23657 0.19287
# Poissons Ratio (y) = 0.54209 0.36297
# Poissons Ratio (z) = 0.24808 0.20375
#
# Static dielectric constant tensor:
#      x y z
#    x 1.853030 -0.013070 0.003780 
#    y -0.013070 1.960600 -0.054690 
#    z 0.003780 -0.054690 1.960210 
# 
# From -- ./inp_files/7239.got.cif
#   From: 2010.05.17/outbox.cif.g08.bks.cpg/sg2_4_cif.got.tgz:7239.got - 2010.06.03 11:33:40.
