data_PCOD9068916
_publ_section_title
;
Structure prediction by ZEFSAII (Michael W. Deem and Ramdas Pophale) SiO2 
 PCOD9068916
Probable space group: P -1
;
_chemical_formula_sum "Si O2"
_cell_formula_units_Z 15
_cell_length_a 9.679097
_cell_length_b 15.190717
_cell_length_c 9.623592
_cell_angle_alpha 48.317996
_cell_angle_beta 136.265683
_cell_angle_gamma 113.571116
_cell_volume 721.605299
_symmetry_space_group_name_H-M "P -1"
_symmetry_group_IT_number 2
_symmetry_cell_setting 'triclinic'
loop_
_space_group_symop_operation_xyz
x,y,z
-x,-y,-z
loop_
_atom_site_type_symbol
_atom_site_label
_atom_site_fract_x
_atom_site_fract_y
_atom_site_fract_z
Si Si1 0.926056 0.373855 0.102442
Si Si2 0.474003 0.474799 0.672983
Si Si3 0.450081 0.734960 0.507461
Si Si4 0.579491 0.123301 0.952364
Si Si5 0.000000 0.000000 0.500000
Si Si6 0.118839 0.201018 0.197996
Si Si7 0.788091 0.718870 0.338408
Si Si8 0.030560 0.856648 0.154223
O O1 0.971062 0.303392 0.065426
O O2 0.067965 0.304206 0.397307
O O3 0.691263 0.397047 0.949478
O O4 0.000000 0.500000 0.000000
O O5 0.500000 0.500000 0.500000
O O6 0.446681 0.597338 0.610486
O O7 0.284734 0.404662 0.629865
O O8 0.666413 0.752339 0.706713
O O9 0.264038 0.795802 0.401973
O O10 0.424886 0.805726 0.269133
O O11 0.421278 0.201238 0.854902
O O12 0.803271 0.091519 0.206998
O O13 0.500000 0.000000 0.000000
O O14 0.854608 0.918256 0.564298
O O15 0.037472 0.171846 0.020026
O O16 0.899371 0.791602 0.233489
O O17 0.000000 0.000000 0.000000
#
# Coordination Sequence:
#
# PCOD9068916 Si02
#       8
#     2   2   2   2   1   2   2   2
#     4  12  22  44  79 112 140 185 246 300 362 431
#     4  12  22  43  76 111 143 184 242 311 357 432
#     4  12  24  46  73 101 148 190 243 299 364 433
#     4  12  21  42  70 107 137 186 250 301 350 426
#     4  12  24  36  78 104 132 190 250 296 354 416
#     4  12  25  45  74 105 144 192 242 301 365 434
#     4  12  27  46  73 109 148 190 243 304 365 432
#     4  12  31  51  68 104 156 196 238 303 372 433
#
# _framework density 20.786987
#
# number of rings (size 3 to 8) (size 9 to 14) (size 15 to 20)
#    0.000    0.000    8.000    2.400    1.867    2.133 
#    0.000    1.333    0.000    0.000    0.000    0.000 
#    0.000    0.000    0.000    0.000    0.000    0.000 
#
# Total GULP energy -83688.340026 kJ/mol
# GULP energy per Si atom -5579.222668 kJ/mol
# Density = 2.073967 g / cm^3
# Si number density = 20.786987 Si / 1000 Ang^3
#
#
#
# Elastic Constant Matrix: (Units=GPa)
#
#
# Indices 1 2 3 4 5 6 
#
# 1 93.4325 46.2482 33.7105 0.1039 7.3588 21.5809
# 2 46.2482 141.3179 48.6441 -4.3883 -1.7941 8.5515
# 3 33.7105 48.6441 90.0209 -0.4519 21.4903 -6.9679
# 4 0.1039 -4.3883 -0.4519 21.7450 10.6879 -2.4007
# 5 7.3588 -1.7941 21.4903 10.6879 47.5044 -2.4593
# 6 21.5809 8.5515 -6.9679 -2.4007 -2.4593 34.9964
#
#
#
# Elastic Compliance Matrix: (Units=1/GPa)
#
#
# Indices 1 2 3 4 5 6 
#
# 1 0.016639 -0.003020 -0.005335 -0.001771 -0.000435 -0.010737
# 2 -0.003020 0.009932 -0.005053 0.000295 0.002993 -0.001340
# 3 -0.005335 -0.005053 0.018446 0.004329 -0.008274 0.007913
# 4 -0.001771 0.000295 0.004329 0.053246 -0.013415 0.004592
# 5 -0.000435 0.002993 -0.008274 -0.013415 0.027937 -0.001067
# 6 -0.010737 -0.001340 0.007913 0.004592 -0.001067 0.037339
#
#
# Mechanical properties :
#
#
# Convention : Reuss Voigt Hill
#
# Bulk Modulus (GPa) = 54.94027 64.66408 59.80217
# Shear Modulus (GPa) = 25.45551 33.92707 29.69129
#
# Velocity S-wave (km/s) = 3.50321 4.04435 3.78346
# Velocity P-wave (km/s) = 6.54605 7.27904 6.92226
#
# Compressibility (1/GPa) = 0.01820159
#
# Stress axis : x y z
#
# Youngs Moduli (GPa) = 60.10046 100.68442 54.21179
#
# Poissons Ratio (x) = 0.30403 0.28923
# Poissons Ratio (y) = 0.18148 0.27393
# Poissons Ratio (z) = 0.32065 0.50875
#
# Static dielectric constant tensor:
#      x y z
#    x 1.775910 0.047050 0.007660 
#    y 0.047050 1.716930 0.080540 
#    z 0.007660 0.080540 1.668810 
# 
# From -- ./inp_files/199940.got.cif
#   From: 2010.05.17/outbox.cif.g08.bks.cpg/sg2_100_cif.got.tgz:199940.got - 2010.06.03 11:33:40.
