data_PCOD9068982
_publ_section_title
;
Structure prediction by ZEFSAII (Michael W. Deem and Ramdas Pophale) SiO2 
 PCOD9068982
Probable space group: P -1
;
_chemical_formula_sum "Si O2"
_cell_formula_units_Z 10
_cell_length_a 8.942909
_cell_length_b 9.240632
_cell_length_c 8.260575
_cell_angle_alpha 101.753432
_cell_angle_beta 127.761805
_cell_angle_gamma 59.470248
_cell_volume 459.036476
_symmetry_space_group_name_H-M "P -1"
_symmetry_group_IT_number 2
_symmetry_cell_setting 'triclinic'
loop_
_space_group_symop_operation_xyz
x,y,z
-x,-y,-z
loop_
_atom_site_type_symbol
_atom_site_label
_atom_site_fract_x
_atom_site_fract_y
_atom_site_fract_z
Si Si1 0.019465 0.850874 0.272396
Si Si2 0.878016 0.628472 0.301422
Si Si3 0.106606 0.662791 0.939295
Si Si4 0.725399 0.996725 0.639527
Si Si5 0.365417 0.818325 0.043242
O O1 0.208023 0.902817 0.421837
O O2 0.994201 0.738346 0.366771
O O3 0.065410 0.736353 0.111885
O O4 0.793337 0.031692 0.149802
O O5 0.886114 0.513900 0.126592
O O6 0.620067 0.752545 0.185582
O O7 0.000000 0.500000 0.500000
O O8 0.313439 0.665116 0.995776
O O9 0.910140 0.803152 0.732946
O O10 0.727873 0.084214 0.828224
O O11 0.500000 0.000000 0.500000
#
# Coordination Sequence:
#
# PCOD9068982 Si02
#       5
#     2   2   2   2   2
#     4   9  20  38  59  78 106 151 187 209 265 341
#     4  12  22  34  53  88 118 136 173 236 277 304
#     4   9  19  37  58  77 106 148 186 218 265 329
#     4   9  17  36  59  80 106 143 186 227 265 319
#     4   9  19  37  58  77 106 148 186 218 265 329
#
# _framework density 21.784762000000001
#
# number of rings (size 3 to 8) (size 9 to 14) (size 15 to 20)
#    0.000    2.400    0.000    5.400    0.000    0.000 
#    0.000   26.000    0.000    0.000    0.000    0.000 
#    0.000    0.000    0.000    0.000    0.000    0.000 
#
# Total GULP energy -55730.315536 kJ/mol
# GULP energy per Si atom -5573.031554 kJ/mol
# Density = 2.173518 g / cm^3
# Si number density = 21.784762 Si / 1000 Ang^3
#
#
#
# Elastic Constant Matrix: (Units=GPa)
#
#
# Indices 1 2 3 4 5 6 
#
# 1 148.4778 52.0828 43.5391 -23.5571 21.0539 36.7513
# 2 52.0828 84.5942 8.6884 -2.4728 2.3602 5.2873
# 3 43.5391 8.6884 44.1026 -5.4821 4.3490 12.7621
# 4 -23.5571 -2.4728 -5.4821 22.2106 1.3231 -5.1717
# 5 21.0539 2.3602 4.3490 1.3231 30.0201 5.8653
# 6 36.7513 5.2873 12.7621 -5.1717 5.8653 54.5322
#
#
#
# Elastic Compliance Matrix: (Units=1/GPa)
#
#
# Indices 1 2 3 4 5 6 
#
# 1 0.019109 -0.009367 -0.012206 0.015299 -0.010290 -0.006556
# 2 -0.009367 0.016699 0.003908 -0.006759 0.004469 0.002658
# 3 -0.012206 0.003908 0.033220 -0.004721 0.003802 -0.000784
# 4 0.015299 -0.006759 -0.004721 0.059659 -0.011827 -0.001620
# 5 -0.010290 0.004469 0.003802 -0.011827 0.040113 0.000176
# 6 -0.006556 0.002658 -0.000784 -0.001620 0.000176 0.022509
#
#
# Mechanical properties :
#
#
# Convention : Reuss Voigt Hill
#
# Bulk Modulus (GPa) = 29.67647 53.97725 41.82686
# Shear Modulus (GPa) = 21.01965 32.87686 26.94825
#
# Velocity S-wave (km/s) = 3.10962 3.88902 3.52095
# Velocity P-wave (km/s) = 5.15220 6.70800 5.98090
#
# Compressibility (1/GPa) = 0.03369673
#
# Stress axis : x y z
#
# Youngs Moduli (GPa) = 52.33034 59.88477 30.10252
#
# Poissons Ratio (x) = 0.56097 0.36744
# Poissons Ratio (y) = 0.49020 -0.11764
# Poissons Ratio (z) = 0.63876 -0.23404
#
# Static dielectric constant tensor:
#      x y z
#    x 1.860450 0.046630 0.059420 
#    y 0.046630 1.825320 0.104810 
#    z 0.059420 0.104810 1.943770 
# 
# From -- ./inp_files/143921.got.cif
#   From: 2010.05.17/outbox.cif.g08.bks.cpg/sg2_72_cif.got.tgz:143921.got - 2010.06.03 11:33:40.
