data_PCOD9068136
_publ_section_title
;
Structure prediction by ZEFSAII (Michael W. Deem and Ramdas Pophale) SiO2 
 PCOD9068136
Probable space group: P -1
;
_chemical_formula_sum "Si O2"
_cell_formula_units_Z 13
_cell_length_a 12.461205
_cell_length_b 9.727752
_cell_length_c 9.946989
_cell_angle_alpha 45.931665
_cell_angle_beta 67.141768
_cell_angle_gamma 44.609010
_cell_volume 594.655616
_symmetry_space_group_name_H-M "P -1"
_symmetry_group_IT_number 2
_symmetry_cell_setting 'triclinic'
loop_
_space_group_symop_operation_xyz
x,y,z
-x,-y,-z
loop_
_atom_site_type_symbol
_atom_site_label
_atom_site_fract_x
_atom_site_fract_y
_atom_site_fract_z
Si Si1 0.588811 0.087108 0.957312
Si Si2 0.438734 0.290316 0.180449
Si Si3 0.918983 0.939125 0.480227
Si Si4 0.585089 0.134957 0.503302
Si Si5 0.952075 0.588097 0.116924
Si Si6 0.500000 0.500000 0.500000
Si Si7 0.108189 0.813214 0.954491
O O1 0.555534 0.298579 0.730983
O O2 0.528374 0.206926 0.053197
O O3 0.500000 0.000000 0.000000
O O4 0.770930 0.837401 0.043518
O O5 0.539622 0.215616 0.315841
O O6 0.386744 0.122514 0.323233
O O7 0.290715 0.592708 0.048180
O O8 0.006263 0.642522 0.657959
O O9 0.737039 0.095264 0.498804
O O10 0.919029 0.027021 0.272129
O O11 0.000000 0.000000 0.500000
O O12 0.460421 0.350767 0.523002
O O13 0.000000 0.500000 0.000000
O O14 0.052185 0.660288 0.058851
O O15 0.000000 0.000000 0.000000
#
# Coordination Sequence:
#
# PCOD9068136 Si02
#       7
#     2   2   2   2   2   1   2
#     4  12  27  45  77 109 148 198 245 309 369 442
#     4  11  26  52  74 109 156 197 249 314 378 441
#     4  12  27  45  78 107 146 200 248 303 378 447
#     4  11  26  47  78 108 151 198 253 311 371 453
#     4  12  26  49  73 109 154 189 251 311 369 449
#     4  12  26  42  74 108 140 190 260 290 368 442
#     4  12  29  48  75 110 149 198 246 312 380 442
#
# _framework density 21.861393
#
# number of rings (size 3 to 8) (size 9 to 14) (size 15 to 20)
#    0.000    0.308    4.615    2.769    6.462    4.308 
#    0.000    0.000    0.000    0.000    0.000    0.000 
#    0.000    0.000    0.000    0.000    0.000    0.000 
#
# Total GULP energy -72549.541277 kJ/mol
# GULP energy per Si atom -5580.733944 kJ/mol
# Density = 2.181164 g / cm^3
# Si number density = 21.861393 Si / 1000 Ang^3
#
#
#
# Elastic Constant Matrix: (Units=GPa)
#
#
# Indices 1 2 3 4 5 6 
#
# 1 91.5301 5.3267 33.5107 -2.1375 -0.3345 5.3421
# 2 5.3267 106.4576 58.2594 7.4677 9.9353 3.7622
# 3 33.5107 58.2594 232.0841 -6.4493 -6.7798 -4.5022
# 4 -2.1375 7.4677 -6.4493 38.3516 5.2939 6.3964
# 5 -0.3345 9.9353 -6.7798 5.2939 33.8392 -3.9993
# 6 5.3421 3.7622 -4.5022 6.3964 -3.9993 45.4836
#
#
#
# Elastic Compliance Matrix: (Units=1/GPa)
#
#
# Indices 1 2 3 4 5 6 
#
# 1 0.011688 0.000514 -0.001854 0.000630 -0.000712 -0.001750
# 2 0.000514 0.011677 -0.003203 -0.002009 -0.003917 -0.001405
# 3 -0.001854 -0.003203 0.005487 0.000991 0.001992 0.001062
# 4 0.000630 -0.002009 0.000991 0.027909 -0.004055 -0.004091
# 5 -0.000712 -0.003917 0.001992 -0.004055 0.032201 0.004006
# 6 -0.001750 -0.001405 0.001062 -0.004091 0.004006 0.023340
#
#
# Mechanical properties :
#
#
# Convention : Reuss Voigt Hill
#
# Bulk Modulus (GPa) = 50.59193 69.36283 59.97738
# Shear Modulus (GPa) = 39.06934 45.73322 42.40128
#
# Velocity S-wave (km/s) = 4.23204 4.57876 4.40881
# Velocity P-wave (km/s) = 6.86095 7.72986 7.30833
#
# Compressibility (1/GPa) = 0.01976600
#
# Stress axis : x y z
#
# Youngs Moduli (GPa) = 85.55444 85.64177 182.25607
#
# Poissons Ratio (x) = -0.04401 0.33789
# Poissons Ratio (y) = -0.04396 0.58373
# Poissons Ratio (z) = 0.15861 0.27430
#
# Static dielectric constant tensor:
#      x y z
#    x 1.799050 0.013620 -0.004850 
#    y 0.013620 1.821940 -0.017890 
#    z -0.004850 -0.017890 1.751260 
# 
# From -- ./inp_files/149730.got.cif
#   From: 2010.05.17/outbox.cif.g08.bks.cpg/sg2_75_cif.got.tgz:149730.got - 2010.06.03 11:33:40.
