data_PCOD9068791
_publ_section_title
;
Structure prediction by ZEFSAII (Michael W. Deem and Ramdas Pophale) SiO2 
 PCOD9068791
Probable space group: P -1
;
_chemical_formula_sum "Si O2"
_cell_formula_units_Z 14
_cell_length_a 12.483749
_cell_length_b 13.797077
_cell_length_c 13.968305
_cell_angle_alpha 20.818572
_cell_angle_beta 122.076183
_cell_angle_gamma 124.627432
_cell_volume 703.612707
_symmetry_space_group_name_H-M "P -1"
_symmetry_group_IT_number 2
_symmetry_cell_setting 'triclinic'
loop_
_space_group_symop_operation_xyz
x,y,z
-x,-y,-z
loop_
_atom_site_type_symbol
_atom_site_label
_atom_site_fract_x
_atom_site_fract_y
_atom_site_fract_z
Si Si1 0.354686 0.935689 0.035877
Si Si2 0.765094 0.068247 0.489330
Si Si3 0.345501 0.426825 0.967333
Si Si4 0.575994 0.724838 0.565959
Si Si5 0.983491 0.702385 0.717241
Si Si6 0.726697 0.673005 0.501803
Si Si7 0.585929 0.846531 0.928807
O O1 0.260976 0.055709 0.809079
O O2 0.357607 0.083558 0.003187
O O3 0.310757 0.601144 0.328455
O O4 0.500000 0.000000 0.000000
O O5 0.905024 0.248124 0.356634
O O6 0.744373 0.793913 0.799371
O O7 0.692644 0.935510 0.480662
O O8 0.693519 0.279415 0.313510
O O9 0.500000 0.500000 0.000000
O O10 0.331900 0.272336 0.001088
O O11 0.612066 0.691290 0.504554
O O12 0.541039 0.413363 0.879996
O O13 0.457278 0.875037 0.381812
O O14 0.845727 0.639239 0.656014
O O15 0.000000 0.000000 0.500000
O O16 0.000000 0.500000 0.000000
#
# Coordination Sequence:
#
# PCOD9068791 Si02
#       7
#     2   2   2   2   2   2   2
#     4  12  23  40  61  93 126 169 204 261 318 371
#     4  12  24  40  62  92 131 162 206 256 319 378
#     4  12  23  40  61  93 126 169 204 261 318 371
#     4  12  20  35  62  94 124 163 198 254 310 396
#     4  12  26  42  66  95 126 171 210 258 320 377
#     4  12  24  40  62  92 131 162 206 256 319 378
#     4  12  24  36  62  92 130 162 208 250 318 384
#
# _framework density 19.897309
#
# number of rings (size 3 to 8) (size 9 to 14) (size 15 to 20)
#    0.000    0.000    7.143    4.286    2.000    0.000 
#    0.000    0.000    0.000    5.143    0.000    0.000 
#    0.000    0.000    0.000    0.000    0.000    0.000 
#
# Total GULP energy -78203.241425 kJ/mol
# GULP energy per Si atom -5585.945816 kJ/mol
# Density = 1.985202 g / cm^3
# Si number density = 19.897309 Si / 1000 Ang^3
#
#
#
# Elastic Constant Matrix: (Units=GPa)
#
#
# Indices 1 2 3 4 5 6 
#
# 1 65.0084 22.4688 5.8449 -2.5384 1.5505 -17.0765
# 2 22.4688 79.9798 21.8940 -3.0746 12.6330 -17.9200
# 3 5.8449 21.8940 97.9853 -8.9513 2.9434 -5.4675
# 4 -2.5384 -3.0746 -8.9513 32.6436 -7.1697 5.8581
# 5 1.5505 12.6330 2.9434 -7.1697 30.2355 -4.4010
# 6 -17.0765 -17.9200 -5.4675 5.8581 -4.4010 35.5500
#
#
#
# Elastic Compliance Matrix: (Units=1/GPa)
#
#
# Indices 1 2 3 4 5 6 
#
# 1 0.018570 -0.003923 0.000134 0.000217 0.001765 0.007146
# 2 -0.003923 0.016603 -0.003160 -0.001942 -0.006078 0.005566
# 3 0.000134 -0.003160 0.011140 0.003003 0.000912 -0.000197
# 4 0.000217 -0.001942 0.003003 0.033911 0.007817 -0.005033
# 5 0.001765 -0.006078 0.000912 0.007817 0.037473 0.001275
# 6 0.007146 0.005566 -0.000197 -0.005033 0.001275 0.035325
#
#
# Mechanical properties :
#
#
# Convention : Reuss Voigt Hill
#
# Bulk Modulus (GPa) = 30.84973 38.15433 34.50203
# Shear Modulus (GPa) = 28.13348 32.53687 30.33518
#
# Velocity S-wave (km/s) = 3.76431 4.04820 3.90883
# Velocity P-wave (km/s) = 5.86784 6.40842 6.14407
#
# Compressibility (1/GPa) = 0.03241519
#
# Stress axis : x y z
#
# Youngs Moduli (GPa) = 53.85043 60.23056 89.76972
#
# Poissons Ratio (x) = 0.23629 -0.01206
# Poissons Ratio (y) = 0.21126 0.28367
# Poissons Ratio (z) = -0.00724 0.19033
#
# Static dielectric constant tensor:
#      x y z
#    x 1.735210 0.020800 -0.006860 
#    y 0.020800 1.706160 0.027100 
#    z -0.006860 0.027100 1.691090 
# 
# From -- ./inp_files/521228.got.cif
#   From: 2010.05.17/outbox.cif.g08.bks.cpg/sg2_261_cif.got.tgz:521228.got - 2010.06.03 11:33:40.
