data_PCOD9068095
_publ_section_title
;
Structure prediction by ZEFSAII (Michael W. Deem and Ramdas Pophale) SiO2 
 PCOD9068095
Probable space group: P -1
;
_chemical_formula_sum "Si O2"
_cell_formula_units_Z 10
_cell_length_a 15.468755
_cell_length_b 4.835616
_cell_length_c 8.036075
_cell_angle_alpha 116.755463
_cell_angle_beta 49.747594
_cell_angle_gamma 123.966815
_cell_volume 376.689686
_symmetry_space_group_name_H-M "P -1"
_symmetry_group_IT_number 2
_symmetry_cell_setting 'triclinic'
loop_
_space_group_symop_operation_xyz
x,y,z
-x,-y,-z
loop_
_atom_site_type_symbol
_atom_site_label
_atom_site_fract_x
_atom_site_fract_y
_atom_site_fract_z
Si Si1 0.899117 0.698585 0.760143
Si Si2 0.147425 0.340804 0.562578
Si Si3 0.584139 0.589826 0.756904
Si Si4 0.481568 0.836935 0.668360
Si Si5 0.207062 0.769225 0.938231
O O1 0.874513 0.545340 0.563826
O O2 0.171749 0.601322 0.754992
O O3 0.030165 0.011272 0.671602
O O4 0.801188 0.870563 0.960328
O O5 0.114654 0.547515 0.135786
O O6 0.546071 0.846458 0.769097
O O7 0.553314 0.215940 0.612942
O O8 0.730339 0.736077 0.632669
O O9 0.500000 0.500000 0.000000
O O10 0.500000 0.500000 0.500000
O O11 0.339960 0.787453 0.834050
#
# Coordination Sequence:
#
# PCOD9068095 Si02
#       5
#     2   2   2   2   2
#     4  11  28  47  70 111 138 190 242 293 348 437
#     4  11  26  47  76 101 149 186 238 296 360 414
#     4  12  26  45  72 105 141 186 237 294 359 425
#     4  12  25  44  69 103 141 182 235 289 355 427
#     4  12  25  47  74 103 146 185 240 290 361 423
#
# _framework density 26.547049999999999
#
# number of rings (size 3 to 8) (size 9 to 14) (size 15 to 20)
#    0.000    0.400    2.000    6.000    2.800    8.000 
#    0.000    0.000    0.000    0.000    0.000    0.000 
#    0.000    0.000    0.000    0.000    0.000    0.000 
#
# Total GULP energy -56051.499225 kJ/mol
# GULP energy per Si atom -5605.149923 kJ/mol
# Density = 2.648663 g / cm^3
# Si number density = 26.547050 Si / 1000 Ang^3
#
#
#
# Elastic Constant Matrix: (Units=GPa)
#
#
# Indices 1 2 3 4 5 6 
#
# 1 81.0941 26.8322 38.5315 12.1586 -2.6002 10.7464
# 2 26.8322 130.3443 21.3168 4.5442 -7.8398 -26.8800
# 3 38.5315 21.3168 135.3488 2.2849 -13.4766 -5.0036
# 4 12.1586 4.5442 2.2849 46.7559 -2.2053 -14.7200
# 5 -2.6002 -7.8398 -13.4766 -2.2053 56.1203 -6.3569
# 6 10.7464 -26.8800 -5.0036 -14.7200 -6.3569 44.9558
#
#
#
# Elastic Compliance Matrix: (Units=1/GPa)
#
#
# Indices 1 2 3 4 5 6 
#
# 1 0.019131 -0.005307 -0.005162 -0.007885 -0.002682 -0.011282
# 2 -0.005307 0.010613 0.000367 0.003310 0.002485 0.009090
# 3 -0.005162 0.000367 0.009142 0.002080 0.002486 0.003503
# 4 -0.007885 0.003310 0.002080 0.027425 0.003207 0.013529
# 5 -0.002682 0.002485 0.002486 0.003207 0.019468 0.006206
# 6 -0.011282 0.009090 0.003503 0.013529 0.006206 0.036074
#
#
# Mechanical properties :
#
#
# Convention : Reuss Voigt Hill
#
# Bulk Modulus (GPa) = 53.52560 57.79422 55.65991
# Shear Modulus (GPa) = 33.71901 46.90685 40.31293
#
# Velocity S-wave (km/s) = 3.56780 4.20805 3.90108
# Velocity P-wave (km/s) = 6.09742 6.74003 6.42676
#
# Compressibility (1/GPa) = 0.01868265
#
# Stress axis : x y z
#
# Youngs Moduli (GPa) = 52.27050 94.22204 109.38702
#
# Poissons Ratio (x) = 0.50006 0.56460
# Poissons Ratio (y) = 0.27741 -0.04014
# Poissons Ratio (z) = 0.26980 -0.03457
#
# Static dielectric constant tensor:
#      x y z
#    x 2.591970 0.049840 0.609920 
#    y 0.049840 1.961080 -0.007970 
#    z 0.609920 -0.007970 2.727290 
# 
# From -- ./inp_files/96725.got.cif
#   From: 2010.05.17/outbox.cif.g08.bks.cpg/sg2_49_cif.got.tgz:96725.got - 2010.06.03 11:33:40.
