data_PCOD9068599
_publ_section_title
;
Structure prediction by ZEFSAII (Michael W. Deem and Ramdas Pophale) SiO2 
 PCOD9068599
Probable space group: P -1
;
_chemical_formula_sum "Si O2"
_cell_formula_units_Z 13
_cell_length_a 9.434560
_cell_length_b 9.157605
_cell_length_c 9.689891
_cell_angle_alpha 61.268488
_cell_angle_beta 133.970794
_cell_angle_gamma 103.725981
_cell_volume 522.127816
_symmetry_space_group_name_H-M "P -1"
_symmetry_group_IT_number 2
_symmetry_cell_setting 'triclinic'
loop_
_space_group_symop_operation_xyz
x,y,z
-x,-y,-z
loop_
_atom_site_type_symbol
_atom_site_label
_atom_site_fract_x
_atom_site_fract_y
_atom_site_fract_z
Si Si1 0.448086 0.382998 0.642358
Si Si2 0.290198 0.848489 0.680445
Si Si3 0.362781 0.399189 0.115019
Si Si4 0.993951 0.409559 0.390104
Si Si5 0.192121 0.098994 0.251481
Si Si6 0.251067 0.946869 0.056784
Si Si7 0.500000 0.000000 0.000000
O O1 0.500000 0.500000 0.500000
O O2 0.539162 0.460540 0.802082
O O3 0.213757 0.391504 0.485933
O O4 0.554761 0.189059 0.792121
O O5 0.465012 0.701482 0.816313
O O6 0.090497 0.765704 0.582776
O O7 0.271155 0.988378 0.484727
O O8 0.341922 0.924062 0.825016
O O9 0.289634 0.266897 0.232632
O O10 0.166624 0.474604 0.865686
O O11 0.000000 0.500000 0.500000
O O12 0.247734 0.998889 0.190276
O O13 0.951332 0.124925 0.077861
O O14 0.305922 0.091256 0.928713
#
# Coordination Sequence:
#
# PCOD9068599 Si02
#       7
#     2   2   2   2   2   2   1
#     4  12  28  49  81 116 158 208 270 329 393 479
#     4  12  27  50  82 123 157 215 264 338 401 483
#     4  12  26  53  79 118 159 212 267 331 395 490
#     4  12  29  49  85 113 161 215 268 323 413 474
#     4  11  27  51  85 112 161 215 267 320 422 472
#     4  11  27  48  76 119 158 207 262 337 389 486
#     4  12  28  46  76 114 166 192 268 334 394 456
#
# _framework density 24.898119000000001
#
# number of rings (size 3 to 8) (size 9 to 14) (size 15 to 20)
#    0.000    0.308    3.077    3.692   10.769    4.308 
#    0.000    0.000    0.000    0.000    0.000    0.000 
#    0.000    0.000    0.000    0.000    0.000    0.000 
#
# Total GULP energy -72785.093784 kJ/mol
# GULP energy per Si atom -5598.853368 kJ/mol
# Density = 2.484145 g / cm^3
# Si number density = 24.898119 Si / 1000 Ang^3
#
#
#
# Elastic Constant Matrix: (Units=GPa)
#
#
# Indices 1 2 3 4 5 6 
#
# 1 178.0708 39.7831 68.1388 17.4275 27.6896 21.2586
# 2 39.7831 129.9248 60.2799 30.5638 9.2913 17.0641
# 3 68.1388 60.2799 161.7592 13.2489 13.2679 -0.6411
# 4 17.4275 30.5638 13.2489 48.0070 1.1150 3.9955
# 5 27.6896 9.2913 13.2679 1.1150 58.8366 7.8522
# 6 21.2586 17.0641 -0.6411 3.9955 7.8522 46.4433
#
#
#
# Elastic Compliance Matrix: (Units=1/GPa)
#
#
# Indices 1 2 3 4 5 6 
#
# 1 0.007626 -0.000054 -0.002863 -0.001640 -0.002511 -0.002945
# 2 -0.000054 0.011304 -0.003698 -0.005847 -0.000332 -0.003620
# 3 -0.002863 -0.003698 0.008751 0.000756 -0.000429 0.002798
# 4 -0.001640 -0.005847 0.000756 0.024867 0.000973 0.000606
# 5 -0.002511 -0.000332 -0.000429 0.000973 0.018570 -0.001958
# 6 -0.002945 -0.003620 0.002798 0.000606 -0.001958 0.024527
#
#
# Mechanical properties :
#
#
# Convention : Reuss Voigt Hill
#
# Bulk Modulus (GPa) = 69.20811 89.57316 79.39063
# Shear Modulus (GPa) = 43.97856 50.76092 47.36974
#
# Velocity S-wave (km/s) = 4.20735 4.52014 4.36655
# Velocity P-wave (km/s) = 7.17351 7.95589 7.57481
#
# Compressibility (1/GPa) = 0.01444917
#
# Stress axis : x y z
#
# Youngs Moduli (GPa) = 131.12910 88.46655 114.27812
#
# Poissons Ratio (x) = 0.00482 0.32723
# Poissons Ratio (y) = 0.00714 0.42256
# Poissons Ratio (z) = 0.37549 0.32712
#
# Static dielectric constant tensor:
#      x y z
#    x 1.868770 -0.076360 0.090290 
#    y -0.076360 1.855930 0.051220 
#    z 0.090290 0.051220 1.849430 
# 
# From -- ./inp_files/157769.got.cif
#   From: 2010.05.17/outbox.cif.g08.bks.cpg/sg2_79_cif.got.tgz:157769.got - 2010.06.03 11:33:40.
