data_PCOD9068083
_publ_section_title
;
Structure prediction by ZEFSAII (Michael W. Deem and Ramdas Pophale) SiO2 
 PCOD9068083
Probable space group: P -1
;
_chemical_formula_sum "Si O2"
_cell_formula_units_Z 13
_cell_length_a 7.989724
_cell_length_b 15.568197
_cell_length_c 7.841351
_cell_angle_alpha 65.427188
_cell_angle_beta 90.332479
_cell_angle_gamma 139.068471
_cell_volume 497.249353
_symmetry_space_group_name_H-M "P -1"
_symmetry_group_IT_number 2
_symmetry_cell_setting 'triclinic'
loop_
_space_group_symop_operation_xyz
x,y,z
-x,-y,-z
loop_
_atom_site_type_symbol
_atom_site_label
_atom_site_fract_x
_atom_site_fract_y
_atom_site_fract_z
Si Si1 0.653372 0.370181 0.275326
Si Si2 0.776644 0.103462 0.629395
Si Si3 0.587777 0.551575 0.652316
Si Si4 0.790888 0.343650 0.759474
Si Si5 0.336052 0.248211 0.021819
Si Si6 0.500000 0.000000 0.000000
Si Si7 0.689522 0.968754 0.374255
O O1 0.468358 0.367817 0.362350
O O2 0.527214 0.307818 0.137356
O O3 0.559737 0.226985 0.472755
O O4 0.995204 0.555016 0.155303
O O5 0.452424 0.005827 0.743959
O O6 0.061095 0.301176 0.433468
O O7 0.735100 0.022111 0.527645
O O8 0.785143 0.069662 0.847649
O O9 0.500000 0.500000 0.500000
O O10 0.390945 0.385605 0.890562
O O11 0.000000 0.500000 0.500000
O O12 0.493501 0.266163 0.854993
O O13 0.716950 0.200602 0.840240
O O14 0.992351 0.073394 0.210137
#
# Coordination Sequence:
#
# PCOD9068083 Si02
#       7
#     2   2   2   2   2   1   2
#     4  12  25  47  75 110 150 194 254 316 376 453
#     4  11  26  47  75 106 156 194 254 311 379 456
#     4  12  27  47  73 109 155 196 251 320 381 454
#     4  12  28  52  75 113 158 200 254 319 382 462
#     4  12  26  48  77 110 146 202 258 309 382 450
#     4  12  26  46  80 104 148 208 248 294 396 446
#     4  11  26  48  76 111 148 195 256 318 371 452
#
# _framework density 26.143823000000001
#
# number of rings (size 3 to 8) (size 9 to 14) (size 15 to 20)
#    0.000    0.308    1.538    6.923    6.462    1.231 
#    0.000    2.308    0.000    0.000    0.000    0.000 
#    0.000    0.000    0.000    0.000    0.000    0.000 
#
# Total GULP energy -72634.392289 kJ/mol
# GULP energy per Si atom -5587.260945 kJ/mol
# Density = 2.608432 g / cm^3
# Si number density = 26.143823 Si / 1000 Ang^3
#
#
#
# Elastic Constant Matrix: (Units=GPa)
#
#
# Indices 1 2 3 4 5 6 
#
# 1 121.9768 36.9157 48.5950 -1.6584 -16.3385 -13.5762
# 2 36.9157 130.8471 64.4490 -28.2985 -9.1881 -10.8136
# 3 48.5950 64.4490 102.6979 -8.3793 -4.2396 -22.8151
# 4 -1.6584 -28.2985 -8.3793 38.2548 -8.8229 2.2360
# 5 -16.3385 -9.1881 -4.2396 -8.8229 66.5527 -0.7379
# 6 -13.5762 -10.8136 -22.8151 2.2360 -0.7379 33.5369
#
#
#
# Elastic Compliance Matrix: (Units=1/GPa)
#
#
# Indices 1 2 3 4 5 6 
#
# 1 0.010514 -0.000801 -0.004155 -0.000628 0.002137 0.001260
# 2 -0.000801 0.013656 -0.007743 0.009020 0.002372 -0.001738
# 3 -0.004155 -0.007743 0.018141 -0.002697 -0.001199 0.008316
# 4 -0.000628 0.009020 -0.002697 0.033504 0.005346 -0.001297
# 5 0.002137 0.002372 -0.001199 0.005346 0.016519 0.000821
# 6 0.001260 -0.001738 0.008316 -0.001297 0.000821 0.035529
#
#
# Mechanical properties :
#
#
# Convention : Reuss Voigt Hill
#
# Bulk Modulus (GPa) = 59.13194 72.82682 65.97938
# Shear Modulus (GPa) = 31.46637 41.37300 36.41968
#
# Velocity S-wave (km/s) = 3.47304 3.98240 3.73641
# Velocity P-wave (km/s) = 6.22493 7.00448 6.62618
#
# Compressibility (1/GPa) = 0.01691133
#
# Stress axis : x y z
#
# Youngs Moduli (GPa) = 95.10981 73.22741 55.12460
#
# Poissons Ratio (x) = 0.05867 0.22907
# Poissons Ratio (y) = 0.07620 0.42684
# Poissons Ratio (z) = 0.39523 0.56701
#
# Static dielectric constant tensor:
#      x y z
#    x 2.254950 0.209960 0.212670 
#    y 0.209960 2.329210 0.416860 
#    z 0.212670 0.416860 2.430620 
# 
# From -- ./inp_files/156542.got.cif
#   From: 2010.05.17/outbox.cif.g08.bks.cpg/sg2_79_cif.got.tgz:156542.got - 2010.06.03 11:33:40.
