data_PCOD9068772
_publ_section_title
;
Structure prediction by ZEFSAII (Michael W. Deem and Ramdas Pophale) SiO2 
 PCOD9068772
Probable space group: P -1
;
_chemical_formula_sum "Si O2"
_cell_formula_units_Z 16
_cell_length_a 20.595580
_cell_length_b 19.303377
_cell_length_c 9.045270
_cell_angle_alpha 37.783015
_cell_angle_beta 148.231223
_cell_angle_gamma 159.235364
_cell_volume 671.028464
_symmetry_space_group_name_H-M "P -1"
_symmetry_group_IT_number 2
_symmetry_cell_setting 'triclinic'
loop_
_space_group_symop_operation_xyz
x,y,z
-x,-y,-z
loop_
_atom_site_type_symbol
_atom_site_label
_atom_site_fract_x
_atom_site_fract_y
_atom_site_fract_z
Si Si1 0.767040 0.997188 0.480191
Si Si2 0.741665 0.179936 0.556737
Si Si3 0.659215 0.456913 0.873178
Si Si4 0.487590 0.414355 0.332485
Si Si5 0.320884 0.644999 0.351703
Si Si6 0.073445 0.539480 0.787026
Si Si7 0.791346 0.591568 0.222977
Si Si8 0.335369 0.026860 0.006250
O O1 0.987554 0.193350 0.651503
O O2 0.714403 0.823894 0.650839
O O3 0.553039 0.871206 0.374610
O O4 0.770129 0.050637 0.229222
O O5 0.855817 0.290602 0.436282
O O6 0.506753 0.052431 0.287524
O O7 0.847682 0.340795 0.614805
O O8 0.772772 0.083868 0.859813
O O9 0.782662 0.450839 0.031252
O O10 0.783520 0.585695 0.040435
O O11 0.449785 0.232133 0.897637
O O12 0.591767 0.499958 0.551737
O O13 0.657375 0.466729 0.482553
O O14 0.405608 0.470609 0.019653
O O15 0.257521 0.566995 0.527769
O O16 0.145143 0.579183 0.026645
#
# Coordination Sequence:
#
# PCOD9068772 Si02
#       8
#     2   2   2   2   2   2   2   2
#     4   9  19  33  50  74 106 123 170 210 234 291
#     4   9  15  26  60  73  89 127 181 198 236 296
#     4   9  19  33  49  73 109 122 160 209 253 285
#     4   8  18  36  52  71 101 133 172 205 231 291
#     4   9  19  33  50  74 106 123 170 210 234 291
#     4   9  16  33  50  79  95 128 166 213 238 289
#     4  12  19  31  57  73  97 144 159 197 261 294
#     4   9  16  33  50  79  95 128 166 213 238 289
#
# _framework density 23.843995
#
# number of rings (size 3 to 8) (size 9 to 14) (size 15 to 20)
#    0.750    2.000    2.500    1.875    0.000    0.000 
#    2.250    0.000    0.000   30.000    0.000    0.000 
#    0.000    0.000    0.000    0.000    0.000    0.000 
#
# Total GULP energy -89151.414613 kJ/mol
# GULP energy per Si atom -5571.963413 kJ/mol
# Density = 2.378973 g / cm^3
# Si number density = 23.843995 Si / 1000 Ang^3
#
#
#
# Elastic Constant Matrix: (Units=GPa)
#
#
# Indices 1 2 3 4 5 6 
#
# 1 52.9944 6.6189 27.0029 6.4025 -9.0282 0.0475
# 2 6.6189 49.4824 52.9817 6.0001 -18.6787 10.9310
# 3 27.0029 52.9817 208.7807 1.9687 -34.4903 3.0508
# 4 6.4025 6.0001 1.9687 37.6800 -2.3014 -7.7770
# 5 -9.0282 -18.6787 -34.4903 -2.3014 29.6871 -4.4541
# 6 0.0475 10.9310 3.0508 -7.7770 -4.4541 19.3811
#
#
#
# Elastic Compliance Matrix: (Units=1/GPa)
#
#
# Indices 1 2 3 4 5 6 
#
# 1 0.021092 0.002380 -0.002541 -0.003875 0.004429 -0.001531
# 2 0.002380 0.038775 -0.007739 -0.009952 0.012075 -0.021875
# 3 -0.002541 -0.007739 0.007687 0.002593 0.004267 0.005182
# 4 -0.003875 -0.009952 0.002593 0.032509 0.000862 0.018457
# 5 0.004429 0.012075 0.004267 0.000862 0.048245 0.003940
# 6 -0.001531 -0.021875 0.005182 0.018457 0.003940 0.071434
#
#
# Mechanical properties :
#
#
# Convention : Reuss Voigt Hill
#
# Bulk Modulus (GPa) = 19.32302 53.82942 36.57622
# Shear Modulus (GPa) = 19.77901 32.32658 26.05279
#
# Velocity S-wave (km/s) = 2.88326 3.68605 3.30909
# Velocity P-wave (km/s) = 4.38244 6.38284 5.47478
#
# Compressibility (1/GPa) = 0.05175175
#
# Stress axis : x y z
#
# Youngs Moduli (GPa) = 47.41212 25.79009 130.08824
#
# Poissons Ratio (x) = -0.06137 0.33058
# Poissons Ratio (y) = -0.11282 1.00678
# Poissons Ratio (z) = 0.12048 0.19959
#
# Static dielectric constant tensor:
#      x y z
#    x 2.064600 0.079840 -0.027710 
#    y 0.079840 1.974330 -0.041060 
#    z -0.027710 -0.041060 1.888520 
# 
# From -- ./inp_files/311301.got.cif
#   From: 2010.05.17/outbox.cif.g08.bks.cpg/sg2_156_cif.got.tgz:311301.got - 2010.06.03 11:33:40.
