data_PCOD9068431
_publ_section_title
;
Structure prediction by ZEFSAII (Michael W. Deem and Ramdas Pophale) SiO2 
 PCOD9068431
Probable space group: P -1
;
_chemical_formula_sum "Si O2"
_cell_formula_units_Z 12
_cell_length_a 9.943218
_cell_length_b 9.901365
_cell_length_c 7.488617
_cell_angle_alpha 100.262636
_cell_angle_beta 76.099361
_cell_angle_gamma 44.296593
_cell_volume 427.995003
_symmetry_space_group_name_H-M "P -1"
_symmetry_group_IT_number 2
_symmetry_cell_setting 'triclinic'
loop_
_space_group_symop_operation_xyz
x,y,z
-x,-y,-z
loop_
_atom_site_type_symbol
_atom_site_label
_atom_site_fract_x
_atom_site_fract_y
_atom_site_fract_z
Si Si1 0.799216 0.826871 0.243337
Si Si2 0.294003 0.639694 0.394700
Si Si3 0.929623 0.712847 0.574398
Si Si4 0.692671 0.637017 0.086888
Si Si5 0.500000 0.000000 0.000000
Si Si6 0.752208 0.149770 0.190090
Si Si7 0.500000 0.500000 0.000000
O O1 0.845126 0.821317 0.430757
O O2 0.657401 0.797141 0.264869
O O3 0.698983 0.030854 0.209033
O O4 0.045151 0.608988 0.024269
O O5 0.548756 0.378451 0.188575
O O6 0.295399 0.748956 0.575001
O O7 0.229625 0.718832 0.230378
O O8 0.147837 0.633972 0.526012
O O9 0.000000 0.500000 0.500000
O O10 0.718204 0.904594 0.814462
O O11 0.551291 0.610940 0.119270
O O12 0.662561 0.738811 0.933731
O O13 0.000000 0.000000 0.000000
#
# Coordination Sequence:
#
# PCOD9068431 Si02
#       7
#     2   2   2   2   1   2   1
#     4  11  26  50  77 118 160 212 269 339 407 486
#     4  11  28  51  79 119 162 214 272 342 406 496
#     4  12  27  50  75 113 158 207 273 330 403 483
#     4  11  27  48  81 116 160 209 271 334 409 487
#     4  12  28  50  80 114 152 218 264 340 400 486
#     4  11  28  51  82 119 166 215 272 340 417 489
#     4  12  24  52  78 116 158 210 266 340 400 492
#
# _framework density 28.037711999999999
#
# number of rings (size 3 to 8) (size 9 to 14) (size 15 to 20)
#    0.000    0.667    3.333    1.000    9.333    5.333 
#    0.000    0.000    0.000    0.000    0.000    0.000 
#    0.000    0.000    0.000    0.000    0.000    0.000 
#
# Total GULP energy -66840.388842 kJ/mol
# GULP energy per Si atom -5570.032404 kJ/mol
# Density = 2.797390 g / cm^3
# Si number density = 28.037712 Si / 1000 Ang^3
#
#
#
# Elastic Constant Matrix: (Units=GPa)
#
#
# Indices 1 2 3 4 5 6 
#
# 1 119.9256 27.1993 35.3591 1.0428 10.6862 8.0686
# 2 27.1993 159.9838 -2.1138 -3.6315 8.1883 7.9660
# 3 35.3591 -2.1138 177.2924 -8.2177 -0.6225 -15.5762
# 4 1.0428 -3.6315 -8.2177 34.3037 -5.0354 -9.1561
# 5 10.6862 8.1883 -0.6225 -5.0354 59.2855 8.5108
# 6 8.0686 7.9660 -15.5762 -9.1561 8.5108 37.6548
#
#
#
# Elastic Compliance Matrix: (Units=1/GPa)
#
#
# Indices 1 2 3 4 5 6 
#
# 1 0.009688 -0.001511 -0.002300 -0.001970 -0.001314 -0.002890
# 2 -0.001511 0.006584 0.000345 0.000573 -0.000488 -0.000677
# 3 -0.002300 0.000345 0.006559 0.002700 0.000125 0.003761
# 4 -0.001970 0.000573 0.002700 0.032565 0.001788 0.008932
# 5 -0.001314 -0.000488 0.000125 0.001788 0.017777 -0.003147
# 6 -0.002890 -0.000677 0.003761 0.008932 -0.003147 0.031758
#
#
# Mechanical properties :
#
#
# Convention : Reuss Voigt Hill
#
# Bulk Modulus (GPa) = 62.89474 64.23234 63.56354
# Shear Modulus (GPa) = 42.67572 52.69928 47.68750
#
# Velocity S-wave (km/s) = 3.90562 4.34012 4.12859
# Velocity P-wave (km/s) = 6.54365 6.93358 6.74144
#
# Compressibility (1/GPa) = 0.01589958
#
# Stress axis : x y z
#
# Youngs Moduli (GPa) = 103.22083 151.88918 152.45601
#
# Poissons Ratio (x) = 0.22951 0.35064
# Poissons Ratio (y) = 0.15597 -0.05264
# Poissons Ratio (z) = 0.23740 -0.05245
#
# Static dielectric constant tensor:
#      x y z
#    x 2.273690 -0.088830 0.149670 
#    y -0.088830 2.452370 -0.138050 
#    z 0.149670 -0.138050 2.383740 
# 
# From -- ./inp_files/155829.got.cif
#   From: 2010.05.17/outbox.cif.g08.bks.cpg/sg2_78_cif.got.tgz:155829.got - 2010.06.03 11:33:40.
