data_PCOD9068336
_publ_section_title
;
Structure prediction by ZEFSAII (Michael W. Deem and Ramdas Pophale) SiO2 
 PCOD9068336
Probable space group: P -1
;
_chemical_formula_sum "Si O2"
_cell_formula_units_Z 16
_cell_length_a 15.631252
_cell_length_b 8.598762
_cell_length_c 9.382512
_cell_angle_alpha 84.401260
_cell_angle_beta 44.328742
_cell_angle_gamma 109.502853
_cell_volume 714.175604
_symmetry_space_group_name_H-M "P -1"
_symmetry_group_IT_number 2
_symmetry_cell_setting 'triclinic'
loop_
_space_group_symop_operation_xyz
x,y,z
-x,-y,-z
loop_
_atom_site_type_symbol
_atom_site_label
_atom_site_fract_x
_atom_site_fract_y
_atom_site_fract_z
Si Si1 0.772241 0.701676 0.646155
Si Si2 0.698782 0.249094 0.131038
Si Si3 0.381663 0.527753 0.406487
Si Si4 0.899438 0.799841 0.052688
Si Si5 0.941081 0.286667 0.634988
Si Si6 0.689274 0.612348 0.078236
Si Si7 0.386991 0.881704 0.443176
Si Si8 0.155830 0.897544 0.542194
O O1 0.645137 0.518247 0.724792
O O2 0.926067 0.717520 0.456320
O O3 0.792679 0.884847 0.534099
O O4 0.732730 0.690489 0.859562
O O5 0.723695 0.453592 0.070370
O O6 0.703854 0.201714 0.293407
O O7 0.532032 0.091904 0.285519
O O8 0.811167 0.228535 0.906561
O O9 0.220376 0.373554 0.685919
O O10 0.512074 0.513030 0.312215
O O11 0.431657 0.739970 0.360025
O O12 0.790286 0.780481 0.057169
O O13 0.017526 0.779827 0.827767
O O14 0.000000 0.000000 0.000000
O O15 0.889400 0.169148 0.560078
O O16 0.000000 0.500000 0.500000
O O17 0.286785 0.882432 0.440191
#
# Coordination Sequence:
#
# PCOD9068336 Si02
#       8
#     2   2   2   2   2   2   2   2
#     4  12  26  48  75 109 143 196 245 302 365 440
#     4  11  26  49  75 106 148 198 240 309 366 434
#     4  12  27  47  77 111 146 198 245 305 367 436
#     4  12  26  46  76 112 145 191 246 308 366 435
#     4  12  25  48  73 104 148 192 246 301 371 433
#     4  12  26  51  76 107 152 191 251 298 369 441
#     4  11  28  46  73 109 147 193 251 300 366 434
#     4  12  27  47  70 108 149 189 246 300 364 443
#
# _framework density 22.403452999999999
#
# number of rings (size 3 to 8) (size 9 to 14) (size 15 to 20)
#    0.000    0.250    5.000    2.625    3.500    2.000 
#    0.000    0.000    0.000    0.000    0.000    0.000 
#    0.000    0.000    0.000    0.000    0.000    0.000 
#
# Total GULP energy -89600.748165 kJ/mol
# GULP energy per Si atom -5600.046760 kJ/mol
# Density = 2.235246 g / cm^3
# Si number density = 22.403453 Si / 1000 Ang^3
#
#
#
# Elastic Constant Matrix: (Units=GPa)
#
#
# Indices 1 2 3 4 5 6 
#
# 1 85.9497 17.5345 13.8244 15.0580 -8.8205 29.5991
# 2 17.5345 96.2478 16.4157 9.7401 -5.6564 19.3844
# 3 13.8244 16.4157 70.3507 6.0476 -3.2780 0.0814
# 4 15.0580 9.7401 6.0476 33.0381 0.5328 2.5710
# 5 -8.8205 -5.6564 -3.2780 0.5328 24.6183 7.7922
# 6 29.5991 19.3844 0.0814 2.5710 7.7922 43.8782
#
#
#
# Elastic Compliance Matrix: (Units=1/GPa)
#
#
# Indices 1 2 3 4 5 6 
#
# 1 0.019904 0.001607 -0.003011 -0.007959 0.012287 -0.015846
# 2 0.001607 0.012755 -0.002722 -0.003501 0.005594 -0.007502
# 3 -0.003011 -0.002722 0.015483 -0.000911 -0.000693 0.003381
# 4 -0.007959 -0.003501 -0.000911 0.034730 -0.006436 0.006025
# 5 0.012287 0.005594 -0.000693 -0.006436 0.052598 -0.019722
# 6 -0.015846 -0.007502 0.003381 0.006025 -0.019722 0.039937
#
#
# Mechanical properties :
#
#
# Convention : Reuss Voigt Hill
#
# Bulk Modulus (GPa) = 25.06889 38.67748 31.87319
# Shear Modulus (GPa) = 25.38636 33.95848 29.67242
#
# Velocity S-wave (km/s) = 3.36987 3.89751 3.64326
# Velocity P-wave (km/s) = 5.13375 6.12827 5.65293
#
# Compressibility (1/GPa) = 0.03989008
#
# Stress axis : x y z
#
# Youngs Moduli (GPa) = 50.24170 78.39851 64.58517
#
# Poissons Ratio (x) = -0.12595 0.19447
# Poissons Ratio (y) = -0.08071 0.17578
# Poissons Ratio (z) = 0.15128 0.21338
#
# Static dielectric constant tensor:
#      x y z
#    x 1.785650 0.029870 0.002000 
#    y 0.029870 1.610140 0.024290 
#    z 0.002000 0.024290 1.851330 
# 
# From -- ./inp_files/298146.got.cif
#   From: 2010.05.17/outbox.cif.g08.bks.cpg/sg2_150_cif.got.tgz:298146.got - 2010.06.03 11:33:40.
