data_PCOD9068829
_publ_section_title
;
Structure prediction by ZEFSAII (Michael W. Deem and Ramdas Pophale) SiO2 
 PCOD9068829
Probable space group: P -1
;
_chemical_formula_sum "Si O2"
_cell_formula_units_Z 16
_cell_length_a 9.417434
_cell_length_b 24.555021
_cell_length_c 8.267205
_cell_angle_alpha 134.736230
_cell_angle_beta 72.840965
_cell_angle_gamma 139.696569
_cell_volume 747.009469
_symmetry_space_group_name_H-M "P -1"
_symmetry_group_IT_number 2
_symmetry_cell_setting 'triclinic'
loop_
_space_group_symop_operation_xyz
x,y,z
-x,-y,-z
loop_
_atom_site_type_symbol
_atom_site_label
_atom_site_fract_x
_atom_site_fract_y
_atom_site_fract_z
Si Si1 0.328174 0.001220 0.503096
Si Si2 0.208126 0.570330 0.937172
Si Si3 0.271035 0.253163 0.719604
Si Si4 0.582871 0.524535 0.712777
Si Si5 0.747728 0.755002 0.665794
Si Si6 0.396986 0.730592 0.902096
Si Si7 0.245441 0.913056 0.999022
Si Si8 0.027159 0.657622 0.656147
O O1 0.027206 0.874796 0.392443
O O2 0.500000 0.000000 0.500000
O O3 0.319932 0.994196 0.298215
O O4 0.458657 0.133055 0.799150
O O5 0.209173 0.620877 0.878113
O O6 0.137022 0.454644 0.659856
O O7 0.503990 0.700831 0.172464
O O8 0.000000 0.500000 0.000000
O O9 0.273763 0.232720 0.488031
O O10 0.363555 0.377982 0.996645
O O11 0.500000 0.500000 0.500000
O O12 0.380421 0.382575 0.562960
O O13 0.855550 0.597100 0.747352
O O14 0.593161 0.746055 0.818339
O O15 0.039685 0.869812 0.867283
O O16 0.252375 0.696034 0.715958
O O17 0.122356 0.781122 0.827807
O O18 0.500000 0.000000 0.000000
#
# Coordination Sequence:
#
# PCOD9068829 Si02
#       8
#     2   2   2   2   2   2   2   2
#     4  12  25  50  73 103 140 186 241 290 359 431
#     4  12  27  45  69 107 143 185 236 293 360 419
#     4  12  25  45  72 105 144 185 237 289 350 429
#     4  12  20  44  72 101 140 180 233 292 346 415
#     4  12  26  44  71 106 140 187 237 291 356 415
#     4  12  27  47  74 100 146 188 232 300 357 419
#     4  12  26  46  74 104 141 188 238 290 349 427
#     4  12  24  46  74 101 144 184 231 292 357 420
#
# _framework density 21.418738000000001
#
# number of rings (size 3 to 8) (size 9 to 14) (size 15 to 20)
#    0.000    0.000    6.250    3.000    3.500    2.500 
#    2.250    0.000    0.000    0.000    0.000    0.000 
#    0.000    0.000    0.000    0.000    0.000    0.000 
#
# Total GULP energy -89459.673741 kJ/mol
# GULP energy per Si atom -5591.229609 kJ/mol
# Density = 2.136999 g / cm^3
# Si number density = 21.418738 Si / 1000 Ang^3
#
#
#
# Elastic Constant Matrix: (Units=GPa)
#
#
# Indices 1 2 3 4 5 6 
#
# 1 64.2470 8.2262 18.5347 -3.8629 13.7426 12.8201
# 2 8.2262 92.8979 33.7235 -15.9066 4.1223 23.1268
# 3 18.5347 33.7235 116.7891 -4.9525 0.5932 2.3017
# 4 -3.8629 -15.9066 -4.9525 34.5130 3.2144 8.8060
# 5 13.7426 4.1223 0.5932 3.2144 39.6434 -4.6183
# 6 12.8201 23.1268 2.3017 8.8060 -4.6183 23.4513
#
#
#
# Elastic Compliance Matrix: (Units=1/GPa)
#
#
# Indices 1 2 3 4 5 6 
#
# 1 0.029041 0.014633 -0.007036 0.021146 -0.017986 -0.041097
# 2 0.014633 0.032011 -0.009144 0.030275 -0.016937 -0.053373
# 3 -0.007036 -0.009144 0.011644 -0.007895 0.005697 0.015807
# 4 0.021146 0.030275 -0.007895 0.064057 -0.023633 -0.069348
# 5 -0.017986 -0.016937 0.005697 -0.023633 0.040030 0.042733
# 6 -0.041097 -0.053373 0.015807 -0.069348 0.042733 0.150647
#
#
# Mechanical properties :
#
#
# Convention : Reuss Voigt Hill
#
# Bulk Modulus (GPa) = 14.36759 43.87809 29.12284
# Shear Modulus (GPa) = 14.13531 33.75152 23.94341
#
# Velocity S-wave (km/s) = 2.57174 3.97393 3.34709
# Velocity P-wave (km/s) = 3.94220 6.44876 5.34451
#
# Compressibility (1/GPa) = 0.06960112
#
# Stress axis : x y z
#
# Youngs Moduli (GPa) = 34.43457 31.23958 85.88013
#
# Poissons Ratio (x) = -0.45712 0.60426
# Poissons Ratio (y) = -0.50387 0.78527
# Poissons Ratio (z) = 0.24228 0.28565
#
# Static dielectric constant tensor:
#      x y z
#    x 1.762540 0.097510 0.151780 
#    y 0.097510 1.755400 -0.053750 
#    z 0.151780 -0.053750 1.614350 
# 
# From -- ./inp_files/227742.got.cif
#   From: 2010.05.17/outbox.cif.g08.bks.cpg/sg2_114_cif.got.tgz:227742.got - 2010.06.03 11:33:40.
