data_PCOD9068472
_publ_section_title
;
Structure prediction by ZEFSAII (Michael W. Deem and Ramdas Pophale) SiO2 
 PCOD9068472
Probable space group: P -1
;
_chemical_formula_sum "Si O2"
_cell_formula_units_Z 12
_cell_length_a 12.020619
_cell_length_b 5.232774
_cell_length_c 9.369894
_cell_angle_alpha 93.526650
_cell_angle_beta 120.427373
_cell_angle_gamma 67.112173
_cell_volume 461.334646
_symmetry_space_group_name_H-M "P -1"
_symmetry_group_IT_number 2
_symmetry_cell_setting 'triclinic'
loop_
_space_group_symop_operation_xyz
x,y,z
-x,-y,-z
loop_
_atom_site_type_symbol
_atom_site_label
_atom_site_fract_x
_atom_site_fract_y
_atom_site_fract_z
Si Si1 0.545991 0.799663 0.159873
Si Si2 0.803962 0.231244 0.279899
Si Si3 0.777624 0.969605 0.988567
Si Si4 0.655165 0.826950 0.533614
Si Si5 0.169238 0.594200 0.158228
Si Si6 0.093977 0.002263 0.350609
O O1 0.651187 0.486734 0.167909
O O2 0.394154 0.878521 0.136673
O O3 0.797854 0.978454 0.172773
O O4 0.500000 0.000000 0.000000
O O5 0.637669 0.835028 0.351945
O O6 0.945150 0.252713 0.309372
O O7 0.838312 0.161040 0.465171
O O8 0.837897 0.664973 0.942137
O O9 0.817498 0.198500 0.942840
O O10 0.701723 0.546200 0.650213
O O11 0.789659 0.907562 0.641105
O O12 0.500000 0.000000 0.500000
O O13 0.059798 0.802534 0.209261
#
# Coordination Sequence:
#
# PCOD9068472 Si02
#       6
#     2   2   2   2   2   2
#     4  12  25  47  77 116 152 203 258 323 384 454
#     4  11  27  48  76 110 162 202 253 320 385 473
#     4  12  27  48  77 115 151 202 259 323 383 447
#     4  12  25  47  80 113 150 201 262 322 373 463
#     4  12  25  50  76 114 151 201 259 314 387 450
#     4  11  26  51  75 115 151 210 254 313 395 457
#
# _framework density 26.011489000000001
#
# number of rings (size 3 to 8) (size 9 to 14) (size 15 to 20)
#    0.000    0.333    5.000    2.500    2.333    3.333 
#    6.000    0.000    0.000    0.000    0.000    0.000 
#    0.000    0.000    0.000    0.000    0.000    0.000 
#
# Total GULP energy -67026.689909 kJ/mol
# GULP energy per Si atom -5585.557492 kJ/mol
# Density = 2.595229 g / cm^3
# Si number density = 26.011489 Si / 1000 Ang^3
#
#
#
# Elastic Constant Matrix: (Units=GPa)
#
#
# Indices 1 2 3 4 5 6 
#
# 1 102.1496 70.4161 32.6165 -0.7308 -3.9990 -17.3563
# 2 70.4161 165.9070 70.3544 6.6718 -16.4390 -9.8052
# 3 32.6165 70.3544 207.6664 10.1335 -26.3107 18.9687
# 4 -0.7308 6.6718 10.1335 69.6011 0.2319 8.5921
# 5 -3.9990 -16.4390 -26.3107 0.2319 37.8940 -1.4363
# 6 -17.3563 -9.8052 18.9687 8.5921 -1.4363 40.0829
#
#
#
# Elastic Compliance Matrix: (Units=1/GPa)
#
#
# Indices 1 2 3 4 5 6 
#
# 1 0.014958 -0.005702 -0.001116 0.000190 -0.001462 0.005517
# 2 -0.005702 0.009689 -0.002185 -0.000824 0.002135 0.001188
# 3 -0.001116 -0.002185 0.006523 -0.000278 0.003317 -0.003926
# 4 0.000190 -0.000824 -0.000278 0.014887 -0.000743 -0.003206
# 5 -0.001462 0.002135 0.003317 -0.000743 0.029451 -0.000466
# 6 0.005517 0.001188 -0.003926 -0.003206 -0.000466 0.030157
#
#
# Mechanical properties :
#
#
# Convention : Reuss Voigt Hill
#
# Bulk Modulus (GPa) = 75.96000 91.38858 83.67429
# Shear Modulus (GPa) = 39.04469 49.67134 44.35802
#
# Velocity S-wave (km/s) = 3.87855 4.37463 4.13404
# Velocity P-wave (km/s) = 7.02306 7.79273 7.41789
#
# Compressibility (1/GPa) = 0.01316482
#
# Stress axis : x y z
#
# Youngs Moduli (GPa) = 66.85395 103.21148 153.29645
#
# Poissons Ratio (x) = 0.58849 0.17110
# Poissons Ratio (y) = 0.38119 0.33492
# Poissons Ratio (z) = 0.07462 0.22549
#
# Static dielectric constant tensor:
#      x y z
#    x 2.151650 -0.047670 0.084100 
#    y -0.047670 2.167910 0.022370 
#    z 0.084100 0.022370 2.016140 
# 
# From -- ./inp_files/410561.got.cif
#   From: 2010.05.17/outbox.cif.g08.bks.cpg/sg2_206_cif.got.tgz:410561.got - 2010.06.03 11:33:40.
