data_PCOD9068774
_publ_section_title
;
Structure prediction by ZEFSAII (Michael W. Deem and Ramdas Pophale) SiO2 
 PCOD9068774
Probable space group: P -1
;
_chemical_formula_sum "Si O2"
_cell_formula_units_Z 14
_cell_length_a 15.501062
_cell_length_b 15.770635
_cell_length_c 5.309696
_cell_angle_alpha 57.107938
_cell_angle_beta 98.231953
_cell_angle_gamma 135.930512
_cell_volume 686.948533
_symmetry_space_group_name_H-M "P -1"
_symmetry_group_IT_number 2
_symmetry_cell_setting 'triclinic'
loop_
_space_group_symop_operation_xyz
x,y,z
-x,-y,-z
loop_
_atom_site_type_symbol
_atom_site_label
_atom_site_fract_x
_atom_site_fract_y
_atom_site_fract_z
Si Si1 0.219196 0.631666 0.061515
Si Si2 0.955280 0.019454 0.197288
Si Si3 0.028525 0.746979 0.332285
Si Si4 0.073324 0.709300 0.915041
Si Si5 0.254952 0.592993 0.635232
Si Si6 0.329961 0.308521 0.497013
Si Si7 0.639169 0.533450 0.252094
O O1 0.292109 0.700167 0.250710
O O2 0.102446 0.441709 0.369224
O O3 0.143544 0.669323 0.919449
O O4 0.309868 0.675479 0.796834
O O5 0.791485 0.875541 0.328158
O O6 0.000000 0.000000 0.500000
O O7 0.010318 0.181530 0.924542
O O8 0.000000 0.000000 0.000000
O O9 0.090939 0.807245 0.542208
O O10 0.121913 0.780606 0.100870
O O11 0.909869 0.548374 0.153328
O O12 0.300429 0.523010 0.679580
O O13 0.475734 0.385057 0.468940
O O14 0.304172 0.352602 0.667525
O O15 0.338233 0.387730 0.127975
#
# Coordination Sequence:
#
# PCOD9068774 Si02
#       7
#     2   2   2   2   2   2   2
#     4  10  19  31  51  82 110 137 179 235 285 329
#     4  12  26  37  55  83 117 155 188 227 279 349
#     4  10  20  33  48  74 107 151 174 214 284 331
#     4  10  19  32  52  79 110 139 182 230 287 328
#     4  10  18  28  52  77 106 134 179 222 287 325
#     4  10  23  39  55  78 114 144 203 232 276 317
#     4  10  21  38  59  79 104 157 189 247 267 318
#
# _framework density 20.379984
#
# number of rings (size 3 to 8) (size 9 to 14) (size 15 to 20)
#    0.000    1.714    0.000    6.857   12.000    0.000 
#    0.000    0.000    0.000    0.000    0.000   11.000 
#    0.000    0.000    0.000    0.000    0.000    0.000 
#
# Total GULP energy -78007.200493 kJ/mol
# GULP energy per Si atom -5571.942892 kJ/mol
# Density = 2.033360 g / cm^3
# Si number density = 20.379984 Si / 1000 Ang^3
#
#
#
# Elastic Constant Matrix: (Units=GPa)
#
#
# Indices 1 2 3 4 5 6 
#
# 1 93.3801 16.7426 16.6208 6.7308 5.4118 -18.0002
# 2 16.7426 69.5593 36.4710 36.0802 -13.4444 -8.0940
# 3 16.6208 36.4710 77.0447 43.6643 12.3110 -3.9431
# 4 6.7308 36.0802 43.6643 49.9354 -7.8596 -13.5114
# 5 5.4118 -13.4444 12.3110 -7.8596 22.0312 4.2417
# 6 -18.0002 -8.0940 -3.9431 -13.5114 4.2417 30.5778
#
#
#
# Elastic Compliance Matrix: (Units=1/GPa)
#
#
# Indices 1 2 3 4 5 6 
#
# 1 0.013760 -0.004459 -0.003297 0.006292 -0.003904 0.009817
# 2 -0.004459 0.031158 -0.016204 -0.003872 0.028185 -0.002087
# 3 -0.003297 -0.016204 0.061199 -0.054641 -0.060045 -0.014154
# 4 0.006292 -0.003872 -0.054641 0.084955 0.051933 0.025968
# 5 -0.003904 0.028185 -0.060045 0.051933 0.114773 0.004446
# 6 0.009817 -0.002087 -0.014154 0.025968 0.004446 0.046962
#
#
# Mechanical properties :
#
#
# Convention : Reuss Voigt Hill
#
# Bulk Modulus (GPa) = 17.18313 42.18366 29.68339
# Shear Modulus (GPa) = 11.90115 31.85220 21.87667
#
# Velocity S-wave (km/s) = 2.41915 3.95766 3.27989
# Velocity P-wave (km/s) = 4.03147 6.45195 5.37961
#
# Compressibility (1/GPa) = 0.05819663
#
# Stress axis : x y z
#
# Youngs Moduli (GPa) = 72.67264 32.09408 16.34016
#
# Poissons Ratio (x) = 0.14311 0.05388
# Poissons Ratio (y) = 0.32406 0.26477
# Poissons Ratio (z) = 0.23963 0.52005
#
# Static dielectric constant tensor:
#      x y z
#    x 1.708590 0.029970 0.010340 
#    y 0.029970 1.924600 0.056820 
#    z 0.010340 0.056820 1.762150 
# 
# From -- ./inp_files/75084.got.cif
#   From: 2010.05.17/outbox.cif.g08.bks.cpg/sg2_38_cif.got.tgz:75084.got - 2010.06.03 11:33:40.
