data_PCOD9068347
_publ_section_title
;
Structure prediction by ZEFSAII (Michael W. Deem and Ramdas Pophale) SiO2 
 PCOD9068347
Probable space group: P -1
;
_chemical_formula_sum "Si O2"
_cell_formula_units_Z 10
_cell_length_a 13.602091
_cell_length_b 5.203117
_cell_length_c 11.352334
_cell_angle_alpha 102.629957
_cell_angle_beta 141.745355
_cell_angle_gamma 59.629172
_cell_volume 404.557835
_symmetry_space_group_name_H-M "P -1"
_symmetry_group_IT_number 2
_symmetry_cell_setting 'triclinic'
loop_
_space_group_symop_operation_xyz
x,y,z
-x,-y,-z
loop_
_atom_site_type_symbol
_atom_site_label
_atom_site_fract_x
_atom_site_fract_y
_atom_site_fract_z
Si Si1 0.501055 0.707710 0.916154
Si Si2 0.113320 0.158143 0.626379
Si Si3 0.948979 0.675967 0.149001
Si Si4 0.646481 0.565465 0.791584
Si Si5 0.210545 0.916850 0.324268
O O1 0.640673 0.517881 0.922265
O O2 0.290382 0.918617 0.687924
O O3 0.500000 0.500000 0.000000
O O4 0.500000 0.000000 0.000000
O O5 0.141471 0.190037 0.793794
O O6 0.000000 0.500000 0.500000
O O7 0.000000 0.000000 0.500000
O O8 0.771091 0.719497 0.910384
O O9 0.923448 0.187782 0.752802
O O10 0.094750 0.294966 0.254659
O O11 0.426943 0.771022 0.561336
O O12 0.751148 0.243464 0.784711
#
# Coordination Sequence:
#
# PCOD9068347 Si02
#       5
#     2   2   2   2   2
#     4  12  26  44  70 105 141 188 238 293 366 433
#     4  12  25  45  71 103 145 189 241 301 359 436
#     4  12  25  47  75 106 148 187 248 299 372 430
#     4  11  26  49  76 104 153 189 247 300 370 429
#     4  11  28  47  74 112 140 196 246 305 355 444
#
# _framework density 24.718344999999999
#
# number of rings (size 3 to 8) (size 9 to 14) (size 15 to 20)
#    0.000    0.400    2.000    6.000    2.800    8.000 
#    0.000    0.000    0.000    0.000    0.000    0.000 
#    0.000    0.000    0.000    0.000    0.000    0.000 
#
# Total GULP energy -55889.778152 kJ/mol
# GULP energy per Si atom -5588.977815 kJ/mol
# Density = 2.466209 g / cm^3
# Si number density = 24.718345 Si / 1000 Ang^3
#
#
#
# Elastic Constant Matrix: (Units=GPa)
#
#
# Indices 1 2 3 4 5 6 
#
# 1 136.5053 75.1558 41.6760 -7.8750 8.6987 1.7502
# 2 75.1558 140.6833 41.6947 6.6088 0.8594 6.2475
# 3 41.6760 41.6947 113.5794 16.4324 31.9007 16.3092
# 4 -7.8750 6.6088 16.4324 46.2294 -3.7308 0.9355
# 5 8.6987 0.8594 31.9007 -3.7308 46.6994 9.7905
# 6 1.7502 6.2475 16.3092 0.9355 9.7905 69.4317
#
#
#
# Elastic Compliance Matrix: (Units=1/GPa)
#
#
# Indices 1 2 3 4 5 6 
#
# 1 0.011402 -0.005458 -0.002850 0.003723 0.000050 0.000816
# 2 -0.005458 0.010800 -0.002353 -0.001428 0.002438 -0.000606
# 3 -0.002850 -0.002353 0.014483 -0.006025 -0.009443 -0.001706
# 4 0.003723 -0.001428 -0.006025 0.025038 0.005374 0.000355
# 5 0.000050 0.002438 -0.009443 0.005374 0.028684 -0.002120
# 6 0.000816 -0.000606 -0.001706 0.000355 -0.002120 0.015131
#
#
# Mechanical properties :
#
#
# Convention : Reuss Voigt Hill
#
# Bulk Modulus (GPa) = 65.09267 78.64679 71.86973
# Shear Modulus (GPa) = 37.88421 47.95488 42.91954
#
# Velocity S-wave (km/s) = 3.91914 4.40938 4.17147
# Velocity P-wave (km/s) = 6.84620 7.60327 7.23465
#
# Compressibility (1/GPa) = 0.01536271
#
# Stress axis : x y z
#
# Youngs Moduli (GPa) = 87.70424 92.58845 69.04758
#
# Poissons Ratio (x) = 0.50534 0.19678
# Poissons Ratio (y) = 0.47868 0.16249
# Poissons Ratio (z) = 0.24995 0.21789
#
# Static dielectric constant tensor:
#      x y z
#    x 1.933860 -0.000170 0.000310 
#    y -0.000170 1.940210 0.010970 
#    z 0.000310 0.010970 2.146700 
# 
# From -- ./inp_files/20619.got.cif
#   From: 2010.05.17/outbox.cif.g08.bks.cpg/sg2_11_cif.got.tgz:20619.got - 2010.06.03 11:33:40.
