data_PCOD9068288
_publ_section_title
;
Structure prediction by ZEFSAII (Michael W. Deem and Ramdas Pophale) SiO2 
 PCOD9068288
Probable space group: P -1
;
_chemical_formula_sum "Si O2"
_cell_formula_units_Z 8
_cell_length_a 7.902757
_cell_length_b 8.809514
_cell_length_c 10.406254
_cell_angle_alpha 140.012979
_cell_angle_beta 139.236277
_cell_angle_gamma 44.489389
_cell_volume 288.292750
_symmetry_space_group_name_H-M "P -1"
_symmetry_group_IT_number 2
_symmetry_cell_setting 'triclinic'
loop_
_space_group_symop_operation_xyz
x,y,z
-x,-y,-z
loop_
_atom_site_type_symbol
_atom_site_label
_atom_site_fract_x
_atom_site_fract_y
_atom_site_fract_z
Si Si1 0.261729 0.526454 0.780725
Si Si2 0.706765 0.691305 0.605914
Si Si3 0.212369 0.240828 0.021324
Si Si4 0.869857 0.951457 0.528297
O O1 0.357615 0.475488 0.656177
O O2 0.986359 0.753099 0.779337
O O3 0.104154 0.329662 0.605179
O O4 0.500000 0.500000 0.000000
O O5 0.704979 0.648916 0.729706
O O6 0.452402 0.936186 0.597010
O O7 0.000000 0.500000 0.000000
O O8 0.000780 0.085522 0.794279
O O9 0.500000 0.000000 0.000000
O O10 0.000000 0.000000 0.500000
#
# Coordination Sequence:
#
# PCOD9068288 Si02
#       4
#     2   2   2   2
#     4  11  27  50  79 119 167 224 282 348 427 518
#     4  11  26  48  81 114 168 218 286 342 434 499
#     4  12  28  50  82 124 170 218 281 356 429 505
#     4  12  26  47  80 120 164 217 282 350 426 504
#
# _framework density 27.749568
#
# number of rings (size 3 to 8) (size 9 to 14) (size 15 to 20)
#    0.000    0.500    2.500    3.750    3.500    8.000 
#    0.000    0.000    0.000    0.000    0.000    0.000 
#    0.000    0.000    0.000    0.000    0.000    0.000 
#
# Total GULP energy -44544.467065 kJ/mol
# GULP energy per Si atom -5568.058383 kJ/mol
# Density = 2.768641 g / cm^3
# Si number density = 27.749568 Si / 1000 Ang^3
#
#
#
# Elastic Constant Matrix: (Units=GPa)
#
#
# Indices 1 2 3 4 5 6 
#
# 1 114.7686 78.3920 58.8217 -12.4011 -22.8113 -13.3959
# 2 78.3920 160.2287 86.2559 -31.2367 -4.3049 -8.5305
# 3 58.8217 86.2559 214.8175 -41.3763 -10.4811 10.8307
# 4 -12.4011 -31.2367 -41.3763 76.7285 14.0888 16.6264
# 5 -22.8113 -4.3049 -10.4811 14.0888 48.1510 6.9084
# 6 -13.3959 -8.5305 10.8307 16.6264 6.9084 55.6404
#
#
#
# Elastic Compliance Matrix: (Units=1/GPa)
#
#
# Indices 1 2 3 4 5 6 
#
# 1 0.015949 -0.007004 -0.002028 -0.003367 0.007000 0.003298
# 2 -0.007004 0.011363 -0.002263 0.002930 -0.003663 0.000076
# 3 -0.002028 -0.002263 0.006876 0.003157 -0.000146 -0.003099
# 4 -0.003367 0.002930 0.003157 0.017508 -0.004967 -0.005591
# 5 0.007000 -0.003663 -0.000146 -0.004967 0.025250 -0.000499
# 6 0.003298 0.000076 -0.003099 -0.005591 -0.000499 0.021114
#
#
# Mechanical properties :
#
#
# Convention : Reuss Voigt Hill
#
# Bulk Modulus (GPa) = 86.22135 104.08378 95.15257
# Shear Modulus (GPa) = 40.15526 53.86032 47.00779
#
# Velocity S-wave (km/s) = 3.80815 4.41039 4.12029
# Velocity P-wave (km/s) = 7.10455 7.97026 7.54983
#
# Compressibility (1/GPa) = 0.01159806
#
# Stress axis : x y z
#
# Youngs Moduli (GPa) = 62.69860 88.00641 145.42529
#
# Poissons Ratio (x) = 0.61641 0.29495
# Poissons Ratio (y) = 0.43915 0.32907
# Poissons Ratio (z) = 0.12717 0.19914
#
# Static dielectric constant tensor:
#      x y z
#    x 2.361410 -0.221810 -0.050060 
#    y -0.221810 2.876560 0.059100 
#    z -0.050060 0.059100 2.080760 
# 
# From -- ./inp_files/377452.got.cif
#   From: 2010.05.17/outbox.cif.g08.bks.cpg/sg2_189_cif.got.tgz:377452.got - 2010.06.03 11:33:40.
