data_PCOD9068418
_publ_section_title
;
Structure prediction by ZEFSAII (Michael W. Deem and Ramdas Pophale) SiO2 
 PCOD9068418
Probable space group: P -1
;
_chemical_formula_sum "Si O2"
_cell_formula_units_Z 14
_cell_length_a 20.515440
_cell_length_b 11.979202
_cell_length_c 5.115389
_cell_angle_alpha 111.277050
_cell_angle_beta 59.478838
_cell_angle_gamma 149.124407
_cell_volume 548.118733
_symmetry_space_group_name_H-M "P -1"
_symmetry_group_IT_number 2
_symmetry_cell_setting 'triclinic'
loop_
_space_group_symop_operation_xyz
x,y,z
-x,-y,-z
loop_
_atom_site_type_symbol
_atom_site_label
_atom_site_fract_x
_atom_site_fract_y
_atom_site_fract_z
Si Si1 0.080091 0.514585 0.628496
Si Si2 0.136262 0.448976 0.940765
Si Si3 0.520459 0.885359 0.897801
Si Si4 0.657371 0.684850 0.433580
Si Si5 0.066981 0.022940 0.132087
Si Si6 0.386336 0.607108 0.440022
Si Si7 0.795646 0.123888 0.646269
O O1 0.153162 0.571675 0.791109
O O2 0.117965 0.698235 0.613742
O O3 0.913558 0.277003 0.756536
O O4 0.130628 0.492084 0.278507
O O5 0.256216 0.511133 0.722139
O O6 0.995502 0.192787 0.935444
O O7 0.505217 0.803039 0.575168
O O8 0.667332 0.044474 0.859507
O O9 0.416428 0.689751 0.155994
O O10 0.500000 0.000000 0.000000
O O11 0.500000 0.500000 0.500000
O O12 0.642309 0.570438 0.604281
O O13 0.728013 0.904124 0.557043
O O14 0.767507 0.769730 0.078938
O O15 0.000000 0.000000 0.500000
O O16 0.000000 0.000000 0.000000
#
# Coordination Sequence:
#
# PCOD9068418 Si02
#       7
#     2   2   2   2   2   2   2
#     4  11  27  48  77 114 149 204 263 334 381 475
#     4  12  24  48  79 111 152 197 273 319 395 457
#     4  12  27  50  78 111 154 206 262 326 399 477
#     4  12  27  53  79 121 169 213 265 337 413 481
#     4  12  27  48  78 112 156 209 265 320 389 483
#     4  12  27  46  78 115 154 205 265 322 398 481
#     4  11  26  50  76 112 158 205 262 322 407 465
#
# _framework density 25.541912
#
# number of rings (size 3 to 8) (size 9 to 14) (size 15 to 20)
#    0.000    0.286    4.286    3.857    2.000    6.286 
#    0.000    0.000    0.000    0.000    0.000    0.000 
#    0.000    0.000    0.000    0.000    0.000    0.000 
#
# Total GULP energy -78462.130324 kJ/mol
# GULP energy per Si atom -5604.437880 kJ/mol
# Density = 2.548378 g / cm^3
# Si number density = 25.541912 Si / 1000 Ang^3
#
#
#
# Elastic Constant Matrix: (Units=GPa)
#
#
# Indices 1 2 3 4 5 6 
#
# 1 189.3799 59.8466 59.4278 -3.9086 -10.8218 -12.2205
# 2 59.8466 157.7814 42.2397 -1.2094 -9.1293 -26.5429
# 3 59.4278 42.2397 135.9864 -0.6038 0.4197 8.5096
# 4 -3.9086 -1.2094 -0.6038 31.6845 11.1921 -15.0814
# 5 -10.8218 -9.1293 0.4197 11.1921 50.2268 -5.4824
# 6 -12.2205 -26.5429 8.5096 -15.0814 -5.4824 51.5367
#
#
#
# Elastic Compliance Matrix: (Units=1/GPa)
#
#
# Indices 1 2 3 4 5 6 
#
# 1 0.006771 -0.001511 -0.002595 0.001140 0.001139 0.001711
# 2 -0.001511 0.008481 -0.002290 0.002066 0.001335 0.005134
# 3 -0.002595 -0.002290 0.009444 -0.001732 -0.001103 -0.003978
# 4 0.001140 0.002066 -0.001732 0.040224 -0.006946 0.012652
# 5 0.001139 0.001335 -0.001103 -0.006946 0.022114 0.001459
# 6 0.001711 0.005134 -0.003978 0.012652 0.001459 0.026968
#
#
# Mechanical properties :
#
#
# Convention : Reuss Voigt Hill
#
# Bulk Modulus (GPa) = 84.01276 89.57508 86.79392
# Shear Modulus (GPa) = 38.23711 48.13184 43.18448
#
# Velocity S-wave (km/s) = 3.87335 4.34571 4.11631
# Velocity P-wave (km/s) = 7.27786 7.76699 7.52640
#
# Compressibility (1/GPa) = 0.01190295
#
# Stress axis : x y z
#
# Youngs Moduli (GPa) = 147.68157 117.91053 105.88886
#
# Poissons Ratio (x) = 0.17819 0.27481
# Poissons Ratio (y) = 0.22318 0.24250
# Poissons Ratio (z) = 0.38327 0.27004
#
# Static dielectric constant tensor:
#      x y z
#    x 1.934320 0.038600 -0.032510 
#    y 0.038600 2.065620 -0.047230 
#    z -0.032510 -0.047230 2.053770 
# 
# From -- ./inp_files/118780.got.cif
#   From: 2010.05.17/outbox.cif.g08.bks.cpg/sg2_60_cif.got.tgz:118780.got - 2010.06.03 11:33:40.
