data_PCOD9068160
_publ_section_title
;
Structure prediction by ZEFSAII (Michael W. Deem and Ramdas Pophale) SiO2 
 PCOD9068160
Probable space group: P -1
;
_chemical_formula_sum "Si O2"
_cell_formula_units_Z 12
_cell_length_a 5.201147
_cell_length_b 12.316665
_cell_length_c 9.780335
_cell_angle_alpha 56.799385
_cell_angle_beta 93.939912
_cell_angle_gamma 115.868252
_cell_volume 459.517807
_symmetry_space_group_name_H-M "P -1"
_symmetry_group_IT_number 2
_symmetry_cell_setting 'triclinic'
loop_
_space_group_symop_operation_xyz
x,y,z
-x,-y,-z
loop_
_atom_site_type_symbol
_atom_site_label
_atom_site_fract_x
_atom_site_fract_y
_atom_site_fract_z
Si Si1 0.629955 0.962067 0.873739
Si Si2 0.270975 0.265229 0.404854
Si Si3 0.801947 0.474252 0.642062
Si Si4 0.164691 0.480069 0.890028
Si Si5 0.554959 0.824477 0.259381
Si Si6 0.031419 0.176699 0.174738
O O1 0.814073 0.911502 0.821095
O O2 0.293229 0.881486 0.860208
O O3 0.709154 0.134527 0.751433
O O4 0.672874 0.921232 0.058576
O O5 0.203288 0.385338 0.392543
O O6 0.576671 0.368842 0.264518
O O7 0.316020 0.169161 0.589450
O O8 0.037776 0.176515 0.339741
O O9 0.500896 0.335572 0.683186
O O10 0.000000 0.500000 0.500000
O O11 0.931206 0.415794 0.804948
O O12 0.235605 0.349321 0.020435
O O13 0.000000 0.500000 0.000000
#
# Coordination Sequence:
#
# PCOD9068160 Si02
#       6
#     2   2   2   2   2   2
#     4  11  28  49  75 103 146 206 244 300 355 447
#     4  12  27  44  74 111 146 190 244 314 370 431
#     4  12  25  43  74 109 146 187 240 310 375 434
#     4  12  24  45  72 109 147 190 241 305 374 437
#     4  11  26  48  69 108 147 194 248 298 367 441
#     4  12  26  48  75 106 146 194 253 296 365 437
#
# _framework density 26.114328
#
# number of rings (size 3 to 8) (size 9 to 14) (size 15 to 20)
#    0.000    0.333    5.000    3.000    2.333    5.333 
#    0.000    0.000    0.000    0.000    0.000    0.000 
#    0.000    0.000    0.000    0.000    0.000    0.000 
#
# Total GULP energy -67159.063081 kJ/mol
# GULP energy per Si atom -5596.588590 kJ/mol
# Density = 2.605489 g / cm^3
# Si number density = 26.114328 Si / 1000 Ang^3
#
#
#
# Elastic Constant Matrix: (Units=GPa)
#
#
# Indices 1 2 3 4 5 6 
#
# 1 130.5414 60.7199 74.3820 11.5914 -3.4033 -15.2828
# 2 60.7199 140.3517 87.8591 28.4586 -3.6184 -23.3410
# 3 74.3820 87.8591 197.7806 35.8812 32.3809 -8.9384
# 4 11.5914 28.4586 35.8812 57.3539 6.9997 8.4599
# 5 -3.4033 -3.6184 32.3809 6.9997 42.7795 6.9361
# 6 -15.2828 -23.3410 -8.9384 8.4599 6.9361 67.4578
#
#
#
# Elastic Compliance Matrix: (Units=1/GPa)
#
#
# Indices 1 2 3 4 5 6 
#
# 1 0.010984 -0.002380 -0.003711 0.000778 0.003233 0.000743
# 2 -0.002380 0.012382 -0.004473 -0.003867 0.004360 0.003189
# 3 -0.003711 -0.004473 0.010198 -0.002447 -0.008007 0.000093
# 4 0.000778 -0.003867 -0.002447 0.021480 -0.001271 -0.004049
# 5 0.003233 0.004360 -0.008007 -0.001271 0.030563 -0.001803
# 6 0.000743 0.003189 0.000093 -0.004049 -0.001803 0.016801
#
#
# Mechanical properties :
#
#
# Convention : Reuss Voigt Hill
#
# Bulk Modulus (GPa) = 80.41440 101.62175 91.01808
# Shear Modulus (GPa) = 39.16026 49.89907 44.52966
#
# Velocity S-wave (km/s) = 3.87663 4.37600 4.13386
# Velocity P-wave (km/s) = 7.13426 8.03313 7.59700
#
# Compressibility (1/GPa) = 0.01243558
#
# Stress axis : x y z
#
# Youngs Moduli (GPa) = 91.04228 80.76523 98.06023
#
# Poissons Ratio (x) = 0.19222 0.36386
# Poissons Ratio (y) = 0.21668 0.43865
# Poissons Ratio (z) = 0.33782 0.36129
#
# Static dielectric constant tensor:
#      x y z
#    x 2.099560 0.084700 -0.022180 
#    y 0.084700 2.147980 -0.032620 
#    z -0.022180 -0.032620 2.026790 
# 
# From -- ./inp_files/28706.got.cif
#   From: 2010.05.17/outbox.cif.g08.bks.cpg/sg2_15_cif.got.tgz:28706.got - 2010.06.03 11:33:40.
