data_PCOD9068049
_publ_section_title
;
Structure prediction by ZEFSAII (Michael W. Deem and Ramdas Pophale) SiO2 
 PCOD9068049
Probable space group: P -1
;
_chemical_formula_sum "Si O2"
_cell_formula_units_Z 12
_cell_length_a 10.156892
_cell_length_b 11.517003
_cell_length_c 5.015480
_cell_angle_alpha 112.131768
_cell_angle_beta 79.231042
_cell_angle_gamma 80.589624
_cell_volume 515.959648
_symmetry_space_group_name_H-M "P -1"
_symmetry_group_IT_number 2
_symmetry_cell_setting 'triclinic'
loop_
_space_group_symop_operation_xyz
x,y,z
-x,-y,-z
loop_
_atom_site_type_symbol
_atom_site_label
_atom_site_fract_x
_atom_site_fract_y
_atom_site_fract_z
Si Si1 0.313767 0.877459 0.318652
Si Si2 0.122313 0.290397 0.289668
Si Si3 0.973909 0.093491 0.345677
Si Si4 0.172727 0.561308 0.680126
Si Si5 0.646906 0.396327 0.856669
Si Si6 0.649027 0.970698 0.060756
O O1 0.187009 0.844656 0.498280
O O2 0.400900 0.731361 0.133260
O O3 0.278847 0.952746 0.117799
O O4 0.366475 0.963856 0.588247
O O5 0.161166 0.414847 0.503378
O O6 0.260020 0.177586 0.057569
O O7 0.055083 0.202764 0.432266
O O8 0.986904 0.347882 0.200265
O O9 0.000000 0.000000 0.500000
O O10 0.000000 0.000000 0.000000
O O11 0.274953 0.595597 0.447443
O O12 0.244601 0.575160 0.943373
O O13 0.500000 0.500000 0.000000
O O14 0.500000 0.000000 0.000000
#
# Coordination Sequence:
#
# PCOD9068049 Si02
#       6
#     2   2   2   2   2   2
#     4  12  25  46  71 106 135 188 241 287 360 418
#     4  11  26  47  73 105 149 183 240 291 359 423
#     4  12  23  42  71 104 136 178 228 293 349 414
#     4  11  28  47  72 106 141 195 233 290 355 427
#     4  12  28  48  74 102 144 187 242 291 349 426
#     4  12  28  45  73 106 147 186 234 298 359 422
#
# _framework density 23.257632999999998
#
# number of rings (size 3 to 8) (size 9 to 14) (size 15 to 20)
#    0.000    0.333    5.000    2.000    7.000    6.667 
#    0.000    0.000    0.000    0.000    0.000    0.000 
#    0.000    0.000    0.000    0.000    0.000    0.000 
#
# Total GULP energy -66929.439030 kJ/mol
# GULP energy per Si atom -5577.453252 kJ/mol
# Density = 2.320470 g / cm^3
# Si number density = 23.257633 Si / 1000 Ang^3
#
#
#
# Elastic Constant Matrix: (Units=GPa)
#
#
# Indices 1 2 3 4 5 6 
#
# 1 90.2216 23.0812 13.4970 14.7223 -5.9579 -17.9486
# 2 23.0812 165.7699 39.0937 31.9237 2.8116 -14.8846
# 3 13.4970 39.0937 80.9549 -10.9174 21.1353 -14.4404
# 4 14.7223 31.9237 -10.9174 41.4832 -3.3516 -12.2911
# 5 -5.9579 2.8116 21.1353 -3.3516 28.9706 -7.4047
# 6 -17.9486 -14.8846 -14.4404 -12.2911 -7.4047 52.1769
#
#
#
# Elastic Compliance Matrix: (Units=1/GPa)
#
#
# Indices 1 2 3 4 5 6 
#
# 1 0.013401 0.000060 -0.003771 -0.004312 0.005871 0.003401
# 2 0.000060 0.009102 -0.006411 -0.008759 0.002574 -0.000855
# 3 -0.003771 -0.006411 0.022003 0.012086 -0.013823 0.003849
# 4 -0.004312 -0.008759 0.012086 0.037696 -0.002476 0.007891
# 5 0.005871 0.002574 -0.013823 -0.002476 0.046539 0.004950
# 6 0.003401 -0.000855 0.003849 0.007891 0.004950 0.023718
#
#
# Mechanical properties :
#
#
# Convention : Reuss Voigt Hill
#
# Bulk Modulus (GPa) = 41.21916 54.25446 47.73681
# Shear Modulus (GPa) = 27.65638 41.94444 34.80041
#
# Velocity S-wave (km/s) = 3.45212 4.25134 3.87240
# Velocity P-wave (km/s) = 5.80093 6.89033 6.36897
#
# Compressibility (1/GPa) = 0.02426056
#
# Stress axis : x y z
#
# Youngs Moduli (GPa) = 74.62373 109.86035 45.44898
#
# Poissons Ratio (x) = -0.00655 0.17138
# Poissons Ratio (y) = -0.00445 0.29139
# Poissons Ratio (z) = 0.28139 0.70436
#
# Static dielectric constant tensor:
#      x y z
#    x 2.177560 0.022200 -0.167860 
#    y 0.022200 2.480950 0.424350 
#    z -0.167860 0.424350 2.213750 
# 
# From -- ./inp_files/62655.got.cif
#   From: 2010.05.17/outbox.cif.g08.bks.cpg/sg2_32_cif.got.tgz:62655.got - 2010.06.03 11:33:40.
