data_PCOD9068370
_publ_section_title
;
Structure prediction by ZEFSAII (Michael W. Deem and Ramdas Pophale) SiO2 
 PCOD9068370
Probable space group: P -1
;
_chemical_formula_sum "Si O2"
_cell_formula_units_Z 14
_cell_length_a 13.037728
_cell_length_b 13.817640
_cell_length_c 5.704172
_cell_angle_alpha 128.435575
_cell_angle_beta 123.858879
_cell_angle_gamma 42.397007
_cell_volume 533.298415
_symmetry_space_group_name_H-M "P -1"
_symmetry_group_IT_number 2
_symmetry_cell_setting 'triclinic'
loop_
_space_group_symop_operation_xyz
x,y,z
-x,-y,-z
loop_
_atom_site_type_symbol
_atom_site_label
_atom_site_fract_x
_atom_site_fract_y
_atom_site_fract_z
Si Si1 0.535873 0.120134 0.165556
Si Si2 0.227293 0.847719 0.279697
Si Si3 0.220126 0.126084 0.221606
Si Si4 0.980866 0.395934 0.987969
Si Si5 0.029375 0.828586 0.647630
Si Si6 0.314921 0.322155 0.834475
Si Si7 0.576894 0.482968 0.822230
O O1 0.629861 0.142861 0.508778
O O2 0.376753 0.277699 0.114456
O O3 0.500000 0.000000 0.000000
O O4 0.656088 0.042850 0.982897
O O5 0.273493 0.698335 0.257820
O O6 0.078831 0.019257 0.420873
O O7 0.166541 0.826464 0.926954
O O8 0.092320 0.147051 0.268424
O O9 0.315884 0.180689 0.541913
O O10 0.128265 0.247552 0.075051
O O11 0.911346 0.327587 0.641622
O O12 0.857149 0.524013 0.202167
O O13 0.000000 0.500000 0.000000
O O14 0.407878 0.379377 0.937416
O O15 0.500000 0.500000 0.500000
O O16 0.500000 0.500000 0.000000
#
# Coordination Sequence:
#
# PCOD9068370 Si02
#       7
#     2   2   2   2   2   2   2
#     4  12  26  48  78 113 156 206 263 330 410 490
#     4  11  26  50  75 109 158 203 271 326 404 478
#     4  12  26  48  79 108 150 204 268 323 409 482
#     4  12  25  47  76 114 156 196 266 330 409 485
#     4  11  26  49  78 113 147 213 261 337 392 491
#     4  12  27  47  77 117 157 205 264 341 408 486
#     4  12  30  51  78 115 165 220 267 336 418 492
#
# _framework density 26.251722000000001
#
# number of rings (size 3 to 8) (size 9 to 14) (size 15 to 20)
#    0.000    0.286    4.286    3.429    8.000    0.571 
#    2.571    0.000    0.000    0.000    0.000    0.000 
#    0.000    0.000    0.000    0.000    0.000    0.000 
#
# Total GULP energy -78325.878172 kJ/mol
# GULP energy per Si atom -5594.705584 kJ/mol
# Density = 2.619197 g / cm^3
# Si number density = 26.251722 Si / 1000 Ang^3
#
#
#
# Elastic Constant Matrix: (Units=GPa)
#
#
# Indices 1 2 3 4 5 6 
#
# 1 133.9278 15.4704 49.4754 -0.4890 12.6495 32.5992
# 2 15.4704 162.7827 32.2453 -8.4009 9.2817 12.0340
# 3 49.4754 32.2453 149.6162 1.4111 46.0146 0.8831
# 4 -0.4890 -8.4009 1.4111 53.7117 -3.3266 3.1544
# 5 12.6495 9.2817 46.0146 -3.3266 45.8986 7.8758
# 6 32.5992 12.0340 0.8831 3.1544 7.8758 40.7633
#
#
#
# Elastic Compliance Matrix: (Units=1/GPa)
#
#
# Indices 1 2 3 4 5 6 
#
# 1 0.011255 0.000470 -0.004818 0.001087 0.003389 -0.009775
# 2 0.000470 0.006676 -0.001883 0.001309 0.000947 -0.002590
# 3 -0.004818 -0.001883 0.012321 -0.001786 -0.011902 0.006580
# 4 0.001087 0.001309 -0.001786 0.019272 0.003193 -0.003325
# 5 0.003389 0.000947 -0.011902 0.003193 0.034480 -0.009641
# 6 -0.009775 -0.002590 0.006580 -0.003325 -0.009641 0.035091
#
#
# Mechanical properties :
#
#
# Convention : Reuss Voigt Hill
#
# Bulk Modulus (GPa) = 56.20602 71.18986 63.69794
# Shear Modulus (GPa) = 36.36657 51.35042 43.85850
#
# Velocity S-wave (km/s) = 3.72600 4.42756 4.09184
# Velocity P-wave (km/s) = 6.32200 7.30169 6.82944
#
# Compressibility (1/GPa) = 0.01779169
#
# Stress axis : x y z
#
# Youngs Moduli (GPa) = 88.84629 149.77984 81.15915
#
# Poissons Ratio (x) = -0.07042 0.39105
# Poissons Ratio (y) = -0.04177 0.15280
# Poissons Ratio (z) = 0.42808 0.28200
#
# Static dielectric constant tensor:
#      x y z
#    x 2.166550 -0.086010 -0.098260 
#    y -0.086010 2.021110 0.003280 
#    z -0.098260 0.003280 2.050890 
# 
# From -- ./inp_files/70979.got.cif
#   From: 2010.05.17/outbox.cif.g08.bks.cpg/sg2_36_cif.got.tgz:70979.got - 2010.06.03 11:33:40.
