data_PCOD9068879
_publ_section_title
;
Structure prediction by ZEFSAII (Michael W. Deem and Ramdas Pophale) SiO2 
 PCOD9068879
Probable space group: P -1
;
_chemical_formula_sum "Si O2"
_cell_formula_units_Z 14
_cell_length_a 11.716588
_cell_length_b 13.445092
_cell_length_c 5.733715
_cell_angle_alpha 61.883529
_cell_angle_beta 56.123009
_cell_angle_gamma 50.968590
_cell_volume 572.308853
_symmetry_space_group_name_H-M "P -1"
_symmetry_group_IT_number 2
_symmetry_cell_setting 'triclinic'
loop_
_space_group_symop_operation_xyz
x,y,z
-x,-y,-z
loop_
_atom_site_type_symbol
_atom_site_label
_atom_site_fract_x
_atom_site_fract_y
_atom_site_fract_z
Si Si1 0.360885 0.261541 0.875214
Si Si2 0.571513 0.076670 0.201699
Si Si3 0.888559 0.272666 0.823469
Si Si4 0.962214 0.572272 0.712209
Si Si5 0.156233 0.169362 0.989268
Si Si6 0.613402 0.253399 0.300335
Si Si7 0.090339 0.024641 0.581376
O O1 0.262231 0.237138 0.812852
O O2 0.467959 0.315957 0.579532
O O3 0.489460 0.124906 0.993055
O O4 0.228431 0.337262 0.140149
O O5 0.553769 0.203053 0.208019
O O6 0.500000 0.000000 0.500000
O O7 0.754430 0.964987 0.105963
O O8 0.934113 0.355664 0.507875
O O9 0.988116 0.256537 0.964121
O O10 0.961028 0.125740 0.799862
O O11 0.704585 0.327674 0.031032
O O12 0.000000 0.500000 0.500000
O O13 0.000000 0.500000 0.000000
O O14 0.154060 0.116960 0.304781
O O15 0.758815 0.116206 0.384511
O O16 0.000000 0.000000 0.500000
#
# Coordination Sequence:
#
# PCOD9068879 Si02
#       7
#     2   2   2   2   2   2   2
#     4  12  26  44  72 103 141 193 247 315 372 442
#     4  12  22  36  64 107 158 193 239 281 363 465
#     4  12  26  45  72 108 149 198 246 308 364 445
#     4  12  30  56  82 103 135 197 272 333 382 437
#     4  12  21  39  67 104 154 201 241 275 356 464
#     4  12  25  40  68 114 156 193 233 298 377 455
#     4  12  22  38  64 107 161 199 230 275 359 470
#
# _framework density 24.462318
#
# number of rings (size 3 to 8) (size 9 to 14) (size 15 to 20)
#    0.000    0.000    7.143    4.286    2.000    0.000 
#    0.000    1.429    0.000    0.000    0.000    0.000 
#    0.000    0.000    0.000    0.000    0.000    0.000 
#
# Total GULP energy -78191.211119 kJ/mol
# GULP energy per Si atom -5585.086509 kJ/mol
# Density = 2.440664 g / cm^3
# Si number density = 24.462318 Si / 1000 Ang^3
#
#
#
# Elastic Constant Matrix: (Units=GPa)
#
#
# Indices 1 2 3 4 5 6 
#
# 1 121.7501 19.3858 36.7086 5.4877 -14.0656 0.1677
# 2 19.3858 46.3977 42.3497 12.9755 -5.5284 10.6088
# 3 36.7086 42.3497 183.1726 11.0178 -50.5090 0.1053
# 4 5.4877 12.9755 11.0178 47.8680 -2.8285 6.3647
# 5 -14.0656 -5.5284 -50.5090 -2.8285 50.1631 4.5837
# 6 0.1677 10.6088 0.1053 6.3647 4.5837 25.7762
#
#
#
# Elastic Compliance Matrix: (Units=1/GPa)
#
#
# Indices 1 2 3 4 5 6 
#
# 1 0.009098 -0.003226 -0.000686 -0.000065 0.001406 0.001038
# 2 -0.003226 0.034071 -0.008151 -0.005700 -0.004605 -0.011742
# 3 -0.000686 -0.008151 0.009861 0.000307 0.008701 0.001696
# 4 -0.000065 -0.005700 0.000307 0.022919 0.001278 -0.003541
# 5 0.001406 -0.004605 0.008701 0.001278 0.028985 -0.003619
# 6 0.001038 -0.011742 0.001696 -0.003541 -0.003619 0.045132
#
#
# Mechanical properties :
#
#
# Convention : Reuss Voigt Hill
#
# Bulk Modulus (GPa) = 34.59866 60.91208 47.75537
# Shear Modulus (GPa) = 27.19927 41.61986 34.40956
#
# Velocity S-wave (km/s) = 3.33811 4.12926 3.75458
# Velocity P-wave (km/s) = 5.38810 6.90571 6.19357
#
# Compressibility (1/GPa) = 0.02890285
#
# Stress axis : x y z
#
# Youngs Moduli (GPa) = 109.91246 29.35064 101.40841
#
# Poissons Ratio (x) = 0.09470 0.06960
# Poissons Ratio (y) = 0.35462 0.82657
# Poissons Ratio (z) = 0.07544 0.23923
#
# Static dielectric constant tensor:
#      x y z
#    x 1.987650 0.017630 -0.001220 
#    y 0.017630 2.025560 0.032020 
#    z -0.001220 0.032020 2.070430 
# 
# From -- ./inp_files/70922.got.cif
#   From: 2010.05.17/outbox.cif.g08.bks.cpg/sg2_36_cif.got.tgz:70922.got - 2010.06.03 11:33:40.
