data_PCOD9068775
_publ_section_title
;
Structure prediction by ZEFSAII (Michael W. Deem and Ramdas Pophale) SiO2 
 PCOD9068775
Probable space group: P -1
;
_chemical_formula_sum "Si O2"
_cell_formula_units_Z 16
_cell_length_a 11.533178
_cell_length_b 7.757652
_cell_length_c 11.194877
_cell_angle_alpha 118.362517
_cell_angle_beta 123.739796
_cell_angle_gamma 61.945307
_cell_volume 703.146409
_symmetry_space_group_name_H-M "P -1"
_symmetry_group_IT_number 2
_symmetry_cell_setting 'triclinic'
loop_
_space_group_symop_operation_xyz
x,y,z
-x,-y,-z
loop_
_atom_site_type_symbol
_atom_site_label
_atom_site_fract_x
_atom_site_fract_y
_atom_site_fract_z
Si Si1 0.896300 0.383125 0.340778
Si Si2 0.833833 0.728365 0.679985
Si Si3 0.132611 0.024079 0.777469
Si Si4 0.894957 0.419066 0.823011
Si Si5 0.169560 0.943231 0.042135
Si Si6 0.567758 0.809506 0.388589
Si Si7 0.640502 0.461474 0.869282
Si Si8 0.321266 0.261933 0.818357
O O1 0.016312 0.244161 0.274564
O O2 0.000000 0.500000 0.500000
O O3 0.774910 0.541120 0.246274
O O4 0.855636 0.206406 0.334944
O O5 0.878767 0.533734 0.726408
O O6 0.764271 0.917776 0.787908
O O7 0.725161 0.715065 0.508464
O O8 0.218475 0.140509 0.780471
O O9 0.972508 0.181853 0.760162
O O10 0.196760 0.991974 0.937707
O O11 0.739999 0.479137 0.819502
O O12 0.000000 0.500000 0.000000
O O13 0.249310 0.714497 0.047994
O O14 0.000000 0.000000 0.000000
O O15 0.484886 0.634698 0.277385
O O16 0.583557 0.865242 0.276760
O O17 0.500000 0.000000 0.500000
O O18 0.599715 0.654157 0.999743
#
# Coordination Sequence:
#
# PCOD9068775 Si02
#       8
#     2   2   2   2   2   2   2   2
#     4  12  24  43  70 108 148 183 229 311 372 423
#     4  12  22  43  68 108 152 186 242 294 365 438
#     4  12  24  41  74 117 141 181 238 308 377 419
#     4  12  21  39  76 117 143 176 239 308 367 436
#     4  12  19  36  75 107 138 182 235 301 362 422
#     4  12  29  49  69  97 150 212 238 294 373 447
#     4  12  23  45  74 103 147 195 248 295 363 440
#     4  12  25  48  75 108 141 189 257 306 359 433
#
# _framework density 22.754864000000001
#
# number of rings (size 3 to 8) (size 9 to 14) (size 15 to 20)
#    0.000    0.000   10.000    0.375    0.000    1.000 
#    2.250    1.875    0.000    0.000    0.000    0.000 
#    0.000    0.000    0.000    0.000    0.000    0.000 
#
# Total GULP energy -89370.878619 kJ/mol
# GULP energy per Si atom -5585.679914 kJ/mol
# Density = 2.270307 g / cm^3
# Si number density = 22.754864 Si / 1000 Ang^3
#
#
#
# Elastic Constant Matrix: (Units=GPa)
#
#
# Indices 1 2 3 4 5 6 
#
# 1 101.6781 8.4920 31.6490 6.1142 -4.8146 8.0749
# 2 8.4920 74.7302 4.6053 16.9986 -5.6608 18.5576
# 3 31.6490 4.6053 114.2850 31.5069 0.9251 2.1614
# 4 6.1142 16.9986 31.5069 36.0108 -6.7668 0.9788
# 5 -4.8146 -5.6608 0.9251 -6.7668 29.9163 -0.5186
# 6 8.0749 18.5576 2.1614 0.9788 -0.5186 29.4154
#
#
#
# Elastic Compliance Matrix: (Units=1/GPa)
#
#
# Indices 1 2 3 4 5 6 
#
# 1 0.011192 -0.000781 -0.003625 0.002118 0.002204 -0.002345
# 2 -0.000781 0.018545 0.002543 -0.010397 0.000757 -0.011313
# 3 -0.003625 0.002543 0.013220 -0.012761 -0.003419 -0.001216
# 4 0.002118 -0.010397 -0.012761 0.045031 0.009051 0.005576
# 5 0.002204 0.000757 -0.003419 0.009051 0.036069 -0.000497
# 6 -0.002345 -0.011313 -0.001216 0.005576 -0.000497 0.041672
#
#
# Mechanical properties :
#
#
# Convention : Reuss Voigt Hill
#
# Bulk Modulus (GPa) = 25.49035 42.24289 33.86662
# Shear Modulus (GPa) = 27.39237 35.46496 31.42866
#
# Velocity S-wave (km/s) = 3.47335 3.95215 3.72046
# Velocity P-wave (km/s) = 5.22609 6.27938 5.77679
#
# Compressibility (1/GPa) = 0.03923053
#
# Stress axis : x y z
#
# Youngs Moduli (GPa) = 89.35079 53.92279 75.64150
#
# Poissons Ratio (x) = 0.04211 0.27423
# Poissons Ratio (y) = 0.06978 -0.19236
# Poissons Ratio (z) = 0.32393 -0.13713
#
# Static dielectric constant tensor:
#      x y z
#    x 2.000890 0.005420 -0.069230 
#    y 0.005420 1.945200 0.070940 
#    z -0.069230 0.070940 1.937580 
# 
# From -- ./inp_files/418258.got.cif
#   From: 2010.05.17/outbox.cif.g08.bks.cpg/sg2_210_cif.got.tgz:418258.got - 2010.06.03 11:33:40.
