data_PCOD9068528
_publ_section_title
;
Structure prediction by ZEFSAII (Michael W. Deem and Ramdas Pophale) SiO2 
 PCOD9068528
Probable space group: P -1
;
_chemical_formula_sum "Si O2"
_cell_formula_units_Z 12
_cell_length_a 5.957975
_cell_length_b 16.799013
_cell_length_c 12.463633
_cell_angle_alpha 24.183665
_cell_angle_beta 104.589464
_cell_angle_gamma 112.500228
_cell_volume 456.298597
_symmetry_space_group_name_H-M "P -1"
_symmetry_group_IT_number 2
_symmetry_cell_setting 'triclinic'
loop_
_space_group_symop_operation_xyz
x,y,z
-x,-y,-z
loop_
_atom_site_type_symbol
_atom_site_label
_atom_site_fract_x
_atom_site_fract_y
_atom_site_fract_z
Si Si1 0.836226 0.152432 0.559851
Si Si2 0.622111 0.468164 0.166155
Si Si3 0.527820 0.280351 0.982226
Si Si4 0.739621 0.312982 0.737375
Si Si5 0.781291 0.884018 0.202769
Si Si6 0.897572 0.182451 0.281159
O O1 0.628479 0.240192 0.466341
O O2 0.892197 0.219214 0.361231
O O3 0.087702 0.228286 0.565339
O O4 0.732739 0.900319 0.864341
O O5 0.500000 0.500000 0.000000
O O6 0.524437 0.561740 0.137628
O O7 0.913025 0.612353 0.006905
O O8 0.638249 0.145387 0.238249
O O9 0.687414 0.353639 0.803881
O O10 0.483479 0.272307 0.688015
O O11 0.000000 0.500000 0.500000
O O12 0.747996 0.081812 0.012953
O O13 0.000000 0.000000 0.000000
O O14 0.000000 0.000000 0.500000
#
# Coordination Sequence:
#
# PCOD9068528 Si02
#       6
#     2   2   2   2   2   2
#     4  12  25  51  82 118 167 214 271 356 412 507
#     4  12  27  49  77 124 164 216 276 334 432 508
#     4  12  26  52  80 117 164 217 275 346 426 495
#     4  11  28  57  86 118 167 225 286 352 422 502
#     4  11  26  57  82 122 165 219 290 350 421 495
#     4  12  24  46  77 119 161 206 272 337 423 501
#
# _framework density 26.298569000000001
#
# number of rings (size 3 to 8) (size 9 to 14) (size 15 to 20)
#    0.000    0.333    5.000    3.000    0.000    2.000 
#    9.000    0.833    0.000    0.000    0.000    0.000 
#    0.000    0.000    0.000    0.000    0.000    0.000 
#
# Total GULP energy -67318.770898 kJ/mol
# GULP energy per Si atom -5609.897575 kJ/mol
# Density = 2.623871 g / cm^3
# Si number density = 26.298569 Si / 1000 Ang^3
#
#
#
# Elastic Constant Matrix: (Units=GPa)
#
#
# Indices 1 2 3 4 5 6 
#
# 1 153.0567 117.9852 64.8099 9.9449 12.7887 1.5471
# 2 117.9852 229.7710 84.3901 3.5778 13.1843 -17.1517
# 3 64.8099 84.3901 112.9637 4.8306 -14.7922 -13.9488
# 4 9.9449 3.5778 4.8306 45.1833 -5.0884 7.5130
# 5 12.7887 13.1843 -14.7922 -5.0884 81.1864 -2.5058
# 6 1.5471 -17.1517 -13.9488 7.5130 -2.5058 74.4770
#
#
#
# Elastic Compliance Matrix: (Units=1/GPa)
#
#
# Indices 1 2 3 4 5 6 
#
# 1 0.012199 -0.004881 -0.003780 -0.001791 -0.001991 -0.001972
# 2 -0.004881 0.008249 -0.003368 0.000441 -0.001117 0.001288
# 3 -0.003780 -0.003368 0.014315 -0.000362 0.003794 0.002148
# 4 -0.001791 0.000441 -0.000362 0.023068 0.001522 -0.002205
# 5 -0.001991 -0.001117 0.003794 0.001522 0.013624 0.000800
# 6 -0.001972 0.001288 0.002148 -0.002205 0.000800 0.014416
#
#
# Mechanical properties :
#
#
# Convention : Reuss Voigt Hill
#
# Bulk Modulus (GPa) = 93.41908 114.46242 103.94075
# Shear Modulus (GPa) = 44.05350 55.40976 49.73163
#
# Velocity S-wave (km/s) = 4.09727 4.59513 4.35333
# Velocity P-wave (km/s) = 7.61467 8.47186 8.05467
#
# Compressibility (1/GPa) = 0.01070445
#
# Stress axis : x y z
#
# Youngs Moduli (GPa) = 81.97126 121.22859 69.85641
#
# Poissons Ratio (x) = 0.59170 0.26409
# Poissons Ratio (y) = 0.40009 0.23529
# Poissons Ratio (z) = 0.30988 0.40832
#
# Static dielectric constant tensor:
#      x y z
#    x 2.087530 0.015710 0.023670 
#    y 0.015710 2.045910 -0.067800 
#    z 0.023670 -0.067800 2.175000 
# 
# From -- ./inp_files/367341.got.cif
#   From: 2010.05.17/outbox.cif.g08.bks.cpg/sg2_184_cif.got.tgz:367341.got - 2010.06.03 11:33:40.
