data_PCOD9068453
_publ_section_title
;
Structure prediction by ZEFSAII (Michael W. Deem and Ramdas Pophale) SiO2 
 PCOD9068453
Probable space group: P -1
;
_chemical_formula_sum "Si O2"
_cell_formula_units_Z 13
_cell_length_a 7.279265
_cell_length_b 12.357710
_cell_length_c 6.920758
_cell_angle_alpha 75.016258
_cell_angle_beta 82.798645
_cell_angle_gamma 71.830523
_cell_volume 570.724268
_symmetry_space_group_name_H-M "P -1"
_symmetry_group_IT_number 2
_symmetry_cell_setting 'triclinic'
loop_
_space_group_symop_operation_xyz
x,y,z
-x,-y,-z
loop_
_atom_site_type_symbol
_atom_site_label
_atom_site_fract_x
_atom_site_fract_y
_atom_site_fract_z
Si Si1 0.030270 0.735102 0.196733
Si Si2 0.567228 0.316267 0.058055
Si Si3 0.637760 0.488468 0.300135
Si Si4 0.593205 0.094685 0.353880
Si Si5 0.874772 0.094393 0.620246
Si Si6 0.272068 0.038926 0.966211
Si Si7 0.000000 0.500000 0.500000
O O1 0.050237 0.801370 0.362772
O O2 0.019919 0.607569 0.307725
O O3 0.839020 0.823800 0.086186
O O4 0.219963 0.730357 0.046547
O O5 0.597904 0.392668 0.202381
O O6 0.488476 0.210297 0.192109
O O7 0.430204 0.394945 0.878018
O O8 0.500000 0.500000 0.500000
O O9 0.848695 0.468800 0.372802
O O10 0.679996 0.145383 0.499560
O O11 0.500000 0.000000 0.500000
O O12 0.741633 0.016427 0.215627
O O13 0.000000 0.000000 0.500000
O O14 0.825416 0.024756 0.838412
O O15 0.500000 0.000000 0.000000
#
# Coordination Sequence:
#
# PCOD9068453 Si02
#       7
#     2   2   2   2   2   2   1
#     4  12  26  48  75 112 155 201 264 322 392 473
#     4  11  26  50  80 109 160 208 255 334 399 471
#     4  11  26  54  78 115 154 208 267 326 400 469
#     4  12  25  43  72 112 146 200 254 315 392 461
#     4  12  24  45  74 106 155 203 253 320 396 459
#     4  12  26  46  72 113 154 198 261 323 386 474
#     4  12  28  46  82 114 150 208 266 324 390 472
#
# _framework density 22.778074
#
# number of rings (size 3 to 8) (size 9 to 14) (size 15 to 20)
#    0.000    0.308    6.154    2.308    2.154    1.846 
#    0.000    0.000    0.000    0.000    0.000    0.000 
#    0.000    0.000    0.000    0.000    0.000    0.000 
#
# Total GULP energy -72374.469996 kJ/mol
# GULP energy per Si atom -5567.266923 kJ/mol
# Density = 2.272623 g / cm^3
# Si number density = 22.778074 Si / 1000 Ang^3
#
#
#
# Elastic Constant Matrix: (Units=GPa)
#
#
# Indices 1 2 3 4 5 6 
#
# 1 79.0135 29.6645 36.6141 -11.4497 20.5943 4.1083
# 2 29.6645 96.8031 60.7414 -29.9442 -10.1320 5.6177
# 3 36.6141 60.7414 161.8989 -16.8995 0.6022 1.8032
# 4 -11.4497 -29.9442 -16.8995 66.5478 4.8505 1.4702
# 5 20.5943 -10.1320 0.6022 4.8505 47.1623 -6.1749
# 6 4.1083 5.6177 1.8032 1.4702 -6.1749 33.1756
#
#
#
# Elastic Compliance Matrix: (Units=1/GPa)
#
#
# Indices 1 2 3 4 5 6 
#
# 1 0.018221 -0.004634 -0.002181 0.001256 -0.009469 -0.003171
# 2 -0.004634 0.016989 -0.004777 0.005299 0.005013 -0.001345
# 3 -0.002181 -0.004777 0.008414 -0.000398 -0.000058 0.000628
# 4 0.001256 0.005299 -0.000398 0.017682 -0.001498 -0.002094
# 5 -0.009469 0.005013 -0.000058 -0.001498 0.027286 0.005472
# 6 -0.003171 -0.001345 0.000628 -0.002094 0.005472 0.031840
#
#
# Mechanical properties :
#
#
# Convention : Reuss Voigt Hill
#
# Bulk Modulus (GPa) = 48.91903 65.75063 57.33483
# Shear Modulus (GPa) = 33.23841 43.42350 38.33095
#
# Velocity S-wave (km/s) = 3.82413 4.37094 4.10665
# Velocity P-wave (km/s) = 6.40481 7.37576 6.90737
#
# Compressibility (1/GPa) = 0.02044194
#
# Stress axis : x y z
#
# Youngs Moduli (GPa) = 54.88140 58.86066 118.85404
#
# Poissons Ratio (x) = 0.27275 0.25917
# Poissons Ratio (y) = 0.25431 0.56773
# Poissons Ratio (z) = 0.11967 0.28116
#
# Static dielectric constant tensor:
#      x y z
#    x 1.955520 -0.073320 0.025730 
#    y -0.073320 1.856690 -0.078390 
#    z 0.025730 -0.078390 1.679790 
# 
# From -- ./inp_files/24010.got.cif
#   From: 2010.05.17/outbox.cif.g08.bks.cpg/sg2_13_cif.got.tgz:24010.got - 2010.06.03 11:33:40.
