data_PCOD9068161
_publ_section_title
;
Structure prediction by ZEFSAII (Michael W. Deem and Ramdas Pophale) SiO2 
 PCOD9068161
Probable space group: P -1
;
_chemical_formula_sum "Si O2"
_cell_formula_units_Z 14
_cell_length_a 11.354112
_cell_length_b 10.009972
_cell_length_c 11.077893
_cell_angle_alpha 43.201871
_cell_angle_beta 67.228524
_cell_angle_gamma 97.774734
_cell_volume 596.141830
_symmetry_space_group_name_H-M "P -1"
_symmetry_group_IT_number 2
_symmetry_cell_setting 'triclinic'
loop_
_space_group_symop_operation_xyz
x,y,z
-x,-y,-z
loop_
_atom_site_type_symbol
_atom_site_label
_atom_site_fract_x
_atom_site_fract_y
_atom_site_fract_z
Si Si1 0.139288 0.062176 0.809703
Si Si2 0.351696 0.588600 0.254383
Si Si3 0.027911 0.507616 0.811712
Si Si4 0.674547 0.745254 0.158370
Si Si5 0.163440 0.741272 0.344887
Si Si6 0.344820 0.694516 0.916473
Si Si7 0.642039 0.303106 0.353671
O O1 0.199105 0.286356 0.545912
O O2 0.292692 0.167670 0.772768
O O3 0.000000 0.000000 0.000000
O O4 0.060306 0.793550 0.957090
O O5 0.504803 0.655327 0.225936
O O6 0.308984 0.758532 0.212782
O O7 0.382959 0.633629 0.069527
O O8 0.134601 0.659571 0.547990
O O9 0.185344 0.657046 0.745601
O O10 0.859481 0.472349 0.895168
O O11 0.680098 0.519678 0.285508
O O12 0.812423 0.006959 0.855212
O O13 0.000000 0.500000 0.500000
O O14 0.383686 0.634146 0.811690
O O15 0.474295 0.011399 0.647836
#
# Coordination Sequence:
#
# PCOD9068161 Si02
#       7
#     2   2   2   2   2   2   2
#     4  12  22  40  66  99 141 166 214 273 343 401
#     4  12  24  41  68 101 135 179 219 276 338 405
#     4  12  23  44  74  98 135 184 218 280 340 404
#     4  12  24  41  68 101 135 179 219 276 338 405
#     4  12  22  40  66  99 141 166 214 273 343 401
#     4  11  26  48  69  96 134 182 234 279 325 391
#     4  11  26  48  69  96 134 182 234 279 325 391
#
# _framework density 23.484347
#
# number of rings (size 3 to 8) (size 9 to 14) (size 15 to 20)
#    0.000    0.286    5.714    3.000    0.000    2.857 
#    0.000    4.286    0.000    0.000    0.000    0.000 
#    0.000    0.000    0.000    0.000    0.000    0.000 
#
# Total GULP energy -78246.594729 kJ/mol
# GULP energy per Si atom -5589.042481 kJ/mol
# Density = 2.343090 g / cm^3
# Si number density = 23.484347 Si / 1000 Ang^3
#
#
#
# Elastic Constant Matrix: (Units=GPa)
#
#
# Indices 1 2 3 4 5 6 
#
# 1 101.3221 -4.0866 16.5070 14.0231 -17.0312 26.4491
# 2 -4.0866 42.3008 25.3849 5.6091 5.4706 19.4425
# 3 16.5070 25.3849 139.3338 5.8687 23.6116 19.7086
# 4 14.0231 5.6091 5.8687 24.0106 11.5025 15.5945
# 5 -17.0312 5.4706 23.6116 11.5025 46.0506 0.2004
# 6 26.4491 19.4425 19.7086 15.5945 0.2004 32.8459
#
#
#
# Elastic Compliance Matrix: (Units=1/GPa)
#
#
# Indices 1 2 3 4 5 6 
#
# 1 0.016750 0.009992 -0.002735 -0.005218 0.007780 -0.015332
# 2 0.009992 0.041856 -0.004144 0.008077 -0.001021 -0.034164
# 3 -0.002735 -0.004144 0.009777 0.006252 -0.007076 -0.004136
# 4 -0.005218 0.008077 0.006252 0.081854 -0.026353 -0.043032
# 5 0.007780 -0.001021 -0.007076 -0.026353 0.034877 0.010884
# 6 -0.015332 -0.034164 -0.004136 -0.043032 0.010884 0.085860
#
#
# Mechanical properties :
#
#
# Convention : Reuss Voigt Hill
#
# Bulk Modulus (GPa) = 13.40328 39.84082 26.62205
# Shear Modulus (GPa) = 17.26414 36.92485 27.09450
#
# Velocity S-wave (km/s) = 2.71428 3.96955 3.40034
# Velocity P-wave (km/s) = 3.94243 6.16534 5.17466
#
# Compressibility (1/GPa) = 0.07460862
#
# Stress axis : x y z
#
# Youngs Moduli (GPa) = 59.70091 23.89149 102.28323
#
# Poissons Ratio (x) = -0.23872 0.27973
# Poissons Ratio (y) = -0.59653 0.42388
# Poissons Ratio (z) = 0.16327 0.09901
#
# Static dielectric constant tensor:
#      x y z
#    x 1.978710 0.019910 -0.061360 
#    y 0.019910 1.816700 -0.060880 
#    z -0.061360 -0.060880 1.819760 
# 
# From -- ./inp_files/331568.got.cif
#   From: 2010.05.17/outbox.cif.g08.bks.cpg/sg2_166_cif.got.tgz:331568.got - 2010.06.03 11:33:40.
