data_PCOD9068077
_publ_section_title
;
Structure prediction by ZEFSAII (Michael W. Deem and Ramdas Pophale) SiO2 
 PCOD9068077
Probable space group: P -1
;
_chemical_formula_sum "Si O2"
_cell_formula_units_Z 11
_cell_length_a 11.500358
_cell_length_b 6.932855
_cell_length_c 11.206136
_cell_angle_alpha 123.942167
_cell_angle_beta 137.390347
_cell_angle_gamma 79.421827
_cell_volume 458.851315
_symmetry_space_group_name_H-M "P -1"
_symmetry_group_IT_number 2
_symmetry_cell_setting 'triclinic'
loop_
_space_group_symop_operation_xyz
x,y,z
-x,-y,-z
loop_
_atom_site_type_symbol
_atom_site_label
_atom_site_fract_x
_atom_site_fract_y
_atom_site_fract_z
Si Si1 0.719864 0.683687 0.741366
Si Si2 0.108933 0.909465 0.650597
Si Si3 0.437821 0.446586 0.071622
Si Si4 0.679394 0.138492 0.769251
Si Si5 0.000000 0.500000 0.000000
Si Si6 0.161043 0.398763 0.453371
O O1 0.500000 0.500000 0.500000
O O2 0.820452 0.589638 0.885674
O O3 0.833040 0.666097 0.702318
O O4 0.710464 0.955034 0.826925
O O5 0.130250 0.658806 0.531788
O O6 0.985927 0.812293 0.644212
O O7 0.000000 0.000000 0.500000
O O8 0.305603 0.152722 0.896343
O O9 0.335533 0.630174 0.090487
O O10 0.629564 0.538075 0.321203
O O11 0.500000 0.500000 0.000000
O O12 0.855936 0.227704 0.846098
O O13 0.500000 0.000000 0.500000
#
# Coordination Sequence:
#
# PCOD9068077 Si02
#       6
#     2   2   2   2   1   2
#     4  12  27  51  79 113 155 206 263 322 388 466
#     4  11  26  47  74 113 150 199 255 312 390 462
#     4  12  26  47  79 111 152 204 250 319 394 458
#     4  12  27  50  77 116 154 202 264 318 395 467
#     4  12  28  50  80 108 154 212 250 330 384 460
#     4  11  26  49  75 110 154 199 256 323 379 467
#
# _framework density 23.972908
#
# number of rings (size 3 to 8) (size 9 to 14) (size 15 to 20)
#    0.000    0.364    5.455    1.091    7.636    0.000 
#    6.545    0.000    0.000    0.000    0.000    0.000 
#    0.000    0.000    0.000    0.000    0.000    0.000 
#
# Total GULP energy -61383.373078 kJ/mol
# GULP energy per Si atom -5580.306643 kJ/mol
# Density = 2.391834 g / cm^3
# Si number density = 23.972908 Si / 1000 Ang^3
#
#
#
# Elastic Constant Matrix: (Units=GPa)
#
#
# Indices 1 2 3 4 5 6 
#
# 1 136.8883 45.6752 29.0164 33.2268 0.5195 2.3543
# 2 45.6752 175.9846 27.3088 21.1301 5.5733 -15.5807
# 3 29.0164 27.3088 101.4544 13.3850 34.1750 9.3952
# 4 33.2268 21.1301 13.3850 40.8628 6.2114 18.6429
# 5 0.5195 5.5733 34.1750 6.2114 53.0020 5.2715
# 6 2.3543 -15.5807 9.3952 18.6429 5.2715 40.2973
#
#
#
# Elastic Compliance Matrix: (Units=1/GPa)
#
#
# Indices 1 2 3 4 5 6 
#
# 1 0.010288 -0.000954 -0.002635 -0.008960 0.002403 0.003475
# 2 -0.000954 0.007266 -0.001650 -0.005014 0.000347 0.005524
# 3 -0.002635 -0.001650 0.014140 0.001135 -0.008737 -0.003163
# 4 -0.008960 -0.005014 0.001135 0.044410 -0.003152 -0.021813
# 5 0.002403 0.000347 -0.008737 -0.003152 0.024785 0.000247
# 6 0.003475 0.005524 -0.003163 -0.021813 0.000247 0.037545
#
#
# Mechanical properties :
#
#
# Convention : Reuss Voigt Hill
#
# Bulk Modulus (GPa) = 47.13189 68.70313 57.91751
# Shear Modulus (GPa) = 32.05459 47.65423 39.85441
#
# Velocity S-wave (km/s) = 3.66063 4.46335 4.08177
# Velocity P-wave (km/s) = 6.12944 7.43525 6.81370
#
# Compressibility (1/GPa) = 0.02121706
#
# Stress axis : x y z
#
# Youngs Moduli (GPa) = 97.20131 137.62606 70.71892
#
# Poissons Ratio (x) = 0.13128 0.18632
# Poissons Ratio (y) = 0.09272 0.11669
# Poissons Ratio (z) = 0.25610 0.22709
#
# Static dielectric constant tensor:
#      x y z
#    x 1.953110 0.010380 0.078710 
#    y 0.010380 1.932200 -0.034010 
#    z 0.078710 -0.034010 2.256670 
# 
# From -- ./inp_files/67897.got.cif
#   From: 2010.05.17/outbox.cif.g08.bks.cpg/sg2_34_cif.got.tgz:67897.got - 2010.06.03 11:33:40.
