data_PCOD9068583
_publ_section_title
;
Structure prediction by ZEFSAII (Michael W. Deem and Ramdas Pophale) SiO2 
 PCOD9068583
Probable space group: P -1
;
_chemical_formula_sum "Si O2"
_cell_formula_units_Z 15
_cell_length_a 15.536282
_cell_length_b 6.011931
_cell_length_c 11.994840
_cell_angle_alpha 117.439985
_cell_angle_beta 47.577107
_cell_angle_gamma 134.701233
_cell_volume 587.639572
_symmetry_space_group_name_H-M "P -1"
_symmetry_group_IT_number 2
_symmetry_cell_setting 'triclinic'
loop_
_space_group_symop_operation_xyz
x,y,z
-x,-y,-z
loop_
_atom_site_type_symbol
_atom_site_label
_atom_site_fract_x
_atom_site_fract_y
_atom_site_fract_z
Si Si1 0.000000 0.500000 0.500000
Si Si2 0.732093 0.792813 0.118926
Si Si3 0.688826 0.531719 0.431057
Si Si4 0.257849 0.518491 0.367318
Si Si5 0.078976 0.532034 0.825740
Si Si6 0.147098 0.543588 0.154142
Si Si7 0.519021 0.799505 0.657765
Si Si8 0.339591 0.183698 0.065024
O O1 0.889363 0.510348 0.513446
O O2 0.910477 0.518575 0.685618
O O3 0.593642 0.489158 0.230124
O O4 0.797438 0.094986 0.208677
O O5 0.844032 0.713861 0.972400
O O6 0.697956 0.866081 0.044790
O O7 0.700119 0.492390 0.543706
O O8 0.843432 0.635362 0.275570
O O9 0.646825 0.766713 0.510111
O O10 0.568635 0.248210 0.390023
O O11 0.249588 0.260636 0.239872
O O12 0.396177 0.860598 0.285329
O O13 0.956858 0.408790 0.813303
O O14 0.000000 0.500000 0.000000
O O15 0.306854 0.872843 0.076259
O O16 0.500000 0.500000 0.000000
#
# Coordination Sequence:
#
# PCOD9068583 Si02
#       8
#     1   2   2   2   2   2   2   2
#     4  12  28  48  72 110 148 208 250 298 376 448
#     4  12  27  48  77 111 145 196 256 308 377 447
#     4  11  27  47  76 110 149 196 250 311 377 443
#     4  12  27  49  75 109 158 196 252 309 375 455
#     4  12  26  49  77 106 148 198 246 311 378 443
#     4  12  27  52  74 109 155 197 254 311 370 455
#     4  11  28  46  78 116 148 195 253 316 380 446
#     4  12  28  47  77 109 149 200 248 311 379 444
#
# _framework density 25.525849999999998
#
# number of rings (size 3 to 8) (size 9 to 14) (size 15 to 20)
#    0.000    0.267    4.000    3.200   11.200    3.733 
#    0.000    0.000    0.000    0.000    0.000    0.000 
#    0.000    0.000    0.000    0.000    0.000    0.000 
#
# Total GULP energy -83776.783653 kJ/mol
# GULP energy per Si atom -5585.118910 kJ/mol
# Density = 2.546775 g / cm^3
# Si number density = 25.525850 Si / 1000 Ang^3
#
#
#
# Elastic Constant Matrix: (Units=GPa)
#
#
# Indices 1 2 3 4 5 6 
#
# 1 113.7260 -6.4462 27.0727 -5.5200 -2.0704 -3.3543
# 2 -6.4462 81.5739 13.3919 6.8861 5.6775 10.4612
# 3 27.0727 13.3919 142.6016 -3.4570 5.1131 -12.2429
# 4 -5.5200 6.8861 -3.4570 21.8674 -7.6776 4.4524
# 5 -2.0704 5.6775 5.1131 -7.6776 53.3612 8.1655
# 6 -3.3543 10.4612 -12.2429 4.4524 8.1655 12.4949
#
#
#
# Elastic Compliance Matrix: (Units=1/GPa)
#
#
# Indices 1 2 3 4 5 6 
#
# 1 0.009421 0.001039 -0.002033 0.002518 0.001111 -0.001956
# 2 0.001039 0.014820 -0.002944 -0.001525 0.000823 -0.015008
# 3 -0.002033 -0.002944 0.008864 -0.001886 -0.002902 0.013173
# 4 0.002518 -0.001525 -0.001886 0.056969 0.013031 -0.028710
# 5 0.001111 0.000823 -0.002902 0.013031 0.024505 -0.023892
# 6 -0.001956 -0.015008 0.013173 -0.028710 -0.023892 0.130825
#
#
# Mechanical properties :
#
#
# Convention : Reuss Voigt Hill
#
# Bulk Modulus (GPa) = 39.63560 45.10424 42.36992
# Shear Modulus (GPa) = 19.10664 37.80358 28.45511
#
# Velocity S-wave (km/s) = 2.73888 3.85254 3.34242
# Velocity P-wave (km/s) = 5.05602 6.12355 5.61521
#
# Compressibility (1/GPa) = 0.02522984
#
# Stress axis : x y z
#
# Youngs Moduli (GPa) = 106.14990 67.47432 112.81218
#
# Poissons Ratio (x) = -0.07012 0.22933
# Poissons Ratio (y) = -0.11031 0.33213
# Poissons Ratio (z) = 0.21579 0.19865
#
# Static dielectric constant tensor:
#      x y z
#    x 2.000380 0.017210 -0.005260 
#    y 0.017210 2.028480 -0.021720 
#    z -0.005260 -0.021720 1.982800 
# 
# From -- ./inp_files/442153.got.cif
#   From: 2010.05.17/outbox.cif.g08.bks.cpg/sg2_222_cif.got.tgz:442153.got - 2010.06.03 11:33:40.
