data_PCOD9068246
_publ_section_title
;
Structure prediction by ZEFSAII (Michael W. Deem and Ramdas Pophale) SiO2 
 PCOD9068246
Probable space group: P -1
;
_chemical_formula_sum "Si O2"
_cell_formula_units_Z 14
_cell_length_a 11.692737
_cell_length_b 8.900530
_cell_length_c 8.729931
_cell_angle_alpha 81.155481
_cell_angle_beta 40.229099
_cell_angle_gamma 82.049824
_cell_volume 579.485868
_symmetry_space_group_name_H-M "P -1"
_symmetry_group_IT_number 2
_symmetry_cell_setting 'triclinic'
loop_
_space_group_symop_operation_xyz
x,y,z
-x,-y,-z
loop_
_atom_site_type_symbol
_atom_site_label
_atom_site_fract_x
_atom_site_fract_y
_atom_site_fract_z
Si Si1 0.130822 0.398124 0.483478
Si Si2 0.733999 0.799875 0.879099
Si Si3 0.998234 0.338202 0.950551
Si Si4 0.759027 0.940004 0.303078
Si Si5 0.100577 0.833342 0.668277
Si Si6 0.392692 0.903521 0.863830
Si Si7 0.374800 0.679520 0.192343
O O1 0.195144 0.245025 0.355270
O O2 0.007869 0.362667 0.758049
O O3 0.293647 0.512623 0.322598
O O4 0.000000 0.500000 0.500000
O O5 0.913946 0.785728 0.796195
O O6 0.567309 0.689433 0.074169
O O7 0.650610 0.962947 0.988436
O O8 0.166588 0.220259 0.812474
O O9 0.000000 0.500000 0.000000
O O10 0.848269 0.266712 0.219068
O O11 0.583786 0.917496 0.586226
O O12 0.895615 0.004565 0.278169
O O13 0.725454 0.048703 0.172271
O O14 0.243467 0.796738 0.399088
O O15 0.380375 0.748712 0.001598
#
# Coordination Sequence:
#
# PCOD9068246 Si02
#       7
#     2   2   2   2   2   2   2
#     4  12  27  47  75 108 150 202 250 302 383 443
#     4  12  25  48  74 110 149 195 250 309 372 447
#     4  12  25  48  74 110 150 195 253 306 364 459
#     4  11  26  49  76 113 146 203 247 312 380 433
#     4  12  26  47  76 110 150 197 251 307 378 441
#     4  11  26  48  77 110 152 191 256 310 370 451
#     4  12  26  49  73 112 150 197 247 312 373 446
#
# _framework density 24.159344999999998
#
# number of rings (size 3 to 8) (size 9 to 14) (size 15 to 20)
#    0.000    0.286    5.714    2.143    4.000    0.571 
#    0.000    0.714    0.000    0.000    0.000    0.000 
#    0.000    0.000    0.000    0.000    0.000    0.000 
#
# Total GULP energy -78036.079904 kJ/mol
# GULP energy per Si atom -5574.005707 kJ/mol
# Density = 2.410436 g / cm^3
# Si number density = 24.159345 Si / 1000 Ang^3
#
#
#
# Elastic Constant Matrix: (Units=GPa)
#
#
# Indices 1 2 3 4 5 6 
#
# 1 136.2130 36.5317 62.5816 -7.2121 -2.6578 6.9703
# 2 36.5317 86.8778 20.1726 12.8726 21.2643 17.1916
# 3 62.5816 20.1726 154.2251 1.2899 33.5384 -2.5551
# 4 -7.2121 12.8726 1.2899 51.9728 -1.5953 15.6898
# 5 -2.6578 21.2643 33.5384 -1.5953 51.5556 -4.9317
# 6 6.9703 17.1916 -2.5551 15.6898 -4.9317 39.1101
#
#
#
# Elastic Compliance Matrix: (Units=1/GPa)
#
#
# Indices 1 2 3 4 5 6 
#
# 1 0.011729 -0.005685 -0.005484 0.003536 0.006575 -0.000539
# 2 -0.005685 0.017558 0.002015 -0.003565 -0.009563 -0.006349
# 3 -0.005484 0.002015 0.010151 -0.001915 -0.007724 0.000549
# 4 0.003536 -0.003565 -0.001915 0.023207 0.002838 -0.008140
# 5 0.006575 -0.009563 -0.007724 0.002838 0.029278 0.005081
# 6 -0.000539 -0.006349 0.000549 -0.008140 0.005081 0.032398
#
#
# Mechanical properties :
#
#
# Convention : Reuss Voigt Hill
#
# Bulk Modulus (GPa) = 47.32890 68.43195 57.88042
# Shear Modulus (GPa) = 33.40622 45.72971 39.56796
#
# Velocity S-wave (km/s) = 3.72256 4.35540 4.05135
# Velocity P-wave (km/s) = 6.17329 7.32662 6.77454
#
# Compressibility (1/GPa) = 0.02112874
#
# Stress axis : x y z
#
# Youngs Moduli (GPa) = 85.25969 56.95250 98.51678
#
# Poissons Ratio (x) = 0.32378 0.54027
# Poissons Ratio (y) = 0.48471 -0.19847
# Poissons Ratio (z) = 0.46757 -0.11473
#
# Static dielectric constant tensor:
#      x y z
#    x 2.051270 0.070640 -0.066200 
#    y 0.070640 2.118960 -0.149130 
#    z -0.066200 -0.149130 2.016430 
# 
# From -- ./inp_files/243263.got.cif
#   From: 2010.05.17/outbox.cif.g08.bks.cpg/sg2_122_cif.got.tgz:243263.got - 2010.06.03 11:33:40.
