data_PCOD9068299
_publ_section_title
;
Structure prediction by ZEFSAII (Michael W. Deem and Ramdas Pophale) SiO2 
 PCOD9068299
Probable space group: P -1
;
_chemical_formula_sum "Si O2"
_cell_formula_units_Z 14
_cell_length_a 11.613957
_cell_length_b 9.438692
_cell_length_c 11.079290
_cell_angle_alpha 124.146742
_cell_angle_beta 120.453995
_cell_angle_gamma 38.347066
_cell_volume 618.339248
_symmetry_space_group_name_H-M "P -1"
_symmetry_group_IT_number 2
_symmetry_cell_setting 'triclinic'
loop_
_space_group_symop_operation_xyz
x,y,z
-x,-y,-z
loop_
_atom_site_type_symbol
_atom_site_label
_atom_site_fract_x
_atom_site_fract_y
_atom_site_fract_z
Si Si1 0.070329 0.537438 0.723199
Si Si2 0.721656 0.082250 0.856038
Si Si3 0.136639 0.634926 0.458865
Si Si4 0.035359 0.081647 0.737875
Si Si5 0.233523 0.601018 0.036951
Si Si6 0.410125 0.901453 0.945784
Si Si7 0.586059 0.735537 0.404075
O O1 0.223069 0.426972 0.648762
O O2 0.986521 0.424234 0.615423
O O3 0.174647 0.483273 0.878553
O O4 0.899674 0.825155 0.772647
O O5 0.752021 0.255648 0.981804
O O6 0.563342 0.227720 0.738977
O O7 0.658545 0.039190 0.922089
O O8 0.348573 0.400686 0.499023
O O9 0.096929 0.721081 0.341429
O O10 0.073138 0.853082 0.609771
O O11 0.926596 0.198942 0.860965
O O12 0.232938 0.002307 0.820247
O O13 0.424909 0.387012 0.104261
O O14 0.500000 0.000000 0.000000
O O15 0.500000 0.000000 0.500000
#
# Coordination Sequence:
#
# PCOD9068299 Si02
#       7
#     2   2   2   2   2   2   2
#     4  12  25  45  75 105 147 194 248 302 363 438
#     4  12  26  46  74 113 146 189 253 311 365 430
#     4  11  26  49  69 106 152 197 242 293 379 443
#     4  11  27  49  73 105 154 195 240 309 369 445
#     4  12  26  45  79 110 144 191 252 311 368 425
#     4  12  27  47  76 110 146 193 250 307 369 435
#     4  12  26  44  72 107 146 191 243 303 362 440
#
# _framework density 22.641292
#
# number of rings (size 3 to 8) (size 9 to 14) (size 15 to 20)
#    0.000    0.286    4.286    3.857    6.000    1.143 
#    0.000    2.143    0.000    0.000    0.000    0.000 
#    0.000    0.000    0.000    0.000    0.000    0.000 
#
# Total GULP energy -78370.751104 kJ/mol
# GULP energy per Si atom -5597.910793 kJ/mol
# Density = 2.258976 g / cm^3
# Si number density = 22.641292 Si / 1000 Ang^3
#
#
#
# Elastic Constant Matrix: (Units=GPa)
#
#
# Indices 1 2 3 4 5 6 
#
# 1 84.5718 49.3668 38.8750 10.9242 2.1586 -4.4971
# 2 49.3668 154.3012 42.5048 -11.2494 4.2590 9.7354
# 3 38.8750 42.5048 113.8311 -13.7690 16.0130 0.0661
# 4 10.9242 -11.2494 -13.7690 46.2161 -0.7912 -1.1858
# 5 2.1586 4.2590 16.0130 -0.7912 24.0517 2.1222
# 6 -4.4971 9.7354 0.0661 -1.1858 2.1222 24.8860
#
#
#
# Elastic Compliance Matrix: (Units=1/GPa)
#
#
# Indices 1 2 3 4 5 6 
#
# 1 0.018623 -0.005323 -0.005570 -0.007191 0.002309 0.004923
# 2 -0.005323 0.009003 -0.001204 0.002982 0.000167 -0.004353
# 3 -0.005570 -0.001204 0.012786 0.004709 -0.007671 0.000309
# 4 -0.007191 0.002982 0.004709 0.025402 -0.002086 -0.001090
# 5 0.002309 0.000167 -0.007671 -0.002086 0.046706 -0.003710
# 6 0.004923 -0.004353 0.000309 -0.001090 -0.003710 0.043039
#
#
# Mechanical properties :
#
#
# Convention : Reuss Voigt Hill
#
# Bulk Modulus (GPa) = 61.66088 68.24415 64.95251
# Shear Modulus (GPa) = 27.00370 33.82793 30.41582
#
# Velocity S-wave (km/s) = 3.45726 3.86953 3.66919
# Velocity P-wave (km/s) = 6.57494 7.08316 6.83378
#
# Compressibility (1/GPa) = 0.01621774
#
# Stress axis : x y z
#
# Youngs Moduli (GPa) = 53.69596 111.07576 78.21335
#
# Poissons Ratio (x) = 0.59120 0.43566
# Poissons Ratio (y) = 0.28580 0.09419
# Poissons Ratio (z) = 0.29910 0.13377
#
# Static dielectric constant tensor:
#      x y z
#    x 1.832470 0.011100 0.001960 
#    y 0.011100 1.868340 -0.065050 
#    z 0.001960 -0.065050 1.850130 
# 
# From -- ./inp_files/240558.got.cif
#   From: 2010.05.17/outbox.cif.g08.bks.cpg/sg2_121_cif.got.tgz:240558.got - 2010.06.03 11:33:40.
