data_PCOD9068932
_publ_section_title
;
Structure prediction by ZEFSAII (Michael W. Deem and Ramdas Pophale) SiO2 
 PCOD9068932
Probable space group: P -1
;
_chemical_formula_sum "Si O2"
_cell_formula_units_Z 14
_cell_length_a 22.064180
_cell_length_b 12.475607
_cell_length_c 15.029264
_cell_angle_alpha 142.896461
_cell_angle_beta 19.110905
_cell_angle_gamma 152.765753
_cell_volume 594.262614
_symmetry_space_group_name_H-M "P -1"
_symmetry_group_IT_number 2
_symmetry_cell_setting 'triclinic'
loop_
_space_group_symop_operation_xyz
x,y,z
-x,-y,-z
loop_
_atom_site_type_symbol
_atom_site_label
_atom_site_fract_x
_atom_site_fract_y
_atom_site_fract_z
Si Si1 0.225021 0.777283 0.403738
Si Si2 0.481321 0.549514 0.456473
Si Si3 0.954055 0.651407 0.872659
Si Si4 0.259567 0.958162 0.830079
Si Si5 0.069381 0.984434 0.630963
Si Si6 0.795355 0.268075 0.070307
Si Si7 0.791701 0.160256 0.817066
O O1 0.000000 0.500000 0.500000
O O2 0.177044 0.767291 0.568752
O O3 0.190185 0.939449 0.508418
O O4 0.507136 0.905627 0.067034
O O5 0.500000 0.500000 0.500000
O O6 0.253473 0.276607 0.553627
O O7 0.406139 0.706168 0.653813
O O8 0.761436 0.675610 0.119126
O O9 0.794932 0.362074 0.905970
O O10 0.060822 0.764387 0.898582
O O11 0.270349 0.931428 0.904081
O O12 0.500000 0.000000 0.500000
O O13 0.197554 0.125441 0.030518
O O14 0.067078 0.872001 0.469193
O O15 0.911207 0.268074 0.819432
O O16 0.000000 0.500000 0.000000
#
# Coordination Sequence:
#
# PCOD9068932 Si02
#       7
#     2   2   2   2   2   2   2
#     4  12  25  42  71 113 145 183 233 301 369 413
#     4  12  21  43  74 106 136 188 241 294 355 424
#     4  12  24  46  75 104 148 183 240 301 355 428
#     4  12  28  48  68 107 147 188 241 298 355 436
#     4  12  24  44  71 104 144 187 237 296 359 426
#     4  12  23  46  73 101 141 192 237 288 362 422
#     4  12  24  45  74 104 145 188 238 300 354 427
#
# _framework density 23.558608
#
# number of rings (size 3 to 8) (size 9 to 14) (size 15 to 20)
#    0.000    0.000    8.571    2.143    2.000    1.143 
#    0.000    0.714    0.000    0.000    0.000    0.000 
#    0.000    0.000    0.000    0.000    0.000    0.000 
#
# Total GULP energy -78099.272540 kJ/mol
# GULP energy per Si atom -5578.519467 kJ/mol
# Density = 2.350499 g / cm^3
# Si number density = 23.558608 Si / 1000 Ang^3
#
#
#
# Elastic Constant Matrix: (Units=GPa)
#
#
# Indices 1 2 3 4 5 6 
#
# 1 129.9974 29.1236 33.0857 13.7783 12.7287 17.3843
# 2 29.1236 79.0809 28.3298 4.4485 7.3246 14.7413
# 3 33.0857 28.3298 125.7792 15.4367 3.3824 22.8221
# 4 13.7783 4.4485 15.4367 34.7705 4.3817 8.5623
# 5 12.7287 7.3246 3.3824 4.3817 44.7335 3.5365
# 6 17.3843 14.7413 22.8221 8.5623 3.5365 31.1487
#
#
#
# Elastic Compliance Matrix: (Units=1/GPa)
#
#
# Indices 1 2 3 4 5 6 
#
# 1 0.009209 -0.002232 -0.001178 -0.002010 -0.001774 -0.002466
# 2 -0.002232 0.015134 -0.002105 0.001181 -0.001441 -0.004535
# 3 -0.001178 -0.002105 0.009935 -0.002516 0.000570 -0.004999
# 4 -0.002010 0.001181 -0.002516 0.032324 -0.002104 -0.006241
# 5 -0.001774 -0.001441 0.000570 -0.002104 0.023323 -0.000815
# 6 -0.002466 -0.004535 -0.004999 -0.006241 -0.000815 0.041097
#
#
# Mechanical properties :
#
#
# Convention : Reuss Voigt Hill
#
# Bulk Modulus (GPa) = 43.01500 57.32620 50.17060
# Shear Modulus (GPa) = 33.37768 38.41841 35.89805
#
# Velocity S-wave (km/s) = 3.76812 4.04265 3.90779
# Velocity P-wave (km/s) = 6.10163 6.79536 6.45782
#
# Compressibility (1/GPa) = 0.02324771
#
# Stress axis : x y z
#
# Youngs Moduli (GPa) = 108.59117 66.07701 100.65722
#
# Poissons Ratio (x) = 0.14751 0.11854
# Poissons Ratio (y) = 0.24242 0.21186
# Poissons Ratio (z) = 0.12788 0.13908
#
# Static dielectric constant tensor:
#      x y z
#    x 1.906290 0.012810 0.059230 
#    y 0.012810 1.928000 -0.101140 
#    z 0.059230 -0.101140 2.076100 
# 
# From -- ./inp_files/191112.got.cif
#   From: 2010.05.17/outbox.cif.g08.bks.cpg/sg2_96_cif.got.tgz:191112.got - 2010.06.03 11:33:40.
