data_PCOD9068055
_publ_section_title
;
Structure prediction by ZEFSAII (Michael W. Deem and Ramdas Pophale) SiO2 
 PCOD9068055
Probable space group: P -1
;
_chemical_formula_sum "Si O2"
_cell_formula_units_Z 12
_cell_length_a 16.865774
_cell_length_b 9.070313
_cell_length_c 5.839113
_cell_angle_alpha 98.750929
_cell_angle_beta 118.733054
_cell_angle_gamma 39.186210
_cell_volume 454.030121
_symmetry_space_group_name_H-M "P -1"
_symmetry_group_IT_number 2
_symmetry_cell_setting 'triclinic'
loop_
_space_group_symop_operation_xyz
x,y,z
-x,-y,-z
loop_
_atom_site_type_symbol
_atom_site_label
_atom_site_fract_x
_atom_site_fract_y
_atom_site_fract_z
Si Si1 0.895338 0.502946 0.782174
Si Si2 0.943536 0.011449 0.179998
Si Si3 0.638044 0.821230 0.828926
Si Si4 0.611214 0.542740 0.744184
Si Si5 0.366589 0.687064 0.669320
Si Si6 0.818655 0.793255 0.356122
O O1 0.796747 0.566151 0.862516
O O2 0.781137 0.729830 0.496465
O O3 0.004870 0.227642 0.789219
O O4 0.000000 0.500000 0.000000
O O5 0.759234 0.267247 0.993653
O O6 0.000000 0.000000 0.500000
O O7 0.000000 0.000000 0.000000
O O8 0.607081 0.711244 0.896841
O O9 0.500000 0.000000 0.500000
O O10 0.691346 0.907869 0.022971
O O11 0.446853 0.689006 0.595085
O O12 0.647182 0.456495 0.504032
O O13 0.214684 0.988277 0.589735
O O14 0.500000 0.500000 0.000000
O O15 0.000000 0.500000 0.500000
#
# Coordination Sequence:
#
# PCOD9068055 Si02
#       6
#     2   2   2   2   2   2
#     4  12  26  47  75 111 159 205 265 337 407 487
#     4  12  28  48  79 116 158 208 271 338 409 480
#     4  12  26  47  74 111 152 202 266 333 407 484
#     4  11  26  47  73 109 155 205 272 333 408 489
#     4  11  27  47  76 111 156 210 267 338 415 492
#     4  12  27  47  76 112 155 207 269 336 411 488
#
# _framework density 26.429962
#
# number of rings (size 3 to 8) (size 9 to 14) (size 15 to 20)
#    0.000    0.333    3.333    4.000    4.667    8.000 
#    0.000    0.000    0.000    0.000    0.000    0.000 
#    0.000    0.000    0.000    0.000    0.000    0.000 
#
# Total GULP energy -66931.665007 kJ/mol
# GULP energy per Si atom -5577.638751 kJ/mol
# Density = 2.636981 g / cm^3
# Si number density = 26.429962 Si / 1000 Ang^3
#
#
#
# Elastic Constant Matrix: (Units=GPa)
#
#
# Indices 1 2 3 4 5 6 
#
# 1 77.2417 24.1794 1.3117 9.9759 16.1891 -6.8673
# 2 24.1794 144.0515 29.5210 -9.0410 9.6473 12.7378
# 3 1.3117 29.5210 139.4202 6.3125 21.9548 6.5825
# 4 9.9759 -9.0410 6.3125 44.3304 8.4270 10.6684
# 5 16.1891 9.6473 21.9548 8.4270 45.4456 -2.0187
# 6 -6.8673 12.7378 6.5825 10.6684 -2.0187 47.1569
#
#
#
# Elastic Compliance Matrix: (Units=1/GPa)
#
#
# Indices 1 2 3 4 5 6 
#
# 1 0.015803 -0.003223 0.001275 -0.004442 -0.004569 0.003803
# 2 -0.003223 0.008386 -0.001648 0.003600 -0.000652 -0.003347
# 3 0.001275 -0.001648 0.008189 -0.000933 -0.003908 -0.000469
# 4 -0.004442 0.003600 -0.000933 0.027078 -0.004098 -0.007790
# 5 -0.004569 -0.000652 -0.003908 -0.004098 0.026512 0.002119
# 6 0.003803 -0.003347 -0.000469 -0.007790 0.002119 0.024582
#
#
# Mechanical properties :
#
#
# Convention : Reuss Voigt Hill
#
# Bulk Modulus (GPa) = 39.70349 52.30418 46.00383
# Shear Modulus (GPa) = 39.63898 47.76667 43.70282
#
# Velocity S-wave (km/s) = 3.87689 4.25584 4.07078
# Velocity P-wave (km/s) = 5.92412 6.63191 6.28798
#
# Compressibility (1/GPa) = 0.02518670
#
# Stress axis : x y z
#
# Youngs Moduli (GPa) = 63.27938 119.24439 122.11108
#
# Poissons Ratio (x) = 0.38431 -0.15566
# Poissons Ratio (y) = 0.20394 0.20119
# Poissons Ratio (z) = -0.08066 0.19647
#
# Static dielectric constant tensor:
#      x y z
#    x 2.242070 -0.040450 -0.169190 
#    y -0.040450 2.087320 0.105610 
#    z -0.169190 0.105610 2.144030 
# 
# From -- ./inp_files/39402.got.cif
#   From: 2010.05.17/outbox.cif.g08.bks.cpg/sg2_20_cif.got.tgz:39402.got - 2010.06.03 11:33:40.
