data_PCOD9068247
_publ_section_title
;
Structure prediction by ZEFSAII (Michael W. Deem and Ramdas Pophale) SiO2 
 PCOD9068247
Probable space group: P -1
;
_chemical_formula_sum "Si O2"
_cell_formula_units_Z 16
_cell_length_a 10.875000
_cell_length_b 9.658961
_cell_length_c 8.722339
_cell_angle_alpha 95.903184
_cell_angle_beta 61.533370
_cell_angle_gamma 123.848778
_cell_volume 652.109365
_symmetry_space_group_name_H-M "P -1"
_symmetry_group_IT_number 2
_symmetry_cell_setting 'triclinic'
loop_
_space_group_symop_operation_xyz
x,y,z
-x,-y,-z
loop_
_atom_site_type_symbol
_atom_site_label
_atom_site_fract_x
_atom_site_fract_y
_atom_site_fract_z
Si Si1 0.601343 0.409900 0.243460
Si Si2 0.928500 0.251618 0.370679
Si Si3 0.077722 0.796864 0.300998
Si Si4 0.677469 0.545858 0.548218
Si Si5 0.786531 0.403853 0.874435
Si Si6 0.628643 0.116316 0.303474
Si Si7 0.102336 0.082437 0.108630
Si Si8 0.465348 0.216967 0.836730
O O1 0.655840 0.524454 0.375580
O O2 0.423074 0.383215 0.305984
O O3 0.576812 0.233241 0.276134
O O4 0.757292 0.492980 0.040871
O O5 0.808323 0.231646 0.299765
O O6 0.832403 0.175394 0.582335
O O7 0.081534 0.452140 0.306185
O O8 0.009467 0.152717 0.260434
O O9 0.880042 0.674738 0.457395
O O10 0.134758 0.700897 0.150149
O O11 0.101476 0.950621 0.209941
O O12 0.583302 0.355490 0.651034
O O13 0.595765 0.277386 0.906156
O O14 0.500000 0.000000 0.500000
O O15 0.615130 0.977376 0.182943
O O16 0.302906 0.221665 0.966388
O O17 0.000000 0.000000 0.000000
#
# Coordination Sequence:
#
# PCOD9068247 Si02
#       8
#     2   2   2   2   2   2   2   2
#     4  11  27  44  74 112 148 199 250 307 381 446
#     4  12  27  49  78 108 153 200 252 311 377 450
#     4  12  28  50  76 114 152 199 254 309 382 445
#     4  11  26  48  77 110 152 196 253 309 374 457
#     4  12  28  49  78 113 151 196 257 319 372 443
#     4  12  25  44  74 107 146 199 248 304 373 448
#     4  12  29  49  76 114 155 197 248 318 378 448
#     4  12  26  51  75 110 155 197 250 313 377 448
#
# _framework density 24.53576
#
# number of rings (size 3 to 8) (size 9 to 14) (size 15 to 20)
#    0.000    0.250    3.750    3.750    8.750    5.000 
#    0.000    0.000    0.000    0.000    0.000    0.000 
#    0.000    0.000    0.000    0.000    0.000    0.000 
#
# Total GULP energy -89587.263619 kJ/mol
# GULP energy per Si atom -5599.203976 kJ/mol
# Density = 2.447992 g / cm^3
# Si number density = 24.535760 Si / 1000 Ang^3
#
#
#
# Elastic Constant Matrix: (Units=GPa)
#
#
# Indices 1 2 3 4 5 6 
#
# 1 89.2168 39.4233 12.5731 0.0691 -13.3204 -5.0067
# 2 39.4233 72.7799 23.3364 1.9202 -2.2536 -19.2593
# 3 12.5731 23.3364 100.3286 1.8888 -9.6573 -6.9936
# 4 0.0691 1.9202 1.8888 43.6548 -7.2579 -12.1659
# 5 -13.3204 -2.2536 -9.6573 -7.2579 43.4357 5.7572
# 6 -5.0067 -19.2593 -6.9936 -12.1659 5.7572 46.8366
#
#
#
# Elastic Compliance Matrix: (Units=1/GPa)
#
#
# Indices 1 2 3 4 5 6 
#
# 1 0.015815 -0.009240 0.000453 0.000472 0.004884 -0.002519
# 2 -0.009240 0.021967 -0.003733 0.000907 -0.003452 0.008148
# 3 0.000453 -0.003733 0.011002 0.000054 0.002417 -0.000127
# 4 0.000472 0.000907 0.000054 0.025284 0.003559 0.006561
# 5 0.004884 -0.003452 0.002417 0.003559 0.025843 -0.002789
# 6 -0.002519 0.008148 -0.000127 0.006561 -0.002789 0.026460
#
#
# Mechanical properties :
#
#
# Convention : Reuss Voigt Hill
#
# Bulk Modulus (GPa) = 42.11566 45.88788 44.00177
# Shear Modulus (GPa) = 31.38217 39.25158 35.31688
#
# Velocity S-wave (km/s) = 3.58024 4.00405 3.79806
# Velocity P-wave (km/s) = 5.85603 6.33401 6.09970
#
# Compressibility (1/GPa) = 0.02374414
#
# Stress axis : x y z
#
# Youngs Moduli (GPa) = 63.23026 45.52220 90.89583
#
# Poissons Ratio (x) = 0.42062 -0.04116
# Poissons Ratio (y) = 0.58423 0.33932
# Poissons Ratio (z) = -0.02863 0.16994
#
# Static dielectric constant tensor:
#      x y z
#    x 2.116250 0.017950 0.100150 
#    y 0.017950 1.923110 0.011060 
#    z 0.100150 0.011060 1.998730 
# 
# From -- ./inp_files/244457.got.cif
#   From: 2010.05.17/outbox.cif.g08.bks.cpg/sg2_123_cif.got.tgz:244457.got - 2010.06.03 11:33:40.
