data_PCOD9068086
_publ_section_title
;
Structure prediction by ZEFSAII (Michael W. Deem and Ramdas Pophale) SiO2 
 PCOD9068086
Probable space group: P -1
;
_chemical_formula_sum "Si O2"
_cell_formula_units_Z 14
_cell_length_a 9.837982
_cell_length_b 7.807289
_cell_length_c 8.704794
_cell_angle_alpha 70.144880
_cell_angle_beta 103.425331
_cell_angle_gamma 101.418441
_cell_volume 606.461157
_symmetry_space_group_name_H-M "P -1"
_symmetry_group_IT_number 2
_symmetry_cell_setting 'triclinic'
loop_
_space_group_symop_operation_xyz
x,y,z
-x,-y,-z
loop_
_atom_site_type_symbol
_atom_site_label
_atom_site_fract_x
_atom_site_fract_y
_atom_site_fract_z
Si Si1 0.763900 0.792761 0.711139
Si Si2 0.354722 0.924427 0.569314
Si Si3 0.631919 0.132602 0.052556
Si Si4 0.057815 0.487151 0.280796
Si Si5 0.140861 0.916474 0.090690
Si Si6 0.478948 0.518553 0.170291
Si Si7 0.775968 0.470592 0.382807
O O1 0.888235 0.663080 0.773648
O O2 0.618816 0.656856 0.736115
O O3 0.744998 0.916174 0.518782
O O4 0.780289 0.946075 0.802868
O O5 0.374901 0.862896 0.767823
O O6 0.281657 0.739547 0.527744
O O7 0.500000 0.000000 0.500000
O O8 0.772123 0.065641 0.048940
O O9 0.614190 0.316957 0.898864
O O10 0.500000 0.000000 0.000000
O O11 0.105832 0.700500 0.188035
O O12 0.136511 0.446494 0.473391
O O13 0.890082 0.468004 0.275999
O O14 0.000000 0.000000 0.000000
O O15 0.633612 0.554597 0.275985
O O16 0.500000 0.500000 0.000000
#
# Coordination Sequence:
#
# PCOD9068086 Si02
#       7
#     2   2   2   2   2   2   2
#     4  12  27  49  78 106 151 199 251 306 378 441
#     4  12  24  47  77 110 151 196 248 315 368 448
#     4  12  28  45  73 117 155 194 255 311 382 440
#     4  11  28  50  73 110 152 200 251 306 379 459
#     4  12  29  49  75 111 156 200 251 313 376 451
#     4  12  24  45  75 110 148 194 247 310 371 442
#     4  11  26  47  75 109 151 196 255 308 378 452
#
# _framework density 23.084743
#
# number of rings (size 3 to 8) (size 9 to 14) (size 15 to 20)
#    0.000    0.286    5.714    1.714    8.000    2.857 
#    0.000    0.000    0.000    0.000    0.000    0.000 
#    0.000    0.000    0.000    0.000    0.000    0.000 
#
# Total GULP energy -78284.598027 kJ/mol
# GULP energy per Si atom -5591.757002 kJ/mol
# Density = 2.303220 g / cm^3
# Si number density = 23.084743 Si / 1000 Ang^3
#
#
#
# Elastic Constant Matrix: (Units=GPa)
#
#
# Indices 1 2 3 4 5 6 
#
# 1 146.9139 19.8894 25.9223 -8.4437 -6.7465 -4.3753
# 2 19.8894 91.1277 15.0178 -18.8494 -3.5992 -6.5955
# 3 25.9223 15.0178 72.5177 -16.0001 12.6470 -3.2122
# 4 -8.4437 -18.8494 -16.0001 28.7990 -0.9011 6.8437
# 5 -6.7465 -3.5992 12.6470 -0.9011 37.4141 -4.1667
# 6 -4.3753 -6.5955 -3.2122 6.8437 -4.1667 43.0715
#
#
#
# Elastic Compliance Matrix: (Units=1/GPa)
#
#
# Indices 1 2 3 4 5 6 
#
# 1 0.007579 -0.001074 -0.002899 -0.000172 0.002310 0.000640
# 2 -0.001074 0.013047 -0.000892 0.007596 0.001632 0.000773
# 3 -0.002899 -0.000892 0.018020 0.008632 -0.006614 -0.001099
# 4 -0.000172 0.007596 0.008632 0.045727 -0.001745 -0.005645
# 5 0.002310 0.001632 -0.006614 -0.001745 0.029847 0.003156
# 6 0.000640 0.000773 -0.001099 -0.005645 0.003156 0.024521
#
#
# Mechanical properties :
#
#
# Convention : Reuss Voigt Hill
#
# Bulk Modulus (GPa) = 34.58476 48.02427 41.30451
# Shear Modulus (GPa) = 31.62342 38.50555 35.06449
#
# Velocity S-wave (km/s) = 3.70521 4.08856 3.90159
# Velocity P-wave (km/s) = 5.77226 6.56788 6.18288
#
# Compressibility (1/GPa) = 0.02891447
#
# Stress axis : x y z
#
# Youngs Moduli (GPa) = 131.94369 76.64746 55.49320
#
# Poissons Ratio (x) = 0.08234 0.16088
# Poissons Ratio (y) = 0.14175 0.04952
# Poissons Ratio (z) = 0.38252 0.06839
#
# Static dielectric constant tensor:
#      x y z
#    x 1.919190 -0.115020 0.221260 
#    y -0.115020 1.988410 -0.256470 
#    z 0.221260 -0.256470 2.760170 
# 
# From -- ./inp_files/157521.got.cif
#   From: 2010.05.17/outbox.cif.g08.bks.cpg/sg2_79_cif.got.tgz:157521.got - 2010.06.03 11:33:40.
