data_PCOD9068345
_publ_section_title
;
Structure prediction by ZEFSAII (Michael W. Deem and Ramdas Pophale) SiO2 
 PCOD9068345
Probable space group: P -1
;
_chemical_formula_sum "Si O2"
_cell_formula_units_Z 14
_cell_length_a 8.576422
_cell_length_b 11.710321
_cell_length_c 9.367271
_cell_angle_alpha 115.772082
_cell_angle_beta 117.386485
_cell_angle_gamma 108.921450
_cell_volume 567.987708
_symmetry_space_group_name_H-M "P -1"
_symmetry_group_IT_number 2
_symmetry_cell_setting 'triclinic'
loop_
_space_group_symop_operation_xyz
x,y,z
-x,-y,-z
loop_
_atom_site_type_symbol
_atom_site_label
_atom_site_fract_x
_atom_site_fract_y
_atom_site_fract_z
Si Si1 0.335576 0.184069 0.587618
Si Si2 0.754409 0.265721 0.331541
Si Si3 0.196558 0.488484 0.056990
Si Si4 0.446182 0.904137 0.137586
Si Si5 0.747961 0.570037 0.273893
Si Si6 0.535246 0.637410 0.690113
Si Si7 0.034313 0.865976 0.089058
O O1 0.566739 0.340400 0.686653
O O2 0.436278 0.132312 0.717362
O O3 0.231395 0.267653 0.644802
O O4 0.148013 0.022536 0.325808
O O5 0.642795 0.333381 0.398296
O O6 0.027173 0.379680 0.525485
O O7 0.643695 0.087508 0.256233
O O8 0.670081 0.228118 0.112216
O O9 0.259518 0.491778 0.919904
O O10 0.000000 0.500000 0.000000
O O11 0.081327 0.308293 0.973358
O O12 0.243601 0.900361 0.108779
O O13 0.534465 0.437016 0.217002
O O14 0.500000 0.500000 0.500000
O O15 0.803151 0.809439 0.882820
#
# Coordination Sequence:
#
# PCOD9068345 Si02
#       7
#     2   2   2   2   2   2   2
#     4  12  27  49  81 115 156 196 265 319 388 459
#     4  11  28  48  76 108 159 206 257 316 388 461
#     4  12  27  48  79 113 157 201 256 324 387 452
#     4  11  26  49  75 115 154 201 258 321 385 462
#     4  12  28  50  80 115 154 206 259 323 385 461
#     4  12  29  50  79 112 157 209 259 315 386 466
#     4  12  28  47  80 116 152 205 258 322 388 456
#
# _framework density 24.648420000000002
#
# number of rings (size 3 to 8) (size 9 to 14) (size 15 to 20)
#    0.000    0.286    2.857    3.857   12.000    1.714 
#    0.000    0.000    0.000    0.000    0.000    0.000 
#    0.000    0.000    0.000    0.000    0.000    0.000 
#
# Total GULP energy -78484.605800 kJ/mol
# GULP energy per Si atom -5606.043271 kJ/mol
# Density = 2.459232 g / cm^3
# Si number density = 24.648420 Si / 1000 Ang^3
#
#
#
# Elastic Constant Matrix: (Units=GPa)
#
#
# Indices 1 2 3 4 5 6 
#
# 1 161.2031 7.0223 71.1065 -0.0618 5.1717 -27.3300
# 2 7.0223 63.3052 23.4888 2.3411 0.7313 -6.6333
# 3 71.1065 23.4888 139.7558 23.2020 13.8474 -1.5123
# 4 -0.0618 2.3411 23.2020 43.3900 6.8468 -0.0814
# 5 5.1717 0.7313 13.8474 6.8468 52.8742 -0.4886
# 6 -27.3300 -6.6333 -1.5123 -0.0814 -0.4886 51.5275
#
#
#
# Elastic Compliance Matrix: (Units=1/GPa)
#
#
# Indices 1 2 3 4 5 6 
#
# 1 0.009388 0.001396 -0.005444 0.002832 0.000168 0.005005
# 2 0.001396 0.017312 -0.003811 0.001030 0.000515 0.002864
# 3 -0.005444 -0.003811 0.011664 -0.005769 -0.001751 -0.003061
# 4 0.002832 0.001030 -0.005769 0.026428 -0.002189 0.001486
# 5 0.000168 0.000515 -0.001751 -0.002189 0.019634 0.000287
# 6 0.005005 0.002864 -0.003061 0.001486 0.000287 0.022346
#
#
# Mechanical properties :
#
#
# Convention : Reuss Voigt Hill
#
# Bulk Modulus (GPa) = 44.15736 63.05548 53.60642
# Shear Modulus (GPa) = 38.45045 47.06811 42.75928
#
# Velocity S-wave (km/s) = 3.95391 4.37461 4.16957
# Velocity P-wave (km/s) = 6.22883 7.15219 6.70642
#
# Compressibility (1/GPa) = 0.02264628
#
# Stress axis : x y z
#
# Youngs Moduli (GPa) = 106.51717 57.76442 85.73608
#
# Poissons Ratio (x) = -0.08066 0.46674
# Poissons Ratio (y) = -0.14873 0.32674
# Poissons Ratio (z) = 0.57987 0.22014
#
# Static dielectric constant tensor:
#      x y z
#    x 1.920310 -0.053680 0.015750 
#    y -0.053680 2.059640 -0.040500 
#    z 0.015750 -0.040500 1.963090 
# 
# From -- ./inp_files/190290.got.cif
#   From: 2010.05.17/outbox.cif.g08.bks.cpg/sg2_96_cif.got.tgz:190290.got - 2010.06.03 11:33:40.
