data_PCOD9068689
_publ_section_title
;
Structure prediction by ZEFSAII (Michael W. Deem and Ramdas Pophale) SiO2 
 PCOD9068689
Probable space group: P -1
;
_chemical_formula_sum "Si O2"
_cell_formula_units_Z 12
_cell_length_a 4.969135
_cell_length_b 14.120049
_cell_length_c 9.589638
_cell_angle_alpha 134.423198
_cell_angle_beta 79.507963
_cell_angle_gamma 76.545413
_cell_volume 405.643672
_symmetry_space_group_name_H-M "P -1"
_symmetry_group_IT_number 2
_symmetry_cell_setting 'triclinic'
loop_
_space_group_symop_operation_xyz
x,y,z
-x,-y,-z
loop_
_atom_site_type_symbol
_atom_site_label
_atom_site_fract_x
_atom_site_fract_y
_atom_site_fract_z
Si Si1 0.930853 0.130396 0.525350
Si Si2 0.713158 0.585795 0.224813
Si Si3 0.915808 0.886408 0.809924
Si Si4 0.561987 0.333857 0.075994
Si Si5 0.750737 0.825794 0.237765
Si Si6 0.396276 0.309051 0.365282
O O1 0.045063 0.232658 0.698791
O O2 0.125611 0.067206 0.300589
O O3 0.000000 0.000000 0.500000
O O4 0.412086 0.252839 0.913501
O O5 0.561712 0.476823 0.150296
O O6 0.429476 0.753827 0.371663
O O7 0.818817 0.602201 0.388741
O O8 0.000000 0.500000 0.000000
O O9 0.259387 0.734605 0.650831
O O10 0.000000 0.000000 0.000000
O O11 0.340292 0.165598 0.190928
O O12 0.389162 0.378148 0.287043
O O13 0.948596 0.209452 0.929160
O O14 0.500000 0.000000 0.500000
#
# Coordination Sequence:
#
# PCOD9068689 Si02
#       6
#     2   2   2   2   2   2
#     4  11  29  55  92 133 187 238 306 386 455 545
#     4  11  30  60  93 139 181 243 314 381 459 553
#     4  11  27  52  87 126 180 234 307 371 458 547
#     4  12  29  54  95 130 186 247 302 380 467 546
#     4  12  30  53  88 139 181 235 309 368 462 546
#     4  11  27  56  85 130 180 236 306 380 456 546
#
# _framework density 29.582612999999998
#
# number of rings (size 3 to 8) (size 9 to 14) (size 15 to 20)
#    0.000    0.667    0.000    3.500   14.000    6.667 
#    0.000    5.833    0.000    0.000    0.000    0.000 
#    0.000    0.000    0.000    0.000    0.000    0.000 
#
# Total GULP energy -67082.710406 kJ/mol
# GULP energy per Si atom -5590.225867 kJ/mol
# Density = 2.951528 g / cm^3
# Si number density = 29.582613 Si / 1000 Ang^3
#
#
#
# Elastic Constant Matrix: (Units=GPa)
#
#
# Indices 1 2 3 4 5 6 
#
# 1 228.8154 62.3759 62.2921 -1.9912 28.9273 32.4954
# 2 62.3759 225.1419 99.0281 -23.7377 9.8965 15.5622
# 3 62.2921 99.0281 237.1475 -31.0850 21.9068 21.5643
# 4 -1.9912 -23.7377 -31.0850 77.8268 6.2354 3.4563
# 5 28.9273 9.8965 21.9068 6.2354 63.7680 3.8889
# 6 32.4954 15.5622 21.5643 3.4563 3.8889 47.5443
#
#
#
# Elastic Compliance Matrix: (Units=1/GPa)
#
#
# Indices 1 2 3 4 5 6 
#
# 1 0.005464 -0.000973 -0.000593 -0.000107 -0.001931 -0.002981
# 2 -0.000973 0.005701 -0.001985 0.000924 0.000171 -0.000382
# 3 -0.000593 -0.001985 0.005722 0.001852 -0.001475 -0.001554
# 4 -0.000107 0.000924 0.001852 0.014113 -0.001993 -0.001932
# 5 -0.001931 0.000171 -0.001475 -0.001993 0.017192 0.000672
# 6 -0.002981 -0.000382 -0.001554 -0.001932 0.000672 0.023986
#
#
# Mechanical properties :
#
#
# Convention : Reuss Voigt Hill
#
# Bulk Modulus (GPa) = 102.21244 126.49966 114.35605
# Shear Modulus (GPa) = 60.57609 68.98842 64.78225
#
# Velocity S-wave (km/s) = 4.53005 4.83438 4.68469
# Velocity P-wave (km/s) = 7.87327 8.60325 8.24634
#
# Compressibility (1/GPa) = 0.00978355
#
# Stress axis : x y z
#
# Youngs Moduli (GPa) = 183.02573 175.42171 174.77174
#
# Poissons Ratio (x) = 0.17070 0.10370
# Poissons Ratio (y) = 0.17810 0.34689
# Poissons Ratio (z) = 0.10860 0.34818
#
# Static dielectric constant tensor:
#      x y z
#    x 2.605260 0.198220 -0.189090 
#    y 0.198220 2.607660 0.051050 
#    z -0.189090 0.051050 2.487380 
# 
# From -- ./inp_files/204062.got.cif
#   From: 2010.05.17/outbox.cif.g08.bks.cpg/sg2_103_cif.got.tgz:204062.got - 2010.06.03 11:33:40.
