data_PCOD9068926
_publ_section_title
;
Structure prediction by ZEFSAII (Michael W. Deem and Ramdas Pophale) SiO2 
 PCOD9068926
Probable space group: P -1
;
_chemical_formula_sum "Si O2"
_cell_formula_units_Z 16
_cell_length_a 24.270908
_cell_length_b 8.265999
_cell_length_c 11.125588
_cell_angle_alpha 42.482318
_cell_angle_beta 34.118186
_cell_angle_gamma 33.682147
_cell_volume 685.799339
_symmetry_space_group_name_H-M "P -1"
_symmetry_group_IT_number 2
_symmetry_cell_setting 'triclinic'
loop_
_space_group_symop_operation_xyz
x,y,z
-x,-y,-z
loop_
_atom_site_type_symbol
_atom_site_label
_atom_site_fract_x
_atom_site_fract_y
_atom_site_fract_z
Si Si1 0.189733 0.234953 0.331824
Si Si2 0.662782 0.213220 0.068914
Si Si3 0.016966 0.703100 0.944456
Si Si4 0.088300 0.835644 0.317464
Si Si5 0.785560 0.643366 0.024924
Si Si6 0.411459 0.844830 0.502131
Si Si7 0.206213 0.909707 0.690851
Si Si8 0.476553 0.892573 0.977533
O O1 0.135889 0.507070 0.372246
O O2 0.183987 0.994176 0.544844
O O3 0.138209 0.354885 0.225583
O O4 0.332444 0.070686 0.138099
O O5 0.631494 0.137472 0.294525
O O6 0.684807 0.976851 0.061146
O O7 0.788619 0.183064 0.875349
O O8 0.554711 0.540226 0.042277
O O9 0.137726 0.498005 0.914251
O O10 0.991662 0.958177 0.762339
O O11 0.000000 0.500000 0.000000
O O12 0.915678 0.875483 0.134394
O O13 0.000000 0.000000 0.500000
O O14 0.748931 0.423624 0.180694
O O15 0.500000 0.500000 0.500000
O O16 0.300985 0.962646 0.544911
O O17 0.472327 0.011092 0.272815
O O18 0.500000 0.000000 0.000000
#
# Coordination Sequence:
#
# PCOD9068926 Si02
#       8
#     2   2   2   2   2   2   2   2
#     4  12  26  47  73 108 149 188 243 297 366 422
#     4  12  25  46  70 108 142 186 244 294 358 426
#     4  12  24  47  70 102 138 190 252 289 344 434
#     4  12  24  44  76 109 141 188 247 300 349 426
#     4  12  28  46  68 104 156 189 232 300 365 432
#     4  12  21  42  79 102 136 188 245 300 350 418
#     4  12  24  43  70 102 146 189 233 293 366 427
#     4  12  23  44  78 108 135 188 249 300 348 427
#
# _framework density 23.330438000000001
#
# number of rings (size 3 to 8) (size 9 to 14) (size 15 to 20)
#    0.000    0.000    7.500    1.875    0.000    4.000 
#    0.000    4.375    0.000    0.000    0.000    0.000 
#    0.000    0.000    0.000    0.000    0.000    0.000 
#
# Total GULP energy -89573.791175 kJ/mol
# GULP energy per Si atom -5598.361948 kJ/mol
# Density = 2.327734 g / cm^3
# Si number density = 23.330438 Si / 1000 Ang^3
#
#
#
# Elastic Constant Matrix: (Units=GPa)
#
#
# Indices 1 2 3 4 5 6 
#
# 1 78.3485 29.5611 35.5017 1.8852 14.5010 -1.9388
# 2 29.5611 171.1743 47.8630 -3.8070 8.0450 9.3056
# 3 35.5017 47.8630 141.0729 -1.7122 38.4315 3.7625
# 4 1.8852 -3.8070 -1.7122 40.2509 -7.4579 8.4447
# 5 14.5010 8.0450 38.4315 -7.4579 37.7621 0.5502
# 6 -1.9388 9.3056 3.7625 8.4447 0.5502 44.4228
#
#
#
# Elastic Compliance Matrix: (Units=1/GPa)
#
#
# Indices 1 2 3 4 5 6 
#
# 1 0.015289 -0.001973 -0.002280 -0.002015 -0.003553 0.001701
# 2 -0.001973 0.006850 -0.002291 0.001335 0.001917 -0.001604
# 3 -0.002280 -0.002291 0.011256 -0.001524 -0.010390 -0.000155
# 4 -0.002015 0.001335 -0.001524 0.027571 0.007567 -0.005573
# 5 -0.003553 0.001917 -0.010390 0.007567 0.039530 -0.001604
# 6 0.001701 -0.001604 -0.000155 -0.005573 -0.001604 0.024014
#
#
# Mechanical properties :
#
#
# Convention : Reuss Voigt Hill
#
# Bulk Modulus (GPa) = 49.24323 68.49415 58.86869
# Shear Modulus (GPa) = 34.63398 42.99848 38.81623
#
# Velocity S-wave (km/s) = 3.85710 4.29770 4.08335
# Velocity P-wave (km/s) = 6.40226 7.35180 6.89340
#
# Compressibility (1/GPa) = 0.02030736
#
# Stress axis : x y z
#
# Youngs Moduli (GPa) = 65.40530 145.98356 88.84399
#
# Poissons Ratio (x) = 0.28804 0.20257
# Poissons Ratio (y) = 0.12905 0.20351
# Poissons Ratio (z) = 0.14913 0.33440
#
# Static dielectric constant tensor:
#      x y z
#    x 1.959560 -0.096130 -0.030740 
#    y -0.096130 1.987280 -0.032190 
#    z -0.030740 -0.032190 1.894590 
# 
# From -- ./inp_files/476369.got.cif
#   From: 2010.05.17/outbox.cif.g08.bks.cpg/sg2_239_cif.got.tgz:476369.got - 2010.06.03 11:33:40.
