data_PCOD9068615
_publ_section_title
;
Structure prediction by ZEFSAII (Michael W. Deem and Ramdas Pophale) SiO2 
 PCOD9068615
Probable space group: P -1
;
_chemical_formula_sum "Si O2"
_cell_formula_units_Z 12
_cell_length_a 15.095520
_cell_length_b 12.424741
_cell_length_c 4.825111
_cell_angle_alpha 115.759507
_cell_angle_beta 112.047760
_cell_angle_gamma 29.558336
_cell_volume 402.067503
_symmetry_space_group_name_H-M "P -1"
_symmetry_group_IT_number 2
_symmetry_cell_setting 'triclinic'
loop_
_space_group_symop_operation_xyz
x,y,z
-x,-y,-z
loop_
_atom_site_type_symbol
_atom_site_label
_atom_site_fract_x
_atom_site_fract_y
_atom_site_fract_z
Si Si1 0.514656 0.354165 0.709821
Si Si2 0.000000 0.000000 0.000000
Si Si3 0.746507 0.071566 0.148024
Si Si4 0.797324 0.429046 0.140218
Si Si5 0.947756 0.686650 0.375908
Si Si6 0.700592 0.748560 0.042272
Si Si7 0.000000 0.000000 0.500000
O O1 0.591548 0.277399 0.409281
O O2 0.331966 0.474364 0.656764
O O3 0.500000 0.500000 0.000000
O O4 0.652441 0.136973 0.825737
O O5 0.853799 0.238309 0.865903
O O6 0.014408 0.082018 0.356455
O O7 0.849962 0.860538 0.203445
O O8 0.849426 0.089180 0.203985
O O9 0.688041 0.633954 0.048268
O O10 0.976654 0.313589 0.284656
O O11 0.802895 0.738721 0.340512
O O12 0.141798 0.433783 0.206514
O O13 0.500000 0.000000 0.000000
#
# Coordination Sequence:
#
# PCOD9068615 Si02
#       7
#     2   1   2   2   2   2   1
#     4  12  29  45  75 118 162 212 265 328 401 482
#     4  12  26  44  80 116 156 210 250 324 392 492
#     4  12  26  48  75 112 159 206 272 327 399 480
#     4  12  27  49  79 114 161 211 265 333 410 479
#     4  11  27  48  84 113 152 218 270 333 410 470
#     4  11  27  53  80 116 158 209 278 341 401 477
#     4  12  22  44  74 106 156 210 248 316 390 464
#
# _framework density 29.845735000000001
#
# number of rings (size 3 to 8) (size 9 to 14) (size 15 to 20)
#    0.000    0.333    1.667    6.000    7.000    0.667 
#    0.000    0.000    0.000    0.000    0.000    0.000 
#    0.000    0.000    0.000    0.000    0.000    0.000 
#
# Total GULP energy -67002.494325 kJ/mol
# GULP energy per Si atom -5583.541194 kJ/mol
# Density = 2.977780 g / cm^3
# Si number density = 29.845735 Si / 1000 Ang^3
#
#
#
# Elastic Constant Matrix: (Units=GPa)
#
#
# Indices 1 2 3 4 5 6 
#
# 1 192.5665 80.7671 38.8381 2.1779 -2.7217 -6.6507
# 2 80.7671 237.2682 17.5977 -16.0399 -2.6425 12.0890
# 3 38.8381 17.5977 124.5976 -23.7599 -32.4653 13.8974
# 4 2.1779 -16.0399 -23.7599 41.9146 0.8592 -0.4177
# 5 -2.7217 -2.6425 -32.4653 0.8592 70.2749 -8.7976
# 6 -6.6507 12.0890 13.8974 -0.4177 -8.7976 71.4098
#
#
#
# Elastic Compliance Matrix: (Units=1/GPa)
#
#
# Indices 1 2 3 4 5 6 
#
# 1 0.006807 -0.002387 -0.002696 -0.002763 -0.000857 0.001441
# 2 -0.002387 0.005208 0.000677 0.002484 0.000236 -0.001192
# 3 -0.002696 0.000677 0.011583 0.006844 0.004942 -0.001971
# 4 -0.002763 0.002484 0.006844 0.028763 0.002606 -0.001521
# 5 -0.000857 0.000236 0.004942 0.002606 0.016579 0.000976
# 6 0.001441 -0.001192 -0.001971 -0.001521 0.000976 0.014835
#
#
# Mechanical properties :
#
#
# Convention : Reuss Voigt Hill
#
# Bulk Modulus (GPa) = 67.62967 92.09312 79.86140
# Shear Modulus (GPa) = 51.27409 64.53516 57.90463
#
# Velocity S-wave (km/s) = 4.14934 4.65509 4.40947
# Velocity P-wave (km/s) = 6.75758 7.73411 7.26228
#
# Compressibility (1/GPa) = 0.01478641
#
# Stress axis : x y z
#
# Youngs Moduli (GPa) = 146.91459 192.00344 86.33267
#
# Poissons Ratio (x) = 0.45828 0.23272
# Poissons Ratio (y) = 0.35066 -0.05842
# Poissons Ratio (z) = 0.39602 -0.12992
#
# Static dielectric constant tensor:
#      x y z
#    x 3.593990 -0.306760 -1.085470 
#    y -0.306760 2.837050 0.105700 
#    z -1.085470 0.105700 3.045010 
# 
# From -- ./inp_files/73893.got.cif
#   From: 2010.05.17/outbox.cif.g08.bks.cpg/sg2_37_cif.got.tgz:73893.got - 2010.06.03 11:33:40.
