data_PCOD9068486
_publ_section_title
;
Structure prediction by ZEFSAII (Michael W. Deem and Ramdas Pophale) SiO2 
 PCOD9068486
Probable space group: P -1
;
_chemical_formula_sum "Si O2"
_cell_formula_units_Z 14
_cell_length_a 11.660528
_cell_length_b 4.744663
_cell_length_c 9.338223
_cell_angle_alpha 79.274162
_cell_angle_beta 86.219647
_cell_angle_gamma 90.995763
_cell_volume 506.277360
_symmetry_space_group_name_H-M "P -1"
_symmetry_group_IT_number 2
_symmetry_cell_setting 'triclinic'
loop_
_space_group_symop_operation_xyz
x,y,z
-x,-y,-z
loop_
_atom_site_type_symbol
_atom_site_label
_atom_site_fract_x
_atom_site_fract_y
_atom_site_fract_z
Si Si1 0.776454 0.535474 0.158305
Si Si2 0.120890 0.875604 0.971276
Si Si3 0.382791 0.467892 0.101691
Si Si4 0.533782 0.251586 0.632770
Si Si5 0.874318 0.605330 0.551323
Si Si6 0.690204 0.026812 0.397173
Si Si7 0.211279 0.974288 0.262861
O O1 0.799890 0.871852 0.133268
O O2 0.727913 0.340239 0.307854
O O3 0.892204 0.384910 0.113357
O O4 0.702911 0.458739 0.028896
O O5 0.168508 0.842024 0.129716
O O6 0.000000 0.000000 0.000000
O O7 0.411810 0.627348 0.235373
O O8 0.323529 0.167943 0.187537
O O9 0.500000 0.500000 0.000000
O O10 0.500000 0.500000 0.500000
O O11 0.616884 0.057766 0.547795
O O12 0.411441 0.092587 0.688360
O O13 0.803211 0.309167 0.610334
O O14 0.872965 0.794991 0.679078
O O15 0.000000 0.500000 0.500000
O O16 0.796263 0.817552 0.440467
#
# Coordination Sequence:
#
# PCOD9068486 Si02
#       7
#     2   2   2   2   2   2   2
#     4  11  27  49  79 119 158 208 277 337 406 510
#     4  11  26  51  79 111 156 212 267 342 412 482
#     4  11  26  53  85 120 168 221 276 343 438 502
#     4  11  26  52  82 121 171 222 271 354 419 502
#     4  12  29  54  84 117 169 227 281 349 422 504
#     4  11  29  50  82 125 167 218 287 346 423 501
#     4  11  27  53  79 121 161 216 289 345 417 507
#
# _framework density 27.652829000000001
#
# number of rings (size 3 to 8) (size 9 to 14) (size 15 to 20)
#    0.000    0.857    0.000    4.286   14.000    1.714 
#    2.571    0.000    0.000    0.000    0.000    0.000 
#    0.000    0.000    0.000    0.000    0.000    0.000 
#
# Total GULP energy -78272.397275 kJ/mol
# GULP energy per Si atom -5590.885520 kJ/mol
# Density = 2.758989 g / cm^3
# Si number density = 27.652829 Si / 1000 Ang^3
#
#
#
# Elastic Constant Matrix: (Units=GPa)
#
#
# Indices 1 2 3 4 5 6 
#
# 1 109.7921 14.6560 39.7845 -9.7938 -15.3682 0.5417
# 2 14.6560 153.4642 58.4926 -20.8750 -0.9476 -10.7266
# 3 39.7845 58.4926 179.5291 -31.0402 3.2337 3.4271
# 4 -9.7938 -20.8750 -31.0402 55.1378 -3.2092 -6.3874
# 5 -15.3682 -0.9476 3.2337 -3.2092 45.6975 5.8579
# 6 0.5417 -10.7266 3.4271 -6.3874 5.8579 40.3995
#
#
#
# Elastic Compliance Matrix: (Units=1/GPa)
#
#
# Indices 1 2 3 4 5 6 
#
# 1 0.010531 -0.000050 -0.002247 0.000763 0.003804 -0.000395
# 2 -0.000050 0.007829 -0.002246 0.001995 0.000115 0.002568
# 3 -0.002247 -0.002246 0.007302 0.002731 -0.001050 -0.000602
# 4 0.000763 0.001995 0.002731 0.021030 0.001140 0.003448
# 5 0.003804 0.000115 -0.001050 0.001140 0.023728 -0.003192
# 6 -0.000395 0.002568 -0.000602 0.003448 -0.003192 0.026499
#
#
# Mechanical properties :
#
#
# Convention : Reuss Voigt Hill
#
# Bulk Modulus (GPa) = 60.32254 74.29464 67.30859
# Shear Modulus (GPa) = 44.83117 50.23712 47.53414
#
# Velocity S-wave (km/s) = 4.03080 4.26691 4.15053
# Velocity P-wave (km/s) = 6.59733 7.15546 6.88205
#
# Compressibility (1/GPa) = 0.01657755
#
# Stress axis : x y z
#
# Youngs Moduli (GPa) = 94.95499 127.73830 136.94444
#
# Poissons Ratio (x) = 0.00636 0.30767
# Poissons Ratio (y) = 0.00473 0.30754
# Poissons Ratio (z) = 0.21333 0.28687
#
# Static dielectric constant tensor:
#      x y z
#    x 2.703820 -0.376870 0.106130 
#    y -0.376870 2.339870 0.047180 
#    z 0.106130 0.047180 2.274660 
# 
# From -- ./inp_files/106646.got.cif
#   From: 2010.05.17/outbox.cif.g08.bks.cpg/sg2_54_cif.got.tgz:106646.got - 2010.06.03 11:33:40.
