data_PCOD9068811
_publ_section_title
;
Structure prediction by ZEFSAII (Michael W. Deem and Ramdas Pophale) SiO2 
 PCOD9068811
Probable space group: P -1
;
_chemical_formula_sum "Si O2"
_cell_formula_units_Z 12
_cell_length_a 9.270271
_cell_length_b 10.578890
_cell_length_c 15.172056
_cell_angle_alpha 154.811778
_cell_angle_beta 67.547345
_cell_angle_gamma 97.717470
_cell_volume 493.607389
_symmetry_space_group_name_H-M "P -1"
_symmetry_group_IT_number 2
_symmetry_cell_setting 'triclinic'
loop_
_space_group_symop_operation_xyz
x,y,z
-x,-y,-z
loop_
_atom_site_type_symbol
_atom_site_label
_atom_site_fract_x
_atom_site_fract_y
_atom_site_fract_z
Si Si1 0.807415 0.359953 0.794947
Si Si2 0.398194 0.280925 0.621426
Si Si3 0.916753 0.467360 0.589221
Si Si4 0.715323 0.927195 0.656509
Si Si5 0.021258 0.270852 0.934720
Si Si6 0.436647 0.294109 0.097093
O O1 0.679748 0.454436 0.799736
O O2 0.726887 0.262723 0.836239
O O3 0.000000 0.000000 0.500000
O O4 0.844254 0.668546 0.998204
O O5 0.390419 0.119887 0.428701
O O6 0.494214 0.501214 0.732852
O O7 0.500000 0.000000 0.500000
O O8 0.182246 0.548866 0.863400
O O9 0.709504 0.761874 0.852697
O O10 0.000000 0.500000 0.500000
O O11 0.071572 0.384399 0.574346
O O12 0.910612 0.118163 0.356820
O O13 0.609798 0.981656 0.807045
O O14 0.000000 0.500000 0.000000
#
# Coordination Sequence:
#
# PCOD9068811 Si02
#       6
#     2   2   2   2   2   2
#     4  12  20  40  70 107 144 179 229 299 361 419
#     4  12  23  39  70 115 145 179 233 302 366 427
#     4  12  28  51  72 100 147 199 243 295 359 435
#     4  12  25  44  70 108 148 185 238 300 362 424
#     4  12  22  41  73 104 141 186 239 294 358 420
#     4  12  25  43  71 103 145 187 237 301 359 425
#
# _framework density 24.310818999999999
#
# number of rings (size 3 to 8) (size 9 to 14) (size 15 to 20)
#    0.000    0.000    8.333    1.500    4.667    0.667 
#    0.000    4.167    0.000    0.000    0.000    0.000 
#    0.000    0.000    0.000    0.000    0.000    0.000 
#
# Total GULP energy -67223.196455 kJ/mol
# GULP energy per Si atom -5601.933038 kJ/mol
# Density = 2.425549 g / cm^3
# Si number density = 24.310819 Si / 1000 Ang^3
#
#
#
# Elastic Constant Matrix: (Units=GPa)
#
#
# Indices 1 2 3 4 5 6 
#
# 1 185.0244 35.8013 37.3431 -11.8957 13.3868 7.2236
# 2 35.8013 130.6370 10.7820 -23.5635 -5.1134 11.7382
# 3 37.3431 10.7820 64.1857 -17.8536 -0.2712 8.2162
# 4 -11.8957 -23.5635 -17.8536 38.6035 7.1075 -13.6661
# 5 13.3868 -5.1134 -0.2712 7.1075 39.0728 -20.1823
# 6 7.2236 11.7382 8.2162 -13.6661 -20.1823 34.2749
#
#
#
# Elastic Compliance Matrix: (Units=1/GPa)
#
#
# Indices 1 2 3 4 5 6 
#
# 1 0.006753 -0.001613 -0.003564 -0.000754 -0.003702 -0.002497
# 2 -0.001613 0.009021 0.000934 0.005123 0.000470 -0.000654
# 3 -0.003564 0.000934 0.020007 0.008336 -0.000822 -0.001525
# 4 -0.000754 0.005123 0.008336 0.036540 0.000013 0.010983
# 5 -0.003702 0.000470 -0.000822 0.000013 0.039290 0.023957
# 6 -0.002497 -0.000654 -0.001525 0.010983 0.023957 0.048777
#
#
# Mechanical properties :
#
#
# Convention : Reuss Voigt Hill
#
# Bulk Modulus (GPa) = 36.63679 60.85555 48.74617
# Shear Modulus (GPa) = 28.09428 42.11826 35.10627
#
# Velocity S-wave (km/s) = 3.40314 4.16684 3.80420
# Velocity P-wave (km/s) = 5.52673 6.94526 6.27620
#
# Compressibility (1/GPa) = 0.02729497
#
# Stress axis : x y z
#
# Youngs Moduli (GPa) = 148.08392 110.85188 49.98307
#
# Poissons Ratio (x) = 0.17882 0.17812
# Poissons Ratio (y) = 0.23888 -0.04668
# Poissons Ratio (z) = 0.52772 -0.10352
#
# Static dielectric constant tensor:
#      x y z
#    x 1.950010 0.017750 -0.015340 
#    y 0.017750 1.954180 -0.053220 
#    z -0.015340 -0.053220 1.985400 
# 
# From -- ./inp_files/310081.got.cif
#   From: 2010.05.17/outbox.cif.g08.bks.cpg/sg2_156_cif.got.tgz:310081.got - 2010.06.03 11:33:40.
