data_PCOD9068361
_publ_section_title
;
Structure prediction by ZEFSAII (Michael W. Deem and Ramdas Pophale) SiO2 
 PCOD9068361
Probable space group: P -1
;
_chemical_formula_sum "Si O2"
_cell_formula_units_Z 11
_cell_length_a 8.093851
_cell_length_b 9.970254
_cell_length_c 5.334103
_cell_angle_alpha 109.106323
_cell_angle_beta 108.951789
_cell_angle_gamma 83.971041
_cell_volume 384.689060
_symmetry_space_group_name_H-M "P -1"
_symmetry_group_IT_number 2
_symmetry_cell_setting 'triclinic'
loop_
_space_group_symop_operation_xyz
x,y,z
-x,-y,-z
loop_
_atom_site_type_symbol
_atom_site_label
_atom_site_fract_x
_atom_site_fract_y
_atom_site_fract_z
Si Si1 0.779420 0.673069 0.997517
Si Si2 0.343093 0.824363 0.377225
Si Si3 0.718600 0.422816 0.141703
Si Si4 0.733165 0.909914 0.766957
Si Si5 0.952233 0.241112 0.465324
Si Si6 0.500000 0.500000 0.500000
O O1 0.743321 0.835147 0.997030
O O2 0.700283 0.579398 0.675563
O O3 0.717392 0.585068 0.157070
O O4 0.979602 0.684343 0.198210
O O5 0.542402 0.864155 0.547226
O O6 0.214637 0.843685 0.560378
O O7 0.268046 0.921432 0.175034
O O8 0.344004 0.660746 0.190869
O O9 0.573919 0.394077 0.261446
O O10 0.891271 0.355198 0.299927
O O11 0.893642 0.849685 0.642061
#
# Coordination Sequence:
#
# PCOD9068361 Si02
#       6
#     2   2   2   2   2   1
#     4  12  25  46  74 107 148 195 246 307 370 441
#     4  11  27  50  75 110 151 197 251 309 371 445
#     4  12  26  46  74 110 152 194 248 309 374 444
#     4  11  26  49  77 108 151 199 247 308 375 440
#     4  12  26  45  76 114 148 196 250 307 370 448
#     4  12  26  46  74 110 148 196 248 308 370 444
#
# _framework density 28.594524
#
# number of rings (size 3 to 8) (size 9 to 14) (size 15 to 20)
#    0.000    0.364    0.000    8.182    0.000    9.455 
#    0.000    4.545    0.000    1.091    0.000    0.000 
#    0.000    0.000    0.000    0.000    0.000    0.000 
#
# Total GULP energy -61373.019100 kJ/mol
# GULP energy per Si atom -5579.365373 kJ/mol
# Density = 2.852944 g / cm^3
# Si number density = 28.594524 Si / 1000 Ang^3
#
#
#
# Elastic Constant Matrix: (Units=GPa)
#
#
# Indices 1 2 3 4 5 6 
#
# 1 183.9078 41.0185 31.9570 -0.0734 -15.0993 -18.6630
# 2 41.0185 161.8107 14.7968 -32.5370 -21.4304 22.1672
# 3 31.9570 14.7968 77.7609 -27.1918 -30.0949 1.4785
# 4 -0.0734 -32.5370 -27.1918 53.4598 5.4807 2.9313
# 5 -15.0993 -21.4304 -30.0949 5.4807 19.6502 -15.3100
# 6 -18.6630 22.1672 1.4785 2.9313 -15.3100 28.4613
#
#
#
# Elastic Compliance Matrix: (Units=1/GPa)
#
#
# Indices 1 2 3 4 5 6 
#
# 1 0.002338 -0.005664 -0.035219 -0.010854 -0.083260 -0.035895
# 2 -0.005664 0.009573 -0.006835 0.006404 -0.026006 -0.025464
# 3 -0.035219 -0.006835 -0.147822 -0.019459 -0.450662 -0.250509
# 4 -0.010854 0.006404 -0.019459 0.024481 -0.083655 -0.058616
# 5 -0.083260 -0.026006 -0.450662 -0.083655 -1.222476 -0.659913
# 6 -0.035895 -0.025464 -0.250509 -0.058616 -0.659913 -0.304502
#
#
# Mechanical properties :
#
#
# Convention : Reuss Voigt Hill
#
# Bulk Modulus (GPa) = -4.32250 66.55823 31.11786
# Shear Modulus (GPa) = -3.08625 42.69473 19.80424
#
# Velocity S-wave (km/s) = -1.04003 3.86827 2.63456
# Velocity P-wave (km/s) = 1.71964 6.57863 4.49006
#
# Compressibility (1/GPa) = -0.23134741
#
# Stress axis : x y z
#
# Youngs Moduli (GPa) = 427.73899 104.46226 -6.76490
#
# Poissons Ratio (x) = 0.59168 -0.23825
# Poissons Ratio (y) = 2.42275 -0.04624
# Poissons Ratio (z) = 15.06456 0.71400
#
# Static dielectric constant tensor:
#      x y z
#    x 2.291520 -0.082110 0.212560 
#    y -0.082110 1.626280 0.520660 
#    z 0.212560 0.520660 1.645480 
# 
# From -- ./inp_files/25888.got.cif
#   From: 2010.05.17/outbox.cif.g08.bks.cpg/sg2_13_cif.got.tgz:25888.got - 2010.06.03 11:33:40.
