data_PCOD9068174
_publ_section_title
;
Structure prediction by ZEFSAII (Michael W. Deem and Ramdas Pophale) SiO2 
 PCOD9068174
Probable space group: P -1
;
_chemical_formula_sum "Si O2"
_cell_formula_units_Z 14
_cell_length_a 14.854628
_cell_length_b 6.498051
_cell_length_c 14.152194
_cell_angle_alpha 100.825692
_cell_angle_beta 28.573451
_cell_angle_gamma 90.536789
_cell_volume 605.522732
_symmetry_space_group_name_H-M "P -1"
_symmetry_group_IT_number 2
_symmetry_cell_setting 'triclinic'
loop_
_space_group_symop_operation_xyz
x,y,z
-x,-y,-z
loop_
_atom_site_type_symbol
_atom_site_label
_atom_site_fract_x
_atom_site_fract_y
_atom_site_fract_z
Si Si1 0.499992 0.996790 0.887865
Si Si2 0.035349 0.112048 0.574981
Si Si3 0.512331 0.579146 0.742343
Si Si4 0.112533 0.801906 0.646297
Si Si5 0.193869 0.033526 0.775801
Si Si6 0.430797 0.301222 0.507655
Si Si7 0.795530 0.587613 0.914424
O O1 0.729044 0.930626 0.639744
O O2 0.437615 0.788640 0.896384
O O3 0.500000 0.000000 0.000000
O O4 0.360087 0.223501 0.989583
O O5 0.911265 0.371768 0.725830
O O6 0.000997 0.978983 0.686199
O O7 0.000000 0.000000 0.500000
O O8 0.704612 0.387089 0.587131
O O9 0.582987 0.658344 0.587355
O O10 0.332094 0.481614 0.893287
O O11 0.203040 0.907012 0.656168
O O12 0.956024 0.688330 0.817526
O O13 0.379136 0.913425 0.662717
O O14 0.235360 0.260960 0.728196
O O15 0.000000 0.000000 0.000000
O O16 0.500000 0.500000 0.500000
#
# Coordination Sequence:
#
# PCOD9068174 Si02
#       7
#     2   2   2   2   2   2   2
#     4  12  27  48  75 108 150 199 252 312 382 449
#     4  12  27  48  74 110 151 192 256 310 372 462
#     4  12  26  47  75 105 151 197 251 313 378 455
#     4  12  26  47  73 110 146 199 250 309 381 456
#     4  11  28  45  75 107 152 193 254 312 377 458
#     4  11  26  48  71 109 145 195 250 311 377 449
#     4  12  28  46  76 106 150 201 246 312 383 440
#
# _framework density 23.120519999999999
#
# number of rings (size 3 to 8) (size 9 to 14) (size 15 to 20)
#    0.000    0.286    4.286    3.429    8.000    2.857 
#    0.000    0.000    0.000    0.000    0.000    0.000 
#    0.000    0.000    0.000    0.000    0.000    0.000 
#
# Total GULP energy -78305.858147 kJ/mol
# GULP energy per Si atom -5593.275582 kJ/mol
# Density = 2.306790 g / cm^3
# Si number density = 23.120520 Si / 1000 Ang^3
#
#
#
# Elastic Constant Matrix: (Units=GPa)
#
#
# Indices 1 2 3 4 5 6 
#
# 1 75.5196 31.4267 2.7365 13.3236 -1.7630 0.8309
# 2 31.4267 133.9012 56.4410 -11.0360 -5.3518 10.8132
# 3 2.7365 56.4410 121.8425 -9.0598 -25.3524 0.5714
# 4 13.3236 -11.0360 -9.0598 65.6706 2.6197 -10.3447
# 5 -1.7630 -5.3518 -25.3524 2.6197 37.5385 -4.6713
# 6 0.8309 10.8132 0.5714 -10.3447 -4.6713 31.9936
#
#
#
# Elastic Compliance Matrix: (Units=1/GPa)
#
#
# Indices 1 2 3 4 5 6 
#
# 1 0.015876 -0.004801 0.001928 -0.003798 0.001652 0.000189
# 2 -0.004801 0.011243 -0.005570 0.001666 -0.002932 -0.003465
# 3 0.001928 -0.005570 0.012441 0.000534 0.008029 0.002955
# 4 -0.003798 0.001666 0.000534 0.017153 -0.000149 0.005051
# 5 0.001652 -0.002932 0.008029 -0.000149 0.032415 0.005489
# 6 0.000189 -0.003465 0.002955 0.005051 0.005489 0.034804
#
#
# Mechanical properties :
#
#
# Convention : Reuss Voigt Hill
#
# Bulk Modulus (GPa) = 44.10516 56.94132 50.52324
# Shear Modulus (GPa) = 33.69805 43.08448 38.39126
#
# Velocity S-wave (km/s) = 3.82186 4.32148 4.07932
# Velocity P-wave (km/s) = 6.21233 7.04143 6.63984
#
# Compressibility (1/GPa) = 0.02267309
#
# Stress axis : x y z
#
# Youngs Moduli (GPa) = 62.98742 88.94572 80.38094
#
# Poissons Ratio (x) = 0.42703 -0.15496
# Poissons Ratio (y) = 0.30240 0.44773
# Poissons Ratio (z) = -0.12143 0.49544
#
# Static dielectric constant tensor:
#      x y z
#    x 1.813530 -0.001620 0.003650 
#    y -0.001620 1.962350 -0.048190 
#    z 0.003650 -0.048190 1.941830 
# 
# From -- ./inp_files/525816.got.cif
#   From: 2010.05.17/outbox.cif.g08.bks.cpg/sg2_263_cif.got.tgz:525816.got - 2010.06.03 11:33:40.
