data_PCOD9068823
_publ_section_title
;
Structure prediction by ZEFSAII (Michael W. Deem and Ramdas Pophale) SiO2 
 PCOD9068823
Probable space group: P -1
;
_chemical_formula_sum "Si O2"
_cell_formula_units_Z 13
_cell_length_a 15.067688
_cell_length_b 9.000586
_cell_length_c 9.223135
_cell_angle_alpha 102.232352
_cell_angle_beta 43.363512
_cell_angle_gamma 129.419277
_cell_volume 585.316806
_symmetry_space_group_name_H-M "P -1"
_symmetry_group_IT_number 2
_symmetry_cell_setting 'triclinic'
loop_
_space_group_symop_operation_xyz
x,y,z
-x,-y,-z
loop_
_atom_site_type_symbol
_atom_site_label
_atom_site_fract_x
_atom_site_fract_y
_atom_site_fract_z
Si Si1 0.089875 0.407694 0.878353
Si Si2 0.154097 0.882765 0.632379
Si Si3 0.000000 0.500000 0.500000
Si Si4 0.185842 0.113792 0.385919
Si Si5 0.231443 0.479559 0.415504
Si Si6 0.559489 0.157980 0.329626
Si Si7 0.424862 0.039649 0.964940
O O1 0.107818 0.371526 0.684426
O O2 0.299184 0.598005 0.730149
O O3 0.000000 0.500000 0.000000
O O4 0.965149 0.212372 0.099389
O O5 0.087222 0.682409 0.571338
O O6 0.138470 0.020824 0.584604
O O7 0.370131 0.049127 0.455169
O O8 0.113350 0.448493 0.417293
O O9 0.300367 0.365652 0.291202
O O10 0.291340 0.057941 0.183100
O O11 0.000000 0.000000 0.500000
O O12 0.407873 0.738229 0.270993
O O13 0.500000 0.000000 0.500000
O O14 0.670199 0.155566 0.074307
O O15 0.500000 0.000000 0.000000
#
# Coordination Sequence:
#
# PCOD9068823 Si02
#       7
#     2   2   1   2   2   2   2
#     4  12  25  43  76 107 146 194 245 304 365 443
#     4  12  26  46  72 113 144 192 250 302 366 441
#     4  12  20  42  76 104 140 186 250 296 354 432
#     4  12  28  45  72 109 151 189 239 313 379 428
#     4  12  26  47  70 108 147 195 245 300 376 436
#     4  12  23  44  74 110 140 190 250 297 363 433
#     4  12  25  46  76 105 143 190 249 309 351 443
#
# _framework density 22.210194999999999
#
# number of rings (size 3 to 8) (size 9 to 14) (size 15 to 20)
#    0.000    0.000    9.231    0.462    6.462    0.615 
#    2.769    0.769    0.000    0.000    0.000    0.000 
#    0.000    0.000    0.000    0.000    0.000    0.000 
#
# Total GULP energy -72472.993407 kJ/mol
# GULP energy per Si atom -5574.845647 kJ/mol
# Density = 2.215964 g / cm^3
# Si number density = 22.210195 Si / 1000 Ang^3
#
#
#
# Elastic Constant Matrix: (Units=GPa)
#
#
# Indices 1 2 3 4 5 6 
#
# 1 154.3718 28.0882 42.7618 -3.6752 -5.3159 -9.9978
# 2 28.0882 50.2227 6.9106 -11.0418 -7.8033 -4.1449
# 3 42.7618 6.9106 95.5488 -1.4071 -3.4073 -5.3714
# 4 -3.6752 -11.0418 -1.4071 32.8111 -1.7678 -1.3261
# 5 -5.3159 -7.8033 -3.4073 -1.7678 28.5730 -2.4292
# 6 -9.9978 -4.1449 -5.3714 -1.3261 -2.4292 47.1687
#
#
#
# Elastic Compliance Matrix: (Units=1/GPa)
#
#
# Indices 1 2 3 4 5 6 
#
# 1 0.008209 -0.004176 -0.003324 -0.000587 0.000037 0.000980
# 2 -0.004176 0.025281 0.000523 0.008514 0.006886 0.001990
# 3 -0.003324 0.000523 0.012002 0.000406 0.001047 0.000774
# 4 -0.000587 0.008514 0.000406 0.033611 0.004501 0.001847
# 5 0.000037 0.006886 0.001047 0.004501 0.037526 0.002791
# 6 0.000980 0.001990 0.000774 0.001847 0.002791 0.021867
#
#
# Mechanical properties :
#
#
# Convention : Reuss Voigt Hill
#
# Bulk Modulus (GPa) = 31.70717 50.62940 41.16829
# Shear Modulus (GPa) = 30.68166 36.53607 33.60887
#
# Velocity S-wave (km/s) = 3.72078 4.06028 3.89423
# Velocity P-wave (km/s) = 5.72415 6.69524 6.22865
#
# Compressibility (1/GPa) = 0.03153860
#
# Stress axis : x y z
#
# Youngs Moduli (GPa) = 121.81275 39.55571 83.31606
#
# Poissons Ratio (x) = 0.16519 0.27696
# Poissons Ratio (y) = 0.50871 -0.04360
# Poissons Ratio (z) = 0.40493 -0.02070
#
# Static dielectric constant tensor:
#      x y z
#    x 1.806070 -0.082950 0.049230 
#    y -0.082950 2.075750 -0.269860 
#    z 0.049230 -0.269860 1.999910 
# 
# From -- ./inp_files/176563.got.cif
#   From: 2010.05.17/outbox.cif.g08.bks.cpg/sg2_89_cif.got.tgz:176563.got - 2010.06.03 11:33:40.
