data_PCOD9068405
_publ_section_title
;
Structure prediction by ZEFSAII (Michael W. Deem and Ramdas Pophale) SiO2 
 PCOD9068405
Probable space group: P -1
;
_chemical_formula_sum "Si O2"
_cell_formula_units_Z 16
_cell_length_a 11.517369
_cell_length_b 11.589934
_cell_length_c 6.567635
_cell_angle_alpha 124.311696
_cell_angle_beta 94.092817
_cell_angle_gamma 87.993432
_cell_volume 722.265381
_symmetry_space_group_name_H-M "P -1"
_symmetry_group_IT_number 2
_symmetry_cell_setting 'triclinic'
loop_
_space_group_symop_operation_xyz
x,y,z
-x,-y,-z
loop_
_atom_site_type_symbol
_atom_site_label
_atom_site_fract_x
_atom_site_fract_y
_atom_site_fract_z
Si Si1 0.303995 0.108236 0.893857
Si Si2 0.343539 0.586282 0.186447
Si Si3 0.517066 0.666618 0.923964
Si Si4 0.889519 0.525570 0.159465
Si Si5 0.887452 0.251199 0.103580
Si Si6 0.129189 0.974705 0.415294
Si Si7 0.345048 0.811358 0.739120
Si Si8 0.870630 0.801483 0.702670
O O1 0.215417 0.033796 0.653253
O O2 0.365575 0.976110 0.876429
O O3 0.391508 0.210428 0.887962
O O4 0.231565 0.197875 0.140547
O O5 0.408687 0.474437 0.228800
O O6 0.327879 0.729199 0.446119
O O7 0.424338 0.625902 0.044461
O O8 0.226448 0.512548 0.019069
O O9 0.447152 0.732517 0.793512
O O10 0.898302 0.415757 0.236188
O O11 0.877189 0.675978 0.414507
O O12 0.000000 0.500000 0.000000
O O13 0.775860 0.211437 0.180803
O O14 0.006259 0.196075 0.161853
O O15 0.866017 0.185283 0.812251
O O16 0.146912 0.060337 0.294878
O O17 0.000000 0.000000 0.500000
#
# Coordination Sequence:
#
# PCOD9068405 Si02
#       8
#     2   2   2   2   2   2   2   2
#     4  12  27  44  75 106 141 190 234 292 350 422
#     4  11  26  50  74 102 141 190 234 293 356 414
#     4  11  27  48  71 104 138 189 243 290 349 410
#     4  12  26  45  74 108 143 183 233 293 356 420
#     4  12  24  45  70 105 144 185 229 290 355 423
#     4  12  23  45  71 101 147 184 229 283 358 424
#     4  12  25  47  72 104 140 187 238 290 352 415
#     4  12  26  44  69 109 144 181 232 289 357 423
#
# _framework density 22.152522999999999
#
# number of rings (size 3 to 8) (size 9 to 14) (size 15 to 20)
#    0.000    0.250    3.750    5.250    3.500    3.500 
#    0.000    0.000    0.000    0.000    0.000    0.000 
#    0.000    0.000    0.000    0.000    0.000    0.000 
#
# Total GULP energy -89527.065797 kJ/mol
# GULP energy per Si atom -5595.441612 kJ/mol
# Density = 2.210210 g / cm^3
# Si number density = 22.152523 Si / 1000 Ang^3
#
#
#
# Elastic Constant Matrix: (Units=GPa)
#
#
# Indices 1 2 3 4 5 6 
#
# 1 118.2013 22.7328 45.0041 7.7299 13.8386 1.6360
# 2 22.7328 90.0571 -7.3791 11.8117 8.3516 -11.3711
# 3 45.0041 -7.3791 96.5598 25.9770 3.1571 -11.9642
# 4 7.7299 11.8117 25.9770 38.0605 -8.8403 7.7881
# 5 13.8386 8.3516 3.1571 -8.8403 28.2900 0.8673
# 6 1.6360 -11.3711 -11.9642 7.7881 0.8673 36.8345
#
#
#
# Elastic Compliance Matrix: (Units=1/GPa)
#
#
# Indices 1 2 3 4 5 6 
#
# 1 0.012632 -0.005266 -0.008549 0.005771 -0.001679 -0.006144
# 2 -0.005266 0.017765 0.009945 -0.015918 -0.009137 0.012529
# 3 -0.008549 0.009945 0.023525 -0.022795 -0.008997 0.016123
# 4 0.005771 -0.015918 -0.022795 0.055970 0.022675 -0.024942
# 5 -0.001679 -0.009137 -0.008997 0.022675 0.047311 -0.011577
# 6 -0.006144 0.012529 0.016123 -0.024942 -0.011577 0.042072
#
#
# Mechanical properties :
#
#
# Convention : Reuss Voigt Hill
#
# Bulk Modulus (GPa) = 21.65282 47.28154 34.46718
# Shear Modulus (GPa) = 22.48107 36.93435 29.70771
#
# Velocity S-wave (km/s) = 3.18910 4.08766 3.66601
# Velocity P-wave (km/s) = 4.83281 6.60822 5.78898
#
# Compressibility (1/GPa) = 0.04618336
#
# Stress axis : x y z
#
# Youngs Moduli (GPa) = 79.16416 56.28970 42.50815
#
# Poissons Ratio (x) = 0.29642 0.36339
# Poissons Ratio (y) = 0.41688 -0.42276
# Poissons Ratio (z) = 0.67675 -0.55982
#
# Static dielectric constant tensor:
#      x y z
#    x 2.061540 -0.160120 -0.255000 
#    y -0.160120 1.906560 0.113370 
#    z -0.255000 0.113370 2.042540 
# 
# From -- ./inp_files/68427.got.cif
#   From: 2010.05.17/outbox.cif.g08.bks.cpg/sg2_35_cif.got.tgz:68427.got - 2010.06.03 11:33:40.
