data_PCOD9068389
_publ_section_title
;
Structure prediction by ZEFSAII (Michael W. Deem and Ramdas Pophale) SiO2 
 PCOD9068389
Probable space group: P -1
;
_chemical_formula_sum "Si O2"
_cell_formula_units_Z 9
_cell_length_a 8.554256
_cell_length_b 6.052908
_cell_length_c 8.988621
_cell_angle_alpha 108.385592
_cell_angle_beta 113.597796
_cell_angle_gamma 111.006149
_cell_volume 336.015685
_symmetry_space_group_name_H-M "P -1"
_symmetry_group_IT_number 2
_symmetry_cell_setting 'triclinic'
loop_
_space_group_symop_operation_xyz
x,y,z
-x,-y,-z
loop_
_atom_site_type_symbol
_atom_site_label
_atom_site_fract_x
_atom_site_fract_y
_atom_site_fract_z
Si Si1 0.500000 0.500000 0.500000
Si Si2 0.169682 0.687193 0.949985
Si Si3 0.129813 0.936129 0.254155
Si Si4 0.881135 0.180490 0.335608
Si Si5 0.513665 0.638579 0.196429
O O1 0.483661 0.469134 0.299304
O O2 0.628034 0.838295 0.599095
O O3 0.255681 0.840734 0.860407
O O4 0.989694 0.364605 0.775368
O O5 0.080074 0.828557 0.042333
O O6 0.330995 0.683633 0.116774
O O7 0.039374 0.113469 0.312726
O O8 0.000000 0.500000 0.500000
O O9 0.734691 0.935364 0.341305
O O10 0.500000 0.500000 0.000000
#
# Coordination Sequence:
#
# PCOD9068389 Si02
#       5
#     1   2   2   2   2
#     4  12  30  46  78 112 164 196 258 322 382 458
#     4  11  26  49  81 109 155 207 256 315 387 464
#     4  11  27  48  76 113 154 204 255 314 391 456
#     4  12  27  47  80 114 154 200 259 324 381 459
#     4  12  27  51  79 114 155 205 259 316 387 458
#
# _framework density 26.784465999999998
#
# number of rings (size 3 to 8) (size 9 to 14) (size 15 to 20)
#    0.000    0.444    2.222    4.000   12.444    2.667 
#    0.000    0.000    0.000    0.000    0.000    0.000 
#    0.000    0.000    0.000    0.000    0.000    0.000 
#
# Total GULP energy -50109.559820 kJ/mol
# GULP energy per Si atom -5567.728869 kJ/mol
# Density = 2.672350 g / cm^3
# Si number density = 26.784466 Si / 1000 Ang^3
#
#
#
# Elastic Constant Matrix: (Units=GPa)
#
#
# Indices 1 2 3 4 5 6 
#
# 1 74.8630 30.8989 44.7283 2.3902 -29.8043 -20.0068
# 2 30.8989 130.8627 70.2615 -18.8183 -34.7073 8.2700
# 3 44.7283 70.2615 139.9812 10.3591 -33.3550 -2.4963
# 4 2.3902 -18.8183 10.3591 90.5340 -2.5413 -18.1201
# 5 -29.8043 -34.7073 -33.3550 -2.5413 40.2541 5.1976
# 6 -20.0068 8.2700 -2.4963 -18.1201 5.1976 22.7452
#
#
#
# Elastic Compliance Matrix: (Units=1/GPa)
#
#
# Indices 1 2 3 4 5 6 
#
# 1 0.029467 -0.001589 -0.005498 0.005328 0.012712 0.027234
# 2 -0.001589 0.013194 -0.004645 0.002194 0.007345 -0.006636
# 3 -0.005498 -0.004645 0.011901 -0.003081 0.002212 -0.004800
# 4 0.005328 0.002194 -0.003081 0.014732 0.002308 0.014760
# 5 0.012712 0.007345 0.002212 0.002308 0.042451 0.000892
# 6 0.027234 -0.006636 -0.004800 0.014760 0.000892 0.081362
#
#
# Mechanical properties :
#
#
# Convention : Reuss Voigt Hill
#
# Bulk Modulus (GPa) = 32.15591 70.83158 51.49375
# Shear Modulus (GPa) = 22.03248 44.02784 33.03016
#
# Velocity S-wave (km/s) = 2.87118 4.05876 3.51548
# Velocity P-wave (km/s) = 4.79824 6.96183 5.97872
#
# Compressibility (1/GPa) = 0.03109848
#
# Stress axis : x y z
#
# Youngs Moduli (GPa) = 33.93583 75.79296 84.02449
#
# Poissons Ratio (x) = 0.12047 0.46193
# Poissons Ratio (y) = 0.05394 0.39029
# Poissons Ratio (z) = 0.18656 0.35206
#
# Static dielectric constant tensor:
#      x y z
#    x 2.259280 0.011770 -0.033580 
#    y 0.011770 2.028590 0.046790 
#    z -0.033580 0.046790 2.209870 
# 
# From -- ./inp_files/16711.got.cif
#   From: 2010.05.17/outbox.cif.g08.bks.cpg/sg2_9_cif.got.tgz:16711.got - 2010.06.03 11:33:40.
