data_PCOD9068293
_publ_section_title
;
Structure prediction by ZEFSAII (Michael W. Deem and Ramdas Pophale) SiO2 
 PCOD9068293
Probable space group: P -1
;
_chemical_formula_sum "Si O2"
_cell_formula_units_Z 10
_cell_length_a 19.444717
_cell_length_b 9.261901
_cell_length_c 5.007189
_cell_angle_alpha 89.274057
_cell_angle_beta 92.841065
_cell_angle_gamma 25.236515
_cell_volume 380.484879
_symmetry_space_group_name_H-M "P -1"
_symmetry_group_IT_number 2
_symmetry_cell_setting 'triclinic'
loop_
_space_group_symop_operation_xyz
x,y,z
-x,-y,-z
loop_
_atom_site_type_symbol
_atom_site_label
_atom_site_fract_x
_atom_site_fract_y
_atom_site_fract_z
Si Si1 0.706759 0.927007 0.937172
Si Si2 0.573444 0.726572 0.361935
Si Si3 0.757281 0.135949 0.756045
Si Si4 0.101590 0.899110 0.816525
Si Si5 0.928401 0.448513 0.488201
O O1 0.847219 0.627219 0.754568
O O2 0.558807 0.100811 0.851306
O O3 0.666304 0.170871 0.859543
O O4 0.788038 0.747572 0.242184
O O5 0.643730 0.465430 0.572007
O O6 0.727573 0.490729 0.231829
O O7 0.500000 0.000000 0.500000
O O8 0.840673 0.065789 0.013347
O O9 0.903172 0.804853 0.592328
O O10 0.993314 0.160866 0.542508
O O11 0.000000 0.000000 0.000000
#
# Coordination Sequence:
#
# PCOD9068293 Si02
#       5
#     2   2   2   2   2
#     4  12  27  49  84 121 156 202 266 331 395 462
#     4  11  30  50  78 118 163 209 262 328 399 464
#     4  11  26  49  82 116 160 209 262 324 391 475
#     4  11  28  52  81 115 162 212 263 320 395 475
#     4  11  26  48  82 120 155 206 262 322 395 472
#
# _framework density 26.282250999999999
#
# number of rings (size 3 to 8) (size 9 to 14) (size 15 to 20)
#    0.000    0.800    2.000    1.800   14.000    3.200 
#    0.000    4.000    0.000    0.000    0.000    0.000 
#    0.000    0.000    0.000    0.000    0.000    0.000 
#
# Total GULP energy -56106.862585 kJ/mol
# GULP energy per Si atom -5610.686259 kJ/mol
# Density = 2.622243 g / cm^3
# Si number density = 26.282251 Si / 1000 Ang^3
#
#
#
# Elastic Constant Matrix: (Units=GPa)
#
#
# Indices 1 2 3 4 5 6 
#
# 1 141.5889 40.4829 11.6726 -3.6511 -11.1445 -23.7832
# 2 40.4829 136.7306 35.7310 7.1107 -7.5039 -11.5982
# 3 11.6726 35.7310 107.1862 -12.0505 -4.4426 -10.0101
# 4 -3.6511 7.1107 -12.0505 69.7354 -0.2304 -1.1364
# 5 -11.1445 -7.5039 -4.4426 -0.2304 43.0289 2.0139
# 6 -23.7832 -11.5982 -10.0101 -1.1364 2.0139 29.9549
#
#
#
# Elastic Compliance Matrix: (Units=1/GPa)
#
#
# Indices 1 2 3 4 5 6 
#
# 1 0.008852 -0.002177 0.000517 0.000883 0.001677 0.006279
# 2 -0.002177 0.008858 -0.002794 -0.001487 0.000653 0.000667
# 3 0.000517 -0.002794 0.010757 0.002221 0.000630 0.002965
# 4 0.000883 -0.001487 0.002221 0.014945 0.000212 0.001420
# 5 0.001677 0.000653 0.000630 0.000212 0.023845 0.000200
# 6 0.006279 0.000667 0.002965 0.001420 0.000200 0.039658
#
#
# Mechanical properties :
#
#
# Convention : Reuss Voigt Hill
#
# Bulk Modulus (GPa) = 51.12561 62.36430 56.74496
# Shear Modulus (GPa) = 40.86832 48.38513 44.62673
#
# Velocity S-wave (km/s) = 3.94760 4.29532 4.12513
# Velocity P-wave (km/s) = 6.34609 6.95557 6.65780
#
# Compressibility (1/GPa) = 0.01955967
#
# Stress axis : x y z
#
# Youngs Moduli (GPa) = 112.96850 112.89119 92.96003
#
# Poissons Ratio (x) = 0.24579 -0.04805
# Poissons Ratio (y) = 0.24596 0.25969
# Poissons Ratio (z) = -0.05840 0.31537
#
# Static dielectric constant tensor:
#      x y z
#    x 2.171740 0.070530 0.059850 
#    y 0.070530 2.059050 0.020760 
#    z 0.059850 0.020760 2.029010 
# 
# From -- ./inp_files/103200.got.cif
#   From: 2010.05.17/outbox.cif.g08.bks.cpg/sg2_52_cif.got.tgz:103200.got - 2010.06.03 11:33:40.
