data_PCOD9068375
_publ_section_title
;
Structure prediction by ZEFSAII (Michael W. Deem and Ramdas Pophale) SiO2 
 PCOD9068375
Probable space group: P -1
;
_chemical_formula_sum "Si O2"
_cell_formula_units_Z 11
_cell_length_a 4.862299
_cell_length_b 15.028558
_cell_length_c 9.519150
_cell_angle_alpha 36.895179
_cell_angle_beta 104.051615
_cell_angle_gamma 91.467792
_cell_volume 387.769176
_symmetry_space_group_name_H-M "P -1"
_symmetry_group_IT_number 2
_symmetry_cell_setting 'triclinic'
loop_
_space_group_symop_operation_xyz
x,y,z
-x,-y,-z
loop_
_atom_site_type_symbol
_atom_site_label
_atom_site_fract_x
_atom_site_fract_y
_atom_site_fract_z
Si Si1 0.302232 0.402950 0.242383
Si Si2 0.177423 0.614326 0.329353
Si Si3 0.000000 0.000000 0.500000
Si Si4 0.280236 0.162295 0.116623
Si Si5 0.543281 0.819833 0.205363
Si Si6 0.290756 0.724396 0.803325
O O1 0.271227 0.297050 0.504064
O O2 0.550153 0.304003 0.290919
O O3 0.410779 0.554089 0.101137
O O4 0.000000 0.500000 0.000000
O O5 0.500000 0.500000 0.500000
O O6 0.251416 0.758718 0.235930
O O7 0.000000 0.500000 0.500000
O O8 0.987530 0.684589 0.079810
O O9 0.856868 0.965668 0.681894
O O10 0.954289 0.832644 0.634368
O O11 0.598194 0.153703 0.235395
O O12 0.334254 0.189432 0.926324
O O13 0.500000 0.000000 0.000000
#
# Coordination Sequence:
#
# PCOD9068375 Si02
#       6
#     2   2   1   2   2   2
#     4  11  27  49  81 119 170 220 290 358 448 515
#     4  12  27  51  85 123 167 221 290 357 433 521
#     4  12  26  44  78 118 166 214 284 350 442 514
#     4  12  27  49  83 116 168 220 295 349 441 515
#     4  12  29  52  84 129 177 229 292 365 443 525
#     4  11  26  49  78 120 165 226 286 364 432 537
#
# _framework density 28.367393
#
# number of rings (size 3 to 8) (size 9 to 14) (size 15 to 20)
#    0.000    0.364    1.818    4.909    5.091    8.000 
#    0.000    0.000    0.000    0.000    0.000    0.000 
#    0.000    0.000    0.000    0.000    0.000    0.000 
#
# Total GULP energy -61244.150627 kJ/mol
# GULP energy per Si atom -5567.650057 kJ/mol
# Density = 2.830283 g / cm^3
# Si number density = 28.367393 Si / 1000 Ang^3
#
#
#
# Elastic Constant Matrix: (Units=GPa)
#
#
# Indices 1 2 3 4 5 6 
#
# 1 140.3937 38.7646 55.5344 -2.1767 -15.6265 16.4650
# 2 38.7646 153.4724 79.2587 -26.1320 -17.6826 -32.3741
# 3 55.5344 79.2587 298.5993 -5.0365 -38.6593 1.5558
# 4 -2.1767 -26.1320 -5.0365 66.7159 0.8508 -2.9007
# 5 -15.6265 -17.6826 -38.6593 0.8508 60.0553 0.2604
# 6 16.4650 -32.3741 1.5558 -2.9007 0.2604 62.4695
#
#
#
# Elastic Compliance Matrix: (Units=1/GPa)
#
#
# Indices 1 2 3 4 5 6 
#
# 1 0.008683 -0.002609 -0.000789 -0.000971 0.001013 -0.003670
# 2 -0.002609 0.010408 -0.002120 0.004094 0.000935 0.006320
# 3 -0.000789 -0.002120 0.004307 -0.000601 0.001956 -0.001034
# 4 -0.000971 0.004094 -0.000601 0.016649 0.000317 0.003164
# 5 0.001013 0.000935 0.001956 0.000317 0.018445 0.000107
# 6 -0.003670 0.006320 -0.001034 0.003164 0.000107 0.020423
#
#
# Mechanical properties :
#
#
# Convention : Reuss Voigt Hill
#
# Bulk Modulus (GPa) = 80.88598 104.39787 92.64192
# Shear Modulus (GPa) = 53.15158 65.77530 59.46344
#
# Velocity S-wave (km/s) = 4.33331 4.82051 4.58338
# Velocity P-wave (km/s) = 7.32204 8.23802 7.79350
#
# Compressibility (1/GPa) = 0.01236308
#
# Stress axis : x y z
#
# Youngs Moduli (GPa) = 115.16462 96.08114 232.18577
#
# Poissons Ratio (x) = 0.25065 0.18309
# Poissons Ratio (y) = 0.30043 0.49228
# Poissons Ratio (z) = 0.09081 0.20371
#
# Static dielectric constant tensor:
#      x y z
#    x 3.862530 -0.486940 0.864330 
#    y -0.486940 2.921830 -0.680130 
#    z 0.864330 -0.680130 3.549700 
# 
# From -- ./inp_files/132745.got.cif
#   From: 2010.05.17/outbox.cif.g08.bks.cpg/sg2_67_cif.got.tgz:132745.got - 2010.06.03 11:33:40.
