data_PCOD9068233
_publ_section_title
;
Structure prediction by ZEFSAII (Michael W. Deem and Ramdas Pophale) SiO2 
 PCOD9068233
Probable space group: P -1
;
_chemical_formula_sum "Si O2"
_cell_formula_units_Z 10
_cell_length_a 5.814888
_cell_length_b 11.010894
_cell_length_c 5.984405
_cell_angle_alpha 70.591058
_cell_angle_beta 73.412734
_cell_angle_gamma 61.276908
_cell_volume 313.235597
_symmetry_space_group_name_H-M "P -1"
_symmetry_group_IT_number 2
_symmetry_cell_setting 'triclinic'
loop_
_space_group_symop_operation_xyz
x,y,z
-x,-y,-z
loop_
_atom_site_type_symbol
_atom_site_label
_atom_site_fract_x
_atom_site_fract_y
_atom_site_fract_z
Si Si1 0.500000 0.500000 0.000000
Si Si2 0.345545 0.120952 0.872937
Si Si3 0.154456 0.379048 0.127063
Si Si4 0.861381 0.309974 0.628978
Si Si5 0.000000 0.000000 0.000000
Si Si6 0.638619 0.190026 0.371022
O O1 0.832589 0.468438 0.038866
O O2 0.643312 0.430645 0.758618
O O3 0.667411 0.031562 0.961134
O O4 0.455589 0.132547 0.589699
O O5 0.018530 0.170770 0.828989
O O6 0.250000 0.250000 1.000000
O O7 0.481470 0.329229 0.171011
O O8 0.044411 0.367453 0.410301
O O9 0.749999 0.250000 0.500000
O O10 0.856688 0.069355 0.241383
#
# Coordination Sequence:
#
# PCOD9068233 Si02
#       6
#     1   2   2   2   1   2
#     4  12  26  48  78 110 150 198 250 310 376 446
#     4  11  26  48  76 111 151 197 250 310 376 447
#     4  11  26  48  76 111 151 197 250 310 376 447
#     4  11  27  50  76 109 151 198 250 309 375 448
#     4  12  26  48  78 110 150 198 250 310 376 446
#     4  11  27  50  76 109 151 198 250 309 375 448
#
# _framework density 31.924848000000001
#
# number of rings (size 3 to 8) (size 9 to 14) (size 15 to 20)
#    0.000    0.800    0.000    4.800    0.000   16.000 
#    0.000    2.000    0.000    2.400    0.000    0.000 
#    0.000    0.000    0.000    0.000    0.000    0.000 
#
# Total GULP energy -56090.534284 kJ/mol
# GULP energy per Si atom -5609.053428 kJ/mol
# Density = 3.185219 g / cm^3
# Si number density = 31.924848 Si / 1000 Ang^3
#
#
#
# Elastic Constant Matrix: (Units=GPa)
#
#
# Indices 1 2 3 4 5 6 
#
# 1 320.5402 78.5371 132.4678 46.4253 -3.4431 24.8403
# 2 78.5371 369.8201 160.7215 56.6317 12.8137 -33.1097
# 3 132.4678 160.7215 327.5317 61.6540 -34.9680 10.9489
# 4 46.4253 56.6317 61.6540 113.7559 -7.3053 20.2183
# 5 -3.4431 12.8137 -34.9680 -7.3053 135.5018 -6.8885
# 6 24.8403 -33.1097 10.9489 20.2183 -6.8885 79.1130
#
#
#
# Elastic Compliance Matrix: (Units=1/GPa)
#
#
# Indices 1 2 3 4 5 6 
#
# 1 0.003894 -0.000230 -0.001352 -0.000583 -0.000311 -0.001010
# 2 -0.000230 0.003952 -0.001746 -0.001378 -0.000790 0.002251
# 3 -0.001352 -0.001746 0.004801 -0.000991 0.001286 -0.000606
# 4 -0.000583 -0.001378 -0.000991 0.010802 0.000290 -0.002992
# 5 -0.000311 -0.000790 0.001286 0.000290 0.007804 0.000194
# 6 -0.001010 0.002251 -0.000606 -0.002992 0.000194 0.014765
#
#
# Mechanical properties :
#
#
# Convention : Reuss Voigt Hill
#
# Bulk Modulus (GPa) = 166.93821 195.70497 181.32159
# Shear Modulus (GPa) = 91.45768 108.75185 100.10477
#
# Velocity S-wave (km/s) = 5.35817 5.84285 5.60575
# Velocity P-wave (km/s) = 9.52284 10.34183 9.94077
#
# Compressibility (1/GPa) = 0.00599024
#
# Stress axis : x y z
#
# Youngs Moduli (GPa) = 256.80228 253.05598 208.29724
#
# Poissons Ratio (x) = 0.05817 0.28160
# Poissons Ratio (y) = 0.05903 0.36377
# Poissons Ratio (z) = 0.34717 0.44193
#
# Static dielectric constant tensor:
#      x y z
#    x 3.588280 -0.374470 0.054320 
#    y -0.374470 2.759980 -0.394890 
#    z 0.054320 -0.394890 2.141680 
# 
# From -- ./inp_files/2180.got.cif
#   From: 2010.05.17/outbox.cif.g08.bks.cpg/sg2_2_cif.got.tgz:2180.got - 2010.06.03 11:33:40.
