data_PCOD9068904
_publ_section_title
;
Structure prediction by ZEFSAII (Michael W. Deem and Ramdas Pophale) SiO2 
 PCOD9068904
Probable space group: P -1
;
_chemical_formula_sum "Si O2"
_cell_formula_units_Z 8
_cell_length_a 4.940201
_cell_length_b 12.039117
_cell_length_c 7.323039
_cell_angle_alpha 130.493879
_cell_angle_beta 68.902684
_cell_angle_gamma 107.139217
_cell_volume 307.875420
_symmetry_space_group_name_H-M "P -1"
_symmetry_group_IT_number 2
_symmetry_cell_setting 'triclinic'
loop_
_space_group_symop_operation_xyz
x,y,z
-x,-y,-z
loop_
_atom_site_type_symbol
_atom_site_label
_atom_site_fract_x
_atom_site_fract_y
_atom_site_fract_z
Si Si1 0.880170 0.811357 0.684403
Si Si2 0.799685 0.701096 0.959584
Si Si3 0.231225 0.509047 0.787167
Si Si4 0.548081 0.883058 0.519718
O O1 0.225945 0.820974 0.587058
O O2 0.801335 0.820979 0.926096
O O3 0.764010 0.646765 0.476377
O O4 0.733936 0.919925 0.696767
O O5 0.542621 0.575049 0.850519
O O6 0.101268 0.627246 0.810983
O O7 0.731492 0.770000 0.243598
O O8 0.000000 0.500000 0.000000
O O9 0.500000 0.000000 0.500000
#
# Coordination Sequence:
#
# PCOD9068904 Si02
#       4
#     2   2   2   2
#     4  12  25  42  67  95 126 165 208 259 316 371
#     4  12  24  42  66  96 128 163 205 260 316 374
#     4  12  21  41  69  94 129 162 199 260 327 371
#     4  12  26  44  64  91 127 171 215 255 302 367
#
# _framework density 25.984538000000001
#
# number of rings (size 3 to 8) (size 9 to 14) (size 15 to 20)
#    0.000    0.000    5.000    6.000    0.000    2.000 
#    0.000    0.000    0.000    0.000    0.000    0.000 
#    0.000    0.000    0.000    0.000    0.000    0.000 
#
# Total GULP energy -44903.627171 kJ/mol
# GULP energy per Si atom -5612.953396 kJ/mol
# Density = 2.592540 g / cm^3
# Si number density = 25.984538 Si / 1000 Ang^3
#
#
#
# Elastic Constant Matrix: (Units=GPa)
#
#
# Indices 1 2 3 4 5 6 
#
# 1 131.9241 21.8543 11.7389 -8.6960 3.0324 -25.6856
# 2 21.8543 87.4803 23.8157 -37.7491 5.7082 -15.9234
# 3 11.7389 23.8157 71.3412 -23.0519 5.0367 -2.9074
# 4 -8.6960 -37.7491 -23.0519 49.2885 -12.1067 1.1911
# 5 3.0324 5.7082 5.0367 -12.1067 33.6669 -2.6253
# 6 -25.6856 -15.9234 -2.9074 1.1911 -2.6253 48.1901
#
#
#
# Elastic Compliance Matrix: (Units=1/GPa)
#
#
# Indices 1 2 3 4 5 6 
#
# 1 0.008666 -0.001090 -0.000825 0.000188 -0.000077 0.004200
# 2 -0.001090 0.019070 -0.001565 0.014195 0.002626 0.005418
# 3 -0.000825 -0.001565 0.016774 0.006547 0.000177 -0.000097
# 4 0.000188 0.014195 0.006547 0.036631 0.010146 0.004833
# 5 -0.000077 0.002626 0.000177 0.010146 0.033073 0.002388
# 6 0.004200 0.005418 -0.000097 0.004833 0.002388 0.024785
#
#
# Mechanical properties :
#
#
# Convention : Reuss Voigt Hill
#
# Bulk Modulus (GPa) = 26.62961 45.06260 35.84610
# Shear Modulus (GPa) = 31.55087 41.78486 36.66787
#
# Velocity S-wave (km/s) = 3.48834 4.01442 3.76059
# Velocity P-wave (km/s) = 5.14735 6.23435 5.71675
#
# Compressibility (1/GPa) = 0.03755219
#
# Stress axis : x y z
#
# Youngs Moduli (GPa) = 115.39354 52.43950 59.61519
#
# Poissons Ratio (x) = 0.05714 0.04917
# Poissons Ratio (y) = 0.12573 0.09327
# Poissons Ratio (z) = 0.09517 0.08204
#
# Static dielectric constant tensor:
#      x y z
#    x 1.989370 -0.117350 -0.005160 
#    y -0.117350 2.108590 0.026870 
#    z -0.005160 0.026870 1.977690 
# 
# From -- ./inp_files/1677.got.cif
#   From: 2010.05.17/outbox.cif.g08.bks.cpg/sg2_1_cif.got.tgz:1677.got - 2010.06.03 11:33:40.
