data_PCOD9068481
_publ_section_title
;
Structure prediction by ZEFSAII (Michael W. Deem and Ramdas Pophale) SiO2 
 PCOD9068481
Probable space group: P -1
;
_chemical_formula_sum "Si O2"
_cell_formula_units_Z 10
_cell_length_a 11.284274
_cell_length_b 5.015236
_cell_length_c 11.981683
_cell_angle_alpha 87.961970
_cell_angle_beta 36.410453
_cell_angle_gamma 92.088305
_cell_volume 399.805579
_symmetry_space_group_name_H-M "P -1"
_symmetry_group_IT_number 2
_symmetry_cell_setting 'triclinic'
loop_
_space_group_symop_operation_xyz
x,y,z
-x,-y,-z
loop_
_atom_site_type_symbol
_atom_site_label
_atom_site_fract_x
_atom_site_fract_y
_atom_site_fract_z
Si Si1 0.838201 0.355615 0.709821
Si Si2 0.462968 0.813723 0.250277
Si Si3 0.414143 0.273267 0.440248
Si Si4 0.126182 0.149579 0.166478
Si Si5 0.163356 0.584024 0.779250
O O1 0.651927 0.233520 0.778516
O O2 0.792417 0.589610 0.825450
O O3 0.000000 0.500000 0.500000
O O4 0.919372 0.110287 0.717766
O O5 0.444832 0.539250 0.336637
O O6 0.370935 0.030267 0.392404
O O7 0.693905 0.912934 0.049739
O O8 0.247488 0.332549 0.656305
O O9 0.630423 0.256009 0.334501
O O10 0.949599 0.249612 0.226603
O O11 0.000000 0.500000 0.000000
#
# Coordination Sequence:
#
# PCOD9068481 Si02
#       5
#     2   2   2   2   2
#     4  12  27  48  76 115 153 197 255 319 380 452
#     4  12  25  51  76 113 154 197 255 313 382 454
#     4  11  27  49  78 114 153 202 249 316 379 453
#     4  12  26  47  80 112 151 206 254 309 382 457
#     4  11  26  51  77 114 156 201 256 311 378 451
#
# _framework density 25.012155
#
# number of rings (size 3 to 8) (size 9 to 14) (size 15 to 20)
#    0.000    0.400    2.000    5.400    0.000   10.400 
#    0.000    0.000    0.000    0.000    0.000    0.000 
#    0.000    0.000    0.000    0.000    0.000    0.000 
#
# Total GULP energy -56162.306691 kJ/mol
# GULP energy per Si atom -5616.230669 kJ/mol
# Density = 2.495523 g / cm^3
# Si number density = 25.012155 Si / 1000 Ang^3
#
#
#
# Elastic Constant Matrix: (Units=GPa)
#
#
# Indices 1 2 3 4 5 6 
#
# 1 122.5808 68.0466 74.9373 2.9874 7.2099 -28.0739
# 2 68.0466 162.3881 69.1475 -8.4031 16.5744 -15.0157
# 3 74.9373 69.1475 185.2201 22.3076 -7.1595 -22.7791
# 4 2.9874 -8.4031 22.3076 28.7962 -0.9299 -1.4319
# 5 7.2099 16.5744 -7.1595 -0.9299 36.1791 10.2974
# 6 -28.0739 -15.0157 -22.7791 -1.4319 10.2974 31.6887
#
#
#
# Elastic Compliance Matrix: (Units=1/GPa)
#
#
# Indices 1 2 3 4 5 6 
#
# 1 0.015028 -0.002997 -0.003955 0.000994 -0.005474 0.010874
# 2 -0.002997 0.009589 -0.003011 0.005364 -0.004676 0.001485
# 3 -0.003955 -0.003011 0.009180 -0.007453 0.003762 0.000109
# 4 0.000994 0.005364 -0.007453 0.041906 -0.003352 0.001048
# 5 -0.005474 -0.004676 0.003762 -0.003352 0.036160 -0.016263
# 6 0.010874 0.001485 0.000109 0.001048 -0.016263 0.047305
#
#
# Mechanical properties :
#
#
# Convention : Reuss Voigt Hill
#
# Bulk Modulus (GPa) = 72.10427 99.38353 85.74390
# Shear Modulus (GPa) = 27.21575 36.53661 31.87618
#
# Velocity S-wave (km/s) = 3.30222 3.82613 3.57379
# Velocity P-wave (km/s) = 6.59013 7.70320 7.16830
#
# Compressibility (1/GPa) = 0.01386880
#
# Stress axis : x y z
#
# Youngs Moduli (GPa) = 66.54398 104.29119 108.93730
#
# Poissons Ratio (x) = 0.31261 0.43084
# Poissons Ratio (y) = 0.19946 0.32802
# Poissons Ratio (z) = 0.26318 0.31403
#
# Static dielectric constant tensor:
#      x y z
#    x 1.995330 0.043650 -0.027880 
#    y 0.043650 1.960090 -0.005570 
#    z -0.027880 -0.005570 1.984550 
# 
# From -- ./inp_files/408306.got.cif
#   From: 2010.05.17/outbox.cif.g08.bks.cpg/sg2_205_cif.got.tgz:408306.got - 2010.06.03 11:33:40.
