data_PCOD9068372
_publ_section_title
;
Structure prediction by ZEFSAII (Michael W. Deem and Ramdas Pophale) SiO2 
 PCOD9068372
Probable space group: P -1
;
_chemical_formula_sum "Si O2"
_cell_formula_units_Z 14
_cell_length_a 11.784563
_cell_length_b 18.805710
_cell_length_c 5.174064
_cell_angle_alpha 70.941508
_cell_angle_beta 103.111945
_cell_angle_gamma 151.132140
_cell_volume 518.845467
_symmetry_space_group_name_H-M "P -1"
_symmetry_group_IT_number 2
_symmetry_cell_setting 'triclinic'
loop_
_space_group_symop_operation_xyz
x,y,z
-x,-y,-z
loop_
_atom_site_type_symbol
_atom_site_label
_atom_site_fract_x
_atom_site_fract_y
_atom_site_fract_z
Si Si1 0.287721 0.832237 0.462371
Si Si2 0.151245 0.012888 0.647138
Si Si3 0.851610 0.333743 0.926291
Si Si4 0.736151 0.746929 0.096639
Si Si5 0.061755 0.245708 0.419099
Si Si6 0.410094 0.667747 0.311954
Si Si7 0.283719 0.482720 0.854989
O O1 0.274472 0.789116 0.218760
O O2 0.073085 0.770971 0.450817
O O3 0.500000 0.000000 0.500000
O O4 0.248596 0.745096 0.754641
O O5 0.114250 0.919362 0.563440
O O6 0.421021 0.190072 0.577281
O O7 0.000000 0.000000 0.500000
O O8 0.006277 0.908242 0.954688
O O9 0.795093 0.388787 0.785715
O O10 0.126703 0.464182 0.908220
O O11 0.741621 0.686012 0.389983
O O12 0.616880 0.757404 0.117208
O O13 0.553025 0.624469 0.921108
O O14 0.149395 0.338297 0.096610
O O15 0.313880 0.534090 0.523726
#
# Coordination Sequence:
#
# PCOD9068372 Si02
#       7
#     2   2   2   2   2   2   2
#     4  11  26  49  78 114 153 206 255 317 383 451
#     4  12  25  48  69 114 147 196 254 316 382 453
#     4  11  28  48  78 114 152 203 261 311 383 456
#     4  12  26  43  78 107 151 197 258 306 390 443
#     4  11  27  46  77 107 154 193 256 318 380 462
#     4  12  27  47  78 107 155 199 253 320 379 456
#     4  11  27  49  72 111 153 199 254 308 390 453
#
# _framework density 26.982987999999999
#
# number of rings (size 3 to 8) (size 9 to 14) (size 15 to 20)
#    0.000    0.571    2.857    2.571   12.000    2.857 
#    0.000    0.000    0.000    0.000    0.000    0.000 
#    0.000    0.000    0.000    0.000    0.000    0.000 
#
# Total GULP energy -78318.218514 kJ/mol
# GULP energy per Si atom -5594.158465 kJ/mol
# Density = 2.692157 g / cm^3
# Si number density = 26.982988 Si / 1000 Ang^3
#
#
#
# Elastic Constant Matrix: (Units=GPa)
#
#
# Indices 1 2 3 4 5 6 
#
# 1 156.6122 40.9168 32.8581 21.5919 35.2044 7.6252
# 2 40.9168 126.9403 24.1832 -6.9482 20.5199 -0.1809
# 3 32.8581 24.1832 119.1311 13.0683 29.4246 1.5734
# 4 21.5919 -6.9482 13.0683 29.7806 -4.0713 0.8612
# 5 35.2044 20.5199 29.4246 -4.0713 39.2524 4.9486
# 6 7.6252 -0.1809 1.5734 0.8612 4.9486 45.4401
#
#
#
# Elastic Compliance Matrix: (Units=1/GPa)
#
#
# Indices 1 2 3 4 5 6 
#
# 1 0.010427 -0.002538 0.001186 -0.010008 -0.009885 -0.000535
# 2 -0.002538 0.009402 -0.001414 0.004476 -0.001185 0.000556
# 3 0.001186 -0.001414 0.011638 -0.007671 -0.009922 0.000618
# 4 -0.010008 0.004476 -0.007671 0.047653 0.017435 -0.000839
# 5 -0.009885 -0.001185 -0.009922 0.017435 0.044609 -0.003191
# 6 -0.000535 0.000556 0.000618 -0.000839 -0.003191 0.022441
#
#
# Mechanical properties :
#
#
# Convention : Reuss Voigt Hill
#
# Bulk Modulus (GPa) = 38.55817 66.51110 52.53463
# Shear Modulus (GPa) = 31.18191 43.20964 37.19578
#
# Velocity S-wave (km/s) = 3.40312 4.00605 3.71683
# Velocity P-wave (km/s) = 5.45550 6.78975 6.15886
#
# Compressibility (1/GPa) = 0.02593484
#
# Stress axis : x y z
#
# Youngs Moduli (GPa) = 95.90243 106.35478 85.92430
#
# Poissons Ratio (x) = 0.26989 -0.10187
# Poissons Ratio (y) = 0.24336 0.12154
# Poissons Ratio (z) = -0.11369 0.15043
#
# Static dielectric constant tensor:
#      x y z
#    x 2.099980 -0.066670 -0.075250 
#    y -0.066670 2.241290 0.017520 
#    z -0.075250 0.017520 2.182530 
# 
# From -- ./inp_files/83081.got.cif
#   From: 2010.05.17/outbox.cif.g08.bks.cpg/sg2_42_cif.got.tgz:83081.got - 2010.06.03 11:33:40.
