data_PCOD9068151
_publ_section_title
;
Structure prediction by ZEFSAII (Michael W. Deem and Ramdas Pophale) SiO2 
 PCOD9068151
Probable space group: P -1
;
_chemical_formula_sum "Si O2"
_cell_formula_units_Z 12
_cell_length_a 6.721990
_cell_length_b 9.943211
_cell_length_c 15.806239
_cell_angle_alpha 35.214439
_cell_angle_beta 76.197605
_cell_angle_gamma 100.572144
_cell_volume 436.112194
_symmetry_space_group_name_H-M "P -1"
_symmetry_group_IT_number 2
_symmetry_cell_setting 'triclinic'
loop_
_space_group_symop_operation_xyz
x,y,z
-x,-y,-z
loop_
_atom_site_type_symbol
_atom_site_label
_atom_site_fract_x
_atom_site_fract_y
_atom_site_fract_z
Si Si1 0.889634 0.105617 0.391084
Si Si2 0.668030 0.386009 0.042707
Si Si3 0.237805 0.813492 0.187848
Si Si4 0.860555 0.754786 0.999773
Si Si5 0.655904 0.344759 0.391145
Si Si6 0.488832 0.232534 0.677940
O O1 0.718559 0.139273 0.453377
O O2 0.822518 0.545448 0.034731
O O3 0.000000 0.000000 0.500000
O O4 0.138058 0.435287 0.151495
O O5 0.818633 0.001364 0.132014
O O6 0.517585 0.016400 0.247627
O O7 0.500000 0.500000 0.000000
O O8 0.284609 0.642751 0.337553
O O9 0.924296 0.576077 0.305511
O O10 0.245135 0.068810 0.102767
O O11 0.500000 0.000000 0.000000
O O12 0.700507 0.558808 0.199895
O O13 0.322034 0.121267 0.547859
O O14 0.500000 0.500000 0.500000
#
# Coordination Sequence:
#
# PCOD9068151 Si02
#       6
#     2   2   2   2   2   2
#     4  11  26  49  81 123 164 220 286 350 420 510
#     4  12  25  54  87 119 171 220 281 358 426 505
#     4  12  26  51  83 118 173 223 284 356 423 509
#     4  12  26  50  82 119 164 224 283 350 434 500
#     4  11  26  47  80 123 159 223 287 342 429 505
#     4  12  29  53  83 124 168 225 282 352 434 506
#
# _framework density 27.515855999999999
#
# number of rings (size 3 to 8) (size 9 to 14) (size 15 to 20)
#    0.000    0.333    5.000    2.000    2.333    3.333 
#    6.000    0.000    0.000    0.000    0.000    0.000 
#    0.000    0.000    0.000    0.000    0.000    0.000 
#
# Total GULP energy -67130.783751 kJ/mol
# GULP energy per Si atom -5594.231979 kJ/mol
# Density = 2.745323 g / cm^3
# Si number density = 27.515856 Si / 1000 Ang^3
#
#
#
# Elastic Constant Matrix: (Units=GPa)
#
#
# Indices 1 2 3 4 5 6 
#
# 1 192.8824 72.9093 67.8591 -20.2479 41.2377 15.4899
# 2 72.9093 152.6270 36.5105 -29.6154 18.2594 7.7126
# 3 67.8591 36.5105 143.1109 -20.5229 28.5875 14.0404
# 4 -20.2479 -29.6154 -20.5229 36.2124 -3.2502 6.8548
# 5 41.2377 18.2594 28.5875 -3.2502 75.6172 -1.1593
# 6 15.4899 7.7126 14.0404 6.8548 -1.1593 62.8388
#
#
#
# Elastic Compliance Matrix: (Units=1/GPa)
#
#
# Indices 1 2 3 4 5 6 
#
# 1 0.007719 -0.002589 -0.002196 0.000946 -0.002733 -0.001248
# 2 -0.002589 0.009109 0.000014 0.006182 -0.000545 -0.001167
# 3 -0.002196 0.000014 0.009261 0.004222 -0.002156 -0.002030
# 4 0.000946 0.006182 0.004222 0.036529 -0.002126 -0.005959
# 5 -0.002733 -0.000545 -0.002156 -0.002126 0.015597 0.001742
# 6 -0.001248 -0.001167 -0.002030 -0.005959 0.001742 0.017500
#
#
# Mechanical properties :
#
#
# Convention : Reuss Voigt Hill
#
# Bulk Modulus (GPa) = 60.43392 93.68646 77.06019
# Shear Modulus (GPa) = 45.13690 55.68977 50.41333
#
# Velocity S-wave (km/s) = 4.05457 4.50368 4.28501
# Velocity P-wave (km/s) = 6.62800 7.82088 7.24902
#
# Compressibility (1/GPa) = 0.01654700
#
# Stress axis : x y z
#
# Youngs Moduli (GPa) = 129.54404 109.78139 107.98186
#
# Poissons Ratio (x) = 0.28419 0.23712
# Poissons Ratio (y) = 0.33535 -0.00146
# Poissons Ratio (z) = 0.28447 -0.00149
#
# Static dielectric constant tensor:
#      x y z
#    x 2.225190 0.135450 0.022720 
#    y 0.135450 2.404980 0.041440 
#    z 0.022720 0.041440 2.127090 
# 
# From -- ./inp_files/548530.got.cif
#   From: 2010.05.17/outbox.cif.g08.bks.cpg/sg2_275_cif.got.tgz:548530.got - 2010.06.03 11:33:40.
