data_PCOD9068272
_publ_section_title
;
Structure prediction by ZEFSAII (Michael W. Deem and Ramdas Pophale) SiO2 
 PCOD9068272
Probable space group: P -1
;
_chemical_formula_sum "Si O2"
_cell_formula_units_Z 16
_cell_length_a 11.526134
_cell_length_b 11.868841
_cell_length_c 11.912107
_cell_angle_alpha 75.626179
_cell_angle_beta 140.590903
_cell_angle_gamma 73.767295
_cell_volume 643.714441
_symmetry_space_group_name_H-M "P -1"
_symmetry_group_IT_number 2
_symmetry_cell_setting 'triclinic'
loop_
_space_group_symop_operation_xyz
x,y,z
-x,-y,-z
loop_
_atom_site_type_symbol
_atom_site_label
_atom_site_fract_x
_atom_site_fract_y
_atom_site_fract_z
Si Si1 0.759488 0.582116 0.887825
Si Si2 0.228174 0.042069 0.022638
Si Si3 0.317624 0.972122 0.362249
Si Si4 0.594475 0.451124 0.454091
Si Si5 0.485909 0.912353 0.913599
Si Si6 0.267622 0.782021 0.012481
Si Si7 0.853938 0.243296 0.322834
Si Si8 0.268793 0.437554 0.882855
O O1 0.493110 0.793958 0.609038
O O2 0.639197 0.513896 0.790710
O O3 0.863920 0.535924 0.104772
O O4 0.000000 0.500000 0.000000
O O5 0.906081 0.245644 0.728828
O O6 0.422637 0.058024 0.135283
O O7 0.293124 0.958103 0.214688
O O8 0.265670 0.921720 0.989939
O O9 0.500000 0.000000 0.500000
O O10 0.002799 0.129155 0.138567
O O11 0.500000 0.500000 0.500000
O O12 0.555504 0.593593 0.330229
O O13 0.681438 0.702091 0.119524
O O14 0.156721 0.040831 0.624404
O O15 0.500000 0.000000 0.000000
O O16 0.231663 0.749421 0.869573
O O17 0.871915 0.375605 0.314791
O O18 0.592399 0.324031 0.180704
#
# Coordination Sequence:
#
# PCOD9068272 Si02
#       8
#     2   2   2   2   2   2   2   2
#     4  12  26  43  73 107 145 187 239 301 356 429
#     4  12  27  44  68 108 147 193 241 303 366 442
#     4  12  24  43  68 102 149 193 248 295 360 438
#     4  12  25  43  69 105 145 190 238 293 367 422
#     4  12  29  47  74 106 147 188 242 306 368 431
#     4  12  23  45  72 102 143 193 242 299 364 434
#     4  11  26  48  79 103 139 194 244 297 371 432
#     4  11  26  49  75 108 139 187 252 298 356 440
#
# _framework density 24.855743
#
# number of rings (size 3 to 8) (size 9 to 14) (size 15 to 20)
#    0.000    0.250    3.750    5.250    5.250    1.500 
#    0.000    0.000    0.000    0.000    0.000    0.000 
#    0.000    0.000    0.000    0.000    0.000    0.000 
#
# Total GULP energy -89702.404171 kJ/mol
# GULP energy per Si atom -5606.400261 kJ/mol
# Density = 2.479917 g / cm^3
# Si number density = 24.855743 Si / 1000 Ang^3
#
#
#
# Elastic Constant Matrix: (Units=GPa)
#
#
# Indices 1 2 3 4 5 6 
#
# 1 90.9723 21.5662 -8.3042 9.8850 0.7863 0.6406
# 2 21.5662 156.9465 23.2865 -13.1249 -14.6129 1.7578
# 3 -8.3042 23.2865 56.4964 0.4090 -4.6740 6.3485
# 4 9.8850 -13.1249 0.4090 37.1672 6.4605 -12.9099
# 5 0.7863 -14.6129 -4.6740 6.4605 35.3330 2.1522
# 6 0.6406 1.7578 6.3485 -12.9099 2.1522 39.7022
#
#
#
# Elastic Compliance Matrix: (Units=1/GPa)
#
#
# Indices 1 2 3 4 5 6 
#
# 1 0.012458 -0.002570 0.003192 -0.005063 0.000145 -0.002252
# 2 -0.002570 0.007727 -0.003566 0.003551 0.002052 0.001313
# 3 0.003192 -0.003566 0.020382 -0.004349 0.002231 -0.004688
# 4 -0.005063 0.003551 -0.004349 0.034889 -0.006122 0.012297
# 5 0.000145 0.002052 0.002231 -0.006122 0.030813 -0.004111
# 6 -0.002252 0.001313 -0.004688 0.012297 -0.004111 0.030137
#
#
# Mechanical properties :
#
#
# Convention : Reuss Voigt Hill
#
# Bulk Modulus (GPa) = 28.83607 41.94581 35.39094
# Shear Modulus (GPa) = 32.49842 40.29829 36.39835
#
# Velocity S-wave (km/s) = 3.61983 4.03089 3.83088
# Velocity P-wave (km/s) = 5.39421 6.21099 5.81695
#
# Compressibility (1/GPa) = 0.03467879
#
# Stress axis : x y z
#
# Youngs Moduli (GPa) = 80.27073 129.41298 49.06246
#
# Poissons Ratio (x) = 0.33262 -0.15662
# Poissons Ratio (y) = 0.20631 0.17497
# Poissons Ratio (z) = -0.25624 0.46152
#
# Static dielectric constant tensor:
#      x y z
#    x 2.126320 -0.025610 -0.244230 
#    y -0.025610 2.119840 0.133520 
#    z -0.244230 0.133520 2.362540 
# 
# From -- ./inp_files/428245.got.cif
#   From: 2010.05.17/outbox.cif.g08.bks.cpg/sg2_215_cif.got.tgz:428245.got - 2010.06.03 11:33:40.
