data_PCOD9068837
_publ_section_title
;
Structure prediction by ZEFSAII (Michael W. Deem and Ramdas Pophale) SiO2 
 PCOD9068837
Probable space group: P -1
;
_chemical_formula_sum "Si O2"
_cell_formula_units_Z 10
_cell_length_a 8.967944
_cell_length_b 9.354106
_cell_length_c 9.038117
_cell_angle_alpha 61.205021
_cell_angle_beta 113.276959
_cell_angle_gamma 145.570870
_cell_volume 375.657071
_symmetry_space_group_name_H-M "P -1"
_symmetry_group_IT_number 2
_symmetry_cell_setting 'triclinic'
loop_
_space_group_symop_operation_xyz
x,y,z
-x,-y,-z
loop_
_atom_site_type_symbol
_atom_site_label
_atom_site_fract_x
_atom_site_fract_y
_atom_site_fract_z
Si Si1 0.950546 0.574838 0.303968
Si Si2 0.466175 0.135948 0.118610
Si Si3 0.378875 0.671441 0.239205
Si Si4 0.228369 0.205937 0.822658
Si Si5 0.917564 0.099470 0.338348
O O1 0.000000 0.500000 0.500000
O O2 0.689181 0.321692 0.236349
O O3 0.892486 0.714069 0.264756
O O4 0.228405 0.816719 0.202410
O O5 0.606179 0.232990 0.964419
O O6 0.319301 0.196768 0.016225
O O7 0.511370 0.597319 0.277167
O O8 0.091488 0.388422 0.311693
O O9 0.609849 0.901492 0.328555
O O10 0.057526 0.928449 0.812276
O O11 0.000000 0.000000 0.500000
#
# Coordination Sequence:
#
# PCOD9068837 Si02
#       5
#     2   2   2   2   2
#     4  12  21  31  47  74 100 128 157 196 234 275
#     4   9  20  34  48  66  99 132 159 191 228 289
#     4   8  18  28  50  69  93 124 159 183 240 281
#     4   8  21  29  53  68  98 127 165 180 241 283
#     4   9  16  29  47  76  96 111 154 212 238 260
#
# _framework density 26.620024000000001
#
# number of rings (size 3 to 8) (size 9 to 14) (size 15 to 20)
#    2.400    0.000    0.000    4.800    2.800    0.000 
#    0.000    0.000    0.000    0.000    0.000   19.600 
#    0.000    0.000    0.000    0.000    0.000    0.000 
#
# Total GULP energy -55831.792718 kJ/mol
# GULP energy per Si atom -5583.179272 kJ/mol
# Density = 2.655944 g / cm^3
# Si number density = 26.620024 Si / 1000 Ang^3
#
#
#
# Elastic Constant Matrix: (Units=GPa)
#
#
# Indices 1 2 3 4 5 6 
#
# 1 26.8268 12.0332 21.8176 10.8498 2.2762 -9.7934
# 2 12.0332 237.0884 99.3342 11.9360 15.3595 -11.4056
# 3 21.8176 99.3342 189.5807 20.8558 17.7444 4.4743
# 4 10.8498 11.9360 20.8558 43.9133 5.0543 7.4629
# 5 2.2762 15.3595 17.7444 5.0543 33.1080 -4.6969
# 6 -9.7934 -11.4056 4.4743 7.4629 -4.6969 31.2418
#
#
#
# Elastic Compliance Matrix: (Units=1/GPa)
#
#
# Indices 1 2 3 4 5 6 
#
# 1 0.056616 0.001512 -0.006564 -0.015858 0.004713 0.023736
# 2 0.001512 0.005653 -0.003060 -0.000929 -0.000501 0.003123
# 3 -0.006564 -0.003060 0.008058 -0.000212 -0.003088 -0.004743
# 4 -0.015858 -0.000929 -0.000212 0.029824 -0.004780 -0.013123
# 5 0.004713 -0.000501 -0.003088 -0.004780 0.033623 0.007933
# 6 0.023736 0.003123 -0.004743 -0.013123 0.007933 0.045596
#
#
# Mechanical properties :
#
#
# Convention : Reuss Voigt Hill
#
# Bulk Modulus (GPa) = 18.48416 79.98511 49.23463
# Shear Modulus (GPa) = 23.40514 43.00669 33.20591
#
# Velocity S-wave (km/s) = 2.96840 4.02378 3.53569
# Velocity P-wave (km/s) = 4.32519 7.19027 5.93327
#
# Compressibility (1/GPa) = 0.05410037
#
# Stress axis : x y z
#
# Youngs Moduli (GPa) = 17.66297 176.90263 124.09883
#
# Poissons Ratio (x) = -0.26743 0.81464
# Poissons Ratio (y) = -0.02670 0.37979
# Poissons Ratio (z) = 0.11595 0.54139
#
# Static dielectric constant tensor:
#      x y z
#    x 2.383490 -0.002190 0.050240 
#    y -0.002190 2.155810 -0.009440 
#    z 0.050240 -0.009440 2.048530 
# 
# From -- ./inp_files/438.got.cif
#   From: 2010.05.17/outbox.cif.g08.bks.cpg/sg2_1_cif.got.tgz:438.got - 2010.06.03 11:33:40.
