data_PCOD9068303
_publ_section_title
;
Structure prediction by ZEFSAII (Michael W. Deem and Ramdas Pophale) SiO2 
 PCOD9068303
Probable space group: P -1
;
_chemical_formula_sum "Si O2"
_cell_formula_units_Z 16
_cell_length_a 9.536884
_cell_length_b 11.582105
_cell_length_c 14.980014
_cell_angle_alpha 47.524317
_cell_angle_beta 125.069206
_cell_angle_gamma 141.765735
_cell_volume 751.745259
_symmetry_space_group_name_H-M "P -1"
_symmetry_group_IT_number 2
_symmetry_cell_setting 'triclinic'
loop_
_space_group_symop_operation_xyz
x,y,z
-x,-y,-z
loop_
_atom_site_type_symbol
_atom_site_label
_atom_site_fract_x
_atom_site_fract_y
_atom_site_fract_z
Si Si1 0.095687 0.565018 0.784298
Si Si2 0.096552 0.880883 0.111627
Si Si3 0.209827 0.522253 0.534229
Si Si4 0.533041 0.189961 0.365919
Si Si5 0.634045 0.424405 0.620626
Si Si6 0.394933 0.798988 0.943967
Si Si7 0.032756 0.905754 0.272270
Si Si8 0.370072 0.122711 0.844186
O O1 0.286382 0.707181 0.702681
O O2 0.206485 0.651379 0.877709
O O3 0.011251 0.333486 0.866004
O O4 0.885584 0.557508 0.689275
O O5 0.047667 0.822589 0.228280
O O6 0.363767 0.041046 0.102895
O O7 0.000000 0.000000 0.000000
O O8 0.384764 0.640322 0.617084
O O9 0.324867 0.643404 0.421477
O O10 0.097833 0.284696 0.606403
O O11 0.000000 0.500000 0.500000
O O12 0.500000 0.000000 0.500000
O O13 0.287824 0.094919 0.292586
O O14 0.500000 0.500000 0.500000
O O15 0.469475 0.251663 0.722924
O O16 0.340716 0.924373 0.912369
O O17 0.461147 0.730670 0.088746
O O18 0.874668 0.959466 0.176249
#
# Coordination Sequence:
#
# PCOD9068303 Si02
#       8
#     2   2   2   2   2   2   2   2
#     4  12  26  46  76 109 143 190 251 299 361 435
#     4  12  24  46  75 104 143 190 243 308 356 415
#     4  12  23  43  68 100 143 187 233 291 358 420
#     4  12  25  39  71 108 139 187 237 294 359 431
#     4  12  25  45  72 104 147 191 234 298 367 433
#     4  11  26  50  74 101 143 197 243 300 360 428
#     4  12  23  45  69 104 144 182 240 298 353 429
#     4  11  26  49  70 101 151 191 236 301 368 427
#
# _framework density 21.283805000000001
#
# number of rings (size 3 to 8) (size 9 to 14) (size 15 to 20)
#    0.000    0.250    8.750    0.000    1.750    2.000 
#    2.250    1.250    0.000    0.000    0.000    0.000 
#    0.000    0.000    0.000    0.000    0.000    0.000 
#
# Total GULP energy -89287.041684 kJ/mol
# GULP energy per Si atom -5580.440105 kJ/mol
# Density = 2.123536 g / cm^3
# Si number density = 21.283805 Si / 1000 Ang^3
#
#
#
# Elastic Constant Matrix: (Units=GPa)
#
#
# Indices 1 2 3 4 5 6 
#
# 1 127.2323 35.0678 34.9275 21.1949 9.7619 5.9219
# 2 35.0678 112.2059 40.4754 35.0707 13.0035 -5.2183
# 3 34.9275 40.4754 93.9839 19.9306 8.3776 -4.6885
# 4 21.1949 35.0707 19.9306 45.5829 5.4427 -8.8167
# 5 9.7619 13.0035 8.3776 5.4427 48.4563 9.5926
# 6 5.9219 -5.2183 -4.6885 -8.8167 9.5926 23.0249
#
#
#
# Elastic Compliance Matrix: (Units=1/GPa)
#
#
# Indices 1 2 3 4 5 6 
#
# 1 0.009678 -0.001297 -0.002584 -0.003281 0.000128 -0.004619
# 2 -0.001297 0.013201 -0.003362 -0.007764 -0.001921 0.000468
# 3 -0.002584 -0.003362 0.013613 -0.001500 -0.001284 0.002635
# 4 -0.003281 -0.007764 -0.001500 0.032940 -0.003216 0.012732
# 5 0.000128 -0.001921 -0.001284 -0.003216 0.024085 -0.011995
# 6 -0.004619 0.000468 0.002635 0.012732 -0.011995 0.055135
#
#
# Mechanical properties :
#
#
# Convention : Reuss Voigt Hill
#
# Bulk Modulus (GPa) = 45.44322 61.59597 53.51959
# Shear Modulus (GPa) = 29.33006 38.27625 33.80315
#
# Velocity S-wave (km/s) = 3.71623 4.24532 3.98956
# Velocity P-wave (km/s) = 6.30962 7.28241 6.81340
#
# Compressibility (1/GPa) = 0.02200548
#
# Stress axis : x y z
#
# Youngs Moduli (GPa) = 103.32456 75.74970 73.46088
#
# Poissons Ratio (x) = 0.09821 0.18985
# Poissons Ratio (y) = 0.13397 0.24701
# Poissons Ratio (z) = 0.26703 0.25471
#
# Static dielectric constant tensor:
#      x y z
#    x 1.828340 -0.064430 0.067300 
#    y -0.064430 1.820830 -0.017030 
#    z 0.067300 -0.017030 1.890010 
# 
# From -- ./inp_files/446624.got.cif
#   From: 2010.05.17/outbox.cif.g08.bks.cpg/sg2_224_cif.got.tgz:446624.got - 2010.06.03 11:33:40.
