data_PCOD9068818
_publ_section_title
;
Structure prediction by ZEFSAII (Michael W. Deem and Ramdas Pophale) SiO2 
 PCOD9068818
Probable space group: P -1
;
_chemical_formula_sum "Si O2"
_cell_formula_units_Z 16
_cell_length_a 8.192494
_cell_length_b 11.612484
_cell_length_c 14.912596
_cell_angle_alpha 129.838716
_cell_angle_beta 50.018936
_cell_angle_gamma 139.171605
_cell_volume 676.123788
_symmetry_space_group_name_H-M "P -1"
_symmetry_group_IT_number 2
_symmetry_cell_setting 'triclinic'
loop_
_space_group_symop_operation_xyz
x,y,z
-x,-y,-z
loop_
_atom_site_type_symbol
_atom_site_label
_atom_site_fract_x
_atom_site_fract_y
_atom_site_fract_z
Si Si1 0.238806 0.684004 0.120800
Si Si2 0.884119 0.365789 0.667489
Si Si3 0.772743 0.652272 0.035053
Si Si4 0.402867 0.808334 0.489996
Si Si5 0.323753 0.764748 0.697225
Si Si6 0.859317 0.847380 0.552945
Si Si7 0.346606 0.995393 0.962851
Si Si8 0.144150 0.194998 0.728259
O O1 0.302610 0.727933 0.226782
O O2 0.030605 0.731843 0.198203
O O3 0.494524 0.792412 0.019928
O O4 0.115991 0.468774 0.044154
O O5 0.794532 0.343570 0.586313
O O6 0.056000 0.582029 0.732895
O O7 0.047235 0.280330 0.560775
O O8 0.724134 0.714953 0.177939
O O9 0.500000 0.500000 0.000000
O O10 0.028971 0.853973 0.010876
O O11 0.309506 0.812358 0.623532
O O12 0.620023 0.766421 0.398019
O O13 0.500000 0.000000 0.500000
O O14 0.549550 0.733615 0.603827
O O15 0.410622 0.920719 0.816515
O O16 0.000000 0.000000 0.500000
O O17 0.956780 0.970484 0.671698
O O18 0.500000 0.000000 0.000000
#
# Coordination Sequence:
#
# PCOD9068818 Si02
#       8
#     2   2   2   2   2   2   2   2
#     4  12  24  48  79 102 150 195 250 303 366 431
#     4  12  24  42  70 106 152 190 238 308 369 439
#     4  12  28  50  75 111 149 193 249 311 370 437
#     4  12  24  44  70 105 149 192 234 298 379 436
#     4  12  24  42  69 107 145 187 248 301 365 447
#     4  12  20  42  67 105 138 191 243 293 362 442
#     4  12  25  47  78 109 144 196 257 301 364 447
#     4  12  24  43  76 104 145 195 246 296 366 440
#
# _framework density 23.664304999999999
#
# number of rings (size 3 to 8) (size 9 to 14) (size 15 to 20)
#    0.000    0.000    7.500    2.625    0.000    0.500 
#    0.000    1.250    0.000    0.000    0.000    0.000 
#    0.000    0.000    0.000    0.000    0.000    0.000 
#
# Total GULP energy -89204.504529 kJ/mol
# GULP energy per Si atom -5575.281533 kJ/mol
# Density = 2.361044 g / cm^3
# Si number density = 23.664305 Si / 1000 Ang^3
#
#
#
# Elastic Constant Matrix: (Units=GPa)
#
#
# Indices 1 2 3 4 5 6 
#
# 1 84.0934 19.3749 15.8900 -11.0136 31.4431 7.8936
# 2 19.3749 96.5834 15.3407 -13.3856 22.4047 0.2359
# 3 15.8900 15.3407 106.9346 -7.8726 39.5808 -11.9187
# 4 -11.0136 -13.3856 -7.8726 39.0132 1.7040 -1.5467
# 5 31.4431 22.4047 39.5808 1.7040 52.0201 10.5442
# 6 7.8936 0.2359 -11.9187 -1.5467 10.5442 26.8615
#
#
#
# Elastic Compliance Matrix: (Units=1/GPa)
#
#
# Indices 1 2 3 4 5 6 
#
# 1 0.016788 -0.000012 0.002931 0.005962 -0.012929 0.001786
# 2 -0.000012 0.012602 0.001996 0.005238 -0.007963 0.004206
# 3 0.002931 0.001996 0.018133 0.006640 -0.019747 0.015301
# 4 0.005962 0.005238 0.006640 0.031377 -0.013623 0.008302
# 5 -0.012929 -0.007963 -0.019747 -0.013623 0.051160 -0.025759
# 6 0.001786 0.004206 0.015301 0.008302 -0.025759 0.054045
#
#
# Mechanical properties :
#
#
# Convention : Reuss Voigt Hill
#
# Bulk Modulus (GPa) = 17.43622 43.20253 30.31937
# Shear Modulus (GPa) = 25.85397 39.37933 32.61665
#
# Velocity S-wave (km/s) = 3.30893 4.08374 3.71658
# Velocity P-wave (km/s) = 4.68859 6.36647 5.59083
#
# Compressibility (1/GPa) = 0.05735189
#
# Stress axis : x y z
#
# Youngs Moduli (GPa) = 59.56571 79.35289 55.14775
#
# Poissons Ratio (x) = 0.00095 -0.16163
# Poissons Ratio (y) = 0.00072 -0.11005
# Poissons Ratio (z) = -0.17457 -0.15836
#
# Static dielectric constant tensor:
#      x y z
#    x 1.991550 0.039410 0.082500 
#    y 0.039410 1.961090 0.030810 
#    z 0.082500 0.030810 1.817310 
# 
# From -- ./inp_files/500796.got.cif
#   From: 2010.05.17/outbox.cif.g08.bks.cpg/sg2_251_cif.got.tgz:500796.got - 2010.06.03 11:33:40.
