data_PCOD9068465
_publ_section_title
;
Structure prediction by ZEFSAII (Michael W. Deem and Ramdas Pophale) SiO2 
 PCOD9068465
Probable space group: P -1
;
_chemical_formula_sum "Si O2"
_cell_formula_units_Z 10
_cell_length_a 13.414236
_cell_length_b 7.298086
_cell_length_c 4.883016
_cell_angle_alpha 113.390079
_cell_angle_beta 62.025958
_cell_angle_gamma 116.675033
_cell_volume 366.574911
_symmetry_space_group_name_H-M "P -1"
_symmetry_group_IT_number 2
_symmetry_cell_setting 'triclinic'
loop_
_space_group_symop_operation_xyz
x,y,z
-x,-y,-z
loop_
_atom_site_type_symbol
_atom_site_label
_atom_site_fract_x
_atom_site_fract_y
_atom_site_fract_z
Si Si1 0.226621 0.925243 0.073731
Si Si2 0.368773 0.161830 0.510840
Si Si3 0.410903 0.568794 0.353585
Si Si4 0.169074 0.578718 0.556911
Si Si5 0.015785 0.849638 0.646034
O O1 0.107239 0.967483 0.357311
O O2 0.325834 0.999139 0.223010
O O3 0.186318 0.677417 0.901197
O O4 0.284260 0.066089 0.819769
O O5 0.357860 0.378175 0.524324
O O6 0.504966 0.227782 0.474684
O O7 0.305995 0.605062 0.336221
O O8 0.500000 0.500000 0.000000
O O9 0.099232 0.721767 0.597277
O O10 0.092657 0.341875 0.447621
O O11 0.000000 0.000000 0.000000
#
# Coordination Sequence:
#
# PCOD9068465 Si02
#       5
#     2   2   2   2   2
#     4  12  25  55  80 123 164 220 278 342 409 501
#     4  11  26  50  83 121 165 221 267 339 423 481
#     4  11  26  51  84 124 172 215 278 344 411 505
#     4  11  28  53  85 127 166 221 284 337 419 494
#     4  11  28  55  90 122 170 223 279 350 411 491
#
# _framework density 27.279554999999998
#
# number of rings (size 3 to 8) (size 9 to 14) (size 15 to 20)
#    0.000    0.800    4.000    0.600    5.600    5.600 
#    3.600    1.000    0.000    0.000    0.000    0.000 
#    0.000    0.000    0.000    0.000    0.000    0.000 
#
# Total GULP energy -56044.660159 kJ/mol
# GULP energy per Si atom -5604.466016 kJ/mol
# Density = 2.721747 g / cm^3
# Si number density = 27.279555 Si / 1000 Ang^3
#
#
#
# Elastic Constant Matrix: (Units=GPa)
#
#
# Indices 1 2 3 4 5 6 
#
# 1 561.0469 230.2513 82.4968 91.2326 -48.3584 -36.9902
# 2 230.2513 249.3113 109.0979 41.6767 -0.8077 -10.1662
# 3 82.4968 109.0979 225.0902 11.1213 8.5697 15.1615
# 4 91.2326 41.6767 11.1213 67.2088 -9.1830 3.6186
# 5 -48.3584 -0.8077 8.5697 -9.1830 70.8447 29.2866
# 6 -36.9902 -10.1662 15.1615 3.6186 29.2866 88.8864
#
#
#
# Elastic Compliance Matrix: (Units=1/GPa)
#
#
# Indices 1 2 3 4 5 6 
#
# 1 0.003618 -0.002851 0.000087 -0.002957 0.001750 0.000708
# 2 -0.002851 0.008067 -0.002801 -0.000996 -0.002025 0.000922
# 3 0.000087 -0.002801 0.005822 0.000717 -0.000050 -0.001290
# 4 -0.002957 -0.000996 0.000717 0.019761 0.001602 -0.002799
# 5 0.001750 -0.002025 -0.000050 0.001602 0.017734 -0.005403
# 6 0.000708 0.000922 -0.001290 -0.002799 -0.005403 0.013765
#
#
# Mechanical properties :
#
#
# Convention : Reuss Voigt Hill
#
# Bulk Modulus (GPa) = 156.78989 208.79338 182.79164
# Shear Modulus (GPa) = 60.96049 86.29481 73.62765
#
# Velocity S-wave (km/s) = 4.73235 5.63047 5.20083
# Velocity P-wave (km/s) = 9.35201 10.90753 10.15958
#
# Compressibility (1/GPa) = 0.00637796
#
# Stress axis : x y z
#
# Youngs Moduli (GPa) = 276.41318 123.96297 171.77685
#
# Poissons Ratio (x) = 0.35338 -0.01503
# Poissons Ratio (y) = 0.78796 0.48114
# Poissons Ratio (z) = -0.02418 0.34721
#
# Static dielectric constant tensor:
#      x y z
#    x 2.327510 -0.159510 0.033520 
#    y -0.159510 2.197720 -0.038650 
#    z 0.033520 -0.038650 2.179100 
# 
# From -- ./inp_files/89424.got.cif
#   From: 2010.05.17/outbox.cif.g08.bks.cpg/sg2_45_cif.got.tgz:89424.got - 2010.06.03 11:33:40.
