data_PCOD9068477
_publ_section_title
;
Structure prediction by ZEFSAII (Michael W. Deem and Ramdas Pophale) SiO2 
 PCOD9068477
Probable space group: P -1
;
_chemical_formula_sum "Si O2"
_cell_formula_units_Z 11
_cell_length_a 15.519455
_cell_length_b 4.929679
_cell_length_c 8.250591
_cell_angle_alpha 61.932211
_cell_angle_beta 44.405924
_cell_angle_gamma 71.023910
_cell_volume 389.679887
_symmetry_space_group_name_H-M "P -1"
_symmetry_group_IT_number 2
_symmetry_cell_setting 'triclinic'
loop_
_space_group_symop_operation_xyz
x,y,z
-x,-y,-z
loop_
_atom_site_type_symbol
_atom_site_label
_atom_site_fract_x
_atom_site_fract_y
_atom_site_fract_z
Si Si1 0.679509 0.670172 0.468956
Si Si2 0.198732 0.337151 0.340192
Si Si3 0.500000 0.000000 0.500000
Si Si4 0.547681 0.756438 0.137389
Si Si5 0.114679 0.574318 0.944421
Si Si6 0.063889 0.920978 0.230554
O O1 0.734693 0.673979 0.570995
O O2 0.653663 0.993405 0.330288
O O3 0.533509 0.560955 0.685194
O O4 0.761234 0.438753 0.322344
O O5 0.130422 0.657531 0.315337
O O6 0.084381 0.098534 0.557956
O O7 0.311645 0.296099 0.078830
O O8 0.523985 0.866476 0.317824
O O9 0.500000 0.000000 0.000000
O O10 0.093196 0.843257 0.024173
O O11 0.000000 0.500000 0.000000
O O12 0.110512 0.249661 0.135429
#
# Coordination Sequence:
#
# PCOD9068477 Si02
#       6
#     2   2   1   2   2   2
#     4  12  28  47  79 113 158 209 266 336 405 479
#     4  11  26  51  76 115 158 211 273 331 405 480
#     4  12  28  50  76 116 156 210 260 328 410 478
#     4  12  28  49  81 114 159 210 265 337 403 486
#     4  12  27  49  80 114 162 210 273 331 404 481
#     4  11  28  50  80 116 158 218 265 336 402 482
#
# _framework density 28.228296
#
# number of rings (size 3 to 8) (size 9 to 14) (size 15 to 20)
#    0.000    0.364    3.636    2.727    7.636    4.364 
#    0.000    0.000    0.000    0.000    0.000    0.000 
#    0.000    0.000    0.000    0.000    0.000    0.000 
#
# Total GULP energy -61602.997926 kJ/mol
# GULP energy per Si atom -5600.272539 kJ/mol
# Density = 2.816405 g / cm^3
# Si number density = 28.228296 Si / 1000 Ang^3
#
#
#
# Elastic Constant Matrix: (Units=GPa)
#
#
# Indices 1 2 3 4 5 6 
#
# 1 227.8078 44.4864 53.7596 23.2100 -7.2744 -20.9158
# 2 44.4864 122.6387 55.5990 31.4601 -10.5877 7.2048
# 3 53.7596 55.5990 143.5855 33.8081 -33.2954 11.2375
# 4 23.2100 31.4601 33.8081 58.4629 -4.1011 1.1790
# 5 -7.2744 -10.5877 -33.2954 -4.1011 60.6473 11.3710
# 6 -20.9158 7.2048 11.2375 1.1790 11.3710 52.2839
#
#
#
# Elastic Compliance Matrix: (Units=1/GPa)
#
#
# Indices 1 2 3 4 5 6 
#
# 1 0.005376 -0.001225 -0.001944 -0.000499 -0.001236 0.003017
# 2 -0.001225 0.010894 -0.002700 -0.003767 0.000278 -0.001386
# 3 -0.001944 -0.002700 0.011360 -0.003839 0.006036 -0.004073
# 4 -0.000499 -0.003767 -0.003839 0.021420 -0.001565 0.001002
# 5 -0.001236 0.000278 0.006036 -0.001565 0.020781 -0.006314
# 6 0.003017 -0.001386 -0.004073 0.001002 -0.006314 0.022751
#
#
# Mechanical properties :
#
#
# Convention : Reuss Voigt Hill
#
# Bulk Modulus (GPa) = 62.91878 89.08023 75.99951
# Shear Modulus (GPa) = 45.61329 56.95794 51.28561
#
# Velocity S-wave (km/s) = 4.02415 4.49682 4.26704
# Velocity P-wave (km/s) = 6.62792 7.65424 7.15950
#
# Compressibility (1/GPa) = 0.01589351
#
# Stress axis : x y z
#
# Youngs Moduli (GPa) = 186.01484 91.79187 88.02654
#
# Poissons Ratio (x) = 0.11243 0.17110
# Poissons Ratio (y) = 0.22785 0.23765
# Poissons Ratio (z) = 0.36156 0.24782
#
# Static dielectric constant tensor:
#      x y z
#    x 2.117640 0.060470 -0.050220 
#    y 0.060470 1.696280 0.123320 
#    z -0.050220 0.123320 2.151520 
# 
# From -- ./inp_files/25478.got.cif
#   From: 2010.05.17/outbox.cif.g08.bks.cpg/sg2_13_cif.got.tgz:25478.got - 2010.06.03 11:33:40.
