data_PCOD9068690
_publ_section_title
;
Structure prediction by ZEFSAII (Michael W. Deem and Ramdas Pophale) SiO2 
 PCOD9068690
Probable space group: P -1
;
_chemical_formula_sum "Si O2"
_cell_formula_units_Z 16
_cell_length_a 12.057517
_cell_length_b 20.757865
_cell_length_c 15.094009
_cell_angle_alpha 20.753447
_cell_angle_beta 152.352036
_cell_angle_gamma 148.416254
_cell_volume 614.797359
_symmetry_space_group_name_H-M "P -1"
_symmetry_group_IT_number 2
_symmetry_cell_setting 'triclinic'
loop_
_space_group_symop_operation_xyz
x,y,z
-x,-y,-z
loop_
_atom_site_type_symbol
_atom_site_label
_atom_site_fract_x
_atom_site_fract_y
_atom_site_fract_z
Si Si1 0.997962 0.291268 0.464638
Si Si2 0.777074 0.996032 0.914697
Si Si3 0.527363 0.313860 0.625475
Si Si4 0.269820 0.617068 0.127580
Si Si5 0.218115 0.643049 0.427460
Si Si6 0.295804 0.049468 0.402174
Si Si7 0.036002 0.074533 0.528771
Si Si8 0.545629 0.417441 0.044942
O O1 0.820584 0.382960 0.284016
O O2 0.095545 0.444902 0.266924
O O3 0.388450 0.711775 0.180475
O O4 0.823842 0.122795 0.516007
O O5 0.794931 0.163890 0.780995
O O6 0.537117 0.008257 0.674215
O O7 0.790305 0.805721 0.218989
O O8 0.000000 0.000000 0.000000
O O9 0.426355 0.509249 0.311099
O O10 0.740720 0.331199 0.681720
O O11 0.308907 0.156311 0.644005
O O12 0.121256 0.757732 0.794863
O O13 0.000000 0.500000 0.500000
O O14 0.462754 0.558675 0.735069
O O15 0.371065 0.223356 0.169089
O O16 0.099400 0.072613 0.309048
O O17 0.000000 0.000000 0.500000
O O18 0.500000 0.500000 0.000000
#
# Coordination Sequence:
#
# PCOD9068690 Si02
#       8
#     2   2   2   2   2   2   2   2
#     4  12  27  48  78 108 152 201 262 309 386 463
#     4  12  27  48  72 115 153 200 250 319 392 461
#     4  11  27  53  75 112 154 202 268 315 394 464
#     4  11  28  50  80 110 150 216 258 324 383 469
#     4  12  28  47  80 112 153 198 258 329 390 463
#     4  12  27  46  76 109 154 200 257 314 385 463
#     4  12  28  48  78 112 155 205 257 322 386 463
#     4  12  26  48  74 112 154 202 252 320 392 465
#
# _framework density 26.024834999999999
#
# number of rings (size 3 to 8) (size 9 to 14) (size 15 to 20)
#    0.000    0.250    3.750    3.000   12.250    1.500 
#    0.000    0.000    0.000    0.000    0.000    0.000 
#    0.000    0.000    0.000    0.000    0.000    0.000 
#
# Total GULP energy -89735.466988 kJ/mol
# GULP energy per Si atom -5608.466687 kJ/mol
# Density = 2.596560 g / cm^3
# Si number density = 26.024835 Si / 1000 Ang^3
#
#
#
# Elastic Constant Matrix: (Units=GPa)
#
#
# Indices 1 2 3 4 5 6 
#
# 1 169.2797 39.1134 28.2254 0.5222 31.2116 10.7001
# 2 39.1134 135.5323 18.3430 -0.8432 18.9434 -5.0470
# 3 28.2254 18.3430 158.4873 14.7426 11.6245 10.8400
# 4 0.5222 -0.8432 14.7426 34.1866 -4.2015 -12.0499
# 5 31.2116 18.9434 11.6245 -4.2015 29.4868 -2.2435
# 6 10.7001 -5.0470 10.8400 -12.0499 -2.2435 44.8133
#
#
#
# Elastic Compliance Matrix: (Units=1/GPa)
#
#
# Indices 1 2 3 4 5 6 
#
# 1 0.007901 -0.001249 -0.000292 -0.002025 -0.007954 -0.002899
# 2 -0.001249 0.008386 -0.000622 0.000523 -0.003642 0.001351
# 3 -0.000292 -0.000622 0.007310 -0.004661 -0.003079 -0.003176
# 4 -0.002025 0.000523 -0.004661 0.036754 0.009798 0.012043
# 5 -0.007954 -0.003642 -0.003079 0.009798 0.047836 0.007263
# 6 -0.002899 0.001351 -0.003176 0.012043 0.007263 0.027529
#
#
# Mechanical properties :
#
#
# Convention : Reuss Voigt Hill
#
# Bulk Modulus (GPa) = 51.89541 70.51810 61.20675
# Shear Modulus (GPa) = 34.13740 46.87183 40.50462
#
# Velocity S-wave (km/s) = 3.62570 4.24847 3.94938
# Velocity P-wave (km/s) = 6.12467 7.15691 6.66082
#
# Compressibility (1/GPa) = 0.01926953
#
# Stress axis : x y z
#
# Youngs Moduli (GPa) = 126.56764 119.25043 136.79242
#
# Poissons Ratio (x) = 0.14898 0.04000
# Poissons Ratio (y) = 0.15813 0.08508
# Poissons Ratio (z) = 0.03701 0.07417
#
# Static dielectric constant tensor:
#      x y z
#    x 2.019700 0.016660 0.000670 
#    y 0.016660 2.051110 -0.026130 
#    z 0.000670 -0.026130 1.706540 
# 
# From -- ./inp_files/571037.got.cif
#   From: 2010.05.17/outbox.cif.g08.bks.cpg/sg2_286_cif.got.tgz:571037.got - 2010.06.03 11:33:40.
