data_PCOD9068777
_publ_section_title
;
Structure prediction by ZEFSAII (Michael W. Deem and Ramdas Pophale) SiO2 
 PCOD9068777
Probable space group: P -1
;
_chemical_formula_sum "Si O2"
_cell_formula_units_Z 16
_cell_length_a 13.090394
_cell_length_b 9.131251
_cell_length_c 27.451339
_cell_angle_alpha 150.616074
_cell_angle_beta 151.821440
_cell_angle_gamma 41.487186
_cell_volume 757.723124
_symmetry_space_group_name_H-M "P -1"
_symmetry_group_IT_number 2
_symmetry_cell_setting 'triclinic'
loop_
_space_group_symop_operation_xyz
x,y,z
-x,-y,-z
loop_
_atom_site_type_symbol
_atom_site_label
_atom_site_fract_x
_atom_site_fract_y
_atom_site_fract_z
Si Si1 0.593788 0.165145 0.634594
Si Si2 0.991243 0.131528 0.265655
Si Si3 0.181300 0.770206 0.500939
Si Si4 0.890052 0.169478 0.341340
Si Si5 0.415892 0.141570 0.166816
Si Si6 0.668821 0.888930 0.770389
Si Si7 0.751383 0.234955 0.584114
Si Si8 0.044776 0.159305 0.935931
O O1 0.541951 0.501037 0.707463
O O2 0.500000 0.000000 0.500000
O O3 0.844900 0.122587 0.729568
O O4 0.469267 0.985055 0.573580
O O5 0.123819 0.456784 0.413063
O O6 0.851177 0.156633 0.262834
O O7 0.910803 0.035743 0.150286
O O8 0.418092 0.908427 0.656203
O O9 0.184832 0.693057 0.423218
O O10 0.000000 0.000000 0.500000
O O11 0.660269 0.056525 0.236096
O O12 0.000000 0.500000 0.500000
O O13 0.067474 0.945166 0.366326
O O14 0.312171 0.015258 0.137199
O O15 0.247279 0.113142 0.043292
O O16 0.711046 0.538547 0.682614
O O17 0.833812 0.049669 0.847751
O O18 0.000000 0.500000 0.000000
#
# Coordination Sequence:
#
# PCOD9068777 Si02
#       8
#     2   2   2   2   2   2   2   2
#     4  12  19  37  70 101 127 169 227 286 336 396
#     4  12  23  44  67 103 141 177 227 279 348 414
#     4  12  25  40  69 107 140 169 219 294 360 400
#     4  12  24  41  70 106 141 176 220 286 356 407
#     4  12  25  44  68 101 138 181 235 278 339 414
#     4  12  24  47  70  98 135 181 235 286 334 406
#     4  12  22  38  68 103 134 174 221 286 352 401
#     4  12  28  46  72  97 133 190 241 282 331 411
#
# _framework density 21.115893
#
# number of rings (size 3 to 8) (size 9 to 14) (size 15 to 20)
#    0.000    0.000    7.500    3.750    0.000    0.500 
#    0.000    0.625    0.000    0.000    0.000    0.000 
#    0.000    0.000    0.000    0.000    0.000    0.000 
#
# Total GULP energy -89390.674731 kJ/mol
# GULP energy per Si atom -5586.917171 kJ/mol
# Density = 2.106783 g / cm^3
# Si number density = 21.115893 Si / 1000 Ang^3
#
#
#
# Elastic Constant Matrix: (Units=GPa)
#
#
# Indices 1 2 3 4 5 6 
#
# 1 136.6035 15.8908 30.0468 -6.1631 -11.4218 3.8715
# 2 15.8908 82.1864 18.5316 -15.8660 4.6419 -11.4696
# 3 30.0468 18.5316 70.8031 -19.4244 -13.8621 0.2602
# 4 -6.1631 -15.8660 -19.4244 33.7246 15.2254 4.5451
# 5 -11.4218 4.6419 -13.8621 15.2254 40.9067 -3.1787
# 6 3.8715 -11.4696 0.2602 4.5451 -3.1787 34.5034
#
#
#
# Elastic Compliance Matrix: (Units=1/GPa)
#
#
# Indices 1 2 3 4 5 6 
#
# 1 0.008319 -0.001474 -0.003248 -0.001809 0.001987 -0.000977
# 2 -0.001474 0.015273 -0.002399 0.007487 -0.005451 0.003772
# 3 -0.003248 -0.002399 0.018888 0.008165 0.002617 -0.001410
# 4 -0.001809 0.007487 0.008165 0.045344 -0.015838 -0.004802
# 5 0.001987 -0.005451 0.002617 -0.015838 0.032637 0.003038
# 6 -0.000977 0.003772 -0.001410 -0.004802 0.003038 0.031269
#
#
# Mechanical properties :
#
#
# Convention : Reuss Voigt Hill
#
# Bulk Modulus (GPa) = 35.41485 46.50348 40.95916
# Shear Modulus (GPa) = 28.50891 36.83520 32.67205
#
# Velocity S-wave (km/s) = 3.67838 4.18117 3.93781
# Velocity P-wave (km/s) = 5.90328 6.73649 6.33360
#
# Compressibility (1/GPa) = 0.02823674
#
# Stress axis : x y z
#
# Youngs Moduli (GPa) = 120.21315 65.47500 52.94465
#
# Poissons Ratio (x) = 0.09650 0.17198
# Poissons Ratio (y) = 0.17718 0.12702
# Poissons Ratio (z) = 0.39048 0.15708
#
# Static dielectric constant tensor:
#      x y z
#    x 1.845280 0.024790 0.003720 
#    y 0.024790 1.688550 -0.007460 
#    z 0.003720 -0.007460 1.784130 
# 
# From -- ./inp_files/223817.got.cif
#   From: 2010.05.17/outbox.cif.g08.bks.cpg/sg2_112_cif.got.tgz:223817.got - 2010.06.03 11:33:40.
