data_PCOD9068759
_publ_section_title
;
Structure prediction by ZEFSAII (Michael W. Deem and Ramdas Pophale) SiO2 
 PCOD9068759
Probable space group: P -1
;
_chemical_formula_sum "Si O2"
_cell_formula_units_Z 10
_cell_length_a 15.571112
_cell_length_b 14.941097
_cell_length_c 5.369066
_cell_angle_alpha 112.059425
_cell_angle_beta 110.743027
_cell_angle_gamma 19.714529
_cell_volume 390.520370
_symmetry_space_group_name_H-M "P -1"
_symmetry_group_IT_number 2
_symmetry_cell_setting 'triclinic'
loop_
_space_group_symop_operation_xyz
x,y,z
-x,-y,-z
loop_
_atom_site_type_symbol
_atom_site_label
_atom_site_fract_x
_atom_site_fract_y
_atom_site_fract_z
Si Si1 0.771139 0.952647 0.100086
Si Si2 0.174228 0.825505 0.246156
Si Si3 0.482176 0.675764 0.132076
Si Si4 0.257264 0.446832 0.372169
Si Si5 0.249813 0.242732 0.325881
O O1 0.999528 0.741826 0.305531
O O2 0.496468 0.237356 0.232244
O O3 0.774425 0.837430 0.906293
O O4 0.759895 0.036680 0.946878
O O5 0.371440 0.720607 0.293621
O O6 0.356773 0.553411 0.118544
O O7 0.000000 0.000000 0.500000
O O8 0.000000 0.000000 0.000000
O O9 0.666803 0.580582 0.315699
O O10 0.251452 0.336204 0.255616
O O11 0.000000 0.500000 0.500000
O O12 0.500000 0.000000 0.500000
#
# Coordination Sequence:
#
# PCOD9068759 Si02
#       5
#     2   2   2   2   2
#     4  12  28  48  82 116 165 218 278 337 417 497
#     4  11  30  55  87 118 172 216 282 360 444 508
#     4  11  30  51  80 124 162 211 286 353 418 516
#     4  12  28  48  82 116 165 218 278 337 417 497
#     4  12  24  48  74 115 169 218 269 340 408 490
#
# _framework density 25.606857000000002
#
# number of rings (size 3 to 8) (size 9 to 14) (size 15 to 20)
#    0.000    0.400    2.000    3.600   11.200    1.600 
#    0.000    3.000    0.000    0.000    0.000    0.000 
#    0.000    0.000    0.000    0.000    0.000    0.000 
#
# Total GULP energy -56102.131219 kJ/mol
# GULP energy per Si atom -5610.213122 kJ/mol
# Density = 2.554857 g / cm^3
# Si number density = 25.606857 Si / 1000 Ang^3
#
#
#
# Elastic Constant Matrix: (Units=GPa)
#
#
# Indices 1 2 3 4 5 6 
#
# 1 136.5178 57.6593 47.1813 20.5631 8.3030 29.5707
# 2 57.6593 152.0865 44.7444 -18.2941 -28.2987 8.5796
# 3 47.1813 44.7444 114.9162 7.5502 -6.5116 10.4467
# 4 20.5631 -18.2941 7.5502 55.6178 -1.5618 -12.5839
# 5 8.3030 -28.2987 -6.5116 -1.5618 37.9829 8.4244
# 6 29.5707 8.5796 10.4467 -12.5839 8.4244 52.8411
#
#
#
# Elastic Compliance Matrix: (Units=1/GPa)
#
#
# Indices 1 2 3 4 5 6 
#
# 1 0.014535 -0.006858 -0.002425 -0.009218 -0.007405 -0.007556
# 2 -0.006858 0.012531 -0.002222 0.007805 0.010227 0.002470
# 3 -0.002425 -0.002222 0.010791 -0.001480 0.000865 -0.000906
# 4 -0.009218 0.007805 -0.001480 0.026477 0.006571 0.009442
# 5 -0.007405 0.010227 0.000865 0.006571 0.036412 -0.001928
# 6 -0.007556 0.002470 -0.000906 0.009442 -0.001928 0.025487
#
#
# Mechanical properties :
#
#
# Convention : Reuss Voigt Hill
#
# Bulk Modulus (GPa) = 67.34174 78.07672 72.70923
# Shear Modulus (GPa) = 32.42752 46.21739 39.32246
#
# Velocity S-wave (km/s) = 3.56246 4.25300 3.92295
# Velocity P-wave (km/s) = 6.57852 7.39419 6.99825
#
# Compressibility (1/GPa) = 0.01484963
#
# Stress axis : x y z
#
# Youngs Moduli (GPa) = 68.80052 79.80127 92.66931
#
# Poissons Ratio (x) = 0.54724 0.22468
# Poissons Ratio (y) = 0.47181 0.20587
# Poissons Ratio (z) = 0.16681 0.17728
#
# Static dielectric constant tensor:
#      x y z
#    x 2.492670 -0.056640 -0.159410 
#    y -0.056640 1.957150 0.034830 
#    z -0.159410 0.034830 2.165990 
# 
# From -- ./inp_files/96125.got.cif
#   From: 2010.05.17/outbox.cif.g08.bks.cpg/sg2_49_cif.got.tgz:96125.got - 2010.06.03 11:33:40.
