data_PCOD9068719
_publ_section_title
;
Structure prediction by ZEFSAII (Michael W. Deem and Ramdas Pophale) SiO2 
 PCOD9068719
Probable space group: P -1
;
_chemical_formula_sum "Si O2"
_cell_formula_units_Z 12
_cell_length_a 9.247959
_cell_length_b 9.467697
_cell_length_c 11.152979
_cell_angle_alpha 75.853286
_cell_angle_beta 104.994724
_cell_angle_gamma 149.461739
_cell_volume 478.825089
_symmetry_space_group_name_H-M "P -1"
_symmetry_group_IT_number 2
_symmetry_cell_setting 'triclinic'
loop_
_space_group_symop_operation_xyz
x,y,z
-x,-y,-z
loop_
_atom_site_type_symbol
_atom_site_label
_atom_site_fract_x
_atom_site_fract_y
_atom_site_fract_z
Si Si1 0.435156 0.583335 0.795019
Si Si2 0.718979 0.858646 0.054816
Si Si3 0.307780 0.215562 0.464794
Si Si4 0.056291 0.573559 0.274237
Si Si5 0.628081 0.053534 0.394663
Si Si6 0.114357 0.445320 0.090247
O O1 0.288587 0.303827 0.846438
O O2 0.605360 0.727281 0.672544
O O3 0.177988 0.490505 0.771602
O O4 0.647079 0.779794 0.914375
O O5 0.448307 0.716210 0.082880
O O6 0.980204 0.185006 0.066036
O O7 0.500000 0.500000 0.500000
O O8 0.371879 0.117735 0.564030
O O9 0.000000 0.000000 0.500000
O O10 0.382316 0.897399 0.278234
O O11 0.034139 0.416216 0.213231
O O12 0.936890 0.382211 0.397681
O O13 0.500000 0.000000 0.500000
O O14 0.000000 0.500000 0.000000
#
# Coordination Sequence:
#
# PCOD9068719 Si02
#       6
#     2   2   2   2   2   2
#     4  11  28  51  78 111 158 199 255 313 384 452
#     4  11  28  49  77 115 151 204 246 313 385 452
#     4  12  30  49  75 110 150 200 253 310 376 445
#     4  12  27  46  77 110 150 195 246 319 372 447
#     4  12  27  49  74 108 143 199 259 304 379 442
#     4  12  26  47  76 112 152 194 257 307 383 448
#
# _framework density 25.061343000000001
#
# number of rings (size 3 to 8) (size 9 to 14) (size 15 to 20)
#    0.000    0.333    3.333    3.000   11.667    5.333 
#    0.000    0.000    0.000    0.000    0.000    0.000 
#    0.000    0.000    0.000    0.000    0.000    0.000 
#
# Total GULP energy -66983.080691 kJ/mol
# GULP energy per Si atom -5581.923391 kJ/mol
# Density = 2.500430 g / cm^3
# Si number density = 25.061343 Si / 1000 Ang^3
#
#
#
# Elastic Constant Matrix: (Units=GPa)
#
#
# Indices 1 2 3 4 5 6 
#
# 1 170.1592 30.7872 37.0745 0.8060 -2.6044 11.7402
# 2 30.7872 110.8060 26.8878 1.7310 -0.1540 7.5232
# 3 37.0745 26.8878 95.5403 -5.7573 -20.8387 -2.7009
# 4 0.8060 1.7310 -5.7573 31.1503 -7.5854 -7.8553
# 5 -2.6044 -0.1540 -20.8387 -7.5854 51.7416 -8.1025
# 6 11.7402 7.5232 -2.7009 -7.8553 -8.1025 47.1004
#
#
#
# Elastic Compliance Matrix: (Units=1/GPa)
#
#
# Indices 1 2 3 4 5 6 
#
# 1 0.006812 -0.001045 -0.002796 -0.001512 -0.001349 -0.002176
# 2 -0.001045 0.010249 -0.003094 -0.002152 -0.001936 -0.002246
# 3 -0.002796 -0.003094 0.014450 0.005721 0.007167 0.004207
# 4 -0.001512 -0.002152 0.005721 0.037801 0.009162 0.008929
# 5 -0.001349 -0.001936 0.007167 0.009162 0.024549 0.006807
# 6 -0.002176 -0.002246 0.004207 0.008929 0.006807 0.025034
#
#
# Mechanical properties :
#
#
# Convention : Reuss Voigt Hill
#
# Bulk Modulus (GPa) = 56.68849 62.88938 59.78893
# Shear Modulus (GPa) = 36.06340 44.78219 40.42279
#
# Velocity S-wave (km/s) = 3.79754 4.23176 4.02052
# Velocity P-wave (km/s) = 6.47282 7.00184 6.74252
#
# Compressibility (1/GPa) = 0.01764027
#
# Stress axis : x y z
#
# Youngs Moduli (GPa) = 146.80630 97.56706 69.20613
#
# Poissons Ratio (x) = 0.10193 0.19351
# Poissons Ratio (y) = 0.15337 0.21415
# Poissons Ratio (z) = 0.41048 0.30192
#
# Static dielectric constant tensor:
#      x y z
#    x 1.885800 -0.025700 0.092420 
#    y -0.025700 0.886170 0.657100 
#    z 0.092420 0.657100 1.678910 
# 
# From -- ./inp_files/378435.got.cif
#   From: 2010.05.17/outbox.cif.g08.bks.cpg/sg2_190_cif.got.tgz:378435.got - 2010.06.03 11:33:40.
