data_PCOD9068537
_publ_section_title
;
Structure prediction by ZEFSAII (Michael W. Deem and Ramdas Pophale) SiO2 
 PCOD9068537
Probable space group: P -1
;
_chemical_formula_sum "Si O2"
_cell_formula_units_Z 14
_cell_length_a 18.568724
_cell_length_b 5.268575
_cell_length_c 7.648142
_cell_angle_alpha 76.516448
_cell_angle_beta 63.956799
_cell_angle_gamma 56.725402
_cell_volume 562.006283
_symmetry_space_group_name_H-M "P -1"
_symmetry_group_IT_number 2
_symmetry_cell_setting 'triclinic'
loop_
_space_group_symop_operation_xyz
x,y,z
-x,-y,-z
loop_
_atom_site_type_symbol
_atom_site_label
_atom_site_fract_x
_atom_site_fract_y
_atom_site_fract_z
Si Si1 0.778905 0.488254 0.881117
Si Si2 0.428814 0.152598 0.894928
Si Si3 0.760776 0.075641 0.256468
Si Si4 0.941913 0.415043 0.204202
Si Si5 0.568932 0.269869 0.317688
Si Si6 0.913428 0.697046 0.685458
Si Si7 0.198789 0.735752 0.497591
O O1 0.864465 0.527155 0.848556
O O2 0.783971 0.454565 0.668678
O O3 0.676491 0.776302 0.977227
O O4 0.781824 0.220011 0.040264
O O5 0.417696 0.484087 0.844357
O O6 0.463973 0.923243 0.728885
O O7 0.500000 0.000000 0.000000
O O8 0.671983 0.041509 0.319760
O O9 0.730782 0.307551 0.416477
O O10 0.850153 0.755908 0.267567
O O11 0.887188 0.234931 0.300779
O O12 0.031802 0.197840 0.265539
O O13 0.000000 0.500000 0.000000
O O14 0.500000 0.500000 0.500000
O O15 0.000000 0.500000 0.500000
O O16 0.832879 0.950334 0.615540
#
# Coordination Sequence:
#
# PCOD9068537 Si02
#       7
#     2   2   2   2   2   2   2
#     4  11  27  45  74 102 152 187 252 315 372 458
#     4  11  27  50  81 115 148 198 251 314 392 457
#     4  11  27  45  71 108 143 195 253 304 386 444
#     4  12  26  41  70  97 146 194 251 307 369 447
#     4  11  27  50  79 113 156 193 251 319 386 465
#     4  12  24  43  63 103 141 194 251 302 364 449
#     4  12  25  44  69 101 143 203 245 310 378 439
#
# _framework density 24.910755999999999
#
# number of rings (size 3 to 8) (size 9 to 14) (size 15 to 20)
#    0.000    0.571    2.857    3.000   14.000    3.429 
#    0.000    0.000    0.000    0.000    0.000    0.000 
#    0.000    0.000    0.000    0.000    0.000    0.000 
#
# Total GULP energy -77950.246871 kJ/mol
# GULP energy per Si atom -5567.874776 kJ/mol
# Density = 2.485406 g / cm^3
# Si number density = 24.910756 Si / 1000 Ang^3
#
#
#
# Elastic Constant Matrix: (Units=GPa)
#
#
# Indices 1 2 3 4 5 6 
#
# 1 114.5595 23.8001 11.7870 7.2006 21.5630 -2.4836
# 2 23.8001 81.3882 6.2156 5.9865 2.1469 -2.5514
# 3 11.7870 6.2156 57.4429 -4.4760 4.8414 -8.7240
# 4 7.2006 5.9865 -4.4760 37.8169 4.7184 -10.0432
# 5 21.5630 2.1469 4.8414 4.7184 33.1077 8.0748
# 6 -2.4836 -2.5514 -8.7240 -10.0432 8.0748 33.1281
#
#
#
# Elastic Compliance Matrix: (Units=1/GPa)
#
#
# Indices 1 2 3 4 5 6 
#
# 1 0.010830 -0.002813 -0.001042 -0.000326 -0.007152 0.001965
# 2 -0.002813 0.013297 -0.001231 -0.002047 0.001567 -0.000513
# 3 -0.001042 -0.001231 0.019777 0.005422 -0.004822 0.007854
# 4 -0.000326 -0.002047 0.005422 0.031915 -0.008144 0.012906
# 5 -0.007152 0.001567 -0.004822 -0.008144 0.040019 -0.013908
# 6 0.001965 -0.000513 0.007854 0.012906 -0.013908 0.039665
#
#
# Mechanical properties :
#
#
# Convention : Reuss Voigt Hill
#
# Bulk Modulus (GPa) = 29.64602 37.44399 33.54501
# Shear Modulus (GPa) = 28.26169 34.91640 31.58905
#
# Velocity S-wave (km/s) = 3.37191 3.74794 3.56489
# Velocity P-wave (km/s) = 5.20447 5.81320 5.51723
#
# Compressibility (1/GPa) = 0.03373134
#
# Stress axis : x y z
#
# Youngs Moduli (GPa) = 92.33654 75.20732 50.56303
#
# Poissons Ratio (x) = 0.21157 0.05269
# Poissons Ratio (y) = 0.25976 0.06224
# Poissons Ratio (z) = 0.09622 0.09258
#
# Static dielectric constant tensor:
#      x y z
#    x 1.945770 0.034400 0.059360 
#    y 0.034400 2.069730 0.014780 
#    z 0.059360 0.014780 2.106970 
# 
# From -- ./inp_files/322294.got.cif
#   From: 2010.05.17/outbox.cif.g08.bks.cpg/sg2_162_cif.got.tgz:322294.got - 2010.06.03 11:33:40.
