data_PCOD9068105
_publ_section_title
;
Structure prediction by ZEFSAII (Michael W. Deem and Ramdas Pophale) SiO2 
 PCOD9068105
Probable space group: P -1
;
_chemical_formula_sum "Si O2"
_cell_formula_units_Z 16
_cell_length_a 13.172290
_cell_length_b 8.538517
_cell_length_c 8.216918
_cell_angle_alpha 82.213233
_cell_angle_beta 133.131337
_cell_angle_gamma 101.555700
_cell_volume 660.777670
_symmetry_space_group_name_H-M "P -1"
_symmetry_group_IT_number 2
_symmetry_cell_setting 'triclinic'
loop_
_space_group_symop_operation_xyz
x,y,z
-x,-y,-z
loop_
_atom_site_type_symbol
_atom_site_label
_atom_site_fract_x
_atom_site_fract_y
_atom_site_fract_z
Si Si1 0.149607 0.324724 0.293697
Si Si2 0.766736 0.825814 0.130198
Si Si3 0.042784 0.965993 0.238045
Si Si4 0.743357 0.283197 0.529747
Si Si5 0.700501 0.443781 0.131424
Si Si6 0.587508 0.760391 0.245257
Si Si7 0.146384 0.563611 0.022141
Si Si8 0.475691 0.039143 0.285158
O O1 0.311775 0.340828 0.527056
O O2 0.153497 0.376921 0.100084
O O3 0.097286 0.146763 0.320313
O O4 0.015507 0.412165 0.182842
O O5 0.730974 0.634188 0.115878
O O6 0.688349 0.857809 0.207913
O O7 0.926399 0.886712 0.249346
O O8 0.681060 0.922872 0.901367
O O9 0.162040 0.854669 0.373630
O O10 0.000000 0.000000 0.000000
O O11 0.764505 0.401011 0.380769
O O12 0.782327 0.352303 0.745497
O O13 0.582881 0.200551 0.347526
O O14 0.538328 0.364555 0.950070
O O15 0.773791 0.379416 0.061992
O O16 0.516736 0.893058 0.245701
O O17 0.500000 0.000000 0.500000
#
# Coordination Sequence:
#
# PCOD9068105 Si02
#       8
#     2   2   2   2   2   2   2   2
#     4  11  26  47  76 113 152 200 250 318 381 455
#     4  12  29  48  76 110 154 201 254 318 379 457
#     4  12  25  48  75 110 154 199 260 315 379 453
#     4  12  26  50  78 111 157 199 255 322 373 463
#     4  12  29  50  77 115 155 205 254 312 390 455
#     4  12  27  50  75 112 155 195 257 315 381 458
#     4  11  27  49  78 113 157 199 256 313 385 455
#     4  12  27  47  76 112 148 204 254 313 388 447
#
# _framework density 24.213895000000001
#
# number of rings (size 3 to 8) (size 9 to 14) (size 15 to 20)
#    0.000    0.250    3.750    3.750    8.750    1.500 
#    0.000    0.000    0.000    0.000    0.000    0.000 
#    0.000    0.000    0.000    0.000    0.000    0.000 
#
# Total GULP energy -89384.191167 kJ/mol
# GULP energy per Si atom -5586.511948 kJ/mol
# Density = 2.415878 g / cm^3
# Si number density = 24.213895 Si / 1000 Ang^3
#
#
#
# Elastic Constant Matrix: (Units=GPa)
#
#
# Indices 1 2 3 4 5 6 
#
# 1 88.3214 23.9548 2.6909 6.2812 -11.3998 17.0838
# 2 23.9548 115.7114 30.8261 -0.8263 -9.5534 0.9197
# 3 2.6909 30.8261 106.7084 -14.8663 0.3488 -1.5730
# 4 6.2812 -0.8263 -14.8663 42.8152 6.8561 3.9079
# 5 -11.3998 -9.5534 0.3488 6.8561 36.7258 -1.5857
# 6 17.0838 0.9197 -1.5730 3.9079 -1.5857 31.3913
#
#
#
# Elastic Compliance Matrix: (Units=1/GPa)
#
#
# Indices 1 2 3 4 5 6 
#
# 1 0.014022 -0.002543 -0.000024 -0.002069 0.003770 -0.007110
# 2 -0.002543 0.010118 -0.002975 -0.000905 0.002090 0.001157
# 3 -0.000024 -0.002975 0.010787 0.003944 -0.001617 0.000068
# 4 -0.002069 -0.000905 0.003944 0.026157 -0.005893 -0.002204
# 5 0.003770 0.002090 -0.001617 -0.005893 0.030061 0.000058
# 6 -0.007110 0.001157 0.000068 -0.002204 0.000058 0.035972
#
#
# Mechanical properties :
#
#
# Convention : Reuss Voigt Hill
#
# Bulk Modulus (GPa) = 41.94194 47.29832 44.62013
# Shear Modulus (GPa) = 34.21181 39.07108 36.64145
#
# Velocity S-wave (km/s) = 3.76293 4.02130 3.89426
# Velocity P-wave (km/s) = 6.01985 6.41382 6.21995
#
# Compressibility (1/GPa) = 0.02384248
#
# Stress axis : x y z
#
# Youngs Moduli (GPa) = 71.31726 98.83346 92.70363
#
# Poissons Ratio (x) = 0.25137 0.00225
# Poissons Ratio (y) = 0.18138 0.27576
# Poissons Ratio (z) = 0.00173 0.29399
#
# Static dielectric constant tensor:
#      x y z
#    x 2.008230 0.079980 -0.081580 
#    y 0.079980 2.182270 0.095310 
#    z -0.081580 0.095310 2.146990 
# 
# From -- ./inp_files/243737.got.cif
#   From: 2010.05.17/outbox.cif.g08.bks.cpg/sg2_122_cif.got.tgz:243737.got - 2010.06.03 11:33:40.
