data_PCOD9068189
_publ_section_title
;
Structure prediction by ZEFSAII (Michael W. Deem and Ramdas Pophale) SiO2 
 PCOD9068189
Probable space group: P -1
;
_chemical_formula_sum "Si O2"
_cell_formula_units_Z 16
_cell_length_a 19.448777
_cell_length_b 8.233256
_cell_length_c 9.663419
_cell_angle_alpha 117.809680
_cell_angle_beta 59.486646
_cell_angle_gamma 150.496232
_cell_volume 655.407231
_symmetry_space_group_name_H-M "P -1"
_symmetry_group_IT_number 2
_symmetry_cell_setting 'triclinic'
loop_
_space_group_symop_operation_xyz
x,y,z
-x,-y,-z
loop_
_atom_site_type_symbol
_atom_site_label
_atom_site_fract_x
_atom_site_fract_y
_atom_site_fract_z
Si Si1 0.711381 0.665851 0.494458
Si Si2 0.085110 0.589445 0.817960
Si Si3 0.375682 0.304396 0.873005
Si Si4 0.138564 0.315753 0.077000
Si Si5 0.887032 0.313209 0.664141
Si Si6 0.425009 0.713866 0.794845
Si Si7 0.423902 0.638287 0.209347
Si Si8 0.034367 0.096029 0.663149
O O1 0.606859 0.431974 0.381569
O O2 0.663554 0.476274 0.609740
O O3 0.864842 0.875740 0.378935
O O4 0.744334 0.936202 0.612097
O O5 0.123657 0.450950 0.739518
O O6 0.970594 0.375931 0.728167
O O7 0.228706 0.982812 0.812807
O O8 0.000000 0.500000 0.000000
O O9 0.466427 0.624552 0.817591
O O10 0.449263 0.251107 0.814503
O O11 0.348416 0.355399 0.066431
O O12 0.144497 0.543143 0.193938
O O13 0.279600 0.515188 0.935029
O O14 0.105260 0.164080 0.200833
O O15 0.000000 0.000000 0.000000
O O16 0.000000 0.500000 0.500000
O O17 0.525447 0.082233 0.811528
O O18 0.000000 0.000000 0.500000
#
# Coordination Sequence:
#
# PCOD9068189 Si02
#       8
#     2   2   2   2   2   2   2   2
#     4  12  25  46  73 105 149 191 237 299 366 435
#     4  12  24  40  71 104 137 183 232 292 356 428
#     4  11  26  48  73 105 140 192 250 296 361 429
#     4  12  24  42  70 105 141 185 232 296 364 432
#     4  12  23  43  67 105 147 180 227 292 364 425
#     4  12  26  48  75 106 145 189 248 297 361 436
#     4  11  28  49  73 103 146 194 247 302 355 429
#     4  12  24  43  67 108 147 181 230 294 368 430
#
# _framework density 24.412303000000001
#
# number of rings (size 3 to 8) (size 9 to 14) (size 15 to 20)
#    0.000    0.250    3.750    5.250    7.000    0.500 
#    0.000    0.000    0.000    0.000    0.000    0.000 
#    0.000    0.000    0.000    0.000    0.000    0.000 
#
# Total GULP energy -89600.577160 kJ/mol
# GULP energy per Si atom -5600.036072 kJ/mol
# Density = 2.435674 g / cm^3
# Si number density = 24.412303 Si / 1000 Ang^3
#
#
#
# Elastic Constant Matrix: (Units=GPa)
#
#
# Indices 1 2 3 4 5 6 
#
# 1 69.3321 13.5054 14.7774 7.6883 -21.0990 -15.3132
# 2 13.5054 100.3281 38.3188 9.0506 -20.3395 -24.5552
# 3 14.7774 38.3188 133.9534 8.8886 3.1785 -6.8275
# 4 7.6883 9.0506 8.8886 55.4184 -9.7570 -3.0053
# 5 -21.0990 -20.3395 3.1785 -9.7570 41.2772 1.0911
# 6 -15.3132 -24.5552 -6.8275 -3.0053 1.0911 39.9484
#
#
#
# Elastic Compliance Matrix: (Units=1/GPa)
#
#
# Indices 1 2 3 4 5 6 
#
# 1 0.019892 0.002855 -0.002829 -0.000283 0.011499 0.008561
# 2 0.002855 0.015510 -0.004475 -0.000075 0.009175 0.009607
# 3 -0.002829 -0.004475 0.009137 -0.001273 -0.004596 -0.002244
# 4 -0.000283 -0.000075 -0.001273 0.019129 0.004413 0.000946
# 5 0.011499 0.009175 -0.004596 0.004413 0.035794 0.008616
# 6 0.008561 0.009607 -0.002244 0.000946 0.008616 0.033671
#
#
# Mechanical properties :
#
#
# Convention : Reuss Voigt Hill
#
# Bulk Modulus (GPa) = 28.05774 48.53519 38.29646
# Shear Modulus (GPa) = 32.48637 43.12962 37.80799
#
# Velocity S-wave (km/s) = 3.65188 4.20779 3.93966
# Velocity P-wave (km/s) = 5.41294 6.59788 6.03456
#
# Compressibility (1/GPa) = 0.03564079
#
# Stress axis : x y z
#
# Youngs Moduli (GPa) = 50.27214 64.47376 109.44988
#
# Poissons Ratio (x) = -0.18405 0.30961
# Poissons Ratio (y) = -0.14351 0.48977
# Poissons Ratio (z) = 0.14221 0.28851
#
# Static dielectric constant tensor:
#      x y z
#    x 2.004360 -0.018080 -0.019470 
#    y -0.018080 1.983660 0.008820 
#    z -0.019470 0.008820 1.901580 
# 
# From -- ./inp_files/245433.got.cif
#   From: 2010.05.17/outbox.cif.g08.bks.cpg/sg2_123_cif.got.tgz:245433.got - 2010.06.03 11:33:40.
