data_PCOD9068164
_publ_section_title
;
Structure prediction by ZEFSAII (Michael W. Deem and Ramdas Pophale) SiO2 
 PCOD9068164
Probable space group: P -1
;
_chemical_formula_sum "Si O2"
_cell_formula_units_Z 14
_cell_length_a 11.839000
_cell_length_b 11.804847
_cell_length_c 6.552658
_cell_angle_alpha 111.020153
_cell_angle_beta 73.983831
_cell_angle_gamma 131.548967
_cell_volume 638.807463
_symmetry_space_group_name_H-M "P -1"
_symmetry_group_IT_number 2
_symmetry_cell_setting 'triclinic'
loop_
_space_group_symop_operation_xyz
x,y,z
-x,-y,-z
loop_
_atom_site_type_symbol
_atom_site_label
_atom_site_fract_x
_atom_site_fract_y
_atom_site_fract_z
Si Si1 0.546329 0.726388 0.650414
Si Si2 0.157118 0.825406 0.600185
Si Si3 0.872352 0.017095 0.640156
Si Si4 0.143738 0.603789 0.140148
Si Si5 0.919384 0.709759 0.973834
Si Si6 0.627703 0.153124 0.156856
Si Si7 0.394480 0.435484 0.819256
O O1 0.456972 0.787444 0.663546
O O2 0.438764 0.588156 0.777467
O O3 0.567206 0.646795 0.406172
O O4 0.719576 0.866899 0.726915
O O5 0.193262 0.954886 0.506186
O O6 0.126445 0.684989 0.389116
O O7 0.280007 0.864984 0.734311
O O8 0.009476 0.777854 0.762498
O O9 0.957303 0.172672 0.838983
O O10 0.000000 0.000000 0.500000
O O11 0.154692 0.472294 0.119938
O O12 0.267929 0.731138 0.003475
O O13 0.000000 0.500000 0.000000
O O14 0.775122 0.693138 0.099360
O O15 0.500000 0.000000 0.000000
O O16 0.500000 0.500000 0.000000
#
# Coordination Sequence:
#
# PCOD9068164 Si02
#       7
#     2   2   2   2   2   2   2
#     4  11  26  48  70 103 147 187 232 305 354 420
#     4  12  27  44  79 106 144 195 243 295 371 425
#     4  12  27  49  73 104 149 190 245 296 358 435
#     4  12  24  45  70 108 144 182 240 298 357 429
#     4  12  25  47  72 108 142 188 243 300 354 434
#     4  12  27  47  73 106 151 189 241 301 362 434
#     4  11  27  45  73 105 140 189 242 289 365 425
#
# _framework density 21.915835000000001
#
# number of rings (size 3 to 8) (size 9 to 14) (size 15 to 20)
#    0.000    0.286    5.714    2.143    4.000    5.143 
#    0.000    0.000    0.000    0.000    0.000    0.000 
#    0.000    0.000    0.000    0.000    0.000    0.000 
#
# Total GULP energy -78179.979431 kJ/mol
# GULP energy per Si atom -5584.284245 kJ/mol
# Density = 2.186595 g / cm^3
# Si number density = 21.915835 Si / 1000 Ang^3
#
#
#
# Elastic Constant Matrix: (Units=GPa)
#
#
# Indices 1 2 3 4 5 6 
#
# 1 70.9646 25.5935 42.6039 -1.3061 -10.2930 9.0474
# 2 25.5935 110.9190 38.9586 5.8601 -1.0202 23.3458
# 3 42.6039 38.9586 110.3707 0.3834 -3.6082 9.1285
# 4 -1.3061 5.8601 0.3834 26.6041 9.3671 -7.8299
# 5 -10.2930 -1.0202 -3.6082 9.3671 37.5069 1.6061
# 6 9.0474 23.3458 9.1285 -7.8299 1.6061 46.0776
#
#
#
# Elastic Compliance Matrix: (Units=1/GPa)
#
#
# Indices 1 2 3 4 5 6 
#
# 1 0.019668 -0.001674 -0.006666 -0.000938 0.005032 -0.002028
# 2 -0.001674 0.011997 -0.003042 -0.004810 0.001033 -0.006000
# 3 -0.006666 -0.003042 0.012637 0.000608 -0.000869 0.000480
# 4 -0.000938 -0.004810 0.000608 0.046092 -0.012302 0.010762
# 5 0.005032 0.001033 -0.000869 -0.012302 0.031253 -0.004519
# 6 -0.002028 -0.006000 0.000480 0.010762 -0.004519 0.027032
#
#
# Mechanical properties :
#
#
# Convention : Reuss Voigt Hill
#
# Bulk Modulus (GPa) = 46.42807 56.28515 51.35661
# Shear Modulus (GPa) = 27.99220 34.37763 31.18491
#
# Velocity S-wave (km/s) = 3.57775 3.96488 3.77628
# Velocity P-wave (km/s) = 6.18852 6.83363 6.51906
#
# Compressibility (1/GPa) = 0.02153869
#
# Stress axis : x y z
#
# Youngs Moduli (GPa) = 50.84349 83.35538 79.13442
#
# Poissons Ratio (x) = 0.13957 0.52747
# Poissons Ratio (y) = 0.08513 0.24069
# Poissons Ratio (z) = 0.33890 0.25353
#
# Static dielectric constant tensor:
#      x y z
#    x 1.987000 0.068520 0.036220 
#    y 0.068520 1.897260 0.057300 
#    z 0.036220 0.057300 1.812460 
# 
# From -- ./inp_files/69068.got.cif
#   From: 2010.05.17/outbox.cif.g08.bks.cpg/sg2_35_cif.got.tgz:69068.got - 2010.06.03 11:33:40.
