data_PCOD9068038
_publ_section_title
;
Structure prediction by ZEFSAII (Michael W. Deem and Ramdas Pophale) SiO2 
 PCOD9068038
Probable space group: P -1
;
_chemical_formula_sum "Si O2"
_cell_formula_units_Z 14
_cell_length_a 20.986003
_cell_length_b 9.410413
_cell_length_c 10.319213
_cell_angle_alpha 136.545398
_cell_angle_beta 133.021490
_cell_angle_gamma 27.689102
_cell_volume 646.312272
_symmetry_space_group_name_H-M "P -1"
_symmetry_group_IT_number 2
_symmetry_cell_setting 'triclinic'
loop_
_space_group_symop_operation_xyz
x,y,z
-x,-y,-z
loop_
_atom_site_type_symbol
_atom_site_label
_atom_site_fract_x
_atom_site_fract_y
_atom_site_fract_z
Si Si1 0.240870 0.803983 0.680525
Si Si2 0.673656 0.804275 0.526119
Si Si3 0.427355 0.458533 0.459572
Si Si4 0.031116 0.604734 0.432366
Si Si5 0.374218 0.887725 0.065846
Si Si6 0.932653 0.333415 0.181414
Si Si7 0.362848 0.223500 0.040941
O O1 0.304027 0.480844 0.615479
O O2 0.332343 0.696161 0.608082
O O3 0.247435 0.973991 0.907060
O O4 0.085235 0.060454 0.587639
O O5 0.815801 0.645115 0.572566
O O6 0.550803 0.095037 0.452210
O O7 0.642589 0.951600 0.722044
O O8 0.500000 0.500000 0.500000
O O9 0.336496 0.485901 0.254785
O O10 0.032717 0.691542 0.637266
O O11 0.986335 0.446065 0.264043
O O12 0.394006 0.000690 0.047400
O O13 0.500000 0.500000 0.000000
O O14 0.768657 0.607324 0.111592
O O15 0.000000 0.000000 0.000000
O O16 0.500000 0.000000 0.000000
#
# Coordination Sequence:
#
# PCOD9068038 Si02
#       7
#     2   2   2   2   2   2   2
#     4  12  24  48  72 104 146 185 242 295 359 430
#     4  12  27  47  71 107 147 190 237 298 364 432
#     4  12  26  44  75 105 143 186 239 301 360 421
#     4  11  27  46  74 105 145 196 238 293 366 427
#     4  12  25  45  72 106 142 183 239 298 358 426
#     4  11  26  47  72 107 147 185 244 301 353 427
#     4  12  25  45  73 106 138 184 241 293 357 423
#
# _framework density 21.661355
#
# number of rings (size 3 to 8) (size 9 to 14) (size 15 to 20)
#    0.000    0.286    4.286    4.286    6.000    1.714 
#    0.000    0.000    0.000    0.000    0.000    0.000 
#    0.000    0.000    0.000    0.000    0.000    0.000 
#
# Total GULP energy -78391.719116 kJ/mol
# GULP energy per Si atom -5599.408508 kJ/mol
# Density = 2.161205 g / cm^3
# Si number density = 21.661355 Si / 1000 Ang^3
#
#
#
# Elastic Constant Matrix: (Units=GPa)
#
#
# Indices 1 2 3 4 5 6 
#
# 1 79.3091 23.3249 31.8464 1.2974 22.3675 -3.7003
# 2 23.3249 88.2543 23.6018 -12.7216 5.2132 -2.3721
# 3 31.8464 23.6018 106.7063 -8.5439 28.1289 14.2127
# 4 1.2974 -12.7216 -8.5439 39.3608 -0.5445 6.5287
# 5 22.3675 5.2132 28.1289 -0.5445 28.8437 -2.2780
# 6 -3.7003 -2.3721 14.2127 6.5287 -2.2780 41.4979
#
#
#
# Elastic Compliance Matrix: (Units=1/GPa)
#
#
# Indices 1 2 3 4 5 6 
#
# 1 0.017800 -0.003856 -0.002019 -0.002736 -0.011041 0.001883
# 2 -0.003856 0.013391 -0.002421 0.003837 0.003068 0.000816
# 3 -0.002019 -0.002421 0.015204 0.003530 -0.013296 -0.006811
# 4 -0.002736 0.003837 0.003530 0.028440 -0.001936 -0.005814
# 5 -0.011041 0.003068 -0.013296 -0.001936 0.056170 0.007133
# 6 0.001883 0.000816 -0.006811 -0.005814 0.007133 0.027951
#
#
# Mechanical properties :
#
#
# Convention : Reuss Voigt Hill
#
# Bulk Modulus (GPa) = 33.55381 47.97955 40.76668
# Shear Modulus (GPa) = 26.95655 34.97357 30.96506
#
# Velocity S-wave (km/s) = 3.53151 4.02252 3.78498
# Velocity P-wave (km/s) = 5.67032 6.61605 6.16136
#
# Compressibility (1/GPa) = 0.02980287
#
# Stress axis : x y z
#
# Youngs Moduli (GPa) = 56.17957 74.67520 65.77085
#
# Poissons Ratio (x) = 0.28796 0.13279
# Poissons Ratio (y) = 0.21664 0.15925
# Poissons Ratio (z) = 0.11342 0.18081
#
# Static dielectric constant tensor:
#      x y z
#    x 1.771810 0.006550 0.025690 
#    y 0.006550 1.776870 0.001860 
#    z 0.025690 0.001860 1.787270 
# 
# From -- ./inp_files/319179.got.cif
#   From: 2010.05.17/outbox.cif.g08.bks.cpg/sg2_160_cif.got.tgz:319179.got - 2010.06.03 11:33:40.
