data_PCOD9068581
_publ_section_title
;
Structure prediction by ZEFSAII (Michael W. Deem and Ramdas Pophale) SiO2 
 PCOD9068581
Probable space group: P -1
;
_chemical_formula_sum "Si O2"
_cell_formula_units_Z 14
_cell_length_a 11.902124
_cell_length_b 7.575392
_cell_length_c 17.744691
_cell_angle_alpha 49.802143
_cell_angle_beta 29.906254
_cell_angle_gamma 64.811521
_cell_volume 570.396231
_symmetry_space_group_name_H-M "P -1"
_symmetry_group_IT_number 2
_symmetry_cell_setting 'triclinic'
loop_
_space_group_symop_operation_xyz
x,y,z
-x,-y,-z
loop_
_atom_site_type_symbol
_atom_site_label
_atom_site_fract_x
_atom_site_fract_y
_atom_site_fract_z
Si Si1 0.760099 0.572892 0.616148
Si Si2 0.141134 0.767505 0.936066
Si Si3 0.039125 0.637747 0.204723
Si Si4 0.667290 0.523337 0.209121
Si Si5 0.412024 0.257159 0.566090
Si Si6 0.002956 0.902149 0.610238
Si Si7 0.481722 0.771403 0.020109
O O1 0.577134 0.452184 0.687442
O O2 0.610941 0.467803 0.807423
O O3 0.000000 0.500000 0.500000
O O4 0.841921 0.868018 0.491682
O O5 0.212102 0.558779 0.909333
O O6 0.347270 0.018842 0.721684
O O7 0.104728 0.708820 0.060638
O O8 0.878093 0.749147 0.062089
O O9 0.926531 0.340433 0.360791
O O10 0.277864 0.738605 0.086532
O O11 0.844511 0.751327 0.314482
O O12 0.592929 0.311553 0.375622
O O13 0.500000 0.500000 0.500000
O O14 0.733247 0.812422 0.823956
O O15 0.000000 0.000000 0.500000
O O16 0.500000 0.000000 0.000000
#
# Coordination Sequence:
#
# PCOD9068581 Si02
#       7
#     2   2   2   2   2   2   2
#     4  12  26  48  77 112 148 202 249 311 383 447
#     4  11  27  51  74 110 149 203 249 311 376 439
#     4  12  27  49  75 109 151 197 249 311 385 446
#     4  11  27  47  76 107 153 192 257 305 374 445
#     4  12  27  46  74 110 145 195 252 303 375 444
#     4  12  28  47  73 110 151 195 255 308 379 448
#     4  12  27  48  73 110 149 197 250 309 379 453
#
# _framework density 24.544340999999999
#
# number of rings (size 3 to 8) (size 9 to 14) (size 15 to 20)
#    0.000    0.286    4.286    3.000    6.000    2.286 
#    0.000    0.000    0.000    0.000    0.000    0.000 
#    0.000    0.000    0.000    0.000    0.000    0.000 
#
# Total GULP energy -78476.802633 kJ/mol
# GULP energy per Si atom -5605.485902 kJ/mol
# Density = 2.448848 g / cm^3
# Si number density = 24.544341 Si / 1000 Ang^3
#
#
#
# Elastic Constant Matrix: (Units=GPa)
#
#
# Indices 1 2 3 4 5 6 
#
# 1 144.4821 11.0127 51.4880 -8.3078 -8.1904 9.8689
# 2 11.0127 58.9713 8.7219 -11.9162 2.0043 0.3907
# 3 51.4880 8.7219 152.3459 -2.5150 14.3942 1.4909
# 4 -8.3078 -11.9162 -2.5150 46.1109 13.0426 -0.1748
# 5 -8.1904 2.0043 14.3942 13.0426 51.4374 5.9030
# 6 9.8689 0.3907 1.4909 -0.1748 5.9030 32.2663
#
#
#
# Elastic Compliance Matrix: (Units=1/GPa)
#
#
# Indices 1 2 3 4 5 6 
#
# 1 0.008426 -0.001125 -0.002982 0.000358 0.002459 -0.002874
# 2 -0.001125 0.018329 -0.000387 0.005123 -0.002148 0.000561
# 3 -0.002982 -0.000387 0.007872 0.000630 -0.002948 0.001096
# 4 0.000358 0.005123 0.000630 0.025038 -0.006803 0.001179
# 5 0.002459 -0.002148 -0.002948 -0.006803 0.023022 -0.004838
# 6 -0.002874 0.000561 0.001096 0.001179 -0.004838 0.032705
#
#
# Mechanical properties :
#
#
# Convention : Reuss Voigt Hill
#
# Bulk Modulus (GPa) = 39.00120 55.36051 47.18085
# Shear Modulus (GPa) = 37.61510 44.93472 41.27491
#
# Velocity S-wave (km/s) = 3.91901 4.28338 4.10524
# Velocity P-wave (km/s) = 6.03347 6.86056 6.46027
#
# Compressibility (1/GPa) = 0.02564024
#
# Stress axis : x y z
#
# Youngs Moduli (GPa) = 118.68372 54.55800 127.03167
#
# Poissons Ratio (x) = 0.06136 0.37875
# Poissons Ratio (y) = 0.13347 0.04919
# Poissons Ratio (z) = 0.35386 0.02113
#
# Static dielectric constant tensor:
#      x y z
#    x 2.033310 -0.000700 -0.029170 
#    y -0.000700 2.010970 -0.024750 
#    z -0.029170 -0.024750 1.930200 
# 
# From -- ./inp_files/566515.got.cif
#   From: 2010.05.17/outbox.cif.g08.bks.cpg/sg2_284_cif.got.tgz:566515.got - 2010.06.03 11:33:40.
