data_PCOD9068912
_publ_section_title
;
Structure prediction by ZEFSAII (Michael W. Deem and Ramdas Pophale) SiO2 
 PCOD9068912
Probable space group: P -1
;
_chemical_formula_sum "Si O2"
_cell_formula_units_Z 15
_cell_length_a 16.486300
_cell_length_b 8.436051
_cell_length_c 14.889643
_cell_angle_alpha 121.963359
_cell_angle_beta 27.201212
_cell_angle_gamma 137.710417
_cell_volume 578.646687
_symmetry_space_group_name_H-M "P -1"
_symmetry_group_IT_number 2
_symmetry_cell_setting 'triclinic'
loop_
_space_group_symop_operation_xyz
x,y,z
-x,-y,-z
loop_
_atom_site_type_symbol
_atom_site_label
_atom_site_fract_x
_atom_site_fract_y
_atom_site_fract_z
Si Si1 0.749689 0.711758 0.655815
Si Si2 0.500000 0.500000 0.000000
Si Si3 0.416698 0.740025 0.902709
Si Si4 0.663403 0.001578 0.565529
Si Si5 0.908496 0.998910 0.870073
Si Si6 0.114250 0.537426 0.645625
Si Si7 0.275200 0.235311 0.829016
Si Si8 0.292080 0.614545 0.671102
O O1 0.541030 0.721675 0.858437
O O2 0.773106 0.587661 0.512876
O O3 0.692450 0.559880 0.756049
O O4 0.000000 0.000000 0.500000
O O5 0.274843 0.192953 0.087379
O O6 0.604447 0.977386 0.722030
O O7 0.322381 0.489914 0.866670
O O8 0.178993 0.685647 0.142898
O O9 0.404131 0.773514 0.700487
O O10 0.780959 0.259241 0.474727
O O11 0.867740 0.988464 0.348429
O O12 0.737606 0.855180 0.084026
O O13 0.062360 0.304536 0.813786
O O14 0.195763 0.677684 0.704333
O O15 0.463989 0.296637 0.588124
O O16 0.000000 0.000000 0.000000
#
# Coordination Sequence:
#
# PCOD9068912 Si02
#       8
#     2   1   2   2   2   2   2   2
#     4  12  27  51  76 101 143 195 249 309 365 437
#     4  12  24  44  76 104 138 194 252 300 358 434
#     4  12  25  47  69 107 147 190 244 298 372 443
#     4  12  24  42  72 107 149 190 248 302 371 447
#     4  12  23  42  73 107 146 197 250 298 372 437
#     4  12  26  46  71 108 151 185 241 311 369 441
#     4  12  21  41  73 106 143 192 241 296 370 439
#     4  12  24  43  72 109 149 198 242 307 370 444
#
# _framework density 25.922553000000001
#
# number of rings (size 3 to 8) (size 9 to 14) (size 15 to 20)
#    0.000    0.000    6.667    3.200    0.000    4.267 
#    0.000    6.000    0.000    0.000    0.000    0.000 
#    0.000    0.000    0.000    0.000    0.000    0.000 
#
# Total GULP energy -83685.678962 kJ/mol
# GULP energy per Si atom -5579.045264 kJ/mol
# Density = 2.586355 g / cm^3
# Si number density = 25.922553 Si / 1000 Ang^3
#
#
#
# Elastic Constant Matrix: (Units=GPa)
#
#
# Indices 1 2 3 4 5 6 
#
# 1 -39.2934 26.9330 -0.4623 7.5711 8.7176 -20.5656
# 2 26.9330 36.4319 31.6063 -17.3117 -2.3795 -7.5088
# 3 -0.4623 31.6063 143.3338 -17.1896 -2.6727 -13.7922
# 4 7.5711 -17.3117 -17.1896 33.9924 -3.2660 5.4021
# 5 8.7176 -2.3795 -2.6727 -3.2660 48.4299 -13.2648
# 6 -20.5656 -7.5088 -13.7922 5.4021 -13.2648 33.4529
#
#
#
# Elastic Compliance Matrix: (Units=1/GPa)
#
#
# Indices 1 2 3 4 5 6 
#
# 1 -0.011043 0.013604 -0.002440 0.009197 0.001611 -0.005587
# 2 0.013604 0.026720 -0.003745 0.006911 0.002612 0.012736
# 3 -0.002440 -0.003745 0.008252 0.002750 0.001195 0.001091
# 4 0.009197 0.006911 0.002750 0.031841 0.002085 0.004024
# 5 0.001611 0.002612 0.001195 0.002085 0.023747 0.011149
# 6 -0.005587 0.012736 0.001091 0.004024 0.011149 0.033538
#
#
# Mechanical properties :
#
#
# Convention : Reuss Voigt Hill
#
# Bulk Modulus (GPa) = 25.79514 28.51403 27.15459
# Shear Modulus (GPa) = 44.98837 28.66807 36.82822
#
# Velocity S-wave (km/s) = 4.17044 3.32913 3.77331
# Velocity P-wave (km/s) = 5.75870 5.07948 5.42972
#
# Compressibility (1/GPa) = 0.03876699
#
# Stress axis : x y z
#
# Youngs Moduli (GPa) = -90.55897 37.42510 121.18592
#
# Poissons Ratio (x) = -0.50913 0.29570
# Poissons Ratio (y) = 1.23196 0.45385
# Poissons Ratio (z) = -0.22097 0.14016
#
# Static dielectric constant tensor:
#      x y z
#    x 2.173180 0.042010 -0.003260 
#    y 0.042010 1.959080 0.035530 
#    z -0.003260 0.035530 1.995950 
# 
# From -- ./inp_files/529976.got.cif
#   From: 2010.05.17/outbox.cif.g08.bks.cpg/sg2_265_cif.got.tgz:529976.got - 2010.06.03 11:33:40.
