data_PCOD9068924
_publ_section_title
;
Structure prediction by ZEFSAII (Michael W. Deem and Ramdas Pophale) SiO2 
 PCOD9068924
Probable space group: P -1
;
_chemical_formula_sum "Si O2"
_cell_formula_units_Z 15
_cell_length_a 9.967084
_cell_length_b 8.980405
_cell_length_c 15.723196
_cell_angle_alpha 139.676167
_cell_angle_beta 133.346034
_cell_angle_gamma 70.728668
_cell_volume 603.856057
_symmetry_space_group_name_H-M "P -1"
_symmetry_group_IT_number 2
_symmetry_cell_setting 'triclinic'
loop_
_space_group_symop_operation_xyz
x,y,z
-x,-y,-z
loop_
_atom_site_type_symbol
_atom_site_label
_atom_site_fract_x
_atom_site_fract_y
_atom_site_fract_z
Si Si1 0.000000 0.000000 0.500000
Si Si2 0.871464 0.047723 0.656022
Si Si3 0.288320 0.406712 0.475989
Si Si4 0.223030 0.718463 0.711106
Si Si5 0.010265 0.736903 0.874623
Si Si6 0.317084 0.569411 0.872927
Si Si7 0.334355 0.609083 0.312108
Si Si8 0.697937 0.693193 0.000964
O O1 0.069614 0.026767 0.441289
O O2 0.844157 0.704508 0.290662
O O3 0.690562 0.133913 0.602203
O O4 0.074238 0.277578 0.875383
O O5 0.811009 0.822956 0.599800
O O6 0.338760 0.674341 0.660641
O O7 0.124889 0.372932 0.317192
O O8 0.499961 0.384319 0.542789
O O9 0.288875 0.639675 0.793423
O O10 0.000000 0.500000 0.500000
O O11 0.263218 0.010720 0.863764
O O12 0.883389 0.566959 0.821852
O O13 0.234976 0.748314 0.967593
O O14 0.000000 0.000000 0.000000
O O15 0.546169 0.594114 0.972216
O O16 0.379249 0.487388 0.193153
#
# Coordination Sequence:
#
# PCOD9068924 Si02
#       8
#     1   2   2   2   2   2   2   2
#     4  12  24  48  68 102 148 186 244 296 358 428
#     4  12  25  48  72 102 149 193 241 299 362 437
#     4  12  25  45  76 106 140 196 241 294 370 439
#     4  12  21  42  75 101 139 187 240 299 356 431
#     4  12  27  47  69 109 150 184 237 309 362 428
#     4  12  24  45  72 104 145 189 236 301 365 433
#     4  12  26  47  71 106 145 191 243 301 364 432
#     4  12  26  44  77 109 142 192 248 298 368 438
#
# _framework density 24.840357000000001
#
# number of rings (size 3 to 8) (size 9 to 14) (size 15 to 20)
#    0.000    0.000    6.667    3.200    1.867    0.533 
#    2.400    0.000    0.000    0.000    0.000    0.000 
#    0.000    0.000    0.000    0.000    0.000    0.000 
#
# Total GULP energy -83604.023720 kJ/mol
# GULP energy per Si atom -5573.601581 kJ/mol
# Density = 2.478382 g / cm^3
# Si number density = 24.840357 Si / 1000 Ang^3
#
#
#
# Elastic Constant Matrix: (Units=GPa)
#
#
# Indices 1 2 3 4 5 6 
#
# 1 107.7654 21.1083 9.7932 -2.1699 4.9274 20.3608
# 2 21.1083 73.0310 9.8886 18.1907 4.0650 1.9215
# 3 9.7932 9.8886 50.4508 7.7577 -3.9586 -0.2668
# 4 -2.1699 18.1907 7.7577 30.7013 4.3243 17.6651
# 5 4.9274 4.0650 -3.9586 4.3243 36.1823 -2.2086
# 6 20.3608 1.9215 -0.2668 17.6651 -2.2086 36.4915
#
#
#
# Elastic Compliance Matrix: (Units=1/GPa)
#
#
# Indices 1 2 3 4 5 6 
#
# 1 0.014539 -0.006915 -0.004358 0.015941 -0.004548 -0.015772
# 2 -0.006915 0.020187 0.000713 -0.020212 0.001943 0.012702
# 3 -0.004358 0.000713 0.022857 -0.012283 0.005020 0.008811
# 4 0.015941 -0.020212 -0.012283 0.077160 -0.013278 -0.046076
# 5 -0.004548 0.001943 0.005020 -0.013278 0.030832 0.010766
# 6 -0.015772 0.012702 0.008811 -0.046076 0.010766 0.058556
#
#
# Mechanical properties :
#
#
# Convention : Reuss Voigt Hill
#
# Bulk Modulus (GPa) = 27.42543 34.75861 31.09202
# Shear Modulus (GPa) = 19.42470 33.37216 26.39843
#
# Velocity S-wave (km/s) = 2.79943 3.66931 3.26348
# Velocity P-wave (km/s) = 4.63829 5.65464 5.17149
#
# Compressibility (1/GPa) = 0.03646250
#
# Stress axis : x y z
#
# Youngs Moduli (GPa) = 68.78186 49.53706 43.75069
#
# Poissons Ratio (x) = 0.34253 0.19068
# Poissons Ratio (y) = 0.47560 -0.03120
# Poissons Ratio (z) = 0.29978 -0.03532
#
# Static dielectric constant tensor:
#      x y z
#    x 2.115500 -0.190470 0.032270 
#    y -0.190470 2.354360 0.013930 
#    z 0.032270 0.013930 1.950600 
# 
# From -- ./inp_files/495944.got.cif
#   From: 2010.05.17/outbox.cif.g08.bks.cpg/sg2_248_cif.got.tgz:495944.got - 2010.06.03 11:33:40.
