data_PCOD9068560
_publ_section_title
;
Structure prediction by ZEFSAII (Michael W. Deem and Ramdas Pophale) SiO2 
 PCOD9068560
Probable space group: P -1
;
_chemical_formula_sum "Si O2"
_cell_formula_units_Z 12
_cell_length_a 19.888349
_cell_length_b 5.142177
_cell_length_c 5.083694
_cell_angle_alpha 83.106256
_cell_angle_beta 112.592833
_cell_angle_gamma 80.768080
_cell_volume 464.281100
_symmetry_space_group_name_H-M "P -1"
_symmetry_group_IT_number 2
_symmetry_cell_setting 'triclinic'
loop_
_space_group_symop_operation_xyz
x,y,z
-x,-y,-z
loop_
_atom_site_type_symbol
_atom_site_label
_atom_site_fract_x
_atom_site_fract_y
_atom_site_fract_z
Si Si1 0.436982 0.845449 0.631880
Si Si2 0.590563 0.677809 0.045164
Si Si3 0.720750 0.048340 0.819507
Si Si4 0.848340 0.578947 0.092356
Si Si5 0.249334 0.633961 0.680861
Si Si6 0.053009 0.980413 0.832704
O O1 0.526011 0.762920 0.715751
O O2 0.369347 0.906342 0.315396
O O3 0.423667 0.588872 0.804852
O O4 0.422160 0.090011 0.785053
O O5 0.676930 0.595419 0.111801
O O6 0.739267 0.248166 0.599157
O O7 0.749241 0.132988 0.130564
O O8 0.770130 0.758721 0.843468
O O9 0.823038 0.480595 0.349199
O O10 0.888689 0.306064 0.045927
O O11 0.903410 0.780565 0.149182
O O12 0.000000 0.000000 0.500000
O O13 0.000000 0.000000 0.000000
#
# Coordination Sequence:
#
# PCOD9068560 Si02
#       6
#     2   2   2   2   2   2
#     4   9  20  40  66  99 145 197 250 303 357 421
#     4   9  20  40  66  99 145 197 250 303 357 421
#     4  11  27  46  75 111 151 198 248 306 367 427
#     4  12  28  52  81 114 152 190 244 300 371 440
#     4  11  27  46  75 111 151 198 248 306 367 427
#     4  12  30  54  82 112 149 192 237 296 370 454
#
# _framework density 25.846411
#
# number of rings (size 3 to 8) (size 9 to 14) (size 15 to 20)
#    0.000    1.333    1.667    1.000   11.667    3.333 
#    0.000    0.833    0.000    0.000    0.000    0.000 
#    0.000    0.000    0.000    0.000    0.000    0.000 
#
# Total GULP energy -67271.960219 kJ/mol
# GULP energy per Si atom -5605.996685 kJ/mol
# Density = 2.578758 g / cm^3
# Si number density = 25.846411 Si / 1000 Ang^3
#
#
#
# Elastic Constant Matrix: (Units=GPa)
#
#
# Indices 1 2 3 4 5 6 
#
# 1 202.6982 50.2146 27.1353 7.5988 9.0350 6.4576
# 2 50.2146 171.9615 17.2496 -8.2067 6.8288 4.6055
# 3 27.1353 17.2496 97.4901 -6.0016 8.0610 0.0126
# 4 7.5988 -8.2067 -6.0016 39.1519 -7.0178 13.2487
# 5 9.0350 6.8288 8.0610 -7.0178 37.0239 -1.9967
# 6 6.4576 4.6055 0.0126 13.2487 -1.9967 56.8465
#
#
#
# Elastic Compliance Matrix: (Units=1/GPa)
#
#
# Indices 1 2 3 4 5 6 
#
# 1 0.005612 -0.001543 -0.001303 -0.001770 -0.001144 -0.000140
# 2 -0.001543 0.006443 -0.000570 0.001752 -0.000397 -0.000769
# 3 -0.001303 -0.000570 0.010958 0.001594 -0.001673 -0.000238
# 4 -0.001770 0.001752 0.001594 0.029656 0.005023 -0.006676
# 5 -0.001144 -0.000397 -0.001673 0.005023 0.028678 -0.000001
# 6 -0.000140 -0.000769 -0.000238 -0.006676 -0.000001 0.019225
#
#
# Mechanical properties :
#
#
# Convention : Reuss Voigt Hill
#
# Bulk Modulus (GPa) = 61.80493 73.48320 67.64406
# Shear Modulus (GPa) = 44.32668 51.77448 48.05058
#
# Velocity S-wave (km/s) = 4.14575 4.48052 4.31638
# Velocity P-wave (km/s) = 6.84694 7.43365 7.14632
#
# Compressibility (1/GPa) = 0.01617994
#
# Stress axis : x y z
#
# Youngs Moduli (GPa) = 178.18716 155.20640 91.26141
#
# Poissons Ratio (x) = 0.23954 0.11894
# Poissons Ratio (y) = 0.27501 0.05199
# Poissons Ratio (z) = 0.23224 0.08842
#
# Static dielectric constant tensor:
#      x y z
#    x 2.082040 0.079100 0.003350 
#    y 0.079100 2.037050 -0.052190 
#    z 0.003350 -0.052190 2.075510 
# 
# From -- ./inp_files/114610.got.cif
#   From: 2010.05.17/outbox.cif.g08.bks.cpg/sg2_58_cif.got.tgz:114610.got - 2010.06.03 11:33:40.
