data_PCOD9068720
_publ_section_title
;
Structure prediction by ZEFSAII (Michael W. Deem and Ramdas Pophale) SiO2 
 PCOD9068720
Probable space group: P -1
;
_chemical_formula_sum "Si O2"
_cell_formula_units_Z 14
_cell_length_a 5.205113
_cell_length_b 19.182231
_cell_length_c 12.681553
_cell_angle_alpha 30.764654
_cell_angle_beta 79.445450
_cell_angle_gamma 97.490554
_cell_volume 522.162572
_symmetry_space_group_name_H-M "P -1"
_symmetry_group_IT_number 2
_symmetry_cell_setting 'triclinic'
loop_
_space_group_symop_operation_xyz
x,y,z
-x,-y,-z
loop_
_atom_site_type_symbol
_atom_site_label
_atom_site_fract_x
_atom_site_fract_y
_atom_site_fract_z
Si Si1 0.186528 0.548882 0.242354
Si Si2 0.196395 0.595145 0.756913
Si Si3 0.225297 0.268296 0.585166
Si Si4 0.397000 0.847122 0.566020
Si Si5 0.295976 0.094132 0.986908
Si Si6 0.201068 0.194491 0.252930
Si Si7 0.826662 0.180835 0.003268
O O1 0.167445 0.390473 0.494326
O O2 0.013562 0.481450 0.230844
O O3 0.050036 0.636203 0.203125
O O4 0.556070 0.695254 0.000683
O O5 0.528476 0.620151 0.671698
O O6 0.316508 0.781744 0.537615
O O7 0.000000 0.500000 0.000000
O O8 0.391743 0.207982 0.727832
O O9 0.919795 0.097186 0.786532
O O10 0.065516 0.773614 0.745192
O O11 0.594328 0.785386 0.685809
O O12 0.611430 0.046412 0.286528
O O13 0.584566 0.136563 0.983162
O O14 0.075561 0.137688 0.009445
O O15 0.000000 0.000000 0.500000
#
# Coordination Sequence:
#
# PCOD9068720 Si02
#       7
#     2   2   2   2   2   2   2
#     4  12  29  44  77 114 156 197 258 314 387 448
#     4  12  26  46  74 110 153 195 249 313 380 447
#     4  11  28  49  81 110 152 200 261 314 378 453
#     4  12  25  45  74 106 152 202 248 306 377 456
#     4  11  28  53  80 111 148 208 257 314 375 453
#     4  12  26  44  73 109 155 201 249 309 379 456
#     4  12  27  48  79 111 152 200 255 315 380 445
#
# _framework density 26.811572999999999
#
# number of rings (size 3 to 8) (size 9 to 14) (size 15 to 20)
#    0.000    0.286    4.286    3.000    6.000    3.429 
#    0.000    0.000    0.000    0.000    0.000    0.000 
#    0.000    0.000    0.000    0.000    0.000    0.000 
#
# Total GULP energy -78524.025039 kJ/mol
# GULP energy per Si atom -5608.858931 kJ/mol
# Density = 2.675055 g / cm^3
# Si number density = 26.811573 Si / 1000 Ang^3
#
#
#
# Elastic Constant Matrix: (Units=GPa)
#
#
# Indices 1 2 3 4 5 6 
#
# 1 102.7027 29.4030 41.8913 2.4967 -5.7209 1.1495
# 2 29.4030 127.6053 27.8019 -26.1584 -6.3024 -6.9900
# 3 41.8913 27.8019 129.6187 -6.1847 -5.5247 -10.2323
# 4 2.4967 -26.1584 -6.1847 49.2322 -8.4471 6.7181
# 5 -5.7209 -6.3024 -5.5247 -8.4471 44.2397 8.0472
# 6 1.1495 -6.9900 -10.2323 6.7181 8.0472 60.0880
#
#
#
# Elastic Compliance Matrix: (Units=1/GPa)
#
#
# Indices 1 2 3 4 5 6 
#
# 1 0.011956 -0.002457 -0.003491 -0.002132 0.000524 -0.000941
# 2 -0.002457 0.009860 -0.000959 0.005568 0.002005 0.000140
# 3 -0.003491 -0.000959 0.009211 0.000713 0.000447 0.001384
# 4 -0.002132 0.005568 0.000713 0.024847 0.005851 -0.002752
# 5 0.000524 0.002005 0.000447 0.005851 0.024799 -0.003676
# 6 -0.000941 0.000140 0.001384 -0.002752 -0.003676 0.017712
#
#
# Mechanical properties :
#
#
# Convention : Reuss Voigt Hill
#
# Bulk Modulus (GPa) = 58.09237 62.01325 60.05281
# Shear Modulus (GPa) = 42.39610 48.10066 45.24838
#
# Velocity S-wave (km/s) = 3.98082 4.24019 4.11255
# Velocity P-wave (km/s) = 6.54547 6.86671 6.70802
#
# Compressibility (1/GPa) = 0.01721397
#
# Stress axis : x y z
#
# Youngs Moduli (GPa) = 83.64294 101.42286 108.56634
#
# Poissons Ratio (x) = 0.24920 0.37896
# Poissons Ratio (y) = 0.20551 0.10407
# Poissons Ratio (z) = 0.29196 0.09722
#
# Static dielectric constant tensor:
#      x y z
#    x 2.103500 -0.033030 0.003120 
#    y -0.033030 2.134590 -0.015950 
#    z 0.003120 -0.015950 2.141250 
# 
# From -- ./inp_files/485744.got.cif
#   From: 2010.05.17/outbox.cif.g08.bks.cpg/sg2_243_cif.got.tgz:485744.got - 2010.06.03 11:33:40.
