data_PCOD9068089
_publ_section_title
;
Structure prediction by ZEFSAII (Michael W. Deem and Ramdas Pophale) SiO2 
 PCOD9068089
Probable space group: P -1
;
_chemical_formula_sum "Si O2"
_cell_formula_units_Z 16
_cell_length_a 9.660134
_cell_length_b 9.246683
_cell_length_c 14.589153
_cell_angle_alpha 69.453615
_cell_angle_beta 80.369422
_cell_angle_gamma 33.283911
_cell_volume 649.193683
_symmetry_space_group_name_H-M "P -1"
_symmetry_group_IT_number 2
_symmetry_cell_setting 'triclinic'
loop_
_space_group_symop_operation_xyz
x,y,z
-x,-y,-z
loop_
_atom_site_type_symbol
_atom_site_label
_atom_site_fract_x
_atom_site_fract_y
_atom_site_fract_z
Si Si1 0.322440 0.314769 0.934000
Si Si2 0.285903 0.908417 0.435122
Si Si3 0.481921 0.052094 0.323525
Si Si4 0.665265 0.299233 0.865263
Si Si5 0.898311 0.672054 0.199354
Si Si6 0.919291 0.752332 0.455579
Si Si7 0.305998 0.627991 0.359691
Si Si8 0.104156 0.700018 0.029884
O O1 0.476714 0.329288 0.893073
O O2 0.152258 0.425865 0.840614
O O3 0.177607 0.487950 0.005795
O O4 0.500000 0.000000 0.000000
O O5 0.209040 0.874490 0.365878
O O6 0.445280 0.656351 0.545686
O O7 0.457771 0.893963 0.386711
O O8 0.059664 0.194261 0.457724
O O9 0.190124 0.380881 0.268799
O O10 0.672631 0.890130 0.251184
O O11 0.620871 0.018106 0.396589
O O12 0.634798 0.395367 0.746783
O O13 0.658767 0.438102 0.912488
O O14 0.953307 0.960579 0.924744
O O15 0.911230 0.813170 0.103954
O O16 0.000000 0.500000 0.500000
O O17 0.085471 0.703753 0.380898
#
# Coordination Sequence:
#
# PCOD9068089 Si02
#       8
#     2   2   2   2   2   2   2   2
#     4  12  25  48  77 107 154 202 256 322 383 453
#     4  11  26  47  75 110 154 198 256 319 383 463
#     4  12  27  46  79 115 154 202 262 320 389 460
#     4  11  26  48  75 108 153 202 255 312 393 458
#     4  12  27  46  79 115 154 202 262 320 389 460
#     4  12  25  48  77 107 154 202 256 322 383 453
#     4  11  26  48  75 108 153 202 255 312 393 458
#     4  11  26  47  75 110 154 198 256 319 383 463
#
# _framework density 24.645956999999999
#
# number of rings (size 3 to 8) (size 9 to 14) (size 15 to 20)
#    0.000    0.500    2.500    4.500    7.000    1.000 
#    0.000    0.000    0.000    0.000    0.000    0.000 
#    0.000    0.000    0.000    0.000    0.000    0.000 
#
# Total GULP energy -89705.026158 kJ/mol
# GULP energy per Si atom -5606.564135 kJ/mol
# Density = 2.458986 g / cm^3
# Si number density = 24.645957 Si / 1000 Ang^3
#
#
#
# Elastic Constant Matrix: (Units=GPa)
#
#
# Indices 1 2 3 4 5 6 
#
# 1 124.6577 3.8705 21.2897 18.0713 0.1720 6.0897
# 2 3.8705 96.9973 23.7843 16.9759 1.5235 12.9964
# 3 21.2897 23.7843 95.5110 13.1538 -13.6627 -3.2323
# 4 18.0713 16.9759 13.1538 40.3147 -6.9652 5.0623
# 5 0.1720 1.5235 -13.6627 -6.9652 57.1373 8.1947
# 6 6.0897 12.9964 -3.2323 5.0623 8.1947 46.0103
#
#
#
# Elastic Compliance Matrix: (Units=1/GPa)
#
#
# Indices 1 2 3 4 5 6 
#
# 1 0.008907 0.000905 -0.001839 -0.003788 -0.000809 -0.001003
# 2 0.000905 0.012183 -0.002894 -0.004397 -0.001113 -0.003082
# 3 -0.001839 -0.002894 0.012261 -0.001722 0.002567 0.001654
# 4 -0.003788 -0.004397 -0.001722 0.029844 0.003687 -0.002318
# 5 -0.000809 -0.001113 0.002567 0.003687 0.019056 -0.003198
# 6 -0.001003 -0.003082 0.001654 -0.002318 -0.003198 0.023679
#
#
# Mechanical properties :
#
#
# Convention : Reuss Voigt Hill
#
# Bulk Modulus (GPa) = 38.91523 46.11720 42.51622
# Shear Modulus (GPa) = 40.93349 46.57390 43.75369
#
# Velocity S-wave (km/s) = 4.07979 4.35180 4.21799
# Velocity P-wave (km/s) = 6.16578 6.63351 6.40392
#
# Compressibility (1/GPa) = 0.02569688
#
# Stress axis : x y z
#
# Youngs Moduli (GPa) = 112.26976 82.08134 81.56038
#
# Poissons Ratio (x) = -0.07432 0.14998
# Poissons Ratio (y) = -0.10166 0.23601
# Poissons Ratio (z) = 0.20645 0.23752
#
# Static dielectric constant tensor:
#      x y z
#    x 1.941260 -0.004540 0.017620 
#    y -0.004540 2.007310 -0.029300 
#    z 0.017620 -0.029300 1.972510 
# 
# From -- ./inp_files/494644.got.cif
#   From: 2010.05.17/outbox.cif.g08.bks.cpg/sg2_248_cif.got.tgz:494644.got - 2010.06.03 11:33:40.
