data_PCOD9068749
_publ_section_title
;
Structure prediction by ZEFSAII (Michael W. Deem and Ramdas Pophale) SiO2 
 PCOD9068749
Probable space group: P -1
;
_chemical_formula_sum "Si O2"
_cell_formula_units_Z 10
_cell_length_a 16.154957
_cell_length_b 5.423146
_cell_length_c 5.032903
_cell_angle_alpha 95.919168
_cell_angle_beta 94.757751
_cell_angle_gamma 111.987094
_cell_volume 403.138872
_symmetry_space_group_name_H-M "P -1"
_symmetry_group_IT_number 2
_symmetry_cell_setting 'triclinic'
loop_
_space_group_symop_operation_xyz
x,y,z
-x,-y,-z
loop_
_atom_site_type_symbol
_atom_site_label
_atom_site_fract_x
_atom_site_fract_y
_atom_site_fract_z
Si Si1 0.564460 0.547458 0.772362
Si Si2 0.712924 0.371968 0.607927
Si Si3 0.997376 0.758714 0.169907
Si Si4 0.728743 0.071832 0.050136
Si Si5 0.846905 0.861357 0.400528
O O1 0.500000 0.500000 0.500000
O O2 0.620714 0.361312 0.714601
O O3 0.641960 0.839084 0.875153
O O4 0.500000 0.500000 0.000000
O O5 0.769483 0.670934 0.550705
O O6 0.763446 0.287134 0.847597
O O7 0.701280 0.190948 0.322257
O O8 0.081593 0.884020 0.403355
O O9 0.905929 0.695652 0.303496
O O10 0.000000 0.500000 0.000000
O O11 0.000000 0.000000 0.000000
O O12 0.800063 0.952964 0.158875
#
# Coordination Sequence:
#
# PCOD9068749 Si02
#       5
#     2   2   2   2   2
#     4  12  27  50  75 117 162 201 271 338 407 492
#     4  12  28  48  82 115 156 215 271 334 412 489
#     4  11  30  51  81 118 168 218 276 346 414 484
#     4  12  28  48  82 115 156 215 271 334 412 489
#     4  11  29  50  77 118 162 206 281 336 403 495
#
# _framework density 24.805350000000001
#
# number of rings (size 3 to 8) (size 9 to 14) (size 15 to 20)
#    0.000    0.400    0.000    6.000   14.000    6.400 
#    0.000    3.000    0.000    0.000    0.000    0.000 
#    0.000    0.000    0.000    0.000    0.000    0.000 
#
# Total GULP energy -56133.441985 kJ/mol
# GULP energy per Si atom -5613.344198 kJ/mol
# Density = 2.474889 g / cm^3
# Si number density = 24.805350 Si / 1000 Ang^3
#
#
#
# Elastic Constant Matrix: (Units=GPa)
#
#
# Indices 1 2 3 4 5 6 
#
# 1 160.3558 52.8985 79.7842 10.8833 12.7302 -17.2826
# 2 52.8985 111.3871 67.0721 13.5932 21.9645 -28.8772
# 3 79.7842 67.0721 206.1309 17.5354 14.5746 -17.5985
# 4 10.8833 13.5932 17.5354 71.1190 -9.4960 6.8790
# 5 12.7302 21.9645 14.5746 -9.4960 74.6953 12.8985
# 6 -17.2826 -28.8772 -17.5985 6.8790 12.8985 30.8089
#
#
#
# Elastic Compliance Matrix: (Units=1/GPa)
#
#
# Indices 1 2 3 4 5 6 
#
# 1 0.008333 -0.001641 -0.002357 -0.000740 -0.000980 0.002365
# 2 -0.001641 0.019385 -0.002715 -0.006047 -0.009274 0.020931
# 3 -0.002357 -0.002715 0.006766 -0.000856 -0.000282 0.000307
# 4 -0.000740 -0.006047 -0.000856 0.017711 0.006619 -0.013298
# 5 -0.000980 -0.009274 -0.000282 0.006619 0.020542 -0.019482
# 6 0.002365 0.020931 0.000307 -0.013298 -0.019482 0.064704
#
#
# Mechanical properties :
#
#
# Convention : Reuss Voigt Hill
#
# Bulk Modulus (GPa) = 47.48979 97.48704 72.48841
# Shear Modulus (GPa) = 31.66776 53.86592 42.76684
#
# Velocity S-wave (km/s) = 3.57690 4.66504 4.15673
# Velocity P-wave (km/s) = 6.02042 8.27061 7.23355
#
# Compressibility (1/GPa) = 0.02105716
#
# Stress axis : x y z
#
# Youngs Moduli (GPa) = 119.99947 51.58535 147.79630
#
# Poissons Ratio (x) = 0.08467 0.34839
# Poissons Ratio (y) = 0.19696 0.40130
# Poissons Ratio (z) = 0.28286 0.14007
#
# Static dielectric constant tensor:
#      x y z
#    x 1.955750 -0.009430 -0.050300 
#    y -0.009430 2.013670 0.013040 
#    z -0.050300 0.013040 1.950570 
# 
# From -- ./inp_files/86008.got.cif
#   From: 2010.05.17/outbox.cif.g08.bks.cpg/sg2_44_cif.got.tgz:86008.got - 2010.06.03 11:33:40.
