data_PCOD9068493
_publ_section_title
;
Structure prediction by ZEFSAII (Michael W. Deem and Ramdas Pophale) SiO2 
 PCOD9068493
Probable space group: P -1
;
_chemical_formula_sum "Si O2"
_cell_formula_units_Z 16
_cell_length_a 15.567509
_cell_length_b 14.554681
_cell_length_c 8.686563
_cell_angle_alpha 88.993672
_cell_angle_beta 72.679830
_cell_angle_gamma 26.552311
_cell_volume 682.476051
_symmetry_space_group_name_H-M "P -1"
_symmetry_group_IT_number 2
_symmetry_cell_setting 'triclinic'
loop_
_space_group_symop_operation_xyz
x,y,z
-x,-y,-z
loop_
_atom_site_type_symbol
_atom_site_label
_atom_site_fract_x
_atom_site_fract_y
_atom_site_fract_z
Si Si1 0.754458 0.198741 0.041124
Si Si2 0.481863 0.134224 0.176318
Si Si3 0.260605 0.264443 0.783688
Si Si4 0.160822 0.068657 0.154804
Si Si5 0.626148 0.657113 0.451706
Si Si6 0.796881 0.255083 0.688210
Si Si7 0.819432 0.955331 0.519310
Si Si8 0.960701 0.616072 0.390878
O O1 0.761325 0.244696 0.873743
O O2 0.477264 0.477797 0.248376
O O3 0.787480 0.059792 0.990939
O O4 0.000000 0.000000 0.000000
O O5 0.422423 0.250979 0.358308
O O6 0.241305 0.365093 0.190277
O O7 0.543243 0.973740 0.206509
O O8 0.712919 0.958851 0.972112
O O9 0.318091 0.312484 0.698616
O O10 0.220898 0.243611 0.649266
O O11 0.000000 0.500000 0.000000
O O12 0.870291 0.362270 0.329529
O O13 0.273504 0.931823 0.263346
O O14 0.385459 0.834757 0.508593
O O15 0.929732 0.227101 0.637821
O O16 0.000000 0.000000 0.500000
O O17 0.873957 0.795010 0.498277
O O18 0.000000 0.500000 0.500000
#
# Coordination Sequence:
#
# PCOD9068493 Si02
#       8
#     2   2   2   2   2   2   2   2
#     4  11  28  47  78 108 146 183 237 299 360 437
#     4  12  25  43  70  98 141 183 238 293 353 422
#     4  12  25  45  64 103 143 187 244 295 349 425
#     4  12  27  45  68 110 136 180 246 288 354 439
#     4  12  26  46  69 101 142 191 238 290 360 423
#     4  11  26  52  74 109 146 187 236 295 367 430
#     4  12  26  46  74 101 145 190 233 296 357 424
#     4  12  24  44  72  98 141 190 233 297 355 410
#
# _framework density 23.444047000000001
#
# number of rings (size 3 to 8) (size 9 to 14) (size 15 to 20)
#    0.000    0.250    6.250    1.875    5.250    1.000 
#    0.000    0.000    0.000    0.000    0.000    0.000 
#    0.000    0.000    0.000    0.000    0.000    0.000 
#
# Total GULP energy -89604.678049 kJ/mol
# GULP energy per Si atom -5600.292378 kJ/mol
# Density = 2.339069 g / cm^3
# Si number density = 23.444047 Si / 1000 Ang^3
#
#
#
# Elastic Constant Matrix: (Units=GPa)
#
#
# Indices 1 2 3 4 5 6 
#
# 1 93.3094 26.6830 10.3447 12.5386 -10.6475 -8.1790
# 2 26.6830 109.2290 19.7690 32.2785 -1.1009 -24.2741
# 3 10.3447 19.7690 87.0448 23.1936 -12.0289 -4.0415
# 4 12.5386 32.2785 23.1936 43.6005 5.3680 -10.8199
# 5 -10.6475 -1.1009 -12.0289 5.3680 38.4497 4.4587
# 6 -8.1790 -24.2741 -4.0415 -10.8199 4.4587 40.7354
#
#
#
# Elastic Compliance Matrix: (Units=1/GPa)
#
#
# Indices 1 2 3 4 5 6 
#
# 1 0.012076 -0.002234 0.000212 -0.002361 0.003666 0.000086
# 2 -0.002234 0.013214 -0.000463 -0.007569 0.000049 0.005364
# 3 0.000212 -0.000463 0.014635 -0.008680 0.006038 -0.001748
# 4 -0.002361 -0.007569 -0.008680 0.036148 -0.009185 0.004761
# 5 0.003666 0.000049 0.006038 -0.009185 0.030711 -0.004436
# 6 0.000086 0.005364 -0.001748 0.004761 -0.004436 0.029339
#
#
# Mechanical properties :
#
#
# Convention : Reuss Voigt Hill
#
# Bulk Modulus (GPa) = 28.60929 44.79741 36.70335
# Shear Modulus (GPa) = 32.73471 40.07620 36.40545
#
# Velocity S-wave (km/s) = 3.74075 4.13902 3.94492
# Velocity P-wave (km/s) = 5.55764 6.48010 6.03652
#
# Compressibility (1/GPa) = 0.03495368
#
# Stress axis : x y z
#
# Youngs Moduli (GPa) = 82.81123 75.67824 68.33157
#
# Poissons Ratio (x) = 0.16910 -0.01450
# Poissons Ratio (y) = 0.18504 0.03163
# Poissons Ratio (z) = -0.01757 0.03503
#
# Static dielectric constant tensor:
#      x y z
#    x 1.883510 -0.015370 -0.006230 
#    y -0.015370 1.883170 0.032780 
#    z -0.006230 0.032780 1.922310 
# 
# From -- ./inp_files/315212.got.cif
#   From: 2010.05.17/outbox.cif.g08.bks.cpg/sg2_158_cif.got.tgz:315212.got - 2010.06.03 11:33:40.
