data_PCOD9068147
_publ_section_title
;
Structure prediction by ZEFSAII (Michael W. Deem and Ramdas Pophale) SiO2 
 PCOD9068147
Probable space group: P -1
;
_chemical_formula_sum "Si O2"
_cell_formula_units_Z 14
_cell_length_a 11.275421
_cell_length_b 6.055506
_cell_length_c 11.275393
_cell_angle_alpha 95.291957
_cell_angle_beta 129.845907
_cell_angle_gamma 95.289693
_cell_volume 576.921437
_symmetry_space_group_name_H-M "P -1"
_symmetry_group_IT_number 2
_symmetry_cell_setting 'triclinic'
loop_
_space_group_symop_operation_xyz
x,y,z
-x,-y,-z
loop_
_atom_site_type_symbol
_atom_site_label
_atom_site_fract_x
_atom_site_fract_y
_atom_site_fract_z
Si Si1 0.883509 0.766398 0.883520
Si Si2 0.325185 0.848210 0.882004
Si Si3 0.669509 0.057760 0.669507
Si Si4 0.105215 0.575601 0.322919
Si Si5 0.882009 0.848173 0.325196
Si Si6 0.677099 0.424422 0.894812
Si Si7 0.669962 0.499984 0.330025
O O1 0.949487 0.616918 0.820091
O O2 0.820106 0.616950 0.949528
O O3 0.730472 0.834052 0.730492
O O4 0.000000 0.000000 0.000000
O O5 0.302608 0.716527 0.736736
O O6 0.191616 0.000032 0.808389
O O7 0.315636 0.667575 0.972590
O O8 0.500000 0.000000 0.000000
O O9 0.792980 0.209046 0.668402
O O10 0.668418 0.209113 0.792971
O O11 0.500000 0.000000 0.500000
O O12 0.224665 0.486862 0.484876
O O13 0.972604 0.667532 0.315662
O O14 0.736746 0.716500 0.302624
O O15 0.000000 0.000000 0.500000
O O16 0.515141 0.513175 0.775390
#
# Coordination Sequence:
#
# PCOD9068147 Si02
#       7
#     2   2   2   2   2   2   2
#     4  11  28  53  77 111 156 203 260 332 389 446
#     4  12  28  49  78 117 158 206 254 322 397 461
#     4  11  26  47  80 109 150 210 257 321 388 457
#     4  11  27  48  78 115 151 204 268 313 388 475
#     4  12  28  49  78 117 158 206 254 322 397 461
#     4  11  27  48  78 115 151 204 268 313 388 475
#     4  12  26  49  76 117 156 202 266 312 388 482
#
# _framework density 24.266735000000001
#
# number of rings (size 3 to 8) (size 9 to 14) (size 15 to 20)
#    0.000    0.571    2.857    2.571    8.000    8.000 
#    0.000    2.143    0.000    0.000    0.000    0.000 
#    0.000    0.000    0.000    0.000    0.000    0.000 
#
# Total GULP energy -78581.062573 kJ/mol
# GULP energy per Si atom -5612.933041 kJ/mol
# Density = 2.421150 g / cm^3
# Si number density = 24.266735 Si / 1000 Ang^3
#
#
#
# Elastic Constant Matrix: (Units=GPa)
#
#
# Indices 1 2 3 4 5 6 
#
# 1 112.3675 55.2224 71.7468 2.6806 -9.6519 -5.6700
# 2 55.2224 122.9222 64.7238 -8.9178 5.1702 -3.7581
# 3 71.7468 64.7238 132.0522 -5.0077 22.7192 3.5818
# 4 2.6806 -8.9178 -5.0077 66.3202 -3.7103 13.3411
# 5 -9.6519 5.1702 22.7192 -3.7103 30.7779 -7.4722
# 6 -5.6700 -3.7581 3.5818 13.3411 -7.4722 44.7463
#
#
#
# Elastic Compliance Matrix: (Units=1/GPa)
#
#
# Indices 1 2 3 4 5 6 
#
# 1 0.020959 -0.003157 -0.013304 -0.002724 0.018377 0.007337
# 2 -0.003157 0.011811 -0.004101 0.001307 0.000354 0.000590
# 3 -0.013304 -0.004101 0.020585 0.001943 -0.020301 -0.007648
# 4 -0.002724 0.001307 0.001943 0.016539 -0.001883 -0.005637
# 5 0.018377 0.000354 -0.020301 -0.001883 0.056340 0.013953
# 6 0.007337 0.000590 -0.007648 -0.005637 0.013953 0.027950
#
#
# Mechanical properties :
#
#
# Convention : Reuss Voigt Hill
#
# Bulk Modulus (GPa) = 81.76016 83.41422 82.58719
# Shear Modulus (GPa) = 25.07691 40.07880 32.57786
#
# Velocity S-wave (km/s) = 3.21812 4.06839 3.66798
# Velocity P-wave (km/s) = 6.89738 7.51782 7.21427
#
# Compressibility (1/GPa) = 0.01223090
#
# Stress axis : x y z
#
# Youngs Moduli (GPa) = 47.71161 84.66836 48.57855
#
# Poissons Ratio (x) = 0.26729 0.64630
# Poissons Ratio (y) = 0.15062 0.19922
# Poissons Ratio (z) = 0.63477 0.34723
#
# Static dielectric constant tensor:
#      x y z
#    x 1.918960 -0.009170 0.013250 
#    y -0.009170 1.919590 -0.018800 
#    z 0.013250 -0.018800 1.938480 
# 
# From -- ./inp_files/410939.got.cif
#   From: 2010.05.17/outbox.cif.g08.bks.cpg/sg2_206_cif.got.tgz:410939.got - 2010.06.03 11:33:40.
