data_PCOD9068421
_publ_section_title
;
Structure prediction by ZEFSAII (Michael W. Deem and Ramdas Pophale) SiO2 
 PCOD9068421
Probable space group: P -1
;
_chemical_formula_sum "Si O2"
_cell_formula_units_Z 10
_cell_length_a 17.424469
_cell_length_b 7.109421
_cell_length_c 4.948565
_cell_angle_alpha 47.444935
_cell_angle_beta 113.572862
_cell_angle_gamma 116.357322
_cell_volume 399.983505
_symmetry_space_group_name_H-M "P -1"
_symmetry_group_IT_number 2
_symmetry_cell_setting 'triclinic'
loop_
_space_group_symop_operation_xyz
x,y,z
-x,-y,-z
loop_
_atom_site_type_symbol
_atom_site_label
_atom_site_fract_x
_atom_site_fract_y
_atom_site_fract_z
Si Si1 0.731809 0.429665 0.644407
Si Si2 0.398956 0.921122 0.505667
Si Si3 0.601473 0.580563 0.640107
Si Si4 0.856732 0.463065 0.281507
Si Si5 0.989494 0.242363 0.433895
O O1 0.665144 0.603746 0.452511
O O2 0.789237 0.428706 0.462227
O O3 0.616074 0.342280 0.077628
O O4 0.803069 0.504351 0.905865
O O5 0.339923 0.847993 0.228630
O O6 0.500000 0.000000 0.500000
O O7 0.378139 0.154630 0.417395
O O8 0.500000 0.500000 0.500000
O O9 0.898974 0.225788 0.477860
O O10 0.937831 0.684797 0.300581
O O11 0.000000 0.000000 0.500000
O O12 0.000000 0.500000 0.000000
#
# Coordination Sequence:
#
# PCOD9068421 Si02
#       5
#     2   2   2   2   2
#     4  12  26  49  76 114 156 198 256 317 368 452
#     4  12  27  47  75 107 149 205 259 315 374 439
#     4  12  27  47  75 107 149 205 259 315 374 439
#     4  11  26  50  76 120 150 198 250 312 382 449
#     4  11  26  52  83 111 155 198 244 310 383 463
#
# _framework density 25.001028000000002
#
# number of rings (size 3 to 8) (size 9 to 14) (size 15 to 20)
#    0.000    0.400    6.000    1.200    0.000    6.400 
#    0.000    0.000    0.000    0.000    0.000    0.000 
#    0.000    0.000    0.000    0.000    0.000    0.000 
#
# Total GULP energy -55929.629233 kJ/mol
# GULP energy per Si atom -5592.962923 kJ/mol
# Density = 2.494412 g / cm^3
# Si number density = 25.001028 Si / 1000 Ang^3
#
#
#
# Elastic Constant Matrix: (Units=GPa)
#
#
# Indices 1 2 3 4 5 6 
#
# 1 226.3955 77.7967 31.5306 7.2873 -16.4337 -37.3818
# 2 77.7967 219.2198 51.3453 10.8537 23.4091 -41.1357
# 3 31.5306 51.3453 110.0262 2.8804 13.5000 -25.2918
# 4 7.2873 10.8537 2.8804 46.2400 -17.2148 11.6407
# 5 -16.4337 23.4091 13.5000 -17.2148 31.4860 7.8801
# 6 -37.3818 -41.1357 -25.2918 11.6407 7.8801 79.5922
#
#
#
# Elastic Compliance Matrix: (Units=1/GPa)
#
#
# Indices 1 2 3 4 5 6 
#
# 1 0.005948 -0.002667 -0.001404 0.002413 0.007029 -0.000079
# 2 -0.002667 0.008361 -0.000031 -0.007877 -0.013285 0.005526
# 3 -0.001404 -0.000031 0.012037 -0.005550 -0.010148 0.004966
# 4 0.002413 -0.007877 -0.005550 0.039928 0.034827 -0.013989
# 5 0.007029 -0.013285 -0.010148 0.034827 0.073493 -0.019159
# 6 -0.000079 0.005526 0.004966 -0.013989 -0.019159 0.020904
#
#
# Mechanical properties :
#
#
# Convention : Reuss Voigt Hill
#
# Bulk Modulus (GPa) = 55.11731 97.44297 76.28014
# Shear Modulus (GPa) = 28.58399 57.79491 43.18945
#
# Velocity S-wave (km/s) = 3.38496 4.81323 4.16084
# Velocity P-wave (km/s) = 6.11319 8.36360 7.32533
#
# Compressibility (1/GPa) = 0.01814312
#
# Stress axis : x y z
#
# Youngs Moduli (GPa) = 168.11027 119.60410 83.07399
#
# Poissons Ratio (x) = 0.31899 0.11662
# Poissons Ratio (y) = 0.44836 0.00257
# Poissons Ratio (z) = 0.23600 0.00370
#
# Static dielectric constant tensor:
#      x y z
#    x 1.971490 0.018010 -0.039870 
#    y 0.018010 1.952430 0.010270 
#    z -0.039870 0.010270 2.117530 
# 
# From -- ./inp_files/5557.got.cif
#   From: 2010.05.17/outbox.cif.g08.bks.cpg/sg2_3_cif.got.tgz:5557.got - 2010.06.03 11:33:40.
