data_PCOD9068978
_publ_section_title
;
Structure prediction by ZEFSAII (Michael W. Deem and Ramdas Pophale) SiO2 
 PCOD9068978
Probable space group: P -1
;
_chemical_formula_sum "Si O2"
_cell_formula_units_Z 16
_cell_length_a 18.592198
_cell_length_b 13.437383
_cell_length_c 9.268908
_cell_angle_alpha 46.338764
_cell_angle_beta 72.277374
_cell_angle_gamma 34.853788
_cell_volume 740.321995
_symmetry_space_group_name_H-M "P -1"
_symmetry_group_IT_number 2
_symmetry_cell_setting 'triclinic'
loop_
_space_group_symop_operation_xyz
x,y,z
-x,-y,-z
loop_
_atom_site_type_symbol
_atom_site_label
_atom_site_fract_x
_atom_site_fract_y
_atom_site_fract_z
Si Si1 0.201836 0.239369 0.949875
Si Si2 0.642982 0.123117 0.064802
Si Si3 0.087856 0.877422 0.918204
Si Si4 0.674343 0.203790 0.479379
Si Si5 0.129951 0.127469 0.589279
Si Si6 0.656040 0.712012 0.097283
Si Si7 0.574018 0.749552 0.784246
Si Si8 0.114619 0.891854 0.423177
O O1 0.232201 0.334629 0.914348
O O2 0.012777 0.544674 0.713558
O O3 0.297281 0.067187 0.913459
O O4 0.275820 0.005431 0.244355
O O5 0.511893 0.443900 0.760635
O O6 0.549491 0.175333 0.182164
O O7 0.794067 0.950135 0.226786
O O8 0.065453 0.074024 0.690203
O O9 0.278616 0.543457 0.110921
O O10 0.003980 0.897137 0.848741
O O11 0.000000 0.000000 0.000000
O O12 0.791565 0.135025 0.536217
O O13 0.725497 0.099801 0.387382
O O14 0.748299 0.434645 0.387989
O O15 0.627275 0.713431 0.948336
O O16 0.500000 0.000000 0.000000
O O17 0.500000 0.000000 0.500000
O O18 0.000000 0.000000 0.500000
#
# Coordination Sequence:
#
# PCOD9068978 Si02
#       8
#     2   2   2   2   2   2   2   2
#     4  12  27  44  73 110 141 188 245 289 356 427
#     4  12  26  49  67 104 152 188 231 297 360 429
#     4  12  28  46  74 106 139 191 239 294 363 424
#     4  12  25  47  72 104 138 195 239 292 359 423
#     4  12  26  47  71 103 149 188 235 299 359 421
#     4  12  23  45  73 102 139 186 238 298 347 415
#     4  12  28  46  72 106 144 188 238 295 359 427
#     4  12  21  47  74  94 139 185 241 296 351 412
#
# _framework density 21.612217000000001
#
# number of rings (size 3 to 8) (size 9 to 14) (size 15 to 20)
#    0.000    0.000    7.500    1.500    7.000    1.000 
#    0.000    0.000    0.000    0.000    0.000    0.000 
#    0.000    0.000    0.000    0.000    0.000    0.000 
#
# Total GULP energy -89445.489183 kJ/mol
# GULP energy per Si atom -5590.343074 kJ/mol
# Density = 2.156303 g / cm^3
# Si number density = 21.612217 Si / 1000 Ang^3
#
#
#
# Elastic Constant Matrix: (Units=GPa)
#
#
# Indices 1 2 3 4 5 6 
#
# 1 89.5897 -11.7011 16.0834 12.3617 8.8442 14.6963
# 2 -11.7011 85.9174 -23.5994 -2.3048 -4.7178 2.8533
# 3 16.0834 -23.5994 68.9168 -4.6607 -12.0190 -4.4893
# 4 12.3617 -2.3048 -4.6607 32.9349 5.3965 3.0283
# 5 8.8442 -4.7178 -12.0190 5.3965 33.4866 0.6446
# 6 14.6963 2.8533 -4.4893 3.0283 0.6446 18.5248
#
#
#
# Elastic Compliance Matrix: (Units=1/GPa)
#
#
# Indices 1 2 3 4 5 6 
#
# 1 0.015406 0.000655 -0.005365 -0.004519 -0.004929 -0.012713
# 2 0.000655 0.013359 0.004968 0.000993 0.003364 -0.001653
# 3 -0.005365 0.004968 0.019644 0.003058 0.008531 0.007454
# 4 -0.004519 0.000993 0.003058 0.033140 -0.002888 -0.001144
# 5 -0.004929 0.003364 0.008531 -0.002888 0.035075 0.004711
# 6 -0.012713 -0.001653 0.007454 -0.001144 0.004711 0.066151
#
#
# Mechanical properties :
#
#
# Convention : Reuss Voigt Hill
#
# Bulk Modulus (GPa) = 20.43926 22.88776 21.66351
# Shear Modulus (GPa) = 25.18051 34.56533 29.87292
#
# Velocity S-wave (km/s) = 3.41707 4.00352 3.72186
# Velocity P-wave (km/s) = 5.00462 5.65544 5.33996
#
# Compressibility (1/GPa) = 0.04892545
#
# Stress axis : x y z
#
# Youngs Moduli (GPa) = 64.90908 74.85550 50.90742
#
# Poissons Ratio (x) = -0.04903 0.27309
# Poissons Ratio (y) = -0.04251 -0.25290
# Poissons Ratio (z) = 0.34821 -0.37187
#
# Static dielectric constant tensor:
#      x y z
#    x 1.829070 -0.013150 0.082950 
#    y -0.013150 4.555140 -1.145650 
#    z 0.082950 -1.145650 2.358130 
# 
# From -- ./inp_files/207721.got.cif
#   From: 2010.05.17/outbox.cif.g08.bks.cpg/sg2_104_cif.got.tgz:207721.got - 2010.06.03 11:33:40.
