data_PCOD9068937
_publ_section_title
;
Structure prediction by ZEFSAII (Michael W. Deem and Ramdas Pophale) SiO2 
 PCOD9068937
Probable space group: P -1
;
_chemical_formula_sum "Si O2"
_cell_formula_units_Z 14
_cell_length_a 23.300166
_cell_length_b 18.433645
_cell_length_c 9.556774
_cell_angle_alpha 32.980982
_cell_angle_beta 148.470718
_cell_angle_gamma 163.580256
_cell_volume 600.455419
_symmetry_space_group_name_H-M "P -1"
_symmetry_group_IT_number 2
_symmetry_cell_setting 'triclinic'
loop_
_space_group_symop_operation_xyz
x,y,z
-x,-y,-z
loop_
_atom_site_type_symbol
_atom_site_label
_atom_site_fract_x
_atom_site_fract_y
_atom_site_fract_z
Si Si1 0.073317 0.782488 0.771641
Si Si2 0.774174 0.548216 0.048949
Si Si3 0.376092 0.447388 0.005723
Si Si4 0.409777 0.696412 0.439126
Si Si5 0.547200 0.014120 0.735139
Si Si6 0.171121 0.951992 0.385543
Si Si7 0.784225 0.805549 0.446683
O O1 0.069843 0.808262 0.556560
O O2 0.834359 0.529779 0.745904
O O3 0.194074 0.032587 0.688897
O O4 0.787274 0.845744 0.864417
O O5 0.694133 0.515757 0.086399
O O6 0.754327 0.655799 0.735927
O O7 0.626375 0.279522 0.115320
O O8 0.015854 0.755397 0.251313
O O9 0.594690 0.617871 0.246200
O O10 0.404200 0.552789 0.748162
O O11 0.470754 0.878348 0.376663
O O12 0.598230 0.877689 0.425649
O O13 0.784274 0.199203 0.938509
O O14 0.500000 0.000000 0.500000
O O15 0.000000 0.000000 0.500000
#
# Coordination Sequence:
#
# PCOD9068937 Si02
#       7
#     2   2   2   2   2   2   2
#     4  12  24  46  70  97 139 177 227 288 339 399
#     4  12  23  43  71 100 135 184 223 276 350 400
#     4  12  21  44  68 100 138 173 228 282 341 400
#     4  12  26  44  69 103 135 185 231 272 336 414
#     4  12  25  46  71  96 138 187 227 274 339 409
#     4  12  25  43  71 102 136 176 229 287 342 397
#     4  12  24  41  70 105 136 176 229 286 342 401
#
# _framework density 23.315635
#
# number of rings (size 3 to 8) (size 9 to 14) (size 15 to 20)
#    0.000    0.000    5.714    5.143    0.000    1.143 
#    0.000    1.429    0.000    0.000    0.000    0.000 
#    0.000    0.000    0.000    0.000    0.000    0.000 
#
# Total GULP energy -78513.229061 kJ/mol
# GULP energy per Si atom -5608.087790 kJ/mol
# Density = 2.326257 g / cm^3
# Si number density = 23.315635 Si / 1000 Ang^3
#
#
#
# Elastic Constant Matrix: (Units=GPa)
#
#
# Indices 1 2 3 4 5 6 
#
# 1 75.4322 27.0310 24.5511 -4.6243 14.8247 2.9107
# 2 27.0310 112.2221 9.3117 21.9381 15.7003 3.6448
# 3 24.5511 9.3117 50.5531 27.5916 9.4952 0.9742
# 4 -4.6243 21.9381 27.5916 40.7240 0.4421 12.0073
# 5 14.8247 15.7003 9.4952 0.4421 23.5297 1.3873
# 6 2.9107 3.6448 0.9742 12.0073 1.3873 45.8754
#
#
#
# Elastic Compliance Matrix: (Units=1/GPa)
#
#
# Indices 1 2 3 4 5 6 
#
# 1 0.028176 -0.010125 -0.028202 0.030205 0.000306 -0.008299
# 2 -0.010125 0.015495 0.015541 -0.021386 -0.010124 0.004985
# 3 -0.028202 0.015541 0.067898 -0.062067 -0.019775 0.015956
# 4 0.030205 -0.021386 -0.062067 0.087985 0.019962 -0.022532
# 5 0.000306 -0.010124 -0.019775 0.019962 0.057005 -0.005744
# 6 -0.008299 0.004985 0.015956 -0.022532 -0.005744 0.027661
#
#
# Mechanical properties :
#
#
# Convention : Reuss Voigt Hill
#
# Bulk Modulus (GPa) = 15.15214 39.99944 27.57579
# Shear Modulus (GPa) = 14.21298 33.84672 24.02985
#
# Velocity S-wave (km/s) = 2.47167 3.81422 3.21383
# Velocity P-wave (km/s) = 3.82862 6.04901 5.06206
#
# Compressibility (1/GPa) = 0.06599726
#
# Stress axis : x y z
#
# Youngs Moduli (GPa) = 35.49138 64.53531 14.72807
#
# Poissons Ratio (x) = 0.65340 0.41536
# Poissons Ratio (y) = 0.35934 -0.22889
# Poissons Ratio (z) = 1.00093 -1.00294
#
# Static dielectric constant tensor:
#      x y z
#    x 1.895380 0.033950 -0.018770 
#    y 0.033950 1.913840 0.004640 
#    z -0.018770 0.004640 1.898500 
# 
# From -- ./inp_files/354774.got.cif
#   From: 2010.05.17/outbox.cif.g08.bks.cpg/sg2_178_cif.got.tgz:354774.got - 2010.06.03 11:33:40.
