data_PCOD9068308
_publ_section_title
;
Structure prediction by ZEFSAII (Michael W. Deem and Ramdas Pophale) SiO2 
 PCOD9068308
Probable space group: P -1
;
_chemical_formula_sum "Si O2"
_cell_formula_units_Z 16
_cell_length_a 9.763668
_cell_length_b 13.727100
_cell_length_c 8.906211
_cell_angle_alpha 54.615763
_cell_angle_beta 101.415460
_cell_angle_gamma 67.118729
_cell_volume 740.857954
_symmetry_space_group_name_H-M "P -1"
_symmetry_group_IT_number 2
_symmetry_cell_setting 'triclinic'
loop_
_space_group_symop_operation_xyz
x,y,z
-x,-y,-z
loop_
_atom_site_type_symbol
_atom_site_label
_atom_site_fract_x
_atom_site_fract_y
_atom_site_fract_z
Si Si1 0.642233 0.245629 0.854203
Si Si2 0.215593 0.897860 0.667170
Si Si3 0.499374 0.383434 0.208285
Si Si4 0.670006 0.497358 0.607858
Si Si5 0.942344 0.632103 0.249244
Si Si6 0.340355 0.021707 0.037857
Si Si7 0.190733 0.364650 0.099707
Si Si8 0.605363 0.938015 0.426065
O O1 0.696725 0.343797 0.708366
O O2 0.427631 0.373061 0.660092
O O3 0.699504 0.089967 0.930010
O O4 0.716895 0.207333 0.074056
O O5 0.320175 0.786834 0.644847
O O6 0.295678 0.987810 0.641436
O O7 0.000000 0.000000 0.500000
O O8 0.451396 0.431157 0.330728
O O9 0.335081 0.390816 0.113482
O O10 0.500000 0.500000 0.000000
O O11 0.869871 0.435230 0.728281
O O12 0.000000 0.500000 0.500000
O O13 0.835516 0.799556 0.154728
O O14 0.817532 0.666217 0.049892
O O15 0.450287 0.963882 0.267054
O O16 0.500000 0.000000 0.000000
O O17 0.244576 0.237986 0.348211
O O18 0.000000 0.500000 0.000000
O O19 0.500000 0.000000 0.500000
#
# Coordination Sequence:
#
# PCOD9068308 Si02
#       8
#     2   2   2   2   2   2   2   2
#     4  11  26  49  71 105 152 193 243 304 373 440
#     4  12  28  48  74 109 152 197 250 302 369 449
#     4  12  25  48  77 107 149 196 241 310 373 436
#     4  11  26  49  74 107 148 193 250 308 374 445
#     4  12  28  46  75 109 148 190 251 310 370 454
#     4  12  25  47  73 105 148 196 245 302 377 442
#     4  12  27  45  76 110 144 192 251 309 370 442
#     4  12  25  47  75 105 146 197 247 311 365 431
#
# _framework density 21.596582000000001
#
# number of rings (size 3 to 8) (size 9 to 14) (size 15 to 20)
#    0.000    0.250    6.250    1.500    7.000    0.500 
#    4.500    0.000    0.000    0.000    0.000    0.000 
#    0.000    0.000    0.000    0.000    0.000    0.000 
#
# Total GULP energy -89176.151210 kJ/mol
# GULP energy per Si atom -5573.509451 kJ/mol
# Density = 2.154743 g / cm^3
# Si number density = 21.596582 Si / 1000 Ang^3
#
#
#
# Elastic Constant Matrix: (Units=GPa)
#
#
# Indices 1 2 3 4 5 6 
#
# 1 92.5721 45.3865 29.3828 -9.5295 9.8869 -1.5130
# 2 45.3865 122.8213 51.5767 -11.4956 0.0091 -0.7469
# 3 29.3828 51.5767 134.1727 -12.1855 6.7641 -0.0752
# 4 -9.5295 -11.4956 -12.1855 53.6825 2.3555 5.0568
# 5 9.8869 0.0091 6.7641 2.3555 32.5493 -5.2887
# 6 -1.5130 -0.7469 -0.0752 5.0568 -5.2887 42.9076
#
#
#
# Elastic Compliance Matrix: (Units=1/GPa)
#
#
# Indices 1 2 3 4 5 6 
#
# 1 0.013966 -0.004632 -0.000931 0.001487 -0.004201 -0.000283
# 2 -0.004632 0.011345 -0.003385 0.000728 0.002087 0.000200
# 3 -0.000931 -0.003385 0.009167 0.001312 -0.001789 -0.000451
# 4 0.001487 0.000728 0.001312 0.019700 -0.002568 -0.002571
# 5 -0.004201 0.002087 -0.001789 -0.002568 0.033252 0.004286
# 6 -0.000283 0.000200 -0.000451 -0.002571 0.004286 0.024130
#
#
# Mechanical properties :
#
#
# Convention : Reuss Voigt Hill
#
# Bulk Modulus (GPa) = 60.31170 66.91757 63.61463
# Shear Modulus (GPa) = 37.04108 40.70922 38.87515
#
# Velocity S-wave (km/s) = 4.14591 4.34635 4.24731
# Velocity P-wave (km/s) = 7.13479 7.49935 7.31934
#
# Compressibility (1/GPa) = 0.01658053
#
# Stress axis : x y z
#
# Youngs Moduli (GPa) = 71.60184 88.14828 109.08122
#
# Poissons Ratio (x) = 0.40832 0.10157
# Poissons Ratio (y) = 0.33167 0.36929
# Poissons Ratio (z) = 0.06667 0.29842
#
# Static dielectric constant tensor:
#      x y z
#    x 1.811580 0.013150 -0.015680 
#    y 0.013150 1.797870 -0.008050 
#    z -0.015680 -0.008050 1.841080 
# 
# From -- ./inp_files/205645.got.cif
#   From: 2010.05.17/outbox.cif.g08.bks.cpg/sg2_103_cif.got.tgz:205645.got - 2010.06.03 11:33:40.
