data_PCOD9068201
_publ_section_title
;
Structure prediction by ZEFSAII (Michael W. Deem and Ramdas Pophale) SiO2 
 PCOD9068201
Probable space group: P -1
;
_chemical_formula_sum "Si O2"
_cell_formula_units_Z 15
_cell_length_a 17.563093
_cell_length_b 11.614923
_cell_length_c 9.862839
_cell_angle_alpha 45.788812
_cell_angle_beta 142.500287
_cell_angle_gamma 152.687728
_cell_volume 561.776549
_symmetry_space_group_name_H-M "P -1"
_symmetry_group_IT_number 2
_symmetry_cell_setting 'triclinic'
loop_
_space_group_symop_operation_xyz
x,y,z
-x,-y,-z
loop_
_atom_site_type_symbol
_atom_site_label
_atom_site_fract_x
_atom_site_fract_y
_atom_site_fract_z
Si Si1 0.703389 0.539164 0.176714
Si Si2 0.284528 0.987739 0.428994
Si Si3 0.942267 0.889741 0.699866
Si Si4 0.500000 0.000000 0.500000
Si Si5 0.399299 0.497574 0.663408
Si Si6 0.127144 0.356658 0.952849
Si Si7 0.833027 0.201166 0.006075
Si Si8 0.277218 0.837679 0.830082
O O1 0.629037 0.400155 0.334403
O O2 0.762287 0.515692 0.138687
O O3 0.902216 0.820941 0.278616
O O4 0.532379 0.490454 0.922677
O O5 0.475271 0.286078 0.447705
O O6 0.335753 0.895871 0.473752
O O7 0.231998 0.881913 0.591288
O O8 0.099120 0.901581 0.183134
O O9 0.795695 0.756282 0.475230
O O10 0.078361 0.870729 0.874460
O O11 0.814025 0.718568 0.792722
O O12 0.348098 0.907613 0.241497
O O13 0.149515 0.551326 0.892792
O O14 0.762952 0.101112 0.143147
O O15 0.000000 0.500000 0.000000
O O16 0.500000 0.000000 0.000000
#
# Coordination Sequence:
#
# PCOD9068201 Si02
#       8
#     2   2   2   1   2   2   2   2
#     4  11  27  50  74 105 146 189 249 305 361 429
#     4  12  25  45  71 106 147 193 238 296 367 428
#     4  12  24  47  75 107 143 190 247 298 363 433
#     4  12  22  42  72 100 144 188 232 284 360 422
#     4  11  26  48  74 104 140 195 247 298 365 428
#     4  12  26  47  72 108 147 188 241 300 363 434
#     4  12  24  45  73 105 146 189 239 297 356 430
#     4  12  26  45  68 112 148 187 240 292 368 438
#
# _framework density 26.701007000000001
#
# number of rings (size 3 to 8) (size 9 to 14) (size 15 to 20)
#    0.000    0.267    5.333    2.800    3.733    2.667 
#    2.400    0.000    0.000    0.000    0.000    0.000 
#    0.000    0.000    0.000    0.000    0.000    0.000 
#
# Total GULP energy -83922.517557 kJ/mol
# GULP energy per Si atom -5594.834504 kJ/mol
# Density = 2.664023 g / cm^3
# Si number density = 26.701007 Si / 1000 Ang^3
#
#
#
# Elastic Constant Matrix: (Units=GPa)
#
#
# Indices 1 2 3 4 5 6 
#
# 1 165.3938 -2.8797 37.6712 1.6469 -27.1249 5.5588
# 2 -2.8797 63.4875 -0.6658 18.5232 -13.4045 10.3783
# 3 37.6712 -0.6658 103.9132 21.3045 -29.9088 3.4043
# 4 1.6469 18.5232 21.3045 43.1371 12.0559 -12.3744
# 5 -27.1249 -13.4045 -29.9088 12.0559 58.4890 -4.5532
# 6 5.5588 10.3783 3.4043 -12.3744 -4.5532 34.1030
#
#
#
# Elastic Compliance Matrix: (Units=1/GPa)
#
#
# Indices 1 2 3 4 5 6 
#
# 1 0.006965 0.001975 -0.001017 -0.002135 0.003451 -0.001949
# 2 0.001975 0.032490 0.012159 -0.031254 0.019452 -0.020167
# 3 -0.001017 0.012159 0.019812 -0.022845 0.016249 -0.011632
# 4 -0.002135 -0.031254 -0.022845 0.065746 -0.030906 0.031870
# 5 0.003451 0.019452 0.016249 -0.030906 0.036713 -0.014417
# 6 -0.001949 -0.020167 -0.011632 0.031870 -0.014417 0.046578
#
#
# Mechanical properties :
#
#
# Convention : Reuss Voigt Hill
#
# Bulk Modulus (GPa) = 11.69568 44.56066 28.12817
# Shear Modulus (GPa) = 23.74499 47.05706 35.40102
#
# Velocity S-wave (km/s) = 2.98533 4.20261 3.64515
# Velocity P-wave (km/s) = 4.03395 6.34620 5.31728
#
# Compressibility (1/GPa) = 0.08550162
#
# Stress axis : x y z
#
# Youngs Moduli (GPa) = 143.57416 30.77827 50.47470
#
# Poissons Ratio (x) = -0.06080 0.05136
# Poissons Ratio (y) = -0.28362 -0.61373
# Poissons Ratio (z) = 0.14608 -0.37424
#
# Static dielectric constant tensor:
#      x y z
#    x 2.074250 0.023460 -0.010860 
#    y 0.023460 2.076240 -0.077420 
#    z -0.010860 -0.077420 2.027200 
# 
# From -- ./inp_files/332983.got.cif
#   From: 2010.05.17/outbox.cif.g08.bks.cpg/sg2_167_cif.got.tgz:332983.got - 2010.06.03 11:33:40.
