data_PCOD9068792
_publ_section_title
;
Structure prediction by ZEFSAII (Michael W. Deem and Ramdas Pophale) SiO2 
 PCOD9068792
Probable space group: P -1
;
_chemical_formula_sum "Si O2"
_cell_formula_units_Z 16
_cell_length_a 12.382982
_cell_length_b 11.933251
_cell_length_c 10.257403
_cell_angle_alpha 91.119966
_cell_angle_beta 124.206641
_cell_angle_gamma 128.334927
_cell_volume 809.493034
_symmetry_space_group_name_H-M "P -1"
_symmetry_group_IT_number 2
_symmetry_cell_setting 'triclinic'
loop_
_space_group_symop_operation_xyz
x,y,z
-x,-y,-z
loop_
_atom_site_type_symbol
_atom_site_label
_atom_site_fract_x
_atom_site_fract_y
_atom_site_fract_z
Si Si1 0.360957 0.300750 0.876382
Si Si2 0.806079 0.447981 0.345220
Si Si3 0.338048 0.815468 0.970224
Si Si4 0.572394 0.822668 0.317364
Si Si5 0.079659 0.849062 0.819558
Si Si6 0.021245 0.827090 0.479813
Si Si7 0.608419 0.801083 0.830530
Si Si8 0.337033 0.294867 0.396280
O O1 0.435879 0.271732 0.809519
O O2 0.138868 0.187854 0.675818
O O3 0.500000 0.500000 0.000000
O O4 0.354712 0.242053 0.012162
O O5 0.895626 0.629530 0.385563
O O6 0.633452 0.337259 0.337040
O O7 0.000000 0.500000 0.500000
O O8 0.699140 0.315750 0.149719
O O9 0.416628 0.816985 0.161367
O O10 0.129602 0.748886 0.844147
O O11 0.500000 0.000000 0.000000
O O12 0.582726 0.746755 0.447617
O O13 0.781461 0.029348 0.469450
O O14 0.101100 0.895894 0.682811
O O15 0.871154 0.775315 0.712513
O O16 0.252415 0.001042 0.041479
O O17 0.679818 0.779635 0.754141
O O18 0.500000 0.500000 0.500000
#
# Coordination Sequence:
#
# PCOD9068792 Si02
#       8
#     2   2   2   2   2   2   2   2
#     4  12  20  36  64  98 124 164 229 283 323 384
#     4  12  22  36  68 104 132 170 222 280 335 391
#     4  12  21  42  70 104 135 170 221 285 339 393
#     4  12  23  42  68 100 132 178 223 282 338 397
#     4  12  23  43  70  96 136 180 223 277 343 397
#     4  12  21  36  66 103 131 168 228 284 330 390
#     4  12  24  43  66  97 136 178 222 274 341 403
#     4  12  28  47  67  96 140 183 226 275 342 409
#
# _framework density 19.765457999999999
#
# number of rings (size 3 to 8) (size 9 to 14) (size 15 to 20)
#    0.000    0.000    8.750    3.000    0.000    0.000 
#    0.000    1.250    2.750    0.000    0.000    0.000 
#    0.000    0.000    0.000    0.000    0.000    0.000 
#
# Total GULP energy -89148.483114 kJ/mol
# GULP energy per Si atom -5571.780195 kJ/mol
# Density = 1.972047 g / cm^3
# Si number density = 19.765458 Si / 1000 Ang^3
#
#
#
# Elastic Constant Matrix: (Units=GPa)
#
#
# Indices 1 2 3 4 5 6 
#
# 1 84.2301 25.2195 28.9204 -21.5669 7.4673 -8.1402
# 2 25.2195 81.8712 28.6645 4.6239 -6.5698 -0.0516
# 3 28.9204 28.6645 95.2784 -16.6242 7.7893 -3.7926
# 4 -21.5669 4.6239 -16.6242 42.4371 -11.8695 -1.5660
# 5 7.4673 -6.5698 7.7893 -11.8695 56.1260 3.9992
# 6 -8.1402 -0.0516 -3.7926 -1.5660 3.9992 15.9709
#
#
#
# Elastic Compliance Matrix: (Units=1/GPa)
#
#
# Indices 1 2 3 4 5 6 
#
# 1 0.017337 -0.005386 -0.001613 0.008685 -0.001566 0.009680
# 2 -0.005386 0.015988 -0.004575 -0.005796 0.002349 -0.004936
# 3 -0.001613 -0.004575 0.013416 0.004652 -0.001424 0.003161
# 4 0.008685 -0.005796 0.004652 0.031747 0.003685 0.007703
# 5 -0.001566 0.002349 -0.001424 0.003685 0.019683 -0.005696
# 6 0.009680 -0.004936 0.003161 0.007703 -0.005696 0.070464
#
#
# Mechanical properties :
#
#
# Convention : Reuss Voigt Hill
#
# Bulk Modulus (GPa) = 42.38717 47.44319 44.91518
# Shear Modulus (GPa) = 25.04421 34.81179 29.92800
#
# Velocity S-wave (km/s) = 3.56345 4.20127 3.89544
# Velocity P-wave (km/s) = 6.19859 6.89851 6.55790
#
# Compressibility (1/GPa) = 0.02359204
#
# Stress axis : x y z
#
# Youngs Moduli (GPa) = 57.68112 62.54757 74.53936
#
# Poissons Ratio (x) = 0.33685 0.12027
# Poissons Ratio (y) = 0.31064 0.34103
# Poissons Ratio (z) = 0.09307 0.28616
#
# Static dielectric constant tensor:
#      x y z
#    x 1.626380 0.138020 0.200300 
#    y 0.138020 1.523560 -0.225900 
#    z 0.200300 -0.225900 1.498370 
# 
# From -- ./inp_files/262590.got.cif
#   From: 2010.05.17/outbox.cif.g08.bks.cpg/sg2_132_cif.got.tgz:262590.got - 2010.06.03 11:33:40.
