data_PCOD9068037
_publ_section_title
;
Structure prediction by ZEFSAII (Michael W. Deem and Ramdas Pophale) SiO2 
 PCOD9068037
Probable space group: P -1
;
_chemical_formula_sum "Si O2"
_cell_formula_units_Z 12
_cell_length_a 9.087667
_cell_length_b 14.355481
_cell_length_c 9.108754
_cell_angle_alpha 72.176353
_cell_angle_beta 113.200856
_cell_angle_gamma 153.801155
_cell_volume 478.896608
_symmetry_space_group_name_H-M "P -1"
_symmetry_group_IT_number 2
_symmetry_cell_setting 'triclinic'
loop_
_space_group_symop_operation_xyz
x,y,z
-x,-y,-z
loop_
_atom_site_type_symbol
_atom_site_label
_atom_site_fract_x
_atom_site_fract_y
_atom_site_fract_z
Si Si1 0.156769 0.309070 0.857003
Si Si2 0.368142 0.460236 0.310058
Si Si3 0.707845 0.237244 0.592899
Si Si4 0.087629 0.616842 0.711543
Si Si5 0.108355 0.969012 0.662824
Si Si6 0.297844 0.096067 0.997129
O O1 0.309420 0.335185 0.763345
O O2 0.004010 0.326531 0.725684
O O3 0.840303 0.086811 0.924699
O O4 0.500000 0.500000 0.000000
O O5 0.500000 0.500000 0.500000
O O6 0.098613 0.401309 0.257475
O O7 0.200674 0.266947 0.283345
O O8 0.688850 0.221927 0.417167
O O9 0.812307 0.401030 0.618233
O O10 0.339695 0.022128 0.628696
O O11 0.337819 0.691471 0.880602
O O12 0.308119 0.110422 0.819574
O O13 0.000000 0.000000 0.500000
O O14 0.000000 0.000000 0.000000
#
# Coordination Sequence:
#
# PCOD9068037 Si02
#       6
#     2   2   2   2   2   2
#     4  12  26  47  73 104 148 182 233 292 352 416
#     4  12  26  46  75 107 139 190 232 288 353 423
#     4  11  26  47  72 105 144 187 231 296 347 419
#     4  11  26  47  74 105 143 184 240 285 356 416
#     4  12  28  47  73 104 144 185 238 294 352 417
#     4  12  28  46  73 107 142 187 237 292 352 419
#
# _framework density 25.057601999999999
#
# number of rings (size 3 to 8) (size 9 to 14) (size 15 to 20)
#    0.000    0.333    3.333    4.000   11.667    3.333 
#    0.000    0.000    0.000    0.000    0.000    0.000 
#    0.000    0.000    0.000    0.000    0.000    0.000 
#
# Total GULP energy -67200.096990 kJ/mol
# GULP energy per Si atom -5600.008083 kJ/mol
# Density = 2.500057 g / cm^3
# Si number density = 25.057602 Si / 1000 Ang^3
#
#
#
# Elastic Constant Matrix: (Units=GPa)
#
#
# Indices 1 2 3 4 5 6 
#
# 1 117.1134 3.3267 43.3325 -9.5310 12.6385 23.7044
# 2 3.3267 57.1562 7.7986 -11.9861 -5.3069 5.3073
# 3 43.3325 7.7986 165.7000 3.2372 -11.9275 15.9455
# 4 -9.5310 -11.9861 3.2372 44.3309 13.7450 -4.8884
# 5 12.6385 -5.3069 -11.9275 13.7450 39.6862 -0.1957
# 6 23.7044 5.3073 15.9455 -4.8884 -0.1957 46.7757
#
#
#
# Elastic Compliance Matrix: (Units=1/GPa)
#
#
# Indices 1 2 3 4 5 6 
#
# 1 0.011586 0.000494 -0.003145 0.004244 -0.006061 -0.004437
# 2 0.000494 0.018816 -0.000939 0.004986 0.000342 -0.001543
# 3 -0.003145 -0.000939 0.007355 -0.002848 0.004068 -0.001087
# 4 0.004244 0.004986 -0.002848 0.028719 -0.011482 0.001208
# 5 -0.006061 0.000342 0.004068 -0.011482 0.032375 0.000581
# 6 -0.004437 -0.001543 -0.001087 0.001208 0.000581 0.024302
#
#
# Mechanical properties :
#
#
# Convention : Reuss Voigt Hill
#
# Bulk Modulus (GPa) = 32.70530 49.87613 41.29071
# Shear Modulus (GPa) = 35.58065 45.19268 40.38667
#
# Velocity S-wave (km/s) = 3.77232 4.25143 4.01902
# Velocity P-wave (km/s) = 5.66164 6.63682 6.16853
#
# Compressibility (1/GPa) = 0.03057609
#
# Stress axis : x y z
#
# Youngs Moduli (GPa) = 86.31090 53.14649 135.96509
#
# Poissons Ratio (x) = -0.02626 0.42766
# Poissons Ratio (y) = -0.04265 0.12769
# Poissons Ratio (z) = 0.27148 0.04991
#
# Static dielectric constant tensor:
#      x y z
#    x 2.065450 -0.200880 0.121710 
#    y -0.200880 2.222710 -0.100540 
#    z 0.121710 -0.100540 1.819680 
# 
# From -- ./inp_files/148892.got.cif
#   From: 2010.05.17/outbox.cif.g08.bks.cpg/sg2_75_cif.got.tgz:148892.got - 2010.06.03 11:33:40.
