data_PCOD9068539
_publ_section_title
;
Structure prediction by ZEFSAII (Michael W. Deem and Ramdas Pophale) SiO2 
 PCOD9068539
Probable space group: P -1
;
_chemical_formula_sum "Si O2"
_cell_formula_units_Z 12
_cell_length_a 8.940630
_cell_length_b 13.945494
_cell_length_c 4.979357
_cell_angle_alpha 69.921913
_cell_angle_beta 108.930477
_cell_angle_gamma 119.677211
_cell_volume 497.459540
_symmetry_space_group_name_H-M "P -1"
_symmetry_group_IT_number 2
_symmetry_cell_setting 'triclinic'
loop_
_space_group_symop_operation_xyz
x,y,z
-x,-y,-z
loop_
_atom_site_type_symbol
_atom_site_label
_atom_site_fract_x
_atom_site_fract_y
_atom_site_fract_z
Si Si1 0.795181 0.410640 0.944880
Si Si2 0.920627 0.750718 0.222645
Si Si3 0.747427 0.175953 0.927571
Si Si4 0.393385 0.039267 0.608068
Si Si5 0.863085 0.870867 0.577784
Si Si6 0.659574 0.489146 0.277631
O O1 0.801561 0.293514 0.993434
O O2 0.670480 0.436362 0.628979
O O3 0.717453 0.415744 0.182857
O O4 0.000000 0.500000 0.000000
O O5 0.848880 0.810415 0.341497
O O6 0.809264 0.616783 0.286321
O O7 0.132570 0.798167 0.296057
O O8 0.903910 0.791553 0.877472
O O9 0.542014 0.127620 0.797278
O O10 0.739127 0.069808 0.198239
O O11 0.293616 0.111280 0.385505
O O12 0.500000 0.000000 0.500000
O O13 0.000000 0.000000 0.500000
O O14 0.500000 0.500000 0.000000
#
# Coordination Sequence:
#
# PCOD9068539 Si02
#       6
#     2   2   2   2   2   2
#     4  12  27  49  78 112 146 203 253 309 374 450
#     4  12  27  47  74 104 151 196 243 308 373 449
#     4  11  27  45  73 106 148 194 248 310 371 447
#     4  11  27  45  72 108 148 191 249 309 373 444
#     4  12  26  45  74 107 145 195 247 301 376 447
#     4  12  29  49  75 113 153 194 253 312 380 442
#
# _framework density 24.122565999999999
#
# number of rings (size 3 to 8) (size 9 to 14) (size 15 to 20)
#    0.000    0.333    3.333    3.500   11.667    0.000 
#    0.000    0.000    0.000    0.000    0.000    0.000 
#    0.000    0.000    0.000    0.000    0.000    0.000 
#
# Total GULP energy -66954.429511 kJ/mol
# GULP energy per Si atom -5579.535793 kJ/mol
# Density = 2.406766 g / cm^3
# Si number density = 24.122566 Si / 1000 Ang^3
#
#
#
# Elastic Constant Matrix: (Units=GPa)
#
#
# Indices 1 2 3 4 5 6 
#
# 1 89.5571 29.3444 5.4963 4.1407 -5.0776 -18.5358
# 2 29.3444 144.3939 13.0372 5.4050 -5.8613 6.7975
# 3 5.4963 13.0372 82.4510 5.6189 -2.5854 10.2144
# 4 4.1407 5.4050 5.6189 31.1202 -11.2522 -9.9129
# 5 -5.0776 -5.8613 -2.5854 -11.2522 41.1778 2.6488
# 6 -18.5358 6.7975 10.2144 -9.9129 2.6488 23.6537
#
#
#
# Elastic Compliance Matrix: (Units=1/GPa)
#
#
# Indices 1 2 3 4 5 6 
#
# 1 0.015931 -0.003894 -0.002805 0.004931 0.001506 0.016712
# 2 -0.003894 0.008151 0.000002 -0.002901 0.000315 -0.006646
# 3 -0.002805 0.000002 0.013999 -0.005640 -0.000328 -0.010571
# 4 0.004931 -0.002901 -0.005640 0.044637 0.010451 0.024670
# 5 0.001506 0.000315 -0.000328 0.010451 0.027186 0.002567
# 6 0.016712 -0.006646 -0.010571 0.024670 0.002567 0.071899
#
#
# Mechanical properties :
#
#
# Convention : Reuss Voigt Hill
#
# Bulk Modulus (GPa) = 40.51168 45.79528 43.15348
# Shear Modulus (GPa) = 24.57893 37.09196 30.83544
#
# Velocity S-wave (km/s) = 3.19551 3.92554 3.57919
# Velocity P-wave (km/s) = 5.51776 6.29063 5.91683
#
# Compressibility (1/GPa) = 0.02468424
#
# Stress axis : x y z
#
# Youngs Moduli (GPa) = 62.77200 122.68402 71.43441
#
# Poissons Ratio (x) = 0.47778 0.20040
# Poissons Ratio (y) = 0.24446 -0.00012
# Poissons Ratio (z) = 0.17610 -0.00020
#
# Static dielectric constant tensor:
#      x y z
#    x 2.128090 0.073420 0.197770 
#    y 0.073420 1.843120 0.060500 
#    z 0.197770 0.060500 2.073870 
# 
# From -- ./inp_files/24481.got.cif
#   From: 2010.05.17/outbox.cif.g08.bks.cpg/sg2_13_cif.got.tgz:24481.got - 2010.06.03 11:33:40.
