data_PCOD9068128
_publ_section_title
;
Structure prediction by ZEFSAII (Michael W. Deem and Ramdas Pophale) SiO2 
 PCOD9068128
Probable space group: P -1
;
_chemical_formula_sum "Si O2"
_cell_formula_units_Z 13
_cell_length_a 5.271357
_cell_length_b 9.739414
_cell_length_c 12.565109
_cell_angle_alpha 69.940838
_cell_angle_beta 123.438711
_cell_angle_gamma 105.578939
_cell_volume 503.047252
_symmetry_space_group_name_H-M "P -1"
_symmetry_group_IT_number 2
_symmetry_cell_setting 'triclinic'
loop_
_space_group_symop_operation_xyz
x,y,z
-x,-y,-z
loop_
_atom_site_type_symbol
_atom_site_label
_atom_site_fract_x
_atom_site_fract_y
_atom_site_fract_z
Si Si1 0.705541 0.048360 0.815076
Si Si2 0.002375 0.611921 0.375587
Si Si3 0.000000 0.500000 0.000000
Si Si4 0.385305 0.201500 0.880841
Si Si5 0.491607 0.146412 0.526686
Si Si6 0.556304 0.713323 0.901484
Si Si7 0.902830 0.605867 0.718361
O O1 0.576747 0.096656 0.885041
O O2 0.473561 0.099184 0.658826
O O3 0.049747 0.124052 0.856728
O O4 0.694776 0.873380 0.853454
O O5 0.183432 0.758029 0.424545
O O6 0.000000 0.500000 0.500000
O O7 0.689426 0.662108 0.245077
O O8 0.165540 0.535893 0.335557
O O9 0.192246 0.397792 0.996150
O O10 0.154530 0.427350 0.162239
O O11 0.563047 0.264884 0.009457
O O12 0.262233 0.257091 0.400344
O O13 0.500000 0.000000 0.500000
O O14 0.264800 0.655922 0.781225
#
# Coordination Sequence:
#
# PCOD9068128 Si02
#       7
#     2   2   1   2   2   2   2
#     4  11  27  49  80 115 160 211 266 338 399 485
#     4  11  26  47  77 112 158 213 258 334 399 484
#     4  12  28  48  72 112 158 200 266 322 400 482
#     4  11  26  50  77 118 159 210 270 324 415 472
#     4  11  27  51  80 115 155 212 270 333 402 479
#     4  12  28  46  79 112 159 206 264 335 396 486
#     4  12  28  47  77 114 154 206 263 328 407 475
#
# _framework density 25.842502
#
# number of rings (size 3 to 8) (size 9 to 14) (size 15 to 20)
#    0.000    0.615    1.538    3.692   12.923    1.846 
#    0.000    0.000    0.000    0.000    0.000    0.000 
#    0.000    0.000    0.000    0.000    0.000    0.000 
#
# Total GULP energy -72731.373438 kJ/mol
# GULP energy per Si atom -5594.721034 kJ/mol
# Density = 2.578368 g / cm^3
# Si number density = 25.842502 Si / 1000 Ang^3
#
#
#
# Elastic Constant Matrix: (Units=GPa)
#
#
# Indices 1 2 3 4 5 6 
#
# 1 104.3225 35.5172 21.2047 7.7138 9.0009 -12.5679
# 2 35.5172 151.0286 32.6586 9.6309 16.0717 -6.8838
# 3 21.2047 32.6586 169.0110 -17.8578 6.9319 0.5610
# 4 7.7138 9.6309 -17.8578 49.3595 -15.2840 4.3879
# 5 9.0009 16.0717 6.9319 -15.2840 47.9923 1.7904
# 6 -12.5679 -6.8838 0.5610 4.3879 1.7904 40.5220
#
#
#
# Elastic Compliance Matrix: (Units=1/GPa)
#
#
# Indices 1 2 3 4 5 6 
#
# 1 0.011322 -0.001765 -0.001306 -0.002975 -0.002427 0.003659
# 2 -0.001765 0.007927 -0.001492 -0.002874 -0.003070 0.001267
# 3 -0.001306 -0.001492 0.006684 0.003284 0.000868 -0.001145
# 4 -0.002975 -0.002874 0.003284 0.025811 0.009440 -0.004668
# 5 -0.002427 -0.003070 0.000868 0.009440 0.025329 -0.003428
# 6 0.003659 0.001267 -0.001145 -0.004668 -0.003428 0.026701
#
#
# Mechanical properties :
#
#
# Convention : Reuss Voigt Hill
#
# Bulk Modulus (GPa) = 59.50361 67.01368 63.25864
# Shear Modulus (GPa) = 42.19248 49.90687 46.04967
#
# Velocity S-wave (km/s) = 4.04502 4.39930 4.22588
# Velocity P-wave (km/s) = 6.70013 7.19674 6.95287
#
# Compressibility (1/GPa) = 0.01680570
#
# Stress axis : x y z
#
# Youngs Moduli (GPa) = 88.32027 126.15354 149.60623
#
# Poissons Ratio (x) = 0.22272 0.19543
# Poissons Ratio (y) = 0.15592 0.22324
# Poissons Ratio (z) = 0.11537 0.18824
#
# Static dielectric constant tensor:
#      x y z
#    x 3.062570 1.496950 -0.333190 
#    y 1.496950 4.354100 -0.501050 
#    z -0.333190 -0.501050 2.160290 
# 
# From -- ./inp_files/59127.got.cif
#   From: 2010.05.17/outbox.cif.g08.bks.cpg/sg2_30_cif.got.tgz:59127.got - 2010.06.03 11:33:40.
