data_PCOD9068709
_publ_section_title
;
Structure prediction by ZEFSAII (Michael W. Deem and Ramdas Pophale) SiO2 
 PCOD9068709
Probable space group: P -1
;
_chemical_formula_sum "Si O2"
_cell_formula_units_Z 13
_cell_length_a 4.979821
_cell_length_b 12.054026
_cell_length_c 12.831707
_cell_angle_alpha 50.925660
_cell_angle_beta 71.771181
_cell_angle_gamma 56.463252
_cell_volume 497.675521
_symmetry_space_group_name_H-M "P -1"
_symmetry_group_IT_number 2
_symmetry_cell_setting 'triclinic'
loop_
_space_group_symop_operation_xyz
x,y,z
-x,-y,-z
loop_
_atom_site_type_symbol
_atom_site_label
_atom_site_fract_x
_atom_site_fract_y
_atom_site_fract_z
Si Si1 0.997150 0.108025 0.341236
Si Si2 0.500000 0.500000 0.000000
Si Si3 0.424539 0.005790 0.154537
Si Si4 0.225685 0.787746 0.010232
Si Si5 0.719063 0.684059 0.728925
Si Si6 0.371560 0.705577 0.275179
Si Si7 0.038957 0.604657 0.525704
O O1 0.650500 0.178614 0.287878
O O2 0.285407 0.015207 0.281167
O O3 0.036178 0.261306 0.285126
O O4 0.000000 0.000000 0.500000
O O5 0.488446 0.644612 0.991200
O O6 0.741610 0.524546 0.872876
O O7 0.690075 0.063642 0.084915
O O8 0.119323 0.138927 0.046918
O O9 0.506552 0.830676 0.204150
O O10 0.248134 0.724711 0.161872
O O11 0.763226 0.673732 0.604703
O O12 0.106694 0.734777 0.379151
O O13 0.649307 0.522054 0.371628
O O14 0.000000 0.500000 0.500000
#
# Coordination Sequence:
#
# PCOD9068709 Si02
#       7
#     2   1   2   2   2   2   2
#     4  12  26  48  75 112 147 198 243 310 379 445
#     4  12  26  50  78 108 156 188 258 310 370 454
#     4  12  26  50  74 114 150 196 252 307 381 446
#     4  12  28  47  78 111 148 201 249 313 379 438
#     4  12  28  47  77 107 150 193 251 309 372 444
#     4  11  28  48  76 108 154 196 253 309 371 458
#     4  11  28  48  74 110 146 206 247 307 377 442
#
# _framework density 26.121437
#
# number of rings (size 3 to 8) (size 9 to 14) (size 15 to 20)
#    0.000    0.308    3.077    3.231   15.077    1.231 
#    0.000    0.000    0.000    0.000    0.000    0.000 
#    0.000    0.000    0.000    0.000    0.000    0.000 
#
# Total GULP energy -72729.400199 kJ/mol
# GULP energy per Si atom -5594.569246 kJ/mol
# Density = 2.606198 g / cm^3
# Si number density = 26.121437 Si / 1000 Ang^3
#
#
#
# Elastic Constant Matrix: (Units=GPa)
#
#
# Indices 1 2 3 4 5 6 
#
# 1 75.5689 11.5085 36.2805 -0.3976 -6.3438 -3.5089
# 2 11.5085 84.1014 30.5356 23.4427 -2.2927 19.7439
# 3 36.2805 30.5356 196.9428 26.4983 -13.3193 6.7585
# 4 -0.3976 23.4427 26.4983 47.2998 -3.5182 -5.9071
# 5 -6.3438 -2.2927 -13.3193 -3.5182 43.4174 -2.3922
# 6 -3.5089 19.7439 6.7585 -5.9071 -2.3922 35.7728
#
#
#
# Elastic Compliance Matrix: (Units=1/GPa)
#
#
# Indices 1 2 3 4 5 6 
#
# 1 0.015532 -0.003248 -0.002950 0.004109 0.001783 0.004671
# 2 -0.003248 0.018204 -0.000495 -0.010366 -0.001170 -0.012062
# 3 -0.002950 -0.000495 0.006293 -0.003435 0.001101 -0.001699
# 4 0.004109 -0.010366 -0.003435 0.029871 0.002072 0.011844
# 5 0.001783 -0.001170 0.001101 0.002072 0.023877 0.002551
# 6 0.004671 -0.012062 -0.001699 0.011844 0.002551 0.037517
#
#
# Mechanical properties :
#
#
# Convention : Reuss Voigt Hill
#
# Bulk Modulus (GPa) = 37.53266 57.02914 47.28090
# Shear Modulus (GPa) = 32.56039 43.85056 38.20548
#
# Velocity S-wave (km/s) = 3.53441 4.10166 3.82856
# Velocity P-wave (km/s) = 5.57277 6.65667 6.13869
#
# Compressibility (1/GPa) = 0.02664346
#
# Stress axis : x y z
#
# Youngs Moduli (GPa) = 64.38234 54.93425 158.91150
#
# Poissons Ratio (x) = 0.17840 0.46884
# Poissons Ratio (y) = 0.20909 0.07861
# Poissons Ratio (z) = 0.18995 0.02717
#
# Static dielectric constant tensor:
#      x y z
#    x 2.051470 -0.061650 -0.011980 
#    y -0.061650 2.001140 -0.002140 
#    z -0.011980 -0.002140 2.079850 
# 
# From -- ./inp_files/66000.got.cif
#   From: 2010.05.17/outbox.cif.g08.bks.cpg/sg2_33_cif.got.tgz:66000.got - 2010.06.03 11:33:40.
