data_PCOD9068443
_publ_section_title
;
Structure prediction by ZEFSAII (Michael W. Deem and Ramdas Pophale) SiO2 
 PCOD9068443
Probable space group: P -1
;
_chemical_formula_sum "Si O2"
_cell_formula_units_Z 16
_cell_length_a 21.649830
_cell_length_b 19.269433
_cell_length_c 9.299306
_cell_angle_alpha 37.491493
_cell_angle_beta 156.792992
_cell_angle_gamma 153.997160
_cell_volume 658.172557
_symmetry_space_group_name_H-M "P -1"
_symmetry_group_IT_number 2
_symmetry_cell_setting 'triclinic'
loop_
_space_group_symop_operation_xyz
x,y,z
-x,-y,-z
loop_
_atom_site_type_symbol
_atom_site_label
_atom_site_fract_x
_atom_site_fract_y
_atom_site_fract_z
Si Si1 0.181861 0.160679 0.329360
Si Si2 0.919687 0.086065 0.147859
Si Si3 0.383891 0.485101 0.974229
Si Si4 0.829681 0.567365 0.832376
Si Si5 0.820535 0.824757 0.038339
Si Si6 0.413053 0.839717 0.504852
Si Si7 0.615159 0.302676 0.576669
Si Si8 0.696428 0.413912 0.102111
O O1 0.041911 0.168657 0.120968
O O2 0.435005 0.284267 0.713030
O O3 0.156747 0.174067 0.086362
O O4 0.048138 0.972215 0.358780
O O5 0.985636 0.238874 0.116843
O O6 0.000000 0.000000 0.500000
O O7 0.662235 0.928866 0.850640
O O8 0.260472 0.343161 0.826907
O O9 0.422022 0.621265 0.749890
O O10 0.603118 0.527152 0.413560
O O11 0.268401 0.466368 0.905033
O O12 0.789068 0.446921 0.824838
O O13 0.829943 0.505497 0.090922
O O14 0.625163 0.816790 0.660936
O O15 0.308392 0.767721 0.238358
O O16 0.500000 0.000000 0.500000
O O17 0.290320 0.697302 0.595380
#
# Coordination Sequence:
#
# PCOD9068443 Si02
#       8
#     2   2   2   2   2   2   2   2
#     4  11  19  30  51  86 123 144 185 232 293 335
#     4  12  22  35  61  92 117 149 195 240 286 347
#     4  10  18  28  50  83 121 151 180 227 294 344
#     4  11  20  33  57  87 118 150 196 241 289 342
#     4  10  19  28  49  86 125 144 177 239 294 339
#     4  11  25  44  60  81 117 160 198 244 297 348
#     4  10  20  34  55  80 116 155 192 235 292 349
#     4  11  20  36  58  84 117 157 194 234 291 354
#
# _framework density 24.309733000000001
#
# number of rings (size 3 to 8) (size 9 to 14) (size 15 to 20)
#    0.000    1.250    6.250    3.375    1.750    0.000 
#    0.000    1.875    0.000    0.000    0.000    0.000 
#    0.000    0.000    0.000    0.000    0.000    0.000 
#
# Total GULP energy -89173.434651 kJ/mol
# GULP energy per Si atom -5573.339666 kJ/mol
# Density = 2.425440 g / cm^3
# Si number density = 24.309733 Si / 1000 Ang^3
#
#
#
# Elastic Constant Matrix: (Units=GPa)
#
#
# Indices 1 2 3 4 5 6 
#
# 1 143.2879 41.1901 17.9497 -12.2996 -34.5330 -22.4868
# 2 41.1901 167.7871 5.8010 2.8418 -6.5567 -25.9716
# 3 17.9497 5.8010 25.4689 -3.8642 -9.4168 -1.0592
# 4 -12.2996 2.8418 -3.8642 27.7026 1.9164 2.7118
# 5 -34.5330 -6.5567 -9.4168 1.9164 23.3627 -0.1996
# 6 -22.4868 -25.9716 -1.0592 2.7118 -0.1996 58.2404
#
#
#
# Elastic Compliance Matrix: (Units=1/GPa)
#
#
# Indices 1 2 3 4 5 6 
#
# 1 0.012958 -0.001891 -0.001333 0.004139 0.017781 0.004004
# 2 -0.001891 0.006809 -0.000774 -0.001807 -0.001027 0.002373
# 3 -0.001333 -0.000774 0.047198 0.004952 0.016429 -0.000176
# 4 0.004139 -0.001807 0.004952 0.038593 0.004434 -0.000899
# 5 0.017781 -0.001027 0.016429 0.004434 0.075113 0.006757
# 6 0.004004 0.002373 -0.000176 -0.000899 0.006757 0.019836
#
#
# Mechanical properties :
#
#
# Convention : Reuss Voigt Hill
#
# Bulk Modulus (GPa) = 16.95781 51.82507 34.39144
# Shear Modulus (GPa) = 21.91461 39.96800 30.94130
#
# Velocity S-wave (km/s) = 3.00571 4.05917 3.57150
# Velocity P-wave (km/s) = 4.36310 6.58286 5.58438
#
# Compressibility (1/GPa) = 0.05896989
#
# Stress axis : x y z
#
# Youngs Moduli (GPa) = 77.17005 146.87429 21.18748
#
# Poissons Ratio (x) = 0.27767 0.02825
# Poissons Ratio (y) = 0.14589 0.01639
# Poissons Ratio (z) = 0.10289 0.11362
#
# Static dielectric constant tensor:
#      x y z
#    x 2.083950 0.050000 0.042380 
#    y 0.050000 1.904370 -0.115730 
#    z 0.042380 -0.115730 1.931440 
# 
# From -- ./inp_files/348856.got.cif
#   From: 2010.05.17/outbox.cif.g08.bks.cpg/sg2_175_cif.got.tgz:348856.got - 2010.06.03 11:33:40.
