data_PCOD9068148
_publ_section_title
;
Structure prediction by ZEFSAII (Michael W. Deem and Ramdas Pophale) SiO2 
 PCOD9068148
Probable space group: P -1
;
_chemical_formula_sum "Si O2"
_cell_formula_units_Z 15
_cell_length_a 14.408627
_cell_length_b 9.554141
_cell_length_c 8.737091
_cell_angle_alpha 119.220640
_cell_angle_beta 42.049317
_cell_angle_gamma 93.330195
_cell_volume 600.202051
_symmetry_space_group_name_H-M "P -1"
_symmetry_group_IT_number 2
_symmetry_cell_setting 'triclinic'
loop_
_space_group_symop_operation_xyz
x,y,z
-x,-y,-z
loop_
_atom_site_type_symbol
_atom_site_label
_atom_site_fract_x
_atom_site_fract_y
_atom_site_fract_z
Si Si1 0.474515 0.701745 0.675799
Si Si2 0.679386 0.675632 0.811532
Si Si3 0.148594 0.111402 0.783749
Si Si4 0.626179 0.788141 0.271650
Si Si5 0.193938 0.732816 0.542827
Si Si6 0.856010 0.200296 0.724591
Si Si7 0.500000 0.000000 0.000000
Si Si8 0.954836 0.665417 0.262037
O O1 0.500000 0.500000 0.500000
O O2 0.516370 0.738054 0.477148
O O3 0.555606 0.793138 0.731191
O O4 0.300571 0.797702 0.021388
O O5 0.681763 0.482402 0.674100
O O6 0.833262 0.668425 0.538311
O O7 0.534249 0.883571 0.054589
O O8 0.696615 0.671811 0.969770
O O9 0.228591 0.216230 0.817406
O O10 0.137184 0.149339 0.635521
O O11 0.240108 0.890729 0.594813
O O12 0.967599 0.200963 0.122931
O O13 0.500000 0.000000 0.500000
O O14 0.151338 0.759071 0.426344
O O15 0.892415 0.342701 0.848917
O O16 0.000000 0.000000 0.500000
O O17 0.000000 0.500000 0.000000
#
# Coordination Sequence:
#
# PCOD9068148 Si02
#       8
#     2   2   2   2   2   2   1   2
#     4  12  30  51  81 117 163 217 272 334 411 498
#     4  12  27  50  80 114 155 213 265 334 410 484
#     4  11  26  48  77 116 159 205 260 334 404 482
#     4  12  28  49  74 108 161 210 264 330 397 483
#     4  11  26  47  80 117 155 204 267 334 396 491
#     4  12  27  49  79 116 159 205 270 336 411 476
#     4  12  28  54  80 112 162 212 268 334 406 484
#     4  12  26  46  81 115 155 206 262 334 405 485
#
# _framework density 24.991582999999999
#
# number of rings (size 3 to 8) (size 9 to 14) (size 15 to 20)
#    0.000    0.267    4.000    3.200    9.333    2.133 
#    0.000    2.000    0.000    0.000    0.000    0.000 
#    0.000    0.000    0.000    0.000    0.000    0.000 
#
# Total GULP energy -83627.341139 kJ/mol
# GULP energy per Si atom -5575.156076 kJ/mol
# Density = 2.493470 g / cm^3
# Si number density = 24.991583 Si / 1000 Ang^3
#
#
#
# Elastic Constant Matrix: (Units=GPa)
#
#
# Indices 1 2 3 4 5 6 
#
# 1 59.8867 12.6421 5.7258 6.4631 31.2613 6.4903
# 2 12.6421 198.3454 33.4384 16.2793 20.3026 -6.1235
# 3 5.7258 33.4384 89.8386 -14.3182 33.5030 6.8375
# 4 6.4631 16.2793 -14.3182 60.3554 -9.4336 3.2217
# 5 31.2613 20.3026 33.5030 -9.4336 37.5415 -1.1116
# 6 6.4903 -6.1235 6.8375 3.2217 -1.1116 34.6471
#
#
#
# Elastic Compliance Matrix: (Units=1/GPa)
#
#
# Indices 1 2 3 4 5 6 
#
# 1 0.049113 0.000247 0.018986 -0.009579 -0.060794 -0.013963
# 2 0.000247 0.005819 -0.001835 -0.002469 -0.002291 0.001500
# 3 0.018986 -0.001835 0.025395 -0.000919 -0.038008 -0.010026
# 4 -0.009579 -0.002469 -0.000919 0.020422 0.015267 0.000130
# 5 -0.060794 -0.002291 -0.038008 0.015267 0.116872 0.020814
# 6 -0.013963 0.001500 -0.010026 0.000130 0.020814 0.034378
#
#
# Mechanical properties :
#
#
# Convention : Reuss Voigt Hill
#
# Bulk Modulus (GPa) = 8.68649 50.18703 29.43676
# Shear Modulus (GPa) = 19.56363 46.25975 32.91169
#
# Velocity S-wave (km/s) = 2.80091 4.30701 3.63286
# Velocity P-wave (km/s) = 3.73409 6.69768 5.42228
#
# Compressibility (1/GPa) = 0.11512131
#
# Stress axis : x y z
#
# Youngs Moduli (GPa) = 20.36132 171.85607 39.37832
#
# Poissons Ratio (x) = -0.04243 -0.74762
# Poissons Ratio (y) = -0.00503 0.07226
# Poissons Ratio (z) = -0.38657 0.31534
#
# Static dielectric constant tensor:
#      x y z
#    x 2.097160 -0.098570 -0.181800 
#    y -0.098570 2.163230 0.429500 
#    z -0.181800 0.429500 2.724070 
# 
# From -- ./inp_files/299434.got.cif
#   From: 2010.05.17/outbox.cif.g08.bks.cpg/sg2_150_cif.got.tgz:299434.got - 2010.06.03 11:33:40.
