data_PCOD9068891
_publ_section_title
;
Structure prediction by ZEFSAII (Michael W. Deem and Ramdas Pophale) SiO2 
 PCOD9068891
Probable space group: P -1
;
_chemical_formula_sum "Si O2"
_cell_formula_units_Z 16
_cell_length_a 16.233329
_cell_length_b 5.324142
_cell_length_c 8.803211
_cell_angle_alpha 91.914568
_cell_angle_beta 59.594592
_cell_angle_gamma 85.585157
_cell_volume 651.937962
_symmetry_space_group_name_H-M "P -1"
_symmetry_group_IT_number 2
_symmetry_cell_setting 'triclinic'
loop_
_space_group_symop_operation_xyz
x,y,z
-x,-y,-z
loop_
_atom_site_type_symbol
_atom_site_label
_atom_site_fract_x
_atom_site_fract_y
_atom_site_fract_z
Si Si1 0.390419 0.495888 0.413466
Si Si2 0.941273 0.262608 0.516087
Si Si3 0.183119 0.687442 0.107171
Si Si4 0.508918 0.036935 0.807571
Si Si5 0.662295 0.683072 0.223293
Si Si6 0.807233 0.028230 0.149276
Si Si7 0.022031 0.255720 0.870360
Si Si8 0.175189 0.551135 0.623945
O O1 0.424045 0.748600 0.309624
O O2 0.388213 0.476558 0.602318
O O3 0.280721 0.486938 0.459209
O O4 0.453808 0.242018 0.294231
O O5 0.839035 0.313525 0.697502
O O6 0.906369 0.254490 0.376132
O O7 0.000000 0.500000 0.500000
O O8 0.000000 0.000000 0.500000
O O9 0.072556 0.709796 0.146368
O O10 0.262423 0.479011 0.962237
O O11 0.212455 0.942087 0.011191
O O12 0.412124 0.146039 0.809694
O O13 0.500000 0.000000 0.000000
O O14 0.726565 0.856614 0.268659
O O15 0.801835 0.298111 0.241615
O O16 0.917975 0.930935 0.068999
O O17 0.115955 0.310702 0.684405
O O18 0.000000 0.500000 0.000000
#
# Coordination Sequence:
#
# PCOD9068891 Si02
#       8
#     2   2   2   2   2   2   2   2
#     4  12  26  53  81 116 151 207 257 327 391 470
#     4  12  30  48  69 107 160 214 254 308 382 458
#     4  12  26  43  74 107 156 204 259 319 380 451
#     4  12  31  53  83 115 159 198 254 327 408 475
#     4  12  27  48  80 118 150 200 270 325 398 463
#     4  12  23  42  73 108 151 196 261 314 381 443
#     4  12  21  40  65 109 150 193 251 310 364 445
#     4  12  26  44  75 107 153 202 262 305 384 458
#
# _framework density 24.542214000000001
#
# number of rings (size 3 to 8) (size 9 to 14) (size 15 to 20)
#    0.000    0.000    6.250    3.000    7.000    1.000 
#    0.000    0.000    0.000    0.000    0.000    0.000 
#    0.000    0.000    0.000    0.000    0.000    0.000 
#
# Total GULP energy -89134.378638 kJ/mol
# GULP energy per Si atom -5570.898665 kJ/mol
# Density = 2.448635 g / cm^3
# Si number density = 24.542214 Si / 1000 Ang^3
#
#
#
# Elastic Constant Matrix: (Units=GPa)
#
#
# Indices 1 2 3 4 5 6 
#
# 1 103.8970 -4.2632 21.8828 1.3427 -16.5956 -35.1367
# 2 -4.2632 71.2424 31.5437 15.3811 3.5986 -25.0333
# 3 21.8828 31.5437 119.2695 4.4896 -1.0476 -10.3680
# 4 1.3427 15.3811 4.4896 41.5374 -7.4607 -7.7335
# 5 -16.5956 3.5986 -1.0476 -7.4607 40.0542 -3.5017
# 6 -35.1367 -25.0333 -10.3680 -7.7335 -3.5017 50.8702
#
#
#
# Elastic Compliance Matrix: (Units=1/GPa)
#
#
# Indices 1 2 3 4 5 6 
#
# 1 0.017263 0.007471 -0.003770 0.001426 0.008012 0.015600
# 2 0.007471 0.023442 -0.006080 -0.005321 0.001127 0.014726
# 3 -0.003770 -0.006080 0.010356 0.000431 -0.000970 -0.003487
# 4 0.001426 -0.005321 0.000431 0.027702 0.006512 0.003114
# 5 0.008012 0.001127 -0.000970 0.006512 0.030155 0.008957
# 6 0.015600 0.014726 -0.003487 0.003114 0.008957 0.038059
#
#
# Mechanical properties :
#
#
# Convention : Reuss Voigt Hill
#
# Bulk Modulus (GPa) = 21.59716 43.63728 32.61722
# Shear Modulus (GPa) = 29.90961 42.84206 36.37584
#
# Velocity S-wave (km/s) = 3.49478 4.18263 3.85408
# Velocity P-wave (km/s) = 5.01036 6.41443 5.75537
#
# Compressibility (1/GPa) = 0.04630238
#
# Stress axis : x y z
#
# Youngs Moduli (GPa) = 57.92818 42.65836 96.55861
#
# Poissons Ratio (x) = -0.31872 0.36407
# Poissons Ratio (y) = -0.43280 0.58711
# Poissons Ratio (z) = 0.21842 0.25938
#
# Static dielectric constant tensor:
#      x y z
#    x 2.076980 -0.136580 0.028910 
#    y -0.136580 2.349790 -0.256910 
#    z 0.028910 -0.256910 2.149770 
# 
# From -- ./inp_files/323663.got.cif
#   From: 2010.05.17/outbox.cif.g08.bks.cpg/sg2_162_cif.got.tgz:323663.got - 2010.06.03 11:33:40.
