data_PCOD9068880
_publ_section_title
;
Structure prediction by ZEFSAII (Michael W. Deem and Ramdas Pophale) SiO2 
 PCOD9068880
Probable space group: P -1
;
_chemical_formula_sum "Si O2"
_cell_formula_units_Z 12
_cell_length_a 5.962049
_cell_length_b 9.744142
_cell_length_c 13.981464
_cell_angle_alpha 49.667738
_cell_angle_beta 67.058962
_cell_angle_gamma 85.971281
_cell_volume 550.710596
_symmetry_space_group_name_H-M "P -1"
_symmetry_group_IT_number 2
_symmetry_cell_setting 'triclinic'
loop_
_space_group_symop_operation_xyz
x,y,z
-x,-y,-z
loop_
_atom_site_type_symbol
_atom_site_label
_atom_site_fract_x
_atom_site_fract_y
_atom_site_fract_z
Si Si1 0.733033 0.681582 0.364844
Si Si2 0.165677 0.553246 0.697265
Si Si3 0.940289 0.203315 0.566483
Si Si4 0.549593 0.057261 0.217671
Si Si5 0.783294 0.457073 0.967355
Si Si6 0.412064 0.170194 0.395486
O O1 0.500000 0.500000 0.500000
O O2 0.845559 0.644206 0.260705
O O3 0.910277 0.676445 0.427470
O O4 0.673761 0.884053 0.288145
O O5 0.420570 0.636225 0.676928
O O6 0.171888 0.686755 0.544650
O O7 0.936250 0.557295 0.804173
O O8 0.134379 0.133139 0.499855
O O9 0.728647 0.045232 0.725763
O O10 0.476973 0.153543 0.282463
O O11 0.721503 0.235267 0.057143
O O12 0.500000 0.500000 0.000000
O O13 0.000000 0.500000 0.000000
O O14 0.500000 0.000000 0.500000
#
# Coordination Sequence:
#
# PCOD9068880 Si02
#       6
#     2   2   2   2   2   2
#     4  12  24  45  69 108 150 184 242 307 374 439
#     4  12  26  44  72 104 143 197 240 301 371 446
#     4  12  23  40  74 105 144 184 250 303 371 427
#     4  12  26  43  73 106 145 192 243 307 367 442
#     4  12  30  52  76 108 152 198 250 309 370 441
#     4  12  21  39  68 104 136 177 246 304 358 423
#
# _framework density 21.790026999999998
#
# number of rings (size 3 to 8) (size 9 to 14) (size 15 to 20)
#    0.000    0.000    8.333    2.000    4.667    0.667 
#    0.000    0.833    0.000    0.000    0.000    0.000 
#    0.000    0.000    0.000    0.000    0.000    0.000 
#
# Total GULP energy -66848.751589 kJ/mol
# GULP energy per Si atom -5570.729299 kJ/mol
# Density = 2.174043 g / cm^3
# Si number density = 21.790027 Si / 1000 Ang^3
#
#
#
# Elastic Constant Matrix: (Units=GPa)
#
#
# Indices 1 2 3 4 5 6 
#
# 1 90.0633 50.0740 11.4680 -7.7708 -16.3842 6.4213
# 2 50.0740 127.0940 9.8786 -1.9648 0.2201 -1.0488
# 3 11.4680 9.8786 71.0402 -13.4810 -14.8404 1.0736
# 4 -7.7708 -1.9648 -13.4810 40.1368 -3.9587 -2.7350
# 5 -16.3842 0.2201 -14.8404 -3.9587 26.9794 -3.2152
# 6 6.4213 -1.0488 1.0736 -2.7350 -3.2152 60.5925
#
#
#
# Elastic Compliance Matrix: (Units=1/GPa)
#
#
# Indices 1 2 3 4 5 6 
#
# 1 0.017452 -0.006957 0.001578 0.004681 0.012073 -0.001146
# 2 -0.006957 0.010742 -0.001923 -0.001980 -0.005593 0.000571
# 3 0.001578 -0.001923 0.018016 0.007481 0.012036 0.000457
# 4 0.004681 -0.001980 0.007481 0.029453 0.011447 0.001274
# 5 0.012073 -0.005593 0.012036 0.011447 0.052950 0.001737
# 6 -0.001146 0.000571 0.000457 0.001274 0.001737 0.016777
#
#
# Mechanical properties :
#
#
# Convention : Reuss Voigt Hill
#
# Bulk Modulus (GPa) = 31.63924 47.89320 39.76622
# Shear Modulus (GPa) = 29.32031 39.99353 34.65692
#
# Velocity S-wave (km/s) = 3.67220 4.28881 3.99243
# Velocity P-wave (km/s) = 5.70365 6.82293 6.28824
#
# Compressibility (1/GPa) = 0.03160633
#
# Stress axis : x y z
#
# Youngs Moduli (GPa) = 57.29942 93.08937 55.50516
#
# Poissons Ratio (x) = 0.64759 -0.08758
# Poissons Ratio (y) = 0.39861 0.10676
# Poissons Ratio (z) = -0.09041 0.17905
#
# Static dielectric constant tensor:
#      x y z
#    x 1.926260 -0.111590 -0.054130 
#    y -0.111590 2.116660 0.153990 
#    z -0.054130 0.153990 1.968200 
# 
# From -- ./inp_files/34120.got.cif
#   From: 2010.05.17/outbox.cif.g08.bks.cpg/sg2_18_cif.got.tgz:34120.got - 2010.06.03 11:33:40.
