data_PCOD9068028
_publ_section_title
;
Structure prediction by ZEFSAII (Michael W. Deem and Ramdas Pophale) SiO2 
 PCOD9068028
Probable space group: P -1
;
_chemical_formula_sum "Si O2"
_cell_formula_units_Z 14
_cell_length_a 13.744731
_cell_length_b 5.982112
_cell_length_c 11.170277
_cell_angle_alpha 122.643125
_cell_angle_beta 131.256112
_cell_angle_gamma 75.677521
_cell_volume 572.825943
_symmetry_space_group_name_H-M "P -1"
_symmetry_group_IT_number 2
_symmetry_cell_setting 'triclinic'
loop_
_space_group_symop_operation_xyz
x,y,z
-x,-y,-z
loop_
_atom_site_type_symbol
_atom_site_label
_atom_site_fract_x
_atom_site_fract_y
_atom_site_fract_z
Si Si1 0.746674 0.621386 0.510778
Si Si2 0.077588 0.561384 0.221901
Si Si3 0.699265 0.734928 0.253205
Si Si4 0.169287 0.816409 0.139423
Si Si5 0.517372 0.133696 0.184237
Si Si6 0.906034 0.962163 0.296023
Si Si7 0.270501 0.815076 0.959378
O O1 0.845850 0.441119 0.592938
O O2 0.785789 0.726917 0.440298
O O3 0.603855 0.431695 0.337156
O O4 0.768370 0.879776 0.688308
O O5 0.178394 0.648632 0.220881
O O6 0.974131 0.763920 0.211640
O O7 0.987086 0.275751 0.038048
O O8 0.655594 0.420142 0.098314
O O9 0.600476 0.935543 0.262754
O O10 0.772923 0.841221 0.223065
O O11 0.232015 0.754271 0.047143
O O12 0.500000 0.000000 0.000000
O O13 0.373139 0.092912 0.112224
O O14 0.856462 0.173416 0.224905
O O15 0.000000 0.000000 0.500000
#
# Coordination Sequence:
#
# PCOD9068028 Si02
#       7
#     2   2   2   2   2   2   2
#     4  12  26  46  75 103 146 195 236 291 364 418
#     4  11  26  47  71 107 149 184 239 293 357 438
#     4  12  24  46  73 104 141 189 236 299 359 414
#     4  11  27  46  73 106 145 193 234 294 365 423
#     4  12  25  48  73 105 145 186 246 297 346 429
#     4  12  25  41  71 112 145 181 243 293 354 436
#     4  12  27  45  74 107 141 192 237 294 362 416
#
# _framework density 24.440231000000001
#
# number of rings (size 3 to 8) (size 9 to 14) (size 15 to 20)
#    0.000    0.286    4.286    4.286    8.000    1.714 
#    0.000    2.857    0.000    0.000    0.000    0.000 
#    0.000    0.000    0.000    0.000    0.000    0.000 
#
# Total GULP energy -78181.003447 kJ/mol
# GULP energy per Si atom -5584.357389 kJ/mol
# Density = 2.438460 g / cm^3
# Si number density = 24.440231 Si / 1000 Ang^3
#
#
#
# Elastic Constant Matrix: (Units=GPa)
#
#
# Indices 1 2 3 4 5 6 
#
# 1 89.5087 29.1000 31.1313 -11.0234 -16.1975 24.2175
# 2 29.1000 85.0124 32.4157 -9.9635 -8.5351 1.6373
# 3 31.1313 32.4157 119.9743 16.4028 -3.9242 4.2514
# 4 -11.0234 -9.9635 16.4028 52.0137 10.9261 -4.8260
# 5 -16.1975 -8.5351 -3.9242 10.9261 39.2134 -0.3419
# 6 24.2175 1.6373 4.2514 -4.8260 -0.3419 29.9526
#
#
#
# Elastic Compliance Matrix: (Units=1/GPa)
#
#
# Indices 1 2 3 4 5 6 
#
# 1 0.018754 -0.004101 -0.003291 0.001669 0.005937 -0.014135
# 2 -0.004101 0.014866 -0.003529 0.003361 0.000283 0.003549
# 3 -0.003291 -0.003529 0.010787 -0.004784 0.000290 0.000556
# 4 0.001669 0.003361 -0.004784 0.023145 -0.005482 0.002813
# 5 0.005937 0.000283 0.000290 -0.005482 0.029525 -0.005403
# 6 -0.014135 0.003549 0.000556 0.002813 -0.005403 0.044934
#
#
# Mechanical properties :
#
#
# Convention : Reuss Voigt Hill
#
# Bulk Modulus (GPa) = 44.31590 53.30994 48.81292
# Shear Modulus (GPa) = 29.17602 37.69249 33.43425
#
# Velocity S-wave (km/s) = 3.45885 3.93139 3.70266
# Velocity P-wave (km/s) = 5.84151 6.51671 6.18832
#
# Compressibility (1/GPa) = 0.02256527
#
# Stress axis : x y z
#
# Youngs Moduli (GPa) = 53.32092 67.26671 92.70844
#
# Poissons Ratio (x) = 0.27585 0.30515
# Poissons Ratio (y) = 0.21866 0.32713
# Poissons Ratio (z) = 0.17551 0.23736
#
# Static dielectric constant tensor:
#      x y z
#    x 1.905280 -0.019340 0.043740 
#    y -0.019340 2.027530 0.008340 
#    z 0.043740 0.008340 2.004140 
# 
# From -- ./inp_files/441454.got.cif
#   From: 2010.05.17/outbox.cif.g08.bks.cpg/sg2_221_cif.got.tgz:441454.got - 2010.06.03 11:33:40.
