data_PCOD9068575
_publ_section_title
;
Structure prediction by ZEFSAII (Michael W. Deem and Ramdas Pophale) SiO2 
 PCOD9068575
Probable space group: P -1
;
_chemical_formula_sum "Si O2"
_cell_formula_units_Z 14
_cell_length_a 5.376250
_cell_length_b 14.878893
_cell_length_c 15.411037
_cell_angle_alpha 147.958011
_cell_angle_beta 69.817147
_cell_angle_gamma 96.358367
_cell_volume 571.543894
_symmetry_space_group_name_H-M "P -1"
_symmetry_group_IT_number 2
_symmetry_cell_setting 'triclinic'
loop_
_space_group_symop_operation_xyz
x,y,z
-x,-y,-z
loop_
_atom_site_type_symbol
_atom_site_label
_atom_site_fract_x
_atom_site_fract_y
_atom_site_fract_z
Si Si1 0.120941 0.885609 0.654183
Si Si2 0.768873 0.594582 0.178841
Si Si3 0.453553 0.477275 0.248806
Si Si4 0.422798 0.061774 0.157024
Si Si5 0.192673 0.223780 0.019263
Si Si6 0.898618 0.170425 0.587373
Si Si7 0.658341 0.322105 0.281613
O O1 0.378698 0.689283 0.456687
O O2 0.028099 0.902981 0.579188
O O3 0.904416 0.834661 0.701295
O O4 0.143066 0.076188 0.839095
O O5 0.723405 0.446257 0.128561
O O6 0.447550 0.711646 0.275721
O O7 0.909627 0.716006 0.313609
O O8 0.000000 0.500000 0.000000
O O9 0.499527 0.370122 0.246180
O O10 0.230822 0.419394 0.170043
O O11 0.620539 0.177370 0.234821
O O12 0.499125 0.902644 0.086262
O O13 0.500000 0.000000 0.000000
O O14 0.976268 0.254542 0.151709
O O15 0.000000 0.000000 0.500000
O O16 0.500000 0.500000 0.500000
#
# Coordination Sequence:
#
# PCOD9068575 Si02
#       7
#     2   2   2   2   2   2   2
#     4  11  27  47  77 106 157 195 258 327 383 470
#     4  11  27  54  82 117 161 200 260 334 401 485
#     4  11  27  47  74 110 148 200 258 315 395 461
#     4  12  24  43  66 108 148 200 256 311 370 456
#     4  12  25  46  71 108 151 204 256 313 391 453
#     4  11  27  54  84 119 154 207 263 328 409 477
#     4  12  26  41  71 103 150 201 258 314 380 457
#
# _framework density 24.495058
#
# number of rings (size 3 to 8) (size 9 to 14) (size 15 to 20)
#    0.000    0.571    2.857    3.000   12.000    3.429 
#    5.143    0.000    0.000    0.000    0.000    0.000 
#    0.000    0.000    0.000    0.000    0.000    0.000 
#
# Total GULP energy -77976.360156 kJ/mol
# GULP energy per Si atom -5569.740011 kJ/mol
# Density = 2.443931 g / cm^3
# Si number density = 24.495058 Si / 1000 Ang^3
#
#
#
# Elastic Constant Matrix: (Units=GPa)
#
#
# Indices 1 2 3 4 5 6 
#
# 1 135.7933 37.3964 65.8365 -4.1560 16.4041 13.5204
# 2 37.3964 96.1886 57.9012 -9.5594 22.9984 6.5019
# 3 65.8365 57.9012 147.5879 -22.0841 8.1277 30.3970
# 4 -4.1560 -9.5594 -22.0841 49.8026 3.5348 -8.9351
# 5 16.4041 22.9984 8.1277 3.5348 43.8288 5.7239
# 6 13.5204 6.5019 30.3970 -8.9351 5.7239 41.7793
#
#
#
# Elastic Compliance Matrix: (Units=1/GPa)
#
#
# Indices 1 2 3 4 5 6 
#
# 1 0.009833 -0.000919 -0.004046 -0.000978 -0.002372 0.000020
# 2 -0.000919 0.016071 -0.005972 0.001525 -0.007562 0.003504
# 3 -0.004046 -0.005972 0.012542 0.002659 0.002986 -0.006727
# 4 -0.000978 0.001525 0.002659 0.022294 -0.003162 0.003346
# 5 -0.002372 -0.007562 0.002986 -0.003162 0.027992 -0.004740
# 6 0.000020 0.003504 -0.006727 0.003346 -0.004740 0.029643
#
#
# Mechanical properties :
#
#
# Convention : Reuss Voigt Hill
#
# Bulk Modulus (GPa) = 60.33876 77.98199 69.16037
# Shear Modulus (GPa) = 34.29974 41.64452 37.97213
#
# Velocity S-wave (km/s) = 3.74608 4.12772 3.94152
# Velocity P-wave (km/s) = 6.58766 7.39070 7.00070
#
# Compressibility (1/GPa) = 0.01657310
#
# Stress axis : x y z
#
# Youngs Moduli (GPa) = 101.69502 62.22278 79.73129
#
# Poissons Ratio (x) = 0.05719 0.32257
# Poissons Ratio (y) = 0.09348 0.47615
# Poissons Ratio (z) = 0.41143 0.37159
#
# Static dielectric constant tensor:
#      x y z
#    x 2.080440 -0.044800 0.008850 
#    y -0.044800 2.094360 0.102950 
#    z 0.008850 0.102950 1.993350 
# 
# From -- ./inp_files/484571.got.cif
#   From: 2010.05.17/outbox.cif.g08.bks.cpg/sg2_243_cif.got.tgz:484571.got - 2010.06.03 11:33:40.
