data_PCOD9068796
_publ_section_title
;
Structure prediction by ZEFSAII (Michael W. Deem and Ramdas Pophale) SiO2 
 PCOD9068796
Probable space group: P -1
;
_chemical_formula_sum "Si O2"
_cell_formula_units_Z 12
_cell_length_a 8.292539
_cell_length_b 8.383651
_cell_length_c 11.880450
_cell_angle_alpha 111.716927
_cell_angle_beta 117.755291
_cell_angle_gamma 111.581272
_cell_volume 511.925885
_symmetry_space_group_name_H-M "P -1"
_symmetry_group_IT_number 2
_symmetry_cell_setting 'triclinic'
loop_
_space_group_symop_operation_xyz
x,y,z
-x,-y,-z
loop_
_atom_site_type_symbol
_atom_site_label
_atom_site_fract_x
_atom_site_fract_y
_atom_site_fract_z
Si Si1 0.256760 0.994910 0.787334
Si Si2 0.777877 0.868495 0.631402
Si Si3 0.409486 0.567111 0.886494
Si Si4 0.740690 0.759637 0.824384
Si Si5 0.154281 0.837586 0.461740
Si Si6 0.842211 0.552932 0.625229
O O1 0.068420 0.025907 0.776366
O O2 0.224350 0.969234 0.636438
O O3 0.122333 0.743288 0.726741
O O4 0.516454 0.202146 0.974391
O O5 0.671972 0.831925 0.710827
O O6 0.723941 0.631259 0.527951
O O7 0.727784 0.976121 0.549821
O O8 0.565823 0.648516 0.844379
O O9 0.133071 0.354018 0.709117
O O10 0.500000 0.500000 0.000000
O O11 0.794835 0.606716 0.746176
O O12 0.000000 0.000000 0.000000
O O13 0.227789 0.685668 0.457126
#
# Coordination Sequence:
#
# PCOD9068796 Si02
#       6
#     2   2   2   2   2   2
#     4   9  20  38  56  88 126 142 191 255 283 332
#     4   8  19  35  60  82 119 156 184 239 295 337
#     4  12  21  35  67  90 111 157 200 239 290 342
#     4   9  16  40  57  78 131 150 180 253 287 338
#     4  12  20  37  67  88 109 158 203 231 291 350
#     4   8  20  35  62  83 117 162 184 236 303 336
#
# _framework density 23.440895000000001
#
# number of rings (size 3 to 8) (size 9 to 14) (size 15 to 20)
#    2.000    0.000    5.000    1.000    0.000    0.667 
#    0.000    6.667    3.667    1.000    0.000    0.000 
#    0.000    0.000    0.000    0.000    0.000    0.000 
#
# Total GULP energy -66801.642108 kJ/mol
# GULP energy per Si atom -5566.803509 kJ/mol
# Density = 2.338754 g / cm^3
# Si number density = 23.440895 Si / 1000 Ang^3
#
#
#
# Elastic Constant Matrix: (Units=GPa)
#
#
# Indices 1 2 3 4 5 6 
#
# 1 52.5788 62.1873 60.6256 -14.2466 -5.0819 19.6319
# 2 62.1873 198.6018 66.3375 -22.1064 -10.9674 17.2670
# 3 60.6256 66.3375 138.4083 -19.7725 -12.2556 19.0885
# 4 -14.2466 -22.1064 -19.7725 36.9574 7.3837 -4.4311
# 5 -5.0819 -10.9674 -12.2556 7.3837 36.5977 -4.5659
# 6 19.6319 17.2670 19.0885 -4.4311 -4.5659 43.8727
#
#
#
# Elastic Compliance Matrix: (Units=1/GPa)
#
#
# Indices 1 2 3 4 5 6 
#
# 1 0.059674 -0.010852 -0.018522 0.005716 -0.004096 -0.014222
# 2 -0.010852 0.008201 0.000887 0.001134 0.001204 0.001482
# 3 -0.018522 0.000887 0.015070 0.001120 0.002736 0.001780
# 4 0.005716 0.001134 0.001120 0.031425 -0.004935 -0.000831
# 5 -0.004096 0.001204 0.002736 -0.004935 0.029368 0.002726
# 6 -0.014222 0.001482 0.001780 -0.000831 0.002726 0.027999
#
#
# Mechanical properties :
#
#
# Convention : Reuss Voigt Hill
#
# Bulk Modulus (GPa) = 38.50522 85.32109 61.91316
# Shear Modulus (GPa) = 21.06434 36.84810 28.95622
#
# Velocity S-wave (km/s) = 3.00094 3.96909 3.51848
# Velocity P-wave (km/s) = 5.33570 7.58171 6.55561
#
# Compressibility (1/GPa) = 0.02597051
#
# Stress axis : x y z
#
# Youngs Moduli (GPa) = 16.75768 121.93906 66.35914
#
# Poissons Ratio (x) = 1.32331 1.22909
# Poissons Ratio (y) = 0.18186 -0.05887
# Poissons Ratio (z) = 0.31038 -0.10817
#
# Static dielectric constant tensor:
#      x y z
#    x 2.068400 0.006920 0.179660 
#    y 0.006920 1.951790 0.067940 
#    z 0.179660 0.067940 2.103200 
# 
# From -- ./inp_files/383030.got.cif
#   From: 2010.05.17/outbox.cif.g08.bks.cpg/sg2_192_cif.got.tgz:383030.got - 2010.06.03 11:33:40.
