data_PCOD9068524
_publ_section_title
;
Structure prediction by ZEFSAII (Michael W. Deem and Ramdas Pophale) SiO2 
 PCOD9068524
Probable space group: P -1
;
_chemical_formula_sum "Si O2"
_cell_formula_units_Z 11
_cell_length_a 5.145454
_cell_length_b 11.993375
_cell_length_c 9.144848
_cell_angle_alpha 84.529219
_cell_angle_beta 47.879293
_cell_angle_gamma 84.801779
_cell_volume 416.412233
_symmetry_space_group_name_H-M "P -1"
_symmetry_group_IT_number 2
_symmetry_cell_setting 'triclinic'
loop_
_space_group_symop_operation_xyz
x,y,z
-x,-y,-z
loop_
_atom_site_type_symbol
_atom_site_label
_atom_site_fract_x
_atom_site_fract_y
_atom_site_fract_z
Si Si1 0.429575 0.370996 0.560272
Si Si2 0.647122 0.077454 0.619167
Si Si3 0.713919 0.132917 0.248703
Si Si4 0.372853 0.269405 0.891935
Si Si5 0.500000 0.500000 0.000000
Si Si6 0.783910 0.671276 0.664699
O O1 0.500000 0.500000 0.500000
O O2 0.194808 0.340712 0.516743
O O3 0.247298 0.335342 0.782820
O O4 0.833145 0.326745 0.412464
O O5 0.609836 0.122654 0.461189
O O6 0.638291 0.174329 0.732762
O O7 0.331800 0.993260 0.773591
O O8 0.000000 0.000000 0.500000
O O9 0.443722 0.214226 0.250512
O O10 0.459198 0.372062 0.953016
O O11 0.076234 0.193170 0.081696
O O12 0.597013 0.559611 0.802056
#
# Coordination Sequence:
#
# PCOD9068524 Si02
#       6
#     2   2   2   2   1   2
#     4  12  26  49  78 118 170 229 283 343 430 506
#     4  11  26  55  85 119 166 220 286 366 430 500
#     4  11  27  50  84 121 164 220 291 354 429 508
#     4  12  27  51  83 125 169 226 283 350 430 517
#     4  12  30  46  84 124 172 216 288 334 430 516
#     4  12  27  51  79 121 171 226 279 355 424 516
#
# _framework density 26.416128
#
# number of rings (size 3 to 8) (size 9 to 14) (size 15 to 20)
#    0.000    0.364    3.636    3.273    5.091    2.182 
#    6.545    0.000    0.000    0.000    0.000    0.000 
#    0.000    0.000    0.000    0.000    0.000    0.000 
#
# Total GULP energy -61320.467673 kJ/mol
# GULP energy per Si atom -5574.587970 kJ/mol
# Density = 2.635600 g / cm^3
# Si number density = 26.416128 Si / 1000 Ang^3
#
#
#
# Elastic Constant Matrix: (Units=GPa)
#
#
# Indices 1 2 3 4 5 6 
#
# 1 84.6726 80.2094 58.6364 15.7125 0.4934 11.4777
# 2 80.2094 238.7344 75.4365 -16.1558 -7.7669 51.7651
# 3 58.6364 75.4365 136.1512 -4.5635 1.7262 15.5608
# 4 15.7125 -16.1558 -4.5635 64.9666 14.8507 12.9585
# 5 0.4934 -7.7669 1.7262 14.8507 38.8195 4.8677
# 6 11.4777 51.7651 15.5608 12.9585 4.8677 58.4930
#
#
#
# Elastic Compliance Matrix: (Units=1/GPa)
#
#
# Indices 1 2 3 4 5 6 
#
# 1 0.026328 -0.008515 -0.007763 -0.010722 0.001571 0.006679
# 2 -0.008515 0.009269 -0.000400 0.005707 0.000770 -0.007753
# 3 -0.007763 -0.000400 0.011233 0.003253 -0.001512 -0.001705
# 4 -0.010722 0.005707 0.003253 0.022787 -0.006541 -0.008316
# 5 0.001571 0.000770 -0.001512 -0.006541 0.028655 -0.001523
# 6 0.006679 -0.007753 -0.001705 -0.008316 -0.001523 0.025070
#
#
# Mechanical properties :
#
#
# Convention : Reuss Voigt Hill
#
# Bulk Modulus (GPa) = 74.23054 98.68032 86.45543
# Shear Modulus (GPa) = 31.01928 48.80754 39.91341
#
# Velocity S-wave (km/s) = 3.43046 4.30308 3.89131
# Velocity P-wave (km/s) = 6.62210 7.88200 7.27936
#
# Compressibility (1/GPa) = 0.01347154
#
# Stress axis : x y z
#
# Youngs Moduli (GPa) = 37.98272 107.89056 89.02169
#
# Poissons Ratio (x) = 0.91871 0.69110
# Poissons Ratio (y) = 0.32343 0.03565
# Poissons Ratio (z) = 0.29487 0.04321
#
# Static dielectric constant tensor:
#      x y z
#    x 2.028170 0.002600 -0.099840 
#    y 0.002600 2.191080 0.058250 
#    z -0.099840 0.058250 2.138090 
# 
# From -- ./inp_files/130250.got.cif
#   From: 2010.05.17/outbox.cif.g08.bks.cpg/sg2_66_cif.got.tgz:130250.got - 2010.06.03 11:33:40.
