data_PCOD9068324
_publ_section_title
;
Structure prediction by ZEFSAII (Michael W. Deem and Ramdas Pophale) SiO2 
 PCOD9068324
Probable space group: P -1
;
_chemical_formula_sum "Si O2"
_cell_formula_units_Z 16
_cell_length_a 8.940853
_cell_length_b 17.802076
_cell_length_c 15.137583
_cell_angle_alpha 157.501382
_cell_angle_beta 50.393823
_cell_angle_gamma 119.267744
_cell_volume 668.140684
_symmetry_space_group_name_H-M "P -1"
_symmetry_group_IT_number 2
_symmetry_cell_setting 'triclinic'
loop_
_space_group_symop_operation_xyz
x,y,z
-x,-y,-z
loop_
_atom_site_type_symbol
_atom_site_label
_atom_site_fract_x
_atom_site_fract_y
_atom_site_fract_z
Si Si1 0.762703 0.220274 0.586651
Si Si2 0.389985 0.225036 0.330808
Si Si3 0.283392 0.575493 0.500710
Si Si4 0.905282 0.344992 0.166317
Si Si5 0.151815 0.018236 0.315725
Si Si6 0.643869 0.702120 0.097873
Si Si7 0.824661 0.108946 0.255164
Si Si8 0.513120 0.860500 0.123815
O O1 0.702390 0.462036 0.846588
O O2 0.889989 0.105421 0.328232
O O3 0.547252 0.180412 0.638067
O O4 0.909552 0.146358 0.535351
O O5 0.560337 0.317778 0.402538
O O6 0.230433 0.415111 0.543111
O O7 0.259806 0.170604 0.398152
O O8 0.500000 0.000000 0.000000
O O9 0.383662 0.329000 0.189046
O O10 0.242037 0.659091 0.507535
O O11 0.000000 0.000000 0.000000
O O12 0.133681 0.273019 0.961641
O O13 0.805920 0.190445 0.987286
O O14 0.907006 0.347844 0.275876
O O15 0.270995 0.952089 0.290799
O O16 0.553478 0.765427 0.102924
O O17 0.636059 0.020437 0.232908
#
# Coordination Sequence:
#
# PCOD9068324 Si02
#       8
#     2   2   2   2   2   2   2   2
#     4  11  26  50  74 102 145 195 242 298 360 427
#     4  12  23  41  67 107 152 191 233 296 369 432
#     4  12  24  41  67 108 149 180 236 299 361 424
#     4  12  25  42  73 106 143 199 240 291 359 438
#     4  12  24  43  73 103 140 190 241 294 359 427
#     4  11  26  49  74 102 145 193 246 297 357 433
#     4  12  27  44  71 107 148 187 232 299 369 426
#     4  12  26  44  72 105 143 186 237 302 358 424
#
# _framework density 23.947053
#
# number of rings (size 3 to 8) (size 9 to 14) (size 15 to 20)
#    0.000    0.250    6.250    3.375    1.750    3.500 
#    0.000    0.000    0.000    4.500    0.000    0.000 
#    0.000    0.000    0.000    0.000    0.000    0.000 
#
# Total GULP energy -89454.655289 kJ/mol
# GULP energy per Si atom -5590.915956 kJ/mol
# Density = 2.389255 g / cm^3
# Si number density = 23.947053 Si / 1000 Ang^3
#
#
#
# Elastic Constant Matrix: (Units=GPa)
#
#
# Indices 1 2 3 4 5 6 
#
# 1 97.8957 26.5562 26.9606 5.5805 -26.8171 -7.3094
# 2 26.5562 95.0269 34.9733 3.2470 -7.3104 6.6887
# 3 26.9606 34.9733 88.8417 1.3897 -21.2990 -12.4719
# 4 5.5805 3.2470 1.3897 43.2925 -1.2832 -10.1152
# 5 -26.8171 -7.3104 -21.2990 -1.2832 35.1379 6.0908
# 6 -7.3094 6.6887 -12.4719 -10.1152 6.0908 33.1541
#
#
#
# Elastic Compliance Matrix: (Units=1/GPa)
#
#
# Indices 1 2 3 4 5 6 
#
# 1 0.013921 -0.003033 -0.000566 -0.000929 0.009362 0.001465
# 2 -0.003033 0.013825 -0.005794 -0.001885 -0.002006 -0.005844
# 3 -0.000566 -0.005794 0.016303 0.001685 0.007203 0.006368
# 4 -0.000929 -0.001885 0.001685 0.025308 -0.000655 0.008651
# 5 0.009362 -0.002006 0.007203 -0.000655 0.039938 -0.002358
# 6 0.001465 -0.005844 0.006368 0.008651 -0.002358 0.037132
#
#
# Mechanical properties :
#
#
# Convention : Reuss Voigt Hill
#
# Bulk Modulus (GPa) = 39.58372 50.97160 45.27766
# Shear Modulus (GPa) = 28.79663 35.20186 31.99924
#
# Velocity S-wave (km/s) = 3.47149 3.83820 3.65944
# Velocity P-wave (km/s) = 5.71261 6.40107 6.06661
#
# Compressibility (1/GPa) = 0.02526291
#
# Stress axis : x y z
#
# Youngs Moduli (GPa) = 71.83619 72.33490 61.33956
#
# Poissons Ratio (x) = 0.21940 0.03470
# Poissons Ratio (y) = 0.21789 0.35538
# Poissons Ratio (z) = 0.04064 0.41908
#
# Static dielectric constant tensor:
#      x y z
#    x 1.930390 -0.003400 -0.045590 
#    y -0.003400 1.915210 0.036750 
#    z -0.045590 0.036750 1.985680 
# 
# From -- ./inp_files/294053.got.cif
#   From: 2010.05.17/outbox.cif.g08.bks.cpg/sg2_148_cif.got.tgz:294053.got - 2010.06.03 11:33:40.
