data_PCOD9068221
_publ_section_title
;
Structure prediction by ZEFSAII (Michael W. Deem and Ramdas Pophale) SiO2 
 PCOD9068221
Probable space group: P -1
;
_chemical_formula_sum "Si O2"
_cell_formula_units_Z 12
_cell_length_a 10.737806
_cell_length_b 8.673912
_cell_length_c 9.029971
_cell_angle_alpha 111.557536
_cell_angle_beta 94.416727
_cell_angle_gamma 42.680514
_cell_volume 504.782636
_symmetry_space_group_name_H-M "P -1"
_symmetry_group_IT_number 2
_symmetry_cell_setting 'triclinic'
loop_
_space_group_symop_operation_xyz
x,y,z
-x,-y,-z
loop_
_atom_site_type_symbol
_atom_site_label
_atom_site_fract_x
_atom_site_fract_y
_atom_site_fract_z
Si Si1 0.593672 0.432956 0.745019
Si Si2 0.564331 0.085421 0.936085
Si Si3 0.052167 0.977473 0.169449
Si Si4 0.007083 0.386188 0.311619
Si Si5 0.370518 0.102247 0.669120
Si Si6 0.273137 0.823965 0.633924
O O1 0.726945 0.229731 0.822372
O O2 0.398221 0.593437 0.685846
O O3 0.733258 0.262478 0.555573
O O4 0.513559 0.677865 0.902200
O O5 0.452844 0.161320 0.802668
O O6 0.789621 0.838698 0.832726
O O7 0.500000 0.000000 0.000000
O O8 0.957077 0.248656 0.298821
O O9 0.941176 0.947013 0.238579
O O10 0.000000 0.000000 0.000000
O O11 0.000000 0.500000 0.500000
O O12 0.850366 0.629528 0.281188
O O13 0.500000 0.000000 0.500000
O O14 0.369121 0.910146 0.651795
#
# Coordination Sequence:
#
# PCOD9068221 Si02
#       6
#     2   2   2   2   2   2
#     4  11  26  48  75 107 155 196 258 301 385 446
#     4  12  27  47  75 112 150 197 249 314 377 444
#     4  12  28  49  77 115 151 200 253 319 376 454
#     4  12  28  47  77 110 150 194 257 305 378 446
#     4  12  27  50  79 109 151 202 255 310 379 456
#     4  11  27  48  79 109 152 207 250 311 384 449
#
# _framework density 23.772608999999999
#
# number of rings (size 3 to 8) (size 9 to 14) (size 15 to 20)
#    0.000    0.333    3.333    3.500    9.333    3.333 
#    0.000    0.000    0.000    0.000    0.000    0.000 
#    0.000    0.000    0.000    0.000    0.000    0.000 
#
# Total GULP energy -66886.968734 kJ/mol
# GULP energy per Si atom -5573.914061 kJ/mol
# Density = 2.371850 g / cm^3
# Si number density = 23.772609 Si / 1000 Ang^3
#
#
#
# Elastic Constant Matrix: (Units=GPa)
#
#
# Indices 1 2 3 4 5 6 
#
# 1 109.2629 29.7093 51.0711 3.5647 -10.4315 -3.0583
# 2 29.7093 147.1372 53.3061 0.6050 11.6138 -26.2521
# 3 51.0711 53.3061 199.7028 -2.1839 31.8985 -4.7117
# 4 3.5647 0.6050 -2.1839 42.0523 -7.5053 10.6569
# 5 -10.4315 11.6138 31.8985 -7.5053 37.1460 -7.9137
# 6 -3.0583 -26.2521 -4.7117 10.6569 -7.9137 28.9284
#
#
#
# Elastic Compliance Matrix: (Units=1/GPa)
#
#
# Indices 1 2 3 4 5 6 
#
# 1 0.012097 -0.001340 -0.003889 -0.000278 0.007433 0.001566
# 2 -0.001340 0.009384 -0.001941 -0.002416 -0.000239 0.008882
# 3 -0.003889 -0.001941 0.007680 0.000164 -0.007706 -0.003090
# 4 -0.000278 -0.002416 0.000164 0.027357 0.003662 -0.011271
# 5 0.007433 -0.000239 -0.007706 0.003662 0.038235 0.008424
# 6 0.001566 0.008882 -0.003090 -0.011271 0.008424 0.048748
#
#
# Mechanical properties :
#
#
# Convention : Reuss Voigt Hill
#
# Bulk Modulus (GPa) = 67.47364 80.47511 73.97437
# Shear Modulus (GPa) = 30.71633 43.09308 36.90471
#
# Velocity S-wave (km/s) = 3.59846 4.26222 3.94433
# Velocity P-wave (km/s) = 6.76090 7.62546 7.20616
#
# Compressibility (1/GPa) = 0.01482060
#
# Stress axis : x y z
#
# Youngs Moduli (GPa) = 82.66447 106.56912 130.21069
#
# Poissons Ratio (x) = 0.14277 0.50645
# Poissons Ratio (y) = 0.11075 0.25271
# Poissons Ratio (z) = 0.32152 0.20683
#
# Static dielectric constant tensor:
#      x y z
#    x 1.926120 0.010750 -0.104330 
#    y 0.010750 1.954980 -0.036700 
#    z -0.104330 -0.036700 1.851100 
# 
# From -- ./inp_files/245526.got.cif
#   From: 2010.05.17/outbox.cif.g08.bks.cpg/sg2_123_cif.got.tgz:245526.got - 2010.06.03 11:33:40.
