data_PCOD9068995
_publ_section_title
;
Structure prediction by ZEFSAII (Michael W. Deem and Ramdas Pophale) SiO2 
 PCOD9068995
Probable space group: P -1
;
_chemical_formula_sum "Si O2"
_cell_formula_units_Z 16
_cell_length_a 9.426876
_cell_length_b 9.520037
_cell_length_c 22.558472
_cell_angle_alpha 45.608553
_cell_angle_beta 133.791554
_cell_angle_gamma 149.527989
_cell_volume 711.100038
_symmetry_space_group_name_H-M "P -1"
_symmetry_group_IT_number 2
_symmetry_cell_setting 'triclinic'
loop_
_space_group_symop_operation_xyz
x,y,z
-x,-y,-z
loop_
_atom_site_type_symbol
_atom_site_label
_atom_site_fract_x
_atom_site_fract_y
_atom_site_fract_z
Si Si1 0.821180 0.670088 0.560824
Si Si2 0.345139 0.932147 0.038905
Si Si3 0.627032 0.457887 0.216296
Si Si4 0.013832 0.111037 0.329651
Si Si5 0.821370 0.178841 0.556760
Si Si6 0.783731 0.180946 0.680268
Si Si7 0.510043 0.351309 0.771260
Si Si8 0.676434 0.549146 0.979157
O O1 0.500000 0.500000 0.500000
O O2 0.932162 0.723994 0.644827
O O3 0.809457 0.434814 0.604200
O O4 0.000000 0.000000 0.500000
O O5 0.335740 0.720055 0.132887
O O6 0.025343 0.797286 0.994377
O O7 0.500000 0.000000 0.000000
O O8 0.575304 0.249940 0.038582
O O9 0.593808 0.581916 0.225805
O O10 0.461146 0.434587 0.120858
O O11 0.969458 0.693860 0.238429
O O12 0.500567 0.147585 0.285632
O O13 0.272907 0.360295 0.288633
O O14 0.060305 0.917082 0.417493
O O15 0.727112 0.904526 0.268131
O O16 0.846145 0.146213 0.642646
O O17 0.000000 0.500000 0.500000
O O18 0.500000 0.000000 0.500000
O O19 0.500000 0.500000 0.000000
#
# Coordination Sequence:
#
# PCOD9068995 Si02
#       8
#     2   2   2   2   2   2   2   2
#     4  12  26  48  69  97 143 185 235 297 362 443
#     4  12  26  46  78 108 148 206 250 297 374 446
#     4  12  24  45  72 103 148 184 239 309 363 434
#     4  12  25  43  68 102 137 181 237 300 360 425
#     4  12  22  38  63  95 129 171 229 285 350 431
#     4  12  25  43  70 101 135 190 233 288 382 431
#     4  12  24  44  72 106 143 184 246 310 353 432
#     4  12  28  48  74 112 155 196 249 306 372 445
#
# _framework density 22.500349
#
# number of rings (size 3 to 8) (size 9 to 14) (size 15 to 20)
#    0.000    0.000    3.750    6.750    1.750    3.000 
#    0.000    0.000    0.000    0.000    0.000    0.000 
#    0.000    0.000    0.000    0.000    0.000    0.000 
#
# Total GULP energy -89246.715593 kJ/mol
# GULP energy per Si atom -5577.919725 kJ/mol
# Density = 2.244914 g / cm^3
# Si number density = 22.500349 Si / 1000 Ang^3
#
#
#
# Elastic Constant Matrix: (Units=GPa)
#
#
# Indices 1 2 3 4 5 6 
#
# 1 103.1906 19.5346 2.4538 17.6849 -9.5060 -19.7343
# 2 19.5346 164.1204 47.4371 -4.7101 7.0217 10.9944
# 3 2.4538 47.4371 112.9497 -5.8412 10.6234 9.2779
# 4 17.6849 -4.7101 -5.8412 63.5456 -8.2736 10.7645
# 5 -9.5060 7.0217 10.6234 -8.2736 36.9491 3.4581
# 6 -19.7343 10.9944 9.2779 10.7645 3.4581 44.5554
#
#
#
# Elastic Compliance Matrix: (Units=1/GPa)
#
#
# Indices 1 2 3 4 5 6 
#
# 1 0.012401 -0.002045 -0.000414 -0.004569 0.002017 0.007031
# 2 -0.002045 0.007345 -0.002722 0.001183 -0.000651 -0.002387
# 3 -0.000414 -0.002722 0.010401 0.000871 -0.002224 -0.001715
# 4 -0.004569 0.001183 0.000871 0.018836 0.003250 -0.007300
# 5 0.002017 -0.000651 -0.002224 0.003250 0.029218 -0.001536
# 6 0.007031 -0.002387 -0.001715 -0.007300 -0.001536 0.028387
#
#
# Mechanical properties :
#
#
# Convention : Reuss Voigt Hill
#
# Bulk Modulus (GPa) = 50.54282 57.67908 54.11095
# Shear Modulus (GPa) = 40.47126 49.73237 45.10182
#
# Velocity S-wave (km/s) = 4.24570 4.70648 4.48201
# Velocity P-wave (km/s) = 6.82250 7.43135 7.13343
#
# Compressibility (1/GPa) = 0.01978520
#
# Stress axis : x y z
#
# Youngs Moduli (GPa) = 80.63695 136.14949 96.14689
#
# Poissons Ratio (x) = 0.27840 0.03982
# Poissons Ratio (y) = 0.16489 0.26170
# Poissons Ratio (z) = 0.03340 0.37058
#
# Static dielectric constant tensor:
#      x y z
#    x 1.817110 0.002140 0.010420 
#    y 0.002140 1.832470 0.032490 
#    z 0.010420 0.032490 1.832750 
# 
# From -- ./inp_files/606679.got.cif
#   From: 2010.05.17/outbox.cif.g08.bks.cpg/sg2_304_cif.got.tgz:606679.got - 2010.06.03 11:33:40.
