data_PCOD9068278
_publ_section_title
;
Structure prediction by ZEFSAII (Michael W. Deem and Ramdas Pophale) SiO2 
 PCOD9068278
Probable space group: P -1
;
_chemical_formula_sum "Si O2"
_cell_formula_units_Z 12
_cell_length_a 5.377661
_cell_length_b 14.361250
_cell_length_c 18.013026
_cell_angle_alpha 157.469504
_cell_angle_beta 110.783460
_cell_angle_gamma 68.113257
_cell_volume 494.414661
_symmetry_space_group_name_H-M "P -1"
_symmetry_group_IT_number 2
_symmetry_cell_setting 'triclinic'
loop_
_space_group_symop_operation_xyz
x,y,z
-x,-y,-z
loop_
_atom_site_type_symbol
_atom_site_label
_atom_site_fract_x
_atom_site_fract_y
_atom_site_fract_z
Si Si1 0.317702 0.852796 0.099336
Si Si2 0.529258 0.777446 0.727044
Si Si3 0.729265 0.340743 0.637756
Si Si4 0.232201 0.584582 0.137269
Si Si5 0.828402 0.818019 0.928695
Si Si6 0.782000 0.945631 0.609567
O O1 0.449973 0.067238 0.230731
O O2 0.154295 0.959163 0.231952
O O3 0.531724 0.636546 0.992054
O O4 0.123853 0.758062 0.948189
O O5 0.500000 0.500000 0.500000
O O6 0.788903 0.794402 0.819506
O O7 0.295892 0.920018 0.858602
O O8 0.856690 0.353389 0.742369
O O9 0.668612 0.612215 0.797647
O O10 0.460320 0.215559 0.525425
O O11 0.951048 0.192206 0.499865
O O12 0.318529 0.822891 0.282473
O O13 0.000000 0.500000 0.000000
#
# Coordination Sequence:
#
# PCOD9068278 Si02
#       6
#     2   2   2   2   2   2
#     4  12  26  49  75 112 158 204 259 329 392 467
#     4  11  26  50  79 109 153 202 266 326 402 469
#     4  12  26  50  76 114 161 200 267 326 387 474
#     4  12  26  50  77 111 159 212 260 321 391 466
#     4  11  26  48  79 114 152 204 260 328 399 465
#     4  12  28  45  79 116 157 211 264 315 393 474
#
# _framework density 24.271124
#
# number of rings (size 3 to 8) (size 9 to 14) (size 15 to 20)
#    0.000    0.333    1.667    6.000    4.667    3.333 
#    0.000    0.000    0.000    0.000    0.000    0.000 
#    0.000    0.000    0.000    0.000    0.000    0.000 
#
# Total GULP energy -67337.423267 kJ/mol
# GULP energy per Si atom -5611.451939 kJ/mol
# Density = 2.421588 g / cm^3
# Si number density = 24.271124 Si / 1000 Ang^3
#
#
#
# Elastic Constant Matrix: (Units=GPa)
#
#
# Indices 1 2 3 4 5 6 
#
# 1 121.9714 35.1047 62.3883 -0.3814 -12.8787 -1.6593
# 2 35.1047 122.1474 56.3217 -4.8816 -13.1880 -5.9192
# 3 62.3883 56.3217 152.3517 12.3841 -18.2269 0.3270
# 4 -0.3814 -4.8816 12.3841 58.0333 17.2391 9.0952
# 5 -12.8787 -13.1880 -18.2269 17.2391 36.7018 -10.2056
# 6 -1.6593 -5.9192 0.3270 9.0952 -10.2056 50.3945
#
#
#
# Elastic Compliance Matrix: (Units=1/GPa)
#
#
# Indices 1 2 3 4 5 6 
#
# 1 0.010616 -0.001114 -0.003785 0.000277 0.001450 0.000487
# 2 -0.001114 0.010269 -0.003204 0.000814 0.001712 0.001390
# 3 -0.003785 -0.003204 0.010206 -0.004086 0.004827 0.001148
# 4 0.000277 0.000814 -0.004086 0.023668 -0.014738 -0.007125
# 5 0.001450 0.001712 0.004827 -0.014738 0.040787 0.011137
# 6 0.000487 0.001390 0.001148 -0.007125 0.011137 0.023557
#
#
# Mechanical properties :
#
#
# Convention : Reuss Voigt Hill
#
# Bulk Modulus (GPa) = 67.19122 78.23331 72.71227
# Shear Modulus (GPa) = 35.64473 45.20299 40.42386
#
# Velocity S-wave (km/s) = 3.83640 4.32026 4.08550
# Velocity P-wave (km/s) = 6.88241 7.56235 7.23038
#
# Compressibility (1/GPa) = 0.01488290
#
# Stress axis : x y z
#
# Youngs Moduli (GPa) = 94.19525 97.37715 97.98478
#
# Poissons Ratio (x) = 0.10851 0.37091
# Poissons Ratio (y) = 0.10497 0.31398
# Poissons Ratio (z) = 0.35657 0.31203
#
# Static dielectric constant tensor:
#      x y z
#    x 1.967880 0.002780 0.015320 
#    y 0.002780 1.912810 -0.001910 
#    z 0.015320 -0.001910 1.941850 
# 
# From -- ./inp_files/488758.got.cif
#   From: 2010.05.17/outbox.cif.g08.bks.cpg/sg2_245_cif.got.tgz:488758.got - 2010.06.03 11:33:40.
