data_PCOD9068680
_publ_section_title
;
Structure prediction by ZEFSAII (Michael W. Deem and Ramdas Pophale) SiO2 
 PCOD9068680
Probable space group: P -1
;
_chemical_formula_sum "Si O2"
_cell_formula_units_Z 10
_cell_length_a 4.900146
_cell_length_b 12.549007
_cell_length_c 15.969172
_cell_angle_alpha 25.607292
_cell_angle_beta 88.694843
_cell_angle_gamma 77.580899
_cell_volume 378.872197
_symmetry_space_group_name_H-M "P -1"
_symmetry_group_IT_number 2
_symmetry_cell_setting 'triclinic'
loop_
_space_group_symop_operation_xyz
x,y,z
-x,-y,-z
loop_
_atom_site_type_symbol
_atom_site_label
_atom_site_fract_x
_atom_site_fract_y
_atom_site_fract_z
Si Si1 0.150662 0.193223 0.392910
Si Si2 0.227697 0.067024 0.758751
Si Si3 0.271694 0.344289 0.822961
Si Si4 0.225347 0.624129 0.311849
Si Si5 0.192761 0.609196 0.978940
O O1 0.156420 0.471671 0.161334
O O2 0.929957 0.342673 0.366551
O O3 0.500000 0.000000 0.500000
O O4 0.000000 0.000000 0.500000
O O5 0.307408 0.302065 0.553683
O O6 0.938266 0.223033 0.710827
O O7 0.509834 0.846222 0.969502
O O8 0.147944 0.904226 0.802011
O O9 0.485155 0.344485 0.744629
O O10 0.026503 0.262693 0.840750
O O11 0.500000 0.500000 0.000000
O O12 0.000000 0.500000 0.000000
#
# Coordination Sequence:
#
# PCOD9068680 Si02
#       5
#     2   2   2   2   2
#     4  12  27  48  73 110 151 202 262 317 386 471
#     4  11  27  52  76 121 160 197 277 312 399 471
#     4  12  26  49  79 115 157 204 262 325 401 458
#     4  11  28  47  85 114 155 214 249 333 391 483
#     4  12  28  47  75 110 152 205 251 329 386 455
#
# _framework density 26.394126
#
# number of rings (size 3 to 8) (size 9 to 14) (size 15 to 20)
#    0.000    0.400    0.000    7.200    8.400    9.600 
#    0.000    0.000    0.000    0.000    0.000    0.000 
#    0.000    0.000    0.000    0.000    0.000    0.000 
#
# Total GULP energy -55860.213275 kJ/mol
# GULP energy per Si atom -5586.021327 kJ/mol
# Density = 2.633405 g / cm^3
# Si number density = 26.394126 Si / 1000 Ang^3
#
#
#
# Elastic Constant Matrix: (Units=GPa)
#
#
# Indices 1 2 3 4 5 6 
#
# 1 180.4547 36.5382 24.5070 -14.0761 -2.9317 3.8167
# 2 36.5382 153.8016 26.0744 -56.6348 24.6858 7.0724
# 3 24.5070 26.0744 156.5082 -3.2315 -4.1295 9.5432
# 4 -14.0761 -56.6348 -3.2315 48.7601 0.5807 -6.8134
# 5 -2.9317 24.6858 -4.1295 0.5807 38.1431 -6.9432
# 6 3.8167 7.0724 9.5432 -6.8134 -6.9432 43.7611
#
#
#
# Elastic Compliance Matrix: (Units=1/GPa)
#
#
# Indices 1 2 3 4 5 6 
#
# 1 0.005962 -0.001627 -0.000633 -0.000217 0.001460 0.000079
# 2 -0.001627 0.015370 -0.002179 0.017243 -0.010732 -0.000885
# 3 -0.000633 -0.002179 0.006924 -0.002442 0.001934 -0.001176
# 4 -0.000217 0.017243 -0.002442 0.040767 -0.011649 0.002264
# 5 0.001460 -0.010732 0.001934 -0.011649 0.034545 0.004853
# 6 0.000079 -0.000885 -0.001176 0.002264 0.004853 0.024366
#
#
# Mechanical properties :
#
#
# Convention : Reuss Voigt Hill
#
# Bulk Modulus (GPa) = 51.60528 73.88931 62.74729
# Shear Modulus (GPa) = 34.89847 53.04251 43.97049
#
# Velocity S-wave (km/s) = 3.64016 4.48776 4.08600
# Velocity P-wave (km/s) = 6.10426 7.41004 6.78862
#
# Compressibility (1/GPa) = 0.01937786
#
# Stress axis : x y z
#
# Youngs Moduli (GPa) = 167.72573 65.05983 144.42589
#
# Poissons Ratio (x) = 0.10584 0.09147
# Poissons Ratio (y) = 0.27287 0.31473
# Poissons Ratio (z) = 0.10622 0.14178
#
# Static dielectric constant tensor:
#      x y z
#    x 2.063190 -0.079300 0.146290 
#    y -0.079300 2.257830 0.040200 
#    z 0.146290 0.040200 2.177680 
# 
# From -- ./inp_files/482493.got.cif
#   From: 2010.05.17/outbox.cif.g08.bks.cpg/sg2_242_cif.got.tgz:482493.got - 2010.06.03 11:33:40.
