data_PCOD9068698
_publ_section_title
;
Structure prediction by ZEFSAII (Michael W. Deem and Ramdas Pophale) SiO2 
 PCOD9068698
Probable space group: P -1
;
_chemical_formula_sum "Si O2"
_cell_formula_units_Z 16
_cell_length_a 12.338807
_cell_length_b 9.400536
_cell_length_c 17.714682
_cell_angle_alpha 32.224594
_cell_angle_beta 30.966730
_cell_angle_gamma 46.714151
_cell_volume 557.821453
_symmetry_space_group_name_H-M "P -1"
_symmetry_group_IT_number 2
_symmetry_cell_setting 'triclinic'
loop_
_space_group_symop_operation_xyz
x,y,z
-x,-y,-z
loop_
_atom_site_type_symbol
_atom_site_label
_atom_site_fract_x
_atom_site_fract_y
_atom_site_fract_z
Si Si1 0.195381 0.671333 0.903148
Si Si2 0.820999 0.715779 0.552434
Si Si3 0.428940 0.887069 0.012282
Si Si4 0.904741 0.739543 0.318198
Si Si5 0.321093 0.677164 0.994041
Si Si6 0.637738 0.163134 0.540653
Si Si7 0.711883 0.566409 0.196466
Si Si8 0.182918 0.804313 0.424497
O O1 0.254727 0.592152 0.986989
O O2 0.332301 0.585418 0.789688
O O3 0.183703 0.989247 0.770345
O O4 0.956523 0.539091 0.084919
O O5 0.681204 0.421439 0.777654
O O6 0.926834 0.737699 0.397108
O O7 0.989088 0.778150 0.492705
O O8 0.687656 0.959007 0.535615
O O9 0.297196 0.117313 0.955101
O O10 0.500000 0.000000 0.000000
O O11 0.649730 0.941069 0.811036
O O12 0.107370 0.690733 0.165808
O O13 0.734656 0.474168 0.522598
O O14 0.436691 0.984533 0.779392
O O15 0.500000 0.500000 0.000000
O O16 0.606549 0.432381 0.395622
O O17 0.819996 0.198992 0.481465
#
# Coordination Sequence:
#
# PCOD9068698 Si02
#       8
#     2   2   2   2   2   2   2   2
#     4  11  27  54  91 121 179 239 295 365 451 533
#     4  12  28  57  89 128 183 235 296 368 454 527
#     4  12  30  51  88 137 174 231 303 376 442 539
#     4  12  26  56  88 127 173 242 292 364 449 530
#     4  12  31  52  85 133 180 226 294 368 448 523
#     4  12  30  53  84 130 179 231 296 368 448 531
#     4  11  28  54  85 127 177 230 307 361 446 535
#     4  12  29  47  88 127 180 232 297 364 448 527
#
# _framework density 28.683015000000001
#
# number of rings (size 3 to 8) (size 9 to 14) (size 15 to 20)
#    0.000    0.250    2.500    3.375   10.500    3.000 
#    4.500    0.625    0.000    0.000    0.000    0.000 
#    0.000    0.000    0.000    0.000    0.000    0.000 
#
# Total GULP energy -89619.170980 kJ/mol
# GULP energy per Si atom -5601.198186 kJ/mol
# Density = 2.861773 g / cm^3
# Si number density = 28.683015 Si / 1000 Ang^3
#
#
#
# Elastic Constant Matrix: (Units=GPa)
#
#
# Indices 1 2 3 4 5 6 
#
# 1 216.0903 88.5233 80.1614 7.9592 37.6285 35.1187
# 2 88.5233 197.2720 76.4774 2.7954 25.2404 31.9793
# 3 80.1614 76.4774 200.2343 -1.3388 27.1946 1.6461
# 4 7.9592 2.7954 -1.3388 45.0383 6.0875 3.2446
# 5 37.6285 25.2404 27.1946 6.0875 49.3554 2.2944
# 6 35.1187 31.9793 1.6461 3.2446 2.2944 63.2522
#
#
#
# Elastic Compliance Matrix: (Units=1/GPa)
#
#
# Indices 1 2 3 4 5 6 
#
# 1 0.006982 -0.001557 -0.001721 -0.000523 -0.003380 -0.002895
# 2 -0.001557 0.007089 -0.001886 0.000144 -0.001295 -0.002631
# 3 -0.001721 -0.001886 0.006601 0.000697 -0.001528 0.001757
# 4 -0.000523 0.000144 0.000697 0.022752 -0.002825 -0.000865
# 5 -0.003380 -0.001295 -0.001528 -0.002825 0.024606 0.001823
# 6 -0.002895 -0.002631 0.001757 -0.000865 0.001823 0.018680
#
#
# Mechanical properties :
#
#
# Convention : Reuss Voigt Hill
#
# Bulk Modulus (GPa) = 96.66879 122.65788 109.66333
# Shear Modulus (GPa) = 49.75801 56.09148 52.92474
#
# Velocity S-wave (km/s) = 4.16956 4.42697 4.30019
# Velocity P-wave (km/s) = 7.54691 8.30583 7.93545
#
# Compressibility (1/GPa) = 0.01034460
#
# Stress axis : x y z
#
# Youngs Moduli (GPa) = 143.21882 141.06461 151.48359
#
# Poissons Ratio (x) = 0.21959 0.26077
# Poissons Ratio (y) = 0.22295 0.28569
# Poissons Ratio (z) = 0.24654 0.26604
#
# Static dielectric constant tensor:
#      x y z
#    x 2.380030 -0.096420 -0.090590 
#    y -0.096420 2.247080 0.058520 
#    z -0.090590 0.058520 2.209970 
# 
# From -- ./inp_files/513925.got.cif
#   From: 2010.05.17/outbox.cif.g08.bks.cpg/sg2_257_cif.got.tgz:513925.got - 2010.06.03 11:33:40.
