data_PCOD9068929
_publ_section_title
;
Structure prediction by ZEFSAII (Michael W. Deem and Ramdas Pophale) SiO2 
 PCOD9068929
Probable space group: P -1
;
_chemical_formula_sum "Si O2"
_cell_formula_units_Z 12
_cell_length_a 19.786443
_cell_length_b 13.520356
_cell_length_c 13.375413
_cell_angle_alpha 33.742970
_cell_angle_beta 150.587800
_cell_angle_gamma 161.331124
_cell_volume 562.033338
_symmetry_space_group_name_H-M "P -1"
_symmetry_group_IT_number 2
_symmetry_cell_setting 'triclinic'
loop_
_space_group_symop_operation_xyz
x,y,z
-x,-y,-z
loop_
_atom_site_type_symbol
_atom_site_label
_atom_site_fract_x
_atom_site_fract_y
_atom_site_fract_z
Si Si1 0.245595 0.695870 0.373776
Si Si2 0.033351 0.674414 0.484748
Si Si3 0.851915 0.848645 0.039646
Si Si4 0.970889 0.205204 0.083663
Si Si5 0.330987 0.386902 0.679838
Si Si6 0.543257 0.397316 0.558032
O O1 0.177861 0.771821 0.141080
O O2 0.247052 0.499220 0.497325
O O3 0.044021 0.492617 0.370411
O O4 0.500000 0.000000 0.500000
O O5 0.860800 0.660322 0.254724
O O6 0.000000 0.500000 0.500000
O O7 0.299642 0.034331 0.527839
O O8 0.585208 0.628723 0.858210
O O9 0.960850 0.093237 0.057955
O O10 0.000000 0.000000 0.000000
O O11 0.245749 0.510883 0.212651
O O12 0.846859 0.943409 0.223894
O O13 0.375045 0.417073 0.593590
O O14 0.500000 0.500000 0.500000
#
# Coordination Sequence:
#
# PCOD9068929 Si02
#       6
#     2   2   2   2   2   2
#     4  12  24  43  71 104 145 184 240 297 350 426
#     4  12  25  44  71 108 144 187 243 291 351 432
#     4  12  21  43  72 102 138 187 238 286 353 425
#     4  12  25  44  72 105 142 190 236 292 365 418
#     4  12  24  45  72 104 143 186 240 297 352 432
#     4  12  25  47  72 103 146 190 235 299 364 420
#
# _framework density 21.351047999999999
#
# number of rings (size 3 to 8) (size 9 to 14) (size 15 to 20)
#    0.000    0.000    6.667    4.000    0.000    1.333 
#    0.000    1.667    0.000    0.000    0.000    0.000 
#    0.000    0.000    0.000    0.000    0.000    0.000 
#
# Total GULP energy -67227.326386 kJ/mol
# GULP energy per Si atom -5602.277199 kJ/mol
# Density = 2.130245 g / cm^3
# Si number density = 21.351048 Si / 1000 Ang^3
#
#
#
# Elastic Constant Matrix: (Units=GPa)
#
#
# Indices 1 2 3 4 5 6 
#
# 1 113.4799 56.0286 47.0223 -9.0656 -7.1935 -5.4893
# 2 56.0286 109.5652 57.7995 2.7807 2.1595 4.8760
# 3 47.0223 57.7995 138.2724 -0.2425 19.0857 -6.2723
# 4 -9.0656 2.7807 -0.2425 45.1981 4.6596 2.0302
# 5 -7.1935 2.1595 19.0857 4.6596 54.0128 -7.4367
# 6 -5.4893 4.8760 -6.2723 2.0302 -7.4367 29.6405
#
#
#
# Elastic Compliance Matrix: (Units=1/GPa)
#
#
# Indices 1 2 3 4 5 6 
#
# 1 0.013210 -0.005810 -0.002325 0.002519 0.003079 0.003510
# 2 -0.005810 0.014607 -0.004292 -0.001864 -0.000276 -0.004329
# 3 -0.002325 -0.004292 0.010386 0.000155 -0.003607 0.001558
# 4 0.002519 -0.001864 0.000155 0.022985 -0.001796 -0.001219
# 5 0.003079 -0.000276 -0.003607 -0.001796 0.021090 0.005267
# 6 0.003510 -0.004329 0.001558 -0.001219 0.005267 0.036834
#
#
# Mechanical properties :
#
#
# Convention : Reuss Voigt Hill
#
# Bulk Modulus (GPa) = 74.90727 75.89093 75.39910
# Shear Modulus (GPa) = 33.68899 39.13475 36.41187
#
# Velocity S-wave (km/s) = 3.97654 4.28591 4.13412
# Velocity P-wave (km/s) = 7.49958 7.75329 7.62749
#
# Compressibility (1/GPa) = 0.01334984
#
# Stress axis : x y z
#
# Youngs Moduli (GPa) = 75.69855 68.45877 96.28591
#
# Poissons Ratio (x) = 0.39771 0.22390
# Poissons Ratio (y) = 0.43977 0.41325
# Poissons Ratio (z) = 0.17603 0.29382
#
# Static dielectric constant tensor:
#      x y z
#    x 1.786290 0.011450 -0.007640 
#    y 0.011450 1.742380 -0.006820 
#    z -0.007640 -0.006820 1.785560 
# 
# From -- ./inp_files/151052.got.cif
#   From: 2010.05.17/outbox.cif.g08.bks.cpg/sg2_76_cif.got.tgz:151052.got - 2010.06.03 11:33:40.
