data_PCOD9068734
_publ_section_title
;
Structure prediction by ZEFSAII (Michael W. Deem and Ramdas Pophale) SiO2 
 PCOD9068734
Probable space group: P -1
;
_chemical_formula_sum "Si O2"
_cell_formula_units_Z 14
_cell_length_a 24.600628
_cell_length_b 5.163029
_cell_length_c 15.553525
_cell_angle_alpha 75.382943
_cell_angle_beta 162.658169
_cell_angle_gamma 99.062220
_cell_volume 545.458028
_symmetry_space_group_name_H-M "P -1"
_symmetry_group_IT_number 2
_symmetry_cell_setting 'triclinic'
loop_
_space_group_symop_operation_xyz
x,y,z
-x,-y,-z
loop_
_atom_site_type_symbol
_atom_site_label
_atom_site_fract_x
_atom_site_fract_y
_atom_site_fract_z
Si Si1 0.540293 0.461422 0.166187
Si Si2 0.850465 0.787470 0.223269
Si Si3 0.127640 0.301543 0.395829
Si Si4 0.837750 0.920241 0.706405
Si Si5 0.744076 0.644143 0.738565
Si Si6 0.517820 0.196489 0.431072
Si Si7 0.206320 0.932683 0.703844
O O1 0.719265 0.584151 0.431601
O O2 0.629949 0.148111 0.361446
O O3 0.500000 0.500000 0.000000
O O4 0.360134 0.644703 0.932552
O O5 0.773386 0.971580 0.176341
O O6 0.000000 0.500000 0.500000
O O7 0.687501 0.715252 0.929834
O O8 0.986301 0.930755 0.363669
O O9 0.220603 0.156778 0.635154
O O10 0.088138 0.101757 0.278648
O O11 0.925644 0.526257 0.083944
O O12 0.809518 0.653211 0.737965
O O13 0.000000 0.000000 0.000000
O O14 0.601829 0.455080 0.552259
O O15 0.654257 0.969118 0.594629
O O16 0.500000 0.000000 0.500000
#
# Coordination Sequence:
#
# PCOD9068734 Si02
#       7
#     2   2   2   2   2   2   2
#     4  12  28  48  80 118 164 215 268 333 419 507
#     4  11  30  49  81 110 159 211 281 347 407 483
#     4  12  27  48  77 118 165 208 269 336 417 509
#     4  12  27  49  76 120 166 216 266 335 421 499
#     4  12  29  48  85 117 167 213 273 346 417 503
#     4  12  30  53  83 118 159 219 284 344 415 490
#     4  11  28  51  78 117 159 220 275 340 419 493
#
# _framework density 25.666504
#
# number of rings (size 3 to 8) (size 9 to 14) (size 15 to 20)
#    0.000    0.286    2.857    3.000   14.000    0.000 
#    0.000    0.000    0.000    0.000    0.000    0.000 
#    0.000    0.000    0.000    0.000    0.000    0.000 
#
# Total GULP energy -78437.234110 kJ/mol
# GULP energy per Si atom -5602.659579 kJ/mol
# Density = 2.560809 g / cm^3
# Si number density = 25.666504 Si / 1000 Ang^3
#
#
#
# Elastic Constant Matrix: (Units=GPa)
#
#
# Indices 1 2 3 4 5 6 
#
# 1 98.5182 7.3319 17.0745 0.2474 2.1615 9.9683
# 2 7.3319 65.3318 15.1751 2.9391 6.7414 11.2011
# 3 17.0745 15.1751 147.5973 -8.0296 -3.9580 -4.6234
# 4 0.2474 2.9391 -8.0296 52.7941 5.4382 3.2004
# 5 2.1615 6.7414 -3.9580 5.4382 42.7365 -4.0611
# 6 9.9683 11.2011 -4.6234 3.2004 -4.0611 45.5587
#
#
#
# Elastic Compliance Matrix: (Units=1/GPa)
#
#
# Indices 1 2 3 4 5 6 
#
# 1 0.010669 -0.000393 -0.001292 0.000009 -0.000831 -0.002444
# 2 -0.000393 0.016936 -0.001957 -0.000637 -0.003181 -0.004515
# 3 -0.001292 -0.001957 0.007257 0.001017 0.001062 0.001524
# 4 0.000009 -0.000637 0.001017 0.019460 -0.002408 -0.001324
# 5 -0.000831 -0.003181 0.001062 -0.002408 0.024675 0.003440
# 6 -0.002444 -0.004515 0.001524 -0.001324 0.003440 0.024149
#
#
# Mechanical properties :
#
#
# Convention : Reuss Voigt Hill
#
# Bulk Modulus (GPa) = 36.26071 43.40115 39.83093
# Shear Modulus (GPa) = 41.79784 46.34225 44.07004
#
# Velocity S-wave (km/s) = 4.03984 4.25379 4.14820
# Velocity P-wave (km/s) = 5.99323 6.40880 6.20449
#
# Compressibility (1/GPa) = 0.02757806
#
# Stress axis : x y z
#
# Youngs Moduli (GPa) = 93.72903 59.04490 137.78976
#
# Poissons Ratio (x) = 0.02320 0.17805
# Poissons Ratio (y) = 0.03683 0.26969
# Poissons Ratio (z) = 0.12111 0.11557
#
# Static dielectric constant tensor:
#      x y z
#    x 2.758870 -0.770080 -0.194600 
#    y -0.770080 3.093600 0.371590 
#    z -0.194600 0.371590 2.193320 
# 
# From -- ./inp_files/542149.got.cif
#   From: 2010.05.17/outbox.cif.g08.bks.cpg/sg2_272_cif.got.tgz:542149.got - 2010.06.03 11:33:40.
