data_PCOD9068312
_publ_section_title
;
Structure prediction by ZEFSAII (Michael W. Deem and Ramdas Pophale) SiO2 
 PCOD9068312
Probable space group: P -1
;
_chemical_formula_sum "Si O2"
_cell_formula_units_Z 14
_cell_length_a 15.334255
_cell_length_b 6.442674
_cell_length_c 9.706854
_cell_angle_alpha 94.748786
_cell_angle_beta 34.719840
_cell_angle_gamma 98.165814
_cell_volume 539.678276
_symmetry_space_group_name_H-M "P -1"
_symmetry_group_IT_number 2
_symmetry_cell_setting 'triclinic'
loop_
_space_group_symop_operation_xyz
x,y,z
-x,-y,-z
loop_
_atom_site_type_symbol
_atom_site_label
_atom_site_fract_x
_atom_site_fract_y
_atom_site_fract_z
Si Si1 0.448626 0.799780 0.431160
Si Si2 0.598314 0.573286 0.744627
Si Si3 0.296676 0.185437 0.709233
Si Si4 0.904395 0.746088 0.291601
Si Si5 0.356896 0.854681 0.980682
Si Si6 0.919574 0.109400 0.485112
Si Si7 0.122933 0.484990 0.125803
O O1 0.402437 0.606332 0.380148
O O2 0.522840 0.744078 0.477443
O O3 0.311493 0.938540 0.650635
O O4 0.585419 0.947095 0.179377
O O5 0.773023 0.646556 0.563524
O O6 0.500000 0.500000 0.000000
O O7 0.513352 0.760867 0.806385
O O8 0.193500 0.244967 0.718809
O O9 0.220245 0.308402 0.934860
O O10 0.037428 0.600321 0.122844
O O11 0.951855 0.979324 0.299363
O O12 0.261681 0.909608 0.242313
O O13 0.235412 0.671782 0.061299
O O14 0.995467 0.347501 0.377526
O O15 0.000000 0.000000 0.500000
#
# Coordination Sequence:
#
# PCOD9068312 Si02
#       7
#     2   2   2   2   2   2   2
#     4  11  26  49  73 109 144 189 241 303 357 421
#     4  12  27  45  76 109 144 186 244 300 365 422
#     4  11  26  49  72 105 148 192 243 293 354 436
#     4  12  28  47  72 112 144 190 241 299 358 428
#     4  12  25  47  78 104 143 192 240 297 367 426
#     4  12  27  47  74 109 147 185 242 299 364 423
#     4  12  27  48  74 107 146 197 235 293 366 431
#
# _framework density 25.941379999999999
#
# number of rings (size 3 to 8) (size 9 to 14) (size 15 to 20)
#    0.000    0.286    4.286    3.429    6.000    5.143 
#    0.000    0.000    0.000    0.000    0.000    0.000 
#    0.000    0.000    0.000    0.000    0.000    0.000 
#
# Total GULP energy -78330.946618 kJ/mol
# GULP energy per Si atom -5595.067616 kJ/mol
# Density = 2.588234 g / cm^3
# Si number density = 25.941380 Si / 1000 Ang^3
#
#
#
# Elastic Constant Matrix: (Units=GPa)
#
#
# Indices 1 2 3 4 5 6 
#
# 1 102.8048 54.9825 -1.4152 13.4844 -11.4441 -15.5191
# 2 54.9825 147.9753 44.4818 14.9143 -11.7937 7.0676
# 3 -1.4152 44.4818 65.6479 29.5950 -18.2914 -11.4925
# 4 13.4844 14.9143 29.5950 68.7103 -4.8957 -5.5921
# 5 -11.4441 -11.7937 -18.2914 -4.8957 37.0993 11.2679
# 6 -15.5191 7.0676 -11.4925 -5.5921 11.2679 43.8385
#
#
#
# Elastic Compliance Matrix: (Units=1/GPa)
#
#
# Indices 1 2 3 4 5 6 
#
# 1 0.017954 -0.009969 0.012773 -0.005744 0.005094 0.009270
# 2 -0.009969 0.014465 -0.013902 0.003959 -0.002251 -0.008422
# 3 0.012773 -0.013902 0.036348 -0.013344 0.012202 0.011453
# 4 -0.005744 0.003959 -0.013344 0.020093 -0.003629 -0.002674
# 5 0.005094 -0.002251 0.012202 -0.003629 0.034557 -0.003980
# 6 0.009270 -0.008422 0.011453 -0.002674 -0.003980 0.031135
#
#
# Mechanical properties :
#
#
# Convention : Reuss Voigt Hill
#
# Bulk Modulus (GPa) = 21.47209 56.94735 39.20972
# Shear Modulus (GPa) = 26.00494 44.48820 35.24657
#
# Velocity S-wave (km/s) = 3.16958 4.14569 3.69005
# Velocity P-wave (km/s) = 4.65727 6.70191 5.77087
#
# Compressibility (1/GPa) = 0.04657208
#
# Stress axis : x y z
#
# Youngs Moduli (GPa) = 55.69727 69.13355 27.51153
#
# Poissons Ratio (x) = 0.68917 -0.35141
# Poissons Ratio (y) = 0.55522 0.38247
# Poissons Ratio (z) = -0.71142 0.96110
#
# Static dielectric constant tensor:
#      x y z
#    x 2.095280 -0.036500 0.107540 
#    y -0.036500 2.009440 -0.040800 
#    z 0.107540 -0.040800 2.088720 
# 
# From -- ./inp_files/459544.got.cif
#   From: 2010.05.17/outbox.cif.g08.bks.cpg/sg2_230_cif.got.tgz:459544.got - 2010.06.03 11:33:40.
