data_PCOD9068548
_publ_section_title
;
Structure prediction by ZEFSAII (Michael W. Deem and Ramdas Pophale) SiO2 
 PCOD9068548
Probable space group: P -1
;
_chemical_formula_sum "Si O2"
_cell_formula_units_Z 16
_cell_length_a 4.929471
_cell_length_b 9.739780
_cell_length_c 17.804765
_cell_angle_alpha 71.957740
_cell_angle_beta 60.551323
_cell_angle_gamma 61.778636
_cell_volume 652.573987
_symmetry_space_group_name_H-M "P -1"
_symmetry_group_IT_number 2
_symmetry_cell_setting 'triclinic'
loop_
_space_group_symop_operation_xyz
x,y,z
-x,-y,-z
loop_
_atom_site_type_symbol
_atom_site_label
_atom_site_fract_x
_atom_site_fract_y
_atom_site_fract_z
Si Si1 0.470851 0.614238 0.153938
Si Si2 0.273033 0.851977 0.881154
Si Si3 0.707793 0.100394 0.301283
Si Si4 0.308571 0.110582 0.939549
Si Si5 0.201283 0.454398 0.334471
Si Si6 0.218340 0.472425 0.092659
Si Si7 0.816300 0.052717 0.597777
Si Si8 0.561255 0.424215 0.586002
O O1 0.492007 0.780738 0.123992
O O2 0.395925 0.549966 0.251654
O O3 0.190140 0.598419 0.139993
O O4 0.859240 0.502090 0.099812
O O5 0.162923 0.885294 0.803482
O O6 0.623771 0.700630 0.863461
O O7 0.289223 0.007496 0.889417
O O8 0.043950 0.808140 0.981432
O O9 0.413840 0.270581 0.327626
O O10 0.529119 0.976471 0.348234
O O11 0.967652 0.049383 0.344047
O O12 0.500000 0.000000 0.000000
O O13 0.217766 0.505387 0.408178
O O14 0.826356 0.512398 0.342938
O O15 0.500000 0.500000 0.000000
O O16 0.731824 0.236282 0.590546
O O17 0.000000 0.000000 0.500000
O O18 0.500000 0.500000 0.500000
#
# Coordination Sequence:
#
# PCOD9068548 Si02
#       8
#     2   2   2   2   2   2   2   2
#     4  12  27  45  72 105 146 191 252 306 372 438
#     4  11  27  46  70 109 148 199 260 308 383 437
#     4  12  27  47  79 112 152 198 250 318 374 458
#     4  11  27  46  71 101 154 203 249 320 373 448
#     4  12  26  47  76 114 152 193 252 312 381 447
#     4  12  24  45  72 102 138 199 252 304 361 441
#     4  12  28  52  80 113 152 197 246 305 386 463
#     4  12  27  51  79 112 151 195 245 309 379 461
#
# _framework density 24.518294999999998
#
# number of rings (size 3 to 8) (size 9 to 14) (size 15 to 20)
#    0.000    0.250    2.500    5.625    8.750    1.000 
#    0.000    0.000    0.000    0.000    0.000    0.000 
#    0.000    0.000    0.000    0.000    0.000    0.000 
#
# Total GULP energy -89549.326827 kJ/mol
# GULP energy per Si atom -5596.832927 kJ/mol
# Density = 2.446249 g / cm^3
# Si number density = 24.518295 Si / 1000 Ang^3
#
#
#
# Elastic Constant Matrix: (Units=GPa)
#
#
# Indices 1 2 3 4 5 6 
#
# 1 104.8578 10.5264 15.4370 7.0480 13.9874 -0.1133
# 2 10.5264 132.0493 15.0342 1.1014 12.5178 -5.7296
# 3 15.4370 15.0342 115.5718 -9.8486 13.8797 9.0650
# 4 7.0480 1.1014 -9.8486 29.2373 2.2491 6.5253
# 5 13.9874 12.5178 13.8797 2.2491 42.9789 -0.7276
# 6 -0.1133 -5.7296 9.0650 6.5253 -0.7276 42.8093
#
#
#
# Elastic Compliance Matrix: (Units=1/GPa)
#
#
# Indices 1 2 3 4 5 6 
#
# 1 0.010314 -0.000369 -0.001302 -0.002849 -0.002668 0.000643
# 2 -0.000369 0.007945 -0.000926 -0.000678 -0.001837 0.001331
# 3 -0.001302 -0.000926 0.009904 0.004562 -0.002794 -0.002967
# 4 -0.002849 -0.000678 0.004562 0.038188 -0.002464 -0.006927
# 5 -0.002668 -0.001837 -0.002794 -0.002464 0.025721 0.001151
# 6 0.000643 0.001331 -0.002967 -0.006927 0.001151 0.025243
#
#
# Mechanical properties :
#
#
# Convention : Reuss Voigt Hill
#
# Bulk Modulus (GPa) = 43.53806 48.27490 45.90648
# Shear Modulus (GPa) = 38.41253 43.77053 41.09153
#
# Velocity S-wave (km/s) = 3.96244 4.22977 4.09828
# Velocity P-wave (km/s) = 6.22338 6.60202 6.41549
#
# Compressibility (1/GPa) = 0.02296841
#
# Stress axis : x y z
#
# Youngs Moduli (GPa) = 96.95863 125.86079 100.96850
#
# Poissons Ratio (x) = 0.04648 0.13149
# Poissons Ratio (y) = 0.03581 0.09347
# Poissons Ratio (z) = 0.12627 0.11652
#
# Static dielectric constant tensor:
#      x y z
#    x 1.953470 -0.075830 -0.067240 
#    y -0.075830 1.956320 0.046590 
#    z -0.067240 0.046590 1.929210 
# 
# From -- ./inp_files/547958.got.cif
#   From: 2010.05.17/outbox.cif.g08.bks.cpg/sg2_274_cif.got.tgz:547958.got - 2010.06.03 11:33:40.
