data_PCOD9068758
_publ_section_title
;
Structure prediction by ZEFSAII (Michael W. Deem and Ramdas Pophale) SiO2 
 PCOD9068758
Probable space group: P -1
;
_chemical_formula_sum "Si O2"
_cell_formula_units_Z 10
_cell_length_a 5.107456
_cell_length_b 15.425350
_cell_length_c 15.066266
_cell_angle_alpha 18.802396
_cell_angle_beta 92.432594
_cell_angle_gamma 92.464881
_cell_volume 382.212093
_symmetry_space_group_name_H-M "P -1"
_symmetry_group_IT_number 2
_symmetry_cell_setting 'triclinic'
loop_
_space_group_symop_operation_xyz
x,y,z
-x,-y,-z
loop_
_atom_site_type_symbol
_atom_site_label
_atom_site_fract_x
_atom_site_fract_y
_atom_site_fract_z
Si Si1 0.101163 0.040498 0.146872
Si Si2 0.611204 0.671002 0.540845
Si Si3 0.430913 0.265499 0.794963
Si Si4 0.044681 0.552226 0.096788
Si Si5 0.311146 0.747944 0.742197
O O1 0.349654 0.845068 0.357282
O O2 0.848126 0.847672 0.332142
O O3 0.150680 0.192596 0.906529
O O4 0.079656 0.263171 0.007860
O O5 0.578460 0.386810 0.765634
O O6 0.704218 0.592042 0.716854
O O7 0.500000 0.500000 0.500000
O O8 0.500000 0.000000 0.000000
O O9 0.856566 0.320283 0.280928
O O10 0.120000 0.738142 0.834100
O O11 0.500000 0.000000 0.500000
O O12 0.500000 0.500000 0.000000
#
# Coordination Sequence:
#
# PCOD9068758 Si02
#       5
#     2   2   2   2   2
#     4  12  29  53  88 124 169 224 286 348 421 506
#     4  12  29  53  88 124 169 224 286 348 421 506
#     4  12  28  56  84 127 172 223 282 352 422 502
#     4  11  30  50  84 124 168 220 286 344 420 505
#     4  11  30  53  83 120 172 218 280 348 422 502
#
# _framework density 26.163485999999999
#
# number of rings (size 3 to 8) (size 9 to 14) (size 15 to 20)
#    0.000    0.400    2.000    2.400   14.000    3.200 
#    0.000    3.000    0.000    0.000    0.000    0.000 
#    0.000    0.000    0.000    0.000    0.000    0.000 
#
# Total GULP energy -56107.908916 kJ/mol
# GULP energy per Si atom -5610.790892 kJ/mol
# Density = 2.610394 g / cm^3
# Si number density = 26.163486 Si / 1000 Ang^3
#
#
#
# Elastic Constant Matrix: (Units=GPa)
#
#
# Indices 1 2 3 4 5 6 
#
# 1 145.2497 37.7897 52.8237 -18.1206 -10.6037 -5.3202
# 2 37.7897 132.9648 48.0028 -19.4668 -15.4406 -15.6256
# 3 52.8237 48.0028 177.1945 -40.4023 -26.9572 -4.3029
# 4 -18.1206 -19.4668 -40.4023 43.2868 0.8362 -1.9158
# 5 -10.6037 -15.4406 -26.9572 0.8362 68.7668 4.1217
# 6 -5.3202 -15.6256 -4.3029 -1.9158 4.1217 63.3004
#
#
#
# Elastic Compliance Matrix: (Units=1/GPa)
#
#
# Indices 1 2 3 4 5 6 
#
# 1 0.008049 -0.001454 -0.001711 0.001124 0.000217 0.000221
# 2 -0.001454 0.009115 -0.001266 0.002377 0.001175 0.002037
# 3 -0.001711 -0.001266 0.008384 0.006495 0.002651 0.000138
# 4 0.001124 0.002377 0.006495 0.030733 0.002767 0.001873
# 5 0.000217 0.001175 0.002651 0.002767 0.015873 -0.000461
# 6 0.000221 0.002037 0.000138 0.001873 -0.000461 0.016415
#
#
# Mechanical properties :
#
#
# Convention : Reuss Voigt Hill
#
# Bulk Modulus (GPa) = 59.92769 81.40461 70.66615
# Shear Modulus (GPa) = 48.54725 56.19033 52.36879
#
# Velocity S-wave (km/s) = 4.31226 4.63932 4.47878
# Velocity P-wave (km/s) = 6.91006 7.73815 7.33580
#
# Compressibility (1/GPa) = 0.01668678
#
# Stress axis : x y z
#
# Youngs Moduli (GPa) = 124.23155 109.71163 119.27467
#
# Poissons Ratio (x) = 0.15955 0.20407
# Poissons Ratio (y) = 0.18066 0.15095
# Poissons Ratio (z) = 0.21255 0.13885
#
# Static dielectric constant tensor:
#      x y z
#    x 1.986740 -0.078500 -0.007730 
#    y -0.078500 1.990070 0.042500 
#    z -0.007730 0.042500 2.013820 
# 
# From -- ./inp_files/483174.got.cif
#   From: 2010.05.17/outbox.cif.g08.bks.cpg/sg2_242_cif.got.tgz:483174.got - 2010.06.03 11:33:40.
