data_PCOD9068241
_publ_section_title
;
Structure prediction by ZEFSAII (Michael W. Deem and Ramdas Pophale) SiO2 
 PCOD9068241
Probable space group: P -1
;
_chemical_formula_sum "Si O2"
_cell_formula_units_Z 12
_cell_length_a 14.140013
_cell_length_b 9.826590
_cell_length_c 20.189508
_cell_angle_alpha 27.290111
_cell_angle_beta 23.994029
_cell_angle_gamma 26.703179
_cell_volume 470.487438
_symmetry_space_group_name_H-M "P -1"
_symmetry_group_IT_number 2
_symmetry_cell_setting 'triclinic'
loop_
_space_group_symop_operation_xyz
x,y,z
-x,-y,-z
loop_
_atom_site_type_symbol
_atom_site_label
_atom_site_fract_x
_atom_site_fract_y
_atom_site_fract_z
Si Si1 0.366058 0.967194 0.678154
Si Si2 0.209227 0.162461 0.981201
Si Si3 0.333231 0.144687 0.763192
Si Si4 0.085591 0.216177 0.621940
Si Si5 0.121821 0.916286 0.531160
Si Si6 0.414683 0.773207 0.198147
O O1 0.625602 0.027859 0.483986
O O2 0.451963 0.600975 0.751756
O O3 0.286996 0.976262 0.800481
O O4 0.162324 0.229100 0.644836
O O5 0.194341 0.130834 0.925899
O O6 0.473498 0.178181 0.823894
O O7 0.000000 0.500000 0.000000
O O8 0.142466 0.893870 0.176513
O O9 0.232712 0.525930 0.642293
O O10 0.639773 0.994668 0.647304
O O11 0.000000 0.500000 0.500000
O O12 0.889523 0.090054 0.656671
O O13 0.000000 0.000000 0.500000
O O14 0.500000 0.000000 0.000000
#
# Coordination Sequence:
#
# PCOD9068241 Si02
#       6
#     2   2   2   2   2   2
#     4  11  28  49  80 117 159 206 267 332 405 469
#     4  12  25  51  79 113 158 213 266 326 400 484
#     4  11  28  48  79 118 160 207 267 339 396 470
#     4  11  27  49  79 111 159 209 261 323 405 475
#     4  11  26  48  76 113 163 209 263 319 406 482
#     4  12  26  50  80 116 153 215 267 322 399 486
#
# _framework density 25.505464
#
# number of rings (size 3 to 8) (size 9 to 14) (size 15 to 20)
#    0.000    0.667    3.333    2.000   14.000    0.667 
#    0.000    1.667    0.000    0.000    0.000    0.000 
#    0.000    0.000    0.000    0.000    0.000    0.000 
#
# Total GULP energy -67207.421413 kJ/mol
# GULP energy per Si atom -5600.618451 kJ/mol
# Density = 2.544741 g / cm^3
# Si number density = 25.505464 Si / 1000 Ang^3
#
#
#
# Elastic Constant Matrix: (Units=GPa)
#
#
# Indices 1 2 3 4 5 6 
#
# 1 189.9807 72.6217 69.1998 6.9924 30.5261 6.6376
# 2 72.6217 108.8744 66.8193 2.3322 9.0235 -9.5841
# 3 69.1998 66.8193 159.1635 -0.0430 25.5801 2.6812
# 4 6.9924 2.3322 -0.0430 46.4610 -3.5921 4.4630
# 5 30.5261 9.0235 25.5801 -3.5921 56.9470 9.7317
# 6 6.6376 -9.5841 2.6812 4.4630 9.7317 47.9016
#
#
#
# Elastic Compliance Matrix: (Units=1/GPa)
#
#
# Indices 1 2 3 4 5 6 
#
# 1 0.007911 -0.004459 -0.001080 -0.001074 -0.002905 -0.001238
# 2 -0.004459 0.015306 -0.004784 -0.000342 0.001463 0.003683
# 3 -0.001080 -0.004784 0.009199 0.000285 -0.002638 -0.000813
# 4 -0.001074 -0.000342 0.000285 0.022119 0.002318 -0.002467
# 5 -0.002905 0.001463 -0.002638 0.002318 0.020833 -0.003605
# 6 -0.001238 0.003683 -0.000813 -0.002467 -0.003605 0.022792
#
#
# Mechanical properties :
#
#
# Convention : Reuss Voigt Hill
#
# Bulk Modulus (GPa) = 84.97099 97.25558 91.11329
# Shear Modulus (GPa) = 40.74002 46.88710 43.81356
#
# Velocity S-wave (km/s) = 4.00097 4.29221 4.14914
# Velocity P-wave (km/s) = 7.39803 7.92327 7.66515
#
# Compressibility (1/GPa) = 0.01176872
#
# Stress axis : x y z
#
# Youngs Moduli (GPa) = 126.40176 65.33492 108.71245
#
# Poissons Ratio (x) = 0.29135 0.11741
# Poissons Ratio (y) = 0.56367 0.52009
# Poissons Ratio (z) = 0.13652 0.31257
#
# Static dielectric constant tensor:
#      x y z
#    x 2.203340 -0.025030 -0.088380 
#    y -0.025030 2.060450 0.034970 
#    z -0.088380 0.034970 2.045790 
# 
# From -- ./inp_files/83619.got.cif
#   From: 2010.05.17/outbox.cif.g08.bks.cpg/sg2_42_cif.got.tgz:83619.got - 2010.06.03 11:33:40.
