data_PCOD9068323
_publ_section_title
;
Structure prediction by ZEFSAII (Michael W. Deem and Ramdas Pophale) SiO2 
 PCOD9068323
Probable space group: P -1
;
_chemical_formula_sum "Si O2"
_cell_formula_units_Z 14
_cell_length_a 5.358018
_cell_length_b 9.211314
_cell_length_c 23.697224
_cell_angle_alpha 148.514356
_cell_angle_beta 84.111037
_cell_angle_gamma 101.542996
_cell_volume 593.175921
_symmetry_space_group_name_H-M "P -1"
_symmetry_group_IT_number 2
_symmetry_cell_setting 'triclinic'
loop_
_space_group_symop_operation_xyz
x,y,z
-x,-y,-z
loop_
_atom_site_type_symbol
_atom_site_label
_atom_site_fract_x
_atom_site_fract_y
_atom_site_fract_z
Si Si1 0.590079 0.340679 0.180655
Si Si2 0.476382 0.436904 0.345115
Si Si3 0.210904 0.372607 0.983930
Si Si4 0.461076 0.198760 0.434730
Si Si5 0.102294 0.898517 0.748552
Si Si6 0.253647 0.212039 0.045488
Si Si7 0.085548 0.135231 0.708708
O O1 0.533445 0.423635 0.272728
O O2 0.836052 0.559931 0.222665
O O3 0.381519 0.377550 0.151227
O O4 0.412474 0.995652 0.940141
O O5 0.559578 0.729191 0.474421
O O6 0.649784 0.238384 0.304306
O O7 0.171741 0.318322 0.321645
O O8 0.125348 0.045751 0.858019
O O9 0.500000 0.500000 0.000000
O O10 0.000000 0.500000 0.000000
O O11 0.204385 0.413264 0.063807
O O12 0.500000 0.500000 0.500000
O O13 0.704702 0.052324 0.375147
O O14 0.197689 0.014322 0.354886
O O15 0.109330 0.123534 0.772416
O O16 0.000000 0.000000 0.000000
#
# Coordination Sequence:
#
# PCOD9068323 Si02
#       7
#     2   2   2   2   2   2   2
#     4  11  28  46  70 109 144 191 234 293 360 432
#     4  12  25  45  73  98 141 186 236 282 358 423
#     4  12  27  44  72 107 141 184 246 293 345 419
#     4  12  24  46  73 105 139 187 236 301 360 411
#     4  12  23  43  70 101 137 186 235 289 345 419
#     4  11  26  49  73  99 152 195 229 290 368 422
#     4  12  26  44  74 106 141 182 243 295 352 426
#
# _framework density 23.601768
#
# number of rings (size 3 to 8) (size 9 to 14) (size 15 to 20)
#    0.000    0.286    4.286    3.857    8.000    1.143 
#    0.000    0.000    0.000    0.000    0.000    0.000 
#    0.000    0.000    0.000    0.000    0.000    0.000 
#
# Total GULP energy -78321.652609 kJ/mol
# GULP energy per Si atom -5594.403758 kJ/mol
# Density = 2.354805 g / cm^3
# Si number density = 23.601768 Si / 1000 Ang^3
#
#
#
# Elastic Constant Matrix: (Units=GPa)
#
#
# Indices 1 2 3 4 5 6 
#
# 1 135.7468 16.7878 34.3210 -4.3950 17.6569 -17.1672
# 2 16.7878 126.6729 28.7864 -35.0438 10.0480 -9.6194
# 3 34.3210 28.7864 78.5572 -20.0936 18.7626 -8.8655
# 4 -4.3950 -35.0438 -20.0936 54.8662 2.9222 7.1782
# 5 17.6569 10.0480 18.7626 2.9222 50.3607 4.8006
# 6 -17.1672 -9.6194 -8.8655 7.1782 4.8006 30.3564
#
#
#
# Elastic Compliance Matrix: (Units=1/GPa)
#
#
# Indices 1 2 3 4 5 6 
#
# 1 0.009041 -0.000247 -0.003013 -0.001035 -0.002393 0.004778
# 2 -0.000247 0.010140 -0.001503 0.005801 -0.001861 0.001557
# 3 -0.003013 -0.001503 0.017601 0.005205 -0.005755 0.002639
# 4 -0.001035 0.005801 0.005205 0.024271 -0.003919 -0.002346
# 5 -0.002393 -0.001861 -0.005755 -0.003919 0.024058 -0.006502
# 6 0.004778 0.001557 0.002639 -0.002346 -0.006502 0.038491
#
#
# Mechanical properties :
#
#
# Convention : Reuss Voigt Hill
#
# Bulk Modulus (GPa) = 36.69221 55.64081 46.16651
# Shear Modulus (GPa) = 35.15843 44.52211 39.84027
#
# Velocity S-wave (km/s) = 3.86379 4.34797 4.11301
# Velocity P-wave (km/s) = 5.95695 6.98802 6.49299
#
# Compressibility (1/GPa) = 0.02725374
#
# Stress axis : x y z
#
# Youngs Moduli (GPa) = 110.60610 98.62376 56.81599
#
# Poissons Ratio (x) = 0.02436 0.17120
# Poissons Ratio (y) = 0.02732 0.08542
# Poissons Ratio (z) = 0.33329 0.14828
#
# Static dielectric constant tensor:
#      x y z
#    x 1.920170 -0.008260 -0.071470 
#    y -0.008260 1.902290 0.000270 
#    z -0.071470 0.000270 1.949600 
# 
# From -- ./inp_files/603911.got.cif
#   From: 2010.05.17/outbox.cif.g08.bks.cpg/sg2_302_cif.got.tgz:603911.got - 2010.06.03 11:33:40.
