data_PCOD9068626
_publ_section_title
;
Structure prediction by ZEFSAII (Michael W. Deem and Ramdas Pophale) SiO2 
 PCOD9068626
Probable space group: P -1
;
_chemical_formula_sum "Si O2"
_cell_formula_units_Z 12
_cell_length_a 12.710713
_cell_length_b 4.934726
_cell_length_c 11.422209
_cell_angle_alpha 97.100057
_cell_angle_beta 143.177824
_cell_angle_gamma 82.198909
_cell_volume 425.280973
_symmetry_space_group_name_H-M "P -1"
_symmetry_group_IT_number 2
_symmetry_cell_setting 'triclinic'
loop_
_space_group_symop_operation_xyz
x,y,z
-x,-y,-z
loop_
_atom_site_type_symbol
_atom_site_label
_atom_site_fract_x
_atom_site_fract_y
_atom_site_fract_z
Si Si1 0.036760 0.895799 0.744356
Si Si2 0.419248 0.308806 0.749179
Si Si3 0.162631 0.713869 0.096917
Si Si4 0.253530 0.365407 0.849466
Si Si5 0.605759 0.831046 0.741847
Si Si6 0.762659 0.323282 0.589160
O O1 0.106281 0.619839 0.725933
O O2 0.169241 0.123641 0.833053
O O3 0.049070 0.803595 0.886671
O O4 0.852821 0.072658 0.582984
O O5 0.718389 0.551031 0.851293
O O6 0.308982 0.261780 0.764814
O O7 0.528582 0.043825 0.782535
O O8 0.424606 0.734574 0.524759
O O9 0.114642 0.642636 0.184981
O O10 0.271653 0.988125 0.216575
O O11 0.431941 0.483313 0.067649
O O12 0.295114 0.443455 0.543343
#
# Coordination Sequence:
#
# PCOD9068626 Si02
#       6
#     2   2   2   2   2   2
#     4  12  27  48  71 107 146 189 232 287 367 418
#     4  11  27  49  76 107 135 189 249 287 354 407
#     4  12  26  47  74 104 145 191 237 285 352 425
#     4  11  28  49  76 100 144 190 239 294 343 436
#     4  12  25  46  74 107 140 184 244 292 344 419
#     4  12  28  45  75 108 148 182 235 297 356 423
#
# _framework density 28.216638
#
# number of rings (size 3 to 8) (size 9 to 14) (size 15 to 20)
#    0.000    0.333    3.333    3.500    7.000    2.667 
#    0.000    3.333    0.000    0.000    0.000    0.000 
#    0.000    0.000    0.000    0.000    0.000    0.000 
#
# Total GULP energy -67207.385030 kJ/mol
# GULP energy per Si atom -5600.615419 kJ/mol
# Density = 2.815242 g / cm^3
# Si number density = 28.216638 Si / 1000 Ang^3
#
#
#
# Elastic Constant Matrix: (Units=GPa)
#
#
# Indices 1 2 3 4 5 6 
#
# 1 132.5300 51.1973 18.0098 0.3484 -15.9219 -9.9959
# 2 51.1973 200.7206 43.4692 -44.6475 -9.6444 -13.3611
# 3 18.0098 43.4692 86.5434 -12.9582 -5.8757 -31.5281
# 4 0.3484 -44.6475 -12.9582 47.1930 -19.3886 15.2779
# 5 -15.9219 -9.6444 -5.8757 -19.3886 36.4355 5.7247
# 6 -9.9959 -13.3611 -31.5281 15.2779 5.7247 61.3908
#
#
#
# Elastic Compliance Matrix: (Units=1/GPa)
#
#
# Indices 1 2 3 4 5 6 
#
# 1 0.008868 -0.002478 -0.000407 -0.002086 0.001881 0.001039
# 2 -0.002478 0.009168 -0.003082 0.012386 0.008039 -0.003823
# 3 -0.000407 -0.003082 0.015794 -0.001185 -0.000286 0.007696
# 4 -0.002086 0.012386 -0.001185 0.049541 0.030650 -0.013439
# 5 0.001881 0.008039 -0.000286 0.030650 0.048265 -0.010220
# 6 0.001039 -0.003823 0.007696 -0.013439 -0.010220 0.023876
#
#
# Mechanical properties :
#
#
# Convention : Reuss Voigt Hill
#
# Bulk Modulus (GPa) = 45.66719 71.68294 58.67507
# Shear Modulus (GPa) = 28.61313 49.47837 39.04575
#
# Velocity S-wave (km/s) = 3.18787 4.19205 3.72396
# Velocity P-wave (km/s) = 5.45616 6.99218 6.27138
#
# Compressibility (1/GPa) = 0.02189756
#
# Stress axis : x y z
#
# Youngs Moduli (GPa) = 112.76675 109.06916 63.31400
#
# Poissons Ratio (x) = 0.27030 0.02574
# Poissons Ratio (y) = 0.27946 0.19512
# Poissons Ratio (z) = 0.04585 0.33612
#
# Static dielectric constant tensor:
#      x y z
#    x 2.194310 0.076940 0.031800 
#    y 0.076940 2.146640 0.157820 
#    z 0.031800 0.157820 2.316410 
# 
# From -- ./inp_files/408553.got.cif
#   From: 2010.05.17/outbox.cif.g08.bks.cpg/sg2_205_cif.got.tgz:408553.got - 2010.06.03 11:33:40.
