data_PCOD9068826
_publ_section_title
;
Structure prediction by ZEFSAII (Michael W. Deem and Ramdas Pophale) SiO2 
 PCOD9068826
Probable space group: P -1
;
_chemical_formula_sum "Si O2"
_cell_formula_units_Z 12
_cell_length_a 8.692395
_cell_length_b 15.382508
_cell_length_c 11.608722
_cell_angle_alpha 32.097107
_cell_angle_beta 126.311497
_cell_angle_gamma 102.880161
_cell_volume 504.482314
_symmetry_space_group_name_H-M "P -1"
_symmetry_group_IT_number 2
_symmetry_cell_setting 'triclinic'
loop_
_space_group_symop_operation_xyz
x,y,z
-x,-y,-z
loop_
_atom_site_type_symbol
_atom_site_label
_atom_site_fract_x
_atom_site_fract_y
_atom_site_fract_z
Si Si1 0.794339 0.358530 0.755757
Si Si2 0.453196 0.526299 0.814064
Si Si3 0.729240 0.103861 0.842482
Si Si4 0.033263 0.793473 0.743500
Si Si5 0.177813 0.308128 0.386429
Si Si6 0.977223 0.614177 0.513626
O O1 0.500000 0.500000 0.500000
O O2 0.849965 0.167492 0.915127
O O3 0.862919 0.496731 0.572895
O O4 0.941207 0.280590 0.030714
O O5 0.311813 0.769471 0.434731
O O6 0.266553 0.479438 0.757906
O O7 0.500000 0.500000 0.000000
O O8 0.708112 0.379767 0.018137
O O9 0.446923 0.229275 0.622492
O O10 0.837312 0.862088 0.138895
O O11 0.795736 0.868838 0.477579
O O12 0.000000 0.000000 0.500000
O O13 0.033482 0.363445 0.377519
O O14 0.000000 0.500000 0.000000
#
# Coordination Sequence:
#
# PCOD9068826 Si02
#       6
#     2   2   2   2   2   2
#     4  12  24  46  71 106 143 181 245 298 339 429
#     4  12  25  47  71 105 148 187 234 299 362 424
#     4  12  26  45  74 106 141 192 241 288 360 431
#     4  12  26  45  74 105 139 187 245 293 349 429
#     4  12  20  43  71  99 138 189 236 282 347 423
#     4  12  25  43  74 104 145 190 233 296 367 415
#
# _framework density 23.786763000000001
#
# number of rings (size 3 to 8) (size 9 to 14) (size 15 to 20)
#    0.000    0.000    8.333    2.000    2.333    0.667 
#    0.000    2.500    0.000    0.000    0.000    0.000 
#    0.000    0.000    0.000    0.000    0.000    0.000 
#
# Total GULP energy -66969.539271 kJ/mol
# GULP energy per Si atom -5580.794939 kJ/mol
# Density = 2.373262 g / cm^3
# Si number density = 23.786763 Si / 1000 Ang^3
#
#
#
# Elastic Constant Matrix: (Units=GPa)
#
#
# Indices 1 2 3 4 5 6 
#
# 1 130.0084 49.0800 42.8810 8.3886 -7.7605 25.6415
# 2 49.0800 176.0058 35.8231 9.5350 -13.6411 17.0695
# 3 42.8810 35.8231 58.8123 -7.1782 -18.1004 1.1422
# 4 8.3886 9.5350 -7.1782 40.5455 -1.8718 -17.5100
# 5 -7.7605 -13.6411 -18.1004 -1.8718 45.5628 8.2837
# 6 25.6415 17.0695 1.1422 -17.5100 8.2837 56.0620
#
#
#
# Elastic Compliance Matrix: (Units=1/GPa)
#
#
# Indices 1 2 3 4 5 6 
#
# 1 0.013473 -0.000408 -0.010695 -0.008186 -0.000914 -0.008242
# 2 -0.000408 0.007238 -0.004243 -0.003719 0.000844 -0.003217
# 3 -0.010695 -0.004243 0.031358 0.012725 0.008383 0.008280
# 4 -0.008186 -0.003719 0.012725 0.036363 0.001168 0.015802
# 5 -0.000914 0.000844 0.008383 0.001168 0.026058 -0.003495
# 6 -0.008242 -0.003217 0.008280 0.015802 -0.003495 0.027870
#
#
# Mechanical properties :
#
#
# Convention : Reuss Voigt Hill
#
# Bulk Modulus (GPa) = 46.78050 68.93274 57.85662
# Shear Modulus (GPa) = 27.75067 44.23690 35.99378
#
# Velocity S-wave (km/s) = 3.41932 4.31713 3.89419
# Velocity P-wave (km/s) = 5.94124 7.34116 6.67798
#
# Compressibility (1/GPa) = 0.02137643
#
# Stress axis : x y z
#
# Youngs Moduli (GPa) = 74.22490 138.16211 31.89027
#
# Poissons Ratio (x) = 0.05639 0.34106
# Poissons Ratio (y) = 0.03030 0.13530
# Poissons Ratio (z) = 0.79383 0.58618
#
# Static dielectric constant tensor:
#      x y z
#    x 2.058180 -0.146050 0.067630 
#    y -0.146050 2.025450 -0.211460 
#    z 0.067630 -0.211460 2.069660 
# 
# From -- ./inp_files/170333.got.cif
#   From: 2010.05.17/outbox.cif.g08.bks.cpg/sg2_86_cif.got.tgz:170333.got - 2010.06.03 11:33:40.
