data_PCOD9068415
_publ_section_title
;
Structure prediction by ZEFSAII (Michael W. Deem and Ramdas Pophale) SiO2 
 PCOD9068415
Probable space group: P -1
;
_chemical_formula_sum "Si O2"
_cell_formula_units_Z 16
_cell_length_a 8.481180
_cell_length_b 17.556492
_cell_length_c 6.693715
_cell_angle_alpha 78.145265
_cell_angle_beta 57.438808
_cell_angle_gamma 59.899563
_cell_volume 723.901959
_symmetry_space_group_name_H-M "P -1"
_symmetry_group_IT_number 2
_symmetry_cell_setting 'triclinic'
loop_
_space_group_symop_operation_xyz
x,y,z
-x,-y,-z
loop_
_atom_site_type_symbol
_atom_site_label
_atom_site_fract_x
_atom_site_fract_y
_atom_site_fract_z
Si Si1 0.032810 0.411325 0.916720
Si Si2 0.299066 0.502865 0.247565
Si Si3 0.353818 0.228071 0.676750
Si Si4 0.978252 0.963646 0.248307
Si Si5 0.058566 0.767211 0.242218
Si Si6 0.368334 0.957422 0.230543
Si Si7 0.551810 0.314086 0.282887
Si Si8 0.215215 0.637943 0.571196
O O1 0.926991 0.370237 0.156527
O O2 0.907109 0.441828 0.776323
O O3 0.000000 0.500000 0.000000
O O4 0.260866 0.327083 0.776358
O O5 0.349369 0.402030 0.293134
O O6 0.294131 0.549213 0.434863
O O7 0.500000 0.500000 0.000000
O O8 0.475335 0.146753 0.785980
O O9 0.507904 0.232406 0.399005
O O10 0.154072 0.222449 0.722805
O O11 0.041674 0.861471 0.241536
O O12 0.159926 0.973403 0.241894
O O13 0.745797 0.006557 0.493134
O O14 0.000000 0.000000 0.000000
O O15 0.096021 0.715289 0.451811
O O16 0.259853 0.713147 0.990485
O O17 0.500000 0.000000 0.000000
O O18 0.622076 0.342703 0.423986
#
# Coordination Sequence:
#
# PCOD9068415 Si02
#       8
#     2   2   2   2   2   2   2   2
#     4  12  28  44  67 104 145 190 245 299 353 423
#     4  12  23  44  65 100 138 191 247 293 354 422
#     4  12  26  48  70 107 144 188 238 296 357 429
#     4  11  26  50  76 109 147 188 236 305 370 441
#     4  12  26  46  71 106 146 184 244 297 356 435
#     4  11  27  49  78 112 147 187 243 299 372 447
#     4  12  26  44  71 100 144 191 244 294 356 424
#     4  12  23  45  67  96 143 194 232 305 355 414
#
# _framework density 22.102439
#
# number of rings (size 3 to 8) (size 9 to 14) (size 15 to 20)
#    0.000    0.250    5.000    3.375    5.250    7.000 
#    0.000    0.000    0.000    0.000    0.000    0.000 
#    0.000    0.000    0.000    0.000    0.000    0.000 
#
# Total GULP energy -89433.109007 kJ/mol
# GULP energy per Si atom -5589.569313 kJ/mol
# Density = 2.205213 g / cm^3
# Si number density = 22.102439 Si / 1000 Ang^3
#
#
#
# Elastic Constant Matrix: (Units=GPa)
#
#
# Indices 1 2 3 4 5 6 
#
# 1 65.4500 21.6080 61.5318 -5.3575 -21.6824 -4.2082
# 2 21.6080 98.2475 27.4016 -17.3305 -10.7224 -4.4788
# 3 61.5318 27.4016 119.9133 -17.7598 -16.8526 -2.8442
# 4 -5.3575 -17.3305 -17.7598 47.0254 12.0790 0.5304
# 5 -21.6824 -10.7224 -16.8526 12.0790 36.1466 -7.5889
# 6 -4.2082 -4.4788 -2.8442 0.5304 -7.5889 39.3199
#
#
#
# Elastic Compliance Matrix: (Units=1/GPa)
#
#
# Indices 1 2 3 4 5 6 
#
# 1 0.038415 -0.002702 -0.017602 -0.007953 0.017975 0.006107
# 2 -0.002702 0.011699 -0.000649 0.003601 0.000565 0.001057
# 3 -0.017602 -0.000649 0.017649 0.005664 -0.004767 -0.001678
# 4 -0.007953 0.003601 0.005664 0.026532 -0.010432 -0.002402
# 5 0.017975 0.000565 -0.004767 -0.010432 0.041953 0.009881
# 6 0.006107 0.001057 -0.001678 -0.002402 0.009881 0.028025
#
#
# Mechanical properties :
#
#
# Convention : Reuss Voigt Hill
#
# Bulk Modulus (GPa) = 38.67357 56.07705 47.37531
# Shear Modulus (GPa) = 23.27781 36.03635 29.65708
#
# Velocity S-wave (km/s) = 3.24879 4.04223 3.66703
# Velocity P-wave (km/s) = 5.62212 6.87115 6.27778
#
# Compressibility (1/GPa) = 0.02585745
#
# Stress axis : x y z
#
# Youngs Moduli (GPa) = 26.03131 85.47877 56.66141
#
# Poissons Ratio (x) = 0.23100 0.99733
# Poissons Ratio (y) = 0.07035 0.03676
# Poissons Ratio (z) = 0.45819 0.05545
#
# Static dielectric constant tensor:
#      x y z
#    x 1.813580 0.027000 -0.029140 
#    y 0.027000 2.046550 0.281750 
#    z -0.029140 0.281750 2.311800 
# 
# From -- ./inp_files/47351.got.cif
#   From: 2010.05.17/outbox.cif.g08.bks.cpg/sg2_24_cif.got.tgz:47351.got - 2010.06.03 11:33:40.
