data_PCOD9068805
_publ_section_title
;
Structure prediction by ZEFSAII (Michael W. Deem and Ramdas Pophale) SiO2 
 PCOD9068805
Probable space group: P -1
;
_chemical_formula_sum "Si O2"
_cell_formula_units_Z 16
_cell_length_a 9.419908
_cell_length_b 15.125955
_cell_length_c 15.977011
_cell_angle_alpha 44.956401
_cell_angle_beta 149.731898
_cell_angle_gamma 139.864210
_cell_volume 731.755636
_symmetry_space_group_name_H-M "P -1"
_symmetry_group_IT_number 2
_symmetry_cell_setting 'triclinic'
loop_
_space_group_symop_operation_xyz
x,y,z
-x,-y,-z
loop_
_atom_site_type_symbol
_atom_site_label
_atom_site_fract_x
_atom_site_fract_y
_atom_site_fract_z
Si Si1 0.623474 0.457006 0.674460
Si Si2 0.515086 0.861681 0.740348
Si Si3 0.149089 0.140006 0.259952
Si Si4 0.264466 0.568459 0.846019
Si Si5 0.900596 0.833630 0.347311
Si Si6 0.222686 0.424045 0.156711
Si Si7 0.865847 0.534911 0.323931
Si Si8 0.234930 0.833180 0.344841
O O1 0.500000 0.500000 0.500000
O O2 0.405845 0.299771 0.694259
O O3 0.633810 0.556283 0.689954
O O4 0.975318 0.483911 0.814071
O O5 0.721797 0.849670 0.775947
O O6 0.434704 0.730428 0.846744
O O7 0.188250 0.847394 0.544136
O O8 0.681785 0.018415 0.753979
O O9 0.061400 0.264231 0.154625
O O10 0.449125 0.162535 0.455905
O O11 0.894673 0.983110 0.248921
O O12 0.132878 0.558935 0.690143
O O13 0.500000 0.500000 0.000000
O O14 0.009748 0.817995 0.319671
O O15 0.511504 0.500646 0.190174
O O16 0.000000 0.500000 0.000000
O O17 0.000000 0.500000 0.500000
O O18 0.066086 0.695651 0.296994
#
# Coordination Sequence:
#
# PCOD9068805 Si02
#       8
#     2   2   2   2   2   2   2   2
#     4  12  24  39  60  91 127 155 200 249 301 353
#     4   9  17  35  60  89 118 154 200 247 301 345
#     4   9  18  34  63  87 119 152 205 250 292 344
#     4  12  25  40  58  89 130 164 187 242 319 365
#     4   9  17  36  59  93 115 152 201 258 292 337
#     4  12  24  39  59  92 126 156 198 251 302 349
#     4  12  20  39  67  90 110 156 227 243 267 358
#     4   9  17  32  64  93 109 147 215 261 270 338
#
# _framework density 21.865221999999999
#
# number of rings (size 3 to 8) (size 9 to 14) (size 15 to 20)
#    0.000    1.500    5.000    3.750    0.000    0.000 
#    0.000    4.375    0.000    0.000    0.000    0.000 
#    0.000    0.000    0.000    0.000    0.000    0.000 
#
# Total GULP energy -89448.083301 kJ/mol
# GULP energy per Si atom -5590.505206 kJ/mol
# Density = 2.181546 g / cm^3
# Si number density = 21.865222 Si / 1000 Ang^3
#
#
#
# Elastic Constant Matrix: (Units=GPa)
#
#
# Indices 1 2 3 4 5 6 
#
# 1 66.9007 29.0767 12.8080 1.1784 15.1902 9.9187
# 2 29.0767 189.1755 31.1175 -38.2756 20.7998 18.8237
# 3 12.8080 31.1175 63.5829 -16.1337 16.6669 7.1933
# 4 1.1784 -38.2756 -16.1337 30.1392 -7.2703 5.7186
# 5 15.1902 20.7998 16.6669 -7.2703 29.9672 5.2345
# 6 9.9187 18.8237 7.1933 5.7186 5.2345 39.7517
#
#
#
# Elastic Compliance Matrix: (Units=1/GPa)
#
#
# Indices 1 2 3 4 5 6 
#
# 1 0.018730 -0.003143 -0.002004 -0.007574 -0.007915 -0.000691
# 2 -0.003143 0.008786 0.000195 0.012156 -0.000781 -0.005057
# 3 -0.002004 0.000195 0.021163 0.010557 -0.007641 -0.003934
# 4 -0.007574 0.012156 0.010557 0.058997 0.006485 -0.015118
# 5 -0.007915 -0.000781 -0.007641 0.006485 0.044277 -0.003036
# 6 -0.000691 -0.005057 -0.003934 -0.015118 -0.003036 0.031010
#
#
# Mechanical properties :
#
#
# Convention : Reuss Voigt Hill
#
# Bulk Modulus (GPa) = 25.79022 51.74039 38.76530
# Shear Modulus (GPa) = 24.29648 36.41541 30.35595
#
# Velocity S-wave (km/s) = 3.33707 4.08542 3.73006
# Velocity P-wave (km/s) = 5.16418 6.78004 6.02651
#
# Compressibility (1/GPa) = 0.03877439
#
# Stress axis : x y z
#
# Youngs Moduli (GPa) = 53.38990 113.82224 47.25281
#
# Poissons Ratio (x) = 0.35772 0.09469
# Poissons Ratio (y) = 0.16779 -0.00919
# Poissons Ratio (z) = 0.10699 -0.02215
#
# Static dielectric constant tensor:
#      x y z
#    x 1.790370 0.001910 -0.056390 
#    y 0.001910 1.808910 0.012550 
#    z -0.056390 0.012550 1.890820 
# 
# From -- ./inp_files/262037.got.cif
#   From: 2010.05.17/outbox.cif.g08.bks.cpg/sg2_132_cif.got.tgz:262037.got - 2010.06.03 11:33:40.
