data_PCOD9068390
_publ_section_title
;
Structure prediction by ZEFSAII (Michael W. Deem and Ramdas Pophale) SiO2 
 PCOD9068390
Probable space group: P -1
;
_chemical_formula_sum "Si O2"
_cell_formula_units_Z 10
_cell_length_a 17.198756
_cell_length_b 8.798978
_cell_length_c 4.967614
_cell_angle_alpha 123.084537
_cell_angle_beta 74.150285
_cell_angle_gamma 140.204242
_cell_volume 387.859287
_symmetry_space_group_name_H-M "P -1"
_symmetry_group_IT_number 2
_symmetry_cell_setting 'triclinic'
loop_
_space_group_symop_operation_xyz
x,y,z
-x,-y,-z
loop_
_atom_site_type_symbol
_atom_site_label
_atom_site_fract_x
_atom_site_fract_y
_atom_site_fract_z
Si Si1 0.171054 0.481948 0.269797
Si Si2 0.374748 0.317449 0.116297
Si Si3 0.929651 0.022272 0.398254
Si Si4 0.236753 0.948961 0.373253
Si Si5 0.588293 0.199968 0.359619
O O1 0.281112 0.676990 0.576955
O O2 0.193219 0.671786 0.207873
O O3 0.172134 0.283587 0.946319
O O4 0.034697 0.270439 0.328763
O O5 0.350682 0.159999 0.256960
O O6 0.377234 0.528878 0.413279
O O7 0.500000 0.500000 0.000000
O O8 0.270376 0.083482 0.768112
O O9 0.867648 0.087227 0.664087
O O10 0.000000 0.000000 0.500000
O O11 0.500000 0.000000 0.500000
O O12 0.500000 0.000000 0.000000
#
# Coordination Sequence:
#
# PCOD9068390 Si02
#       5
#     2   2   2   2   2
#     4  11  27  48  78 119 154 212 261 323 399 462
#     4  12  27  51  75 115 159 207 263 328 392 474
#     4  11  26  49  81 112 162 207 265 326 385 481
#     4  12  27  49  80 115 161 200 268 327 393 470
#     4  12  27  49  81 113 157 206 262 323 394 469
#
# _framework density 25.782547999999998
#
# number of rings (size 3 to 8) (size 9 to 14) (size 15 to 20)
#    0.000    0.400    2.000    4.800    8.400    4.000 
#    0.000    0.000    0.000    0.000    0.000    0.000 
#    0.000    0.000    0.000    0.000    0.000    0.000 
#
# Total GULP energy -56089.025135 kJ/mol
# GULP energy per Si atom -5608.902514 kJ/mol
# Density = 2.572387 g / cm^3
# Si number density = 25.782548 Si / 1000 Ang^3
#
#
#
# Elastic Constant Matrix: (Units=GPa)
#
#
# Indices 1 2 3 4 5 6 
#
# 1 128.0447 57.6525 38.6889 9.4340 -5.4082 -7.0709
# 2 57.6525 212.2737 57.4157 3.9078 -17.4272 -42.4392
# 3 38.6889 57.4157 128.1659 0.0146 18.4794 -12.0268
# 4 9.4340 3.9078 0.0146 45.0788 -7.8036 0.6479
# 5 -5.4082 -17.4272 18.4794 -7.8036 46.1318 -2.9476
# 6 -7.0709 -42.4392 -12.0268 0.6479 -2.9476 35.0025
#
#
#
# Elastic Compliance Matrix: (Units=1/GPa)
#
#
# Indices 1 2 3 4 5 6 
#
# 1 0.009518 -0.002187 -0.002134 -0.001647 0.000779 -0.001366
# 2 -0.002187 0.008243 -0.002862 0.000420 0.004647 0.008952
# 3 -0.002134 -0.002862 0.010466 -0.000270 -0.005619 -0.000774
# 4 -0.001647 0.000420 -0.000270 0.023183 0.003995 -0.000009
# 5 0.000779 0.004647 -0.005619 0.003995 0.026837 0.006047
# 6 -0.001366 0.008952 -0.000774 -0.000009 0.006047 0.039391
#
#
# Mechanical properties :
#
#
# Convention : Reuss Voigt Hill
#
# Bulk Modulus (GPa) = 72.14406 86.22207 79.18307
# Shear Modulus (GPa) = 36.59663 46.22443 41.41053
#
# Velocity S-wave (km/s) = 3.77163 4.23881 4.01202
# Velocity P-wave (km/s) = 6.85634 7.58098 7.22775
#
# Compressibility (1/GPa) = 0.01386115
#
# Stress axis : x y z
#
# Youngs Moduli (GPa) = 105.06548 121.32141 95.54321
#
# Poissons Ratio (x) = 0.26529 0.20387
# Poissons Ratio (y) = 0.22974 0.27349
# Poissons Ratio (z) = 0.22419 0.34728
#
# Static dielectric constant tensor:
#      x y z
#    x 2.118980 0.048670 0.024200 
#    y 0.048670 1.983990 -0.016880 
#    z 0.024200 -0.016880 2.051800 
# 
# From -- ./inp_files/103537.got.cif
#   From: 2010.05.17/outbox.cif.g08.bks.cpg/sg2_52_cif.got.tgz:103537.got - 2010.06.03 11:33:40.
