data_PCOD9068790
_publ_section_title
;
Structure prediction by ZEFSAII (Michael W. Deem and Ramdas Pophale) SiO2 
 PCOD9068790
Probable space group: P -1
;
_chemical_formula_sum "Si O2"
_cell_formula_units_Z 14
_cell_length_a 24.464032
_cell_length_b 14.189833
_cell_length_c 14.199947
_cell_angle_alpha 160.061902
_cell_angle_beta 157.629258
_cell_angle_gamma 21.343510
_cell_volume 561.769093
_symmetry_space_group_name_H-M "P -1"
_symmetry_group_IT_number 2
_symmetry_cell_setting 'triclinic'
loop_
_space_group_symop_operation_xyz
x,y,z
-x,-y,-z
loop_
_atom_site_type_symbol
_atom_site_label
_atom_site_fract_x
_atom_site_fract_y
_atom_site_fract_z
Si Si1 0.340749 0.528595 0.652970
Si Si2 0.088649 0.630939 0.066523
Si Si3 0.131345 0.663278 0.617055
Si Si4 0.469612 0.495505 0.245171
Si Si5 0.820565 0.775300 0.995326
Si Si6 0.402187 0.160546 0.089477
Si Si7 0.106069 0.671815 0.809296
O O1 0.297652 0.570325 0.735390
O O2 0.494203 0.465248 0.771236
O O3 0.301012 0.253055 0.299386
O O4 0.206751 0.874784 0.725764
O O5 0.939548 0.570897 0.743627
O O6 0.197425 0.379366 0.083015
O O7 0.237964 0.476376 0.086944
O O8 0.009612 0.986728 0.307529
O O9 0.127073 0.689953 0.747176
O O10 0.494419 0.734935 0.577406
O O11 0.292506 0.524983 0.000956
O O12 0.600688 0.146197 0.157521
O O13 0.000000 0.500000 0.000000
O O14 0.500000 0.000000 0.000000
O O15 0.000000 0.500000 0.500000
O O16 0.000000 0.000000 0.000000
#
# Coordination Sequence:
#
# PCOD9068790 Si02
#       7
#     2   2   2   2   2   2   2
#     4  12  22  40  67 103 141 173 228 279 352 412
#     4  12  23  40  68 106 144 175 227 276 352 410
#     4  12  26  42  72 105 135 187 231 284 336 413
#     4  12  26  48  71 101 141 187 227 288 352 403
#     4  12  20  35  61 102 146 181 202 269 349 418
#     4  12  27  43  70 106 144 182 227 285 349 414
#     4  12  30  53  73  94 135 188 245 289 337 406
#
# _framework density 24.921271000000001
#
# number of rings (size 3 to 8) (size 9 to 14) (size 15 to 20)
#    0.000    0.000    5.714    4.286    6.000    0.571 
#    0.000    0.000    0.000    6.857    0.000    0.000 
#    0.000    0.000    0.000    0.000    0.000    0.000 
#
# Total GULP energy -78120.673662 kJ/mol
# GULP energy per Si atom -5580.048119 kJ/mol
# Density = 2.486455 g / cm^3
# Si number density = 24.921271 Si / 1000 Ang^3
#
#
#
# Elastic Constant Matrix: (Units=GPa)
#
#
# Indices 1 2 3 4 5 6 
#
# 1 179.5277 23.0366 45.4124 -18.6137 -4.7775 -4.6263
# 2 23.0366 36.6894 26.1749 3.2441 5.1639 -25.8816
# 3 45.4124 26.1749 113.3099 14.0594 6.0394 -10.7672
# 4 -18.6137 3.2441 14.0594 29.5319 -9.3120 7.7951
# 5 -4.7775 5.1639 6.0394 -9.3120 34.6188 -12.2774
# 6 -4.6263 -25.8816 -10.7672 7.7951 -12.2774 42.0886
#
#
#
# Elastic Compliance Matrix: (Units=1/GPa)
#
#
# Indices 1 2 3 4 5 6 
#
# 1 0.008725 -0.008918 -0.003630 0.011119 0.003897 -0.006376
# 2 -0.008918 0.070847 -0.005603 -0.022958 -0.000997 0.045114
# 3 -0.003630 -0.005603 0.012941 -0.009201 -0.004442 -0.000126
# 4 0.011119 -0.022958 -0.009201 0.058083 0.014460 -0.021789
# 5 0.003897 -0.000997 -0.004442 0.014460 0.036606 0.006678
# 6 -0.006376 0.045114 -0.000126 -0.021789 0.006678 0.056752
#
#
# Mechanical properties :
#
#
# Convention : Reuss Voigt Hill
#
# Bulk Modulus (GPa) = 17.79009 57.64164 37.71586
# Shear Modulus (GPa) = 16.72285 36.90806 26.81545
#
# Velocity S-wave (km/s) = 2.59323 3.85253 3.28381
# Velocity P-wave (km/s) = 4.01503 6.55508 5.43551
#
# Compressibility (1/GPa) = 0.05621106
#
# Stress axis : x y z
#
# Youngs Moduli (GPa) = 114.61402 14.11491 77.27424
#
# Poissons Ratio (x) = 0.12588 0.28050
# Poissons Ratio (y) = 1.02213 0.43297
# Poissons Ratio (z) = 0.41604 0.07909
#
# Static dielectric constant tensor:
#      x y z
#    x 3.631440 -1.344780 0.075670 
#    y -1.344780 3.133430 -0.143390 
#    z 0.075670 -0.143390 1.919090 
# 
# From -- ./inp_files/544245.got.cif
#   From: 2010.05.17/outbox.cif.g08.bks.cpg/sg2_273_cif.got.tgz:544245.got - 2010.06.03 11:33:40.
