data_PCOD9068981
_publ_section_title
;
Structure prediction by ZEFSAII (Michael W. Deem and Ramdas Pophale) SiO2 
 PCOD9068981
Probable space group: P -1
;
_chemical_formula_sum "Si O2"
_cell_formula_units_Z 15
_cell_length_a 14.574613
_cell_length_b 10.100080
_cell_length_c 11.634511
_cell_angle_alpha 58.216160
_cell_angle_beta 149.494316
_cell_angle_gamma 130.373109
_cell_volume 660.149794
_symmetry_space_group_name_H-M "P -1"
_symmetry_group_IT_number 2
_symmetry_cell_setting 'triclinic'
loop_
_space_group_symop_operation_xyz
x,y,z
-x,-y,-z
loop_
_atom_site_type_symbol
_atom_site_label
_atom_site_fract_x
_atom_site_fract_y
_atom_site_fract_z
Si Si1 0.752772 0.991299 0.025695
Si Si2 0.033407 0.913788 0.191397
Si Si3 0.446858 0.515093 0.566925
Si Si4 0.381659 0.615345 0.801411
Si Si5 0.206522 0.503284 0.904529
Si Si6 0.100353 0.378087 0.413721
Si Si7 0.000000 0.000000 0.500000
Si Si8 0.491617 0.100680 0.559240
O O1 0.925022 0.971594 0.146613
O O2 0.549119 0.811390 0.878923
O O3 0.837608 0.028109 0.228227
O O4 0.680844 0.125401 0.831199
O O5 0.927682 0.705045 0.159243
O O6 0.273589 0.991199 0.433817
O O7 0.000000 0.000000 0.000000
O O8 0.500000 0.500000 0.500000
O O9 0.216386 0.395461 0.410968
O O10 0.495232 0.714782 0.545284
O O11 0.587061 0.468422 0.823924
O O12 0.250607 0.588544 0.786877
O O13 0.245134 0.539524 0.577221
O O14 0.500000 0.500000 0.000000
O O15 0.097192 0.593054 0.819508
O O16 0.085154 0.205185 0.537795
O O17 0.500000 0.000000 0.500000
#
# Coordination Sequence:
#
# PCOD9068981 Si02
#       8
#     2   2   2   2   2   2   1   2
#     4  12  26  46  73 105 148 185 237 302 357 427
#     4  12  22  41  74 111 139 175 242 302 351 419
#     4  12  28  47  67 107 153 190 231 293 372 445
#     4  12  21  49  75 103 139 186 243 307 352 413
#     4  12  24  45  77 103 139 189 238 300 363 424
#     4  12  27  47  76 102 144 191 243 295 364 433
#     4  12  28  48  68 104 144 190 238 296 354 434
#     4  12  25  45  75 108 141 189 245 300 356 429
#
# _framework density 22.722117000000001
#
# number of rings (size 3 to 8) (size 9 to 14) (size 15 to 20)
#    0.000    0.000    6.667    2.800    3.733    1.600 
#    0.000    2.000    0.000    0.000    0.000    0.000 
#    0.000    0.000    0.000    0.000    0.000    0.000 
#
# Total GULP energy -83775.175990 kJ/mol
# GULP energy per Si atom -5585.011733 kJ/mol
# Density = 2.267040 g / cm^3
# Si number density = 22.722117 Si / 1000 Ang^3
#
#
#
# Elastic Constant Matrix: (Units=GPa)
#
#
# Indices 1 2 3 4 5 6 
#
# 1 114.6561 30.1045 36.7328 -8.7572 19.6877 0.8142
# 2 30.1045 49.3866 7.9557 -2.2305 15.5295 -7.3268
# 3 36.7328 7.9557 107.7320 -12.1681 7.9074 -11.3055
# 4 -8.7572 -2.2305 -12.1681 28.2064 -10.6193 3.2509
# 5 19.6877 15.5295 7.9074 -10.6193 47.5491 -0.3279
# 6 0.8142 -7.3268 -11.3055 3.2509 -0.3279 24.5019
#
#
#
# Elastic Compliance Matrix: (Units=1/GPa)
#
#
# Indices 1 2 3 4 5 6 
#
# 1 0.012201 -0.006813 -0.003823 0.001390 -0.001911 -0.004417
# 2 -0.006813 0.027659 0.001449 -0.003057 -0.007071 0.009477
# 3 -0.003823 0.001449 0.011411 0.003216 -0.000032 0.005398
# 4 0.001390 -0.003057 0.003216 0.040973 0.009006 -0.004792
# 5 -0.001911 -0.007071 -0.000032 0.009006 0.026128 -0.002911
# 6 -0.004417 0.009477 0.005398 -0.004792 -0.002911 0.046882
#
#
# Mechanical properties :
#
#
# Convention : Reuss Voigt Hill
#
# Bulk Modulus (GPa) = 30.39881 46.81784 38.60832
# Shear Modulus (GPa) = 25.69437 33.18358 29.43898
#
# Velocity S-wave (km/s) = 3.36640 3.82568 3.60336
# Velocity P-wave (km/s) = 5.34020 6.33748 5.86009
#
# Compressibility (1/GPa) = 0.03289603
#
# Stress axis : x y z
#
# Youngs Moduli (GPa) = 81.95955 36.15402 87.63452
#
# Poissons Ratio (x) = 0.24632 0.33505
# Poissons Ratio (y) = 0.55840 -0.12695
# Poissons Ratio (z) = 0.31336 -0.05237
#
# Static dielectric constant tensor:
#      x y z
#    x 2.084570 0.005580 -0.106190 
#    y 0.005580 1.853240 0.032840 
#    z -0.106190 0.032840 1.907460 
# 
# From -- ./inp_files/447012.got.cif
#   From: 2010.05.17/outbox.cif.g08.bks.cpg/sg2_224_cif.got.tgz:447012.got - 2010.06.03 11:33:40.
