data_PCOD9068856
_publ_section_title
;
Structure prediction by ZEFSAII (Michael W. Deem and Ramdas Pophale) SiO2 
 PCOD9068856
Probable space group: P -1
;
_chemical_formula_sum "Si O2"
_cell_formula_units_Z 14
_cell_length_a 13.851444
_cell_length_b 13.981012
_cell_length_c 11.965888
_cell_angle_alpha 70.360956
_cell_angle_beta 60.502462
_cell_angle_gamma 21.036242
_cell_volume 665.044890
_symmetry_space_group_name_H-M "P -1"
_symmetry_group_IT_number 2
_symmetry_cell_setting 'triclinic'
loop_
_space_group_symop_operation_xyz
x,y,z
-x,-y,-z
loop_
_atom_site_type_symbol
_atom_site_label
_atom_site_fract_x
_atom_site_fract_y
_atom_site_fract_z
Si Si1 0.227720 0.726718 0.159344
Si Si2 0.655582 0.839940 0.094147
Si Si3 0.517520 0.307583 0.298032
Si Si4 0.256449 0.030183 0.867417
Si Si5 0.315370 0.937626 0.277628
Si Si6 0.526442 0.663378 0.051239
Si Si7 0.586555 0.545286 0.444721
O O1 0.272987 0.585546 0.258488
O O2 0.333384 0.730174 0.174629
O O3 0.500000 0.500000 0.000000
O O4 0.877688 0.041841 0.187887
O O5 0.677595 0.919152 0.131022
O O6 0.438135 0.942841 0.240524
O O7 0.000000 0.500000 0.000000
O O8 0.500000 0.000000 0.000000
O O9 0.442414 0.387194 0.439219
O O10 0.549597 0.170036 0.274924
O O11 0.883426 0.340888 0.934831
O O12 0.338681 0.875445 0.974259
O O13 0.533900 0.727661 0.128767
O O14 0.371632 0.801412 0.389178
O O15 0.954155 0.246055 0.321625
O O16 0.500000 0.500000 0.500000
#
# Coordination Sequence:
#
# PCOD9068856 Si02
#       7
#     2   2   2   2   2   2   2
#     4  12  21  37  60  96 129 164 209 262 332 394
#     4  12  23  43  67  99 131 165 213 280 335 383
#     4  12  24  41  61  92 135 171 213 268 319 380
#     4  12  22  39  62  97 127 159 206 273 328 380
#     4  12  24  43  67  94 126 176 221 262 325 383
#     4  12  22  36  64  95 130 159 209 264 329 381
#     4  12  26  46  65  91 134 179 222 258 308 401
#
# _framework density 21.051210999999999
#
# number of rings (size 3 to 8) (size 9 to 14) (size 15 to 20)
#    0.000    0.000    5.714    6.000    0.000    0.000 
#    0.000    1.429    0.000    0.000    0.000    0.000 
#    0.000    0.000    0.000    0.000    0.000    0.000 
#
# Total GULP energy -78246.767672 kJ/mol
# GULP energy per Si atom -5589.054834 kJ/mol
# Density = 2.100330 g / cm^3
# Si number density = 21.051211 Si / 1000 Ang^3
#
#
#
# Elastic Constant Matrix: (Units=GPa)
#
#
# Indices 1 2 3 4 5 6 
#
# 1 148.8337 18.6191 9.3468 7.2282 -0.2930 15.0114
# 2 18.6191 93.3369 -3.5178 -5.2073 -4.9735 -2.1757
# 3 9.3468 -3.5178 44.3650 -0.2988 18.2228 7.6806
# 4 7.2282 -5.2073 -0.2988 23.8915 -5.0424 6.3925
# 5 -0.2930 -4.9735 18.2228 -5.0424 47.3001 3.8566
# 6 15.0114 -2.1757 7.6806 6.3925 3.8566 30.1949
#
#
#
# Elastic Compliance Matrix: (Units=1/GPa)
#
#
# Indices 1 2 3 4 5 6 
#
# 1 0.007415 -0.001672 -0.001351 -0.001678 0.000470 -0.003168
# 2 -0.001672 0.011322 0.000662 0.003052 0.001195 0.000680
# 3 -0.001351 0.000662 0.027991 0.000096 -0.010296 -0.005106
# 4 -0.001678 0.003052 0.000096 0.046898 0.006062 -0.009673
# 5 0.000470 0.001195 -0.010296 0.006062 0.026057 -0.002140
# 6 -0.003168 0.000680 -0.005106 -0.009673 -0.002140 0.038362
#
#
# Mechanical properties :
#
#
# Convention : Reuss Voigt Hill
#
# Bulk Modulus (GPa) = 23.80598 37.27019 30.53808
# Shear Modulus (GPa) = 28.28544 37.74980 33.01762
#
# Velocity S-wave (km/s) = 3.66956 4.23926 3.96465
# Velocity P-wave (km/s) = 5.41178 6.45792 5.95785
#
# Compressibility (1/GPa) = 0.04200626
#
# Stress axis : x y z
#
# Youngs Moduli (GPa) = 134.86364 88.32145 35.72575
#
# Poissons Ratio (x) = 0.14772 0.04825
# Poissons Ratio (y) = 0.22556 -0.02365
# Poissons Ratio (z) = 0.18215 -0.05848
#
# Static dielectric constant tensor:
#      x y z
#    x 1.876080 0.060010 0.051790 
#    y 0.060010 1.743800 0.016570 
#    z 0.051790 0.016570 1.770160 
# 
# From -- ./inp_files/63317.got.cif
#   From: 2010.05.17/outbox.cif.g08.bks.cpg/sg2_32_cif.got.tgz:63317.got - 2010.06.03 11:33:40.
