data_PCOD9068508
_publ_section_title
;
Structure prediction by ZEFSAII (Michael W. Deem and Ramdas Pophale) SiO2 
 PCOD9068508
Probable space group: P -1
;
_chemical_formula_sum "Si O2"
_cell_formula_units_Z 12
_cell_length_a 8.919251
_cell_length_b 7.361523
_cell_length_c 8.000433
_cell_angle_alpha 65.748554
_cell_angle_beta 68.723695
_cell_angle_gamma 63.563178
_cell_volume 418.306822
_symmetry_space_group_name_H-M "P -1"
_symmetry_group_IT_number 2
_symmetry_cell_setting 'triclinic'
loop_
_space_group_symop_operation_xyz
x,y,z
-x,-y,-z
loop_
_atom_site_type_symbol
_atom_site_label
_atom_site_fract_x
_atom_site_fract_y
_atom_site_fract_z
Si Si1 0.027136 0.579567 0.273336
Si Si2 0.656781 0.838914 0.160878
Si Si3 0.453402 0.525118 0.814765
Si Si4 0.177577 0.904620 0.234316
Si Si5 0.190504 0.862877 0.607479
Si Si6 0.659942 0.793796 0.666951
O O1 0.000000 0.500000 0.500000
O O2 0.187249 0.373627 0.220408
O O3 0.753866 0.931104 0.479798
O O4 0.110349 0.761584 0.194674
O O5 0.714468 0.980086 0.950208
O O6 0.492425 0.977188 0.743882
O O7 0.567128 0.682161 0.178002
O O8 0.841369 0.682593 0.221653
O O9 0.275601 0.704409 0.778661
O O10 0.585613 0.638655 0.651441
O O11 0.500000 0.500000 0.000000
O O12 0.245903 0.781461 0.427973
O O13 0.008609 0.081488 0.308103
#
# Coordination Sequence:
#
# PCOD9068508 Si02
#       6
#     2   2   2   2   2   2
#     4  12  27  53  89 127 171 231 286 350 437 514
#     4  12  31  55  85 129 175 223 288 362 427 513
#     4  12  30  52  85 124 172 228 283 354 437 509
#     4  11  26  52  86 125 171 224 288 357 428 510
#     4  11  26  52  86 124 170 223 292 355 422 518
#     4  12  30  53  85 128 171 223 289 353 428 515
#
# _framework density 28.687079000000001
#
# number of rings (size 3 to 8) (size 9 to 14) (size 15 to 20)
#    0.000    0.333    1.667    4.000   11.667    2.667 
#    0.000    0.000    0.000    0.000    0.000    0.000 
#    0.000    0.000    0.000    0.000    0.000    0.000 
#
# Total GULP energy -67235.836226 kJ/mol
# GULP energy per Si atom -5602.986352 kJ/mol
# Density = 2.862179 g / cm^3
# Si number density = 28.687079 Si / 1000 Ang^3
#
#
#
# Elastic Constant Matrix: (Units=GPa)
#
#
# Indices 1 2 3 4 5 6 
#
# 1 183.8973 131.8980 72.7008 11.8095 19.8263 -3.2436
# 2 131.8980 232.6940 60.7702 -3.4013 1.2952 26.2879
# 3 72.7008 60.7702 117.8538 -9.1623 -4.2090 -12.2157
# 4 11.8095 -3.4013 -9.1623 38.4411 -8.0834 -3.1655
# 5 19.8263 1.2952 -4.2090 -8.0834 71.9138 -18.1999
# 6 -3.2436 26.2879 -12.2157 -3.1655 -18.1999 91.0582
#
#
#
# Elastic Compliance Matrix: (Units=1/GPa)
#
#
# Indices 1 2 3 4 5 6 
#
# 1 0.012727 -0.005900 -0.005447 -0.006626 -0.004385 0.000319
# 2 -0.005900 0.008068 -0.000527 0.002452 0.001145 -0.002296
# 3 -0.005447 -0.000527 0.012957 0.005680 0.003568 0.002607
# 4 -0.006626 0.002452 0.005680 0.031088 0.006148 0.002127
# 5 -0.004385 0.001145 0.003568 0.006148 0.016901 0.003584
# 6 0.000319 -0.002296 0.002607 0.002127 0.003584 0.012796
#
#
# Mechanical properties :
#
#
# Convention : Reuss Voigt Hill
#
# Bulk Modulus (GPa) = 99.97366 118.35369 109.16368
# Shear Modulus (GPa) = 41.11174 58.22102 49.66638
#
# Velocity S-wave (km/s) = 3.78975 4.50991 4.16542
# Velocity P-wave (km/s) = 7.35357 8.27438 7.82753
#
# Compressibility (1/GPa) = 0.01000263
#
# Stress axis : x y z
#
# Youngs Moduli (GPa) = 78.57423 123.94256 77.18120
#
# Poissons Ratio (x) = 0.73124 0.42043
# Poissons Ratio (y) = 0.46357 0.04070
# Poissons Ratio (z) = 0.42802 0.06536
#
# Static dielectric constant tensor:
#      x y z
#    x 2.254000 -0.040890 0.046390 
#    y -0.040890 2.269060 0.099500 
#    z 0.046390 0.099500 2.331430 
# 
# From -- ./inp_files/371809.got.cif
#   From: 2010.05.17/outbox.cif.g08.bks.cpg/sg2_186_cif.got.tgz:371809.got - 2010.06.03 11:33:40.
