data_PCOD9068457
_publ_section_title
;
Structure prediction by ZEFSAII (Michael W. Deem and Ramdas Pophale) SiO2 
 PCOD9068457
Probable space group: P -1
;
_chemical_formula_sum "Si O2"
_cell_formula_units_Z 10
_cell_length_a 5.328917
_cell_length_b 15.584939
_cell_length_c 15.573244
_cell_angle_alpha 162.478979
_cell_angle_beta 84.666585
_cell_angle_gamma 94.477639
_cell_volume 387.449914
_symmetry_space_group_name_H-M "P -1"
_symmetry_group_IT_number 2
_symmetry_cell_setting 'triclinic'
loop_
_space_group_symop_operation_xyz
x,y,z
-x,-y,-z
loop_
_atom_site_type_symbol
_atom_site_label
_atom_site_fract_x
_atom_site_fract_y
_atom_site_fract_z
Si Si1 0.851248 0.398717 0.661792
Si Si2 0.079746 0.039057 0.895568
Si Si3 0.257648 0.306513 0.313987
Si Si4 0.130285 0.972902 0.377539
Si Si5 0.565300 0.547188 0.142019
O O1 0.998993 0.166862 0.495037
O O2 0.775544 0.199677 0.394552
O O3 0.983393 0.668299 0.873833
O O4 0.634072 0.534927 0.859270
O O5 0.249875 0.123316 0.051892
O O6 0.820943 0.903478 0.807116
O O7 0.500000 0.500000 0.500000
O O8 0.000000 0.500000 0.500000
O O9 0.180283 0.646876 0.040179
O O10 0.395508 0.121268 0.525475
O O11 0.000000 0.000000 0.500000
O O12 0.500000 0.500000 0.000000
#
# Coordination Sequence:
#
# PCOD9068457 Si02
#       5
#     2   2   2   2   2
#     4  12  26  49  74 116 164 198 280 331 398 476
#     4  11  26  50  80 120 158 210 260 348 408 491
#     4  11  26  56  87 119 164 215 267 336 425 511
#     4  12  26  45  74 105 150 215 268 329 394 469
#     4  12  26  45  74 105 150 215 268 329 394 469
#
# _framework density 25.809788000000001
#
# number of rings (size 3 to 8) (size 9 to 14) (size 15 to 20)
#    0.000    0.400    4.000    3.600    2.800    4.800 
#   14.400    0.000    0.000    0.000    0.000    0.000 
#    0.000    0.000    0.000    0.000    0.000    0.000 
#
# Total GULP energy -56009.036163 kJ/mol
# GULP energy per Si atom -5600.903616 kJ/mol
# Density = 2.575104 g / cm^3
# Si number density = 25.809788 Si / 1000 Ang^3
#
#
#
# Elastic Constant Matrix: (Units=GPa)
#
#
# Indices 1 2 3 4 5 6 
#
# 1 104.0035 48.7383 46.8464 -0.5539 16.8383 25.3786
# 2 48.7383 183.3672 70.1667 8.1209 7.0220 25.3411
# 3 46.8464 70.1667 172.3702 -11.9228 3.2174 11.9632
# 4 -0.5539 8.1209 -11.9228 68.0972 0.3229 3.3324
# 5 16.8383 7.0220 3.2174 0.3229 57.2069 9.5557
# 6 25.3786 25.3411 11.9632 3.3324 9.5557 18.9786
#
#
#
# Elastic Compliance Matrix: (Units=1/GPa)
#
#
# Indices 1 2 3 4 5 6 
#
# 1 0.015725 -0.000653 -0.002701 0.000613 -0.001419 -0.017848
# 2 -0.000653 0.007703 -0.002480 -0.000968 0.000736 -0.008050
# 3 -0.002701 -0.002480 0.007522 0.001505 0.000379 0.001726
# 4 0.000613 -0.000968 0.001505 0.015229 0.000321 -0.003312
# 5 -0.001419 0.000736 0.000379 0.000321 0.019305 -0.009101
# 6 -0.017848 -0.008050 0.001726 -0.003312 -0.009101 0.091383
#
#
# Mechanical properties :
#
#
# Convention : Reuss Voigt Hill
#
# Bulk Modulus (GPa) = 51.85646 87.91597 69.88622
# Shear Modulus (GPa) = 28.57742 48.45582 38.51662
#
# Velocity S-wave (km/s) = 3.33112 4.33762 3.86725
# Velocity P-wave (km/s) = 5.91021 7.69569 6.86127
#
# Compressibility (1/GPa) = 0.01928400
#
# Stress axis : x y z
#
# Youngs Moduli (GPa) = 63.59101 129.81331 132.93816
#
# Poissons Ratio (x) = 0.08472 0.35901
# Poissons Ratio (y) = 0.04150 0.32974
# Poissons Ratio (z) = 0.17173 0.32199
#
# Static dielectric constant tensor:
#      x y z
#    x 2.096050 -0.049780 -0.002520 
#    y -0.049780 2.050690 0.028080 
#    z -0.002520 0.028080 1.994990 
# 
# From -- ./inp_files/96031.got.cif
#   From: 2010.05.17/outbox.cif.g08.bks.cpg/sg2_49_cif.got.tgz:96031.got - 2010.06.03 11:33:40.
