data_PCOD9068397
_publ_section_title
;
Structure prediction by ZEFSAII (Michael W. Deem and Ramdas Pophale) SiO2 
 PCOD9068397
Probable space group: P -1
;
_chemical_formula_sum "Si O2"
_cell_formula_units_Z 14
_cell_length_a 4.839949
_cell_length_b 17.861871
_cell_length_c 8.625930
_cell_angle_alpha 135.205435
_cell_angle_beta 96.816019
_cell_angle_gamma 83.738901
_cell_volume 521.364748
_symmetry_space_group_name_H-M "P -1"
_symmetry_group_IT_number 2
_symmetry_cell_setting 'triclinic'
loop_
_space_group_symop_operation_xyz
x,y,z
-x,-y,-z
loop_
_atom_site_type_symbol
_atom_site_label
_atom_site_fract_x
_atom_site_fract_y
_atom_site_fract_z
Si Si1 0.097542 0.610286 0.899252
Si Si2 0.888064 0.240149 0.153227
Si Si3 0.598675 0.745182 0.568606
Si Si4 0.191214 0.197826 0.649759
Si Si5 0.192485 0.942087 0.792272
Si Si6 0.590795 0.479623 0.655167
Si Si7 0.364522 0.120167 0.860972
O O1 0.903986 0.510227 0.751484
O O2 0.066471 0.653743 0.785227
O O3 0.408082 0.564645 0.868143
O O4 0.993385 0.708288 0.141959
O O5 0.532877 0.360786 0.529743
O O6 0.093966 0.243801 0.319684
O O7 0.044292 0.148343 0.926956
O O8 0.633515 0.745394 0.386874
O O9 0.398414 0.849174 0.735341
O O10 0.433286 0.788402 0.932459
O O11 0.369464 0.132573 0.695195
O O12 0.006641 0.114264 0.425065
O O13 0.396684 0.014145 0.808194
O O14 0.000000 0.000000 0.000000
O O15 0.500000 0.500000 0.500000
#
# Coordination Sequence:
#
# PCOD9068397 Si02
#       7
#     2   2   2   2   2   2   2
#     4  11  26  52  84 122 169 224 274 348 420 505
#     4  11  26  49  85 122 164 217 283 337 416 506
#     4  12  31  49  86 128 170 216 292 354 416 505
#     4  11  29  53  84 126 173 219 286 347 430 507
#     4  12  31  57  85 125 172 223 289 354 423 503
#     4  12  27  50  87 124 167 226 283 336 427 502
#     4  11  28  51  84 117 164 229 268 342 425 501
#
# _framework density 26.852601
#
# number of rings (size 3 to 8) (size 9 to 14) (size 15 to 20)
#    0.000    0.571    1.429    3.429   14.000    4.571 
#    0.000    0.000    0.000    0.000    0.000    0.000 
#    0.000    0.000    0.000    0.000    0.000    0.000 
#
# Total GULP energy -78442.360993 kJ/mol
# GULP energy per Si atom -5603.025785 kJ/mol
# Density = 2.679148 g / cm^3
# Si number density = 26.852601 Si / 1000 Ang^3
#
#
#
# Elastic Constant Matrix: (Units=GPa)
#
#
# Indices 1 2 3 4 5 6 
#
# 1 114.6305 51.8681 54.8050 -1.7928 13.4372 8.0615
# 2 51.8681 211.5274 74.5123 -8.7914 11.0114 24.6496
# 3 54.8050 74.5123 171.1493 -5.2287 2.7100 -0.0625
# 4 -1.7928 -8.7914 -5.2287 49.1251 -6.5723 -4.6529
# 5 13.4372 11.0114 2.7100 -6.5723 49.4321 14.0793
# 6 8.0615 24.6496 -0.0625 -4.6529 14.0793 52.3860
#
#
#
# Elastic Compliance Matrix: (Units=1/GPa)
#
#
# Indices 1 2 3 4 5 6 
#
# 1 0.011104 -0.001571 -0.002849 -0.000545 -0.002484 -0.000354
# 2 -0.001571 0.006214 -0.002185 0.000571 -0.000012 -0.002631
# 3 -0.002849 -0.002185 0.007715 0.000526 0.000514 0.001385
# 4 -0.000545 0.000571 0.000526 0.020923 0.002487 0.001005
# 5 -0.002484 -0.000012 0.000514 0.002487 0.022780 -0.005513
# 6 -0.000354 -0.002631 0.001385 0.001005 -0.005513 0.021954
#
#
# Mechanical properties :
#
#
# Convention : Reuss Voigt Hill
#
# Bulk Modulus (GPa) = 84.59279 95.51979 90.05629
# Shear Modulus (GPa) = 46.36415 51.26344 48.81379
#
# Velocity S-wave (km/s) = 4.15977 4.37403 4.26824
# Velocity P-wave (km/s) = 7.39206 7.82040 7.60924
#
# Compressibility (1/GPa) = 0.01182134
#
# Stress axis : x y z
#
# Youngs Moduli (GPa) = 90.05430 160.93929 129.61713
#
# Poissons Ratio (x) = 0.25290 0.36930
# Poissons Ratio (y) = 0.14151 0.28325
# Poissons Ratio (z) = 0.25658 0.35170
#
# Static dielectric constant tensor:
#      x y z
#    x 2.102880 0.039030 -0.132670 
#    y 0.039030 2.138990 -0.027740 
#    z -0.132670 -0.027740 2.188680 
# 
# From -- ./inp_files/142098.got.cif
#   From: 2010.05.17/outbox.cif.g08.bks.cpg/sg2_72_cif.got.tgz:142098.got - 2010.06.03 11:33:40.
