data_PCOD9068731
_publ_section_title
;
Structure prediction by ZEFSAII (Michael W. Deem and Ramdas Pophale) SiO2 
 PCOD9068731
Probable space group: P -1
;
_chemical_formula_sum "Si O2"
_cell_formula_units_Z 10
_cell_length_a 12.165429
_cell_length_b 9.627641
_cell_length_c 4.904646
_cell_angle_alpha 97.161971
_cell_angle_beta 78.950245
_cell_angle_gamma 43.049832
_cell_volume 353.551860
_symmetry_space_group_name_H-M "P -1"
_symmetry_group_IT_number 2
_symmetry_cell_setting 'triclinic'
loop_
_space_group_symop_operation_xyz
x,y,z
-x,-y,-z
loop_
_atom_site_type_symbol
_atom_site_label
_atom_site_fract_x
_atom_site_fract_y
_atom_site_fract_z
Si Si1 0.274152 0.866684 0.384608
Si Si2 0.295858 0.651468 0.815359
Si Si3 0.962267 0.278072 0.354914
Si Si4 0.296072 0.086072 0.856264
Si Si5 0.633823 0.686303 0.970946
O O1 0.335968 0.683034 0.512322
O O2 0.310661 0.977864 0.554019
O O3 0.315448 0.232920 0.840593
O O4 0.062338 0.094976 0.496793
O O5 0.112750 0.752302 0.846330
O O6 0.304228 0.772588 0.046332
O O7 0.392265 0.429667 0.869916
O O8 0.794700 0.510877 0.638476
O O9 0.110927 0.232651 0.134989
O O10 0.459057 0.888889 0.929522
#
# Coordination Sequence:
#
# PCOD9068731 Si02
#       5
#     2   2   2   2   2
#     4  12  26  50  81 117 156 202 258 320 385 461
#     4  12  26  50  81 117 156 202 258 320 385 461
#     4  12  25  48  84 110 153 204 254 318 385 456
#     4  11  28  51  77 113 156 203 259 317 381 459
#     4  11  28  51  77 113 156 203 259 317 381 459
#
# _framework density 28.284395
#
# number of rings (size 3 to 8) (size 9 to 14) (size 15 to 20)
#    0.000    0.400    4.000    3.000    0.000    8.000 
#    0.000    4.000    0.000    0.000    0.000    0.000 
#    0.000    0.000    0.000    0.000    0.000    0.000 
#
# Total GULP energy -56051.859610 kJ/mol
# GULP energy per Si atom -5605.185961 kJ/mol
# Density = 2.822002 g / cm^3
# Si number density = 28.284395 Si / 1000 Ang^3
#
#
#
# Elastic Constant Matrix: (Units=GPa)
#
#
# Indices 1 2 3 4 5 6 
#
# 1 227.7667 40.9473 71.4633 15.3002 28.7879 11.5588
# 2 40.9473 69.0473 40.7443 -15.0164 8.2164 -7.1017
# 3 71.4633 40.7443 191.1205 6.5760 11.9072 -0.9623
# 4 15.3002 -15.0164 6.5760 49.1489 -12.0837 7.0395
# 5 28.7879 8.2164 11.9072 -12.0837 60.6298 -6.6509
# 6 11.5588 -7.1017 -0.9623 7.0395 -6.6509 53.5325
#
#
#
# Elastic Compliance Matrix: (Units=1/GPa)
#
#
# Indices 1 2 3 4 5 6 
#
# 1 0.006084 -0.003391 -0.001260 -0.003256 -0.003021 -0.001733
# 2 -0.003391 0.020259 -0.003385 0.007666 0.001333 0.002517
# 3 -0.001260 -0.003385 0.006517 -0.001660 -0.000544 0.000091
# 4 -0.003256 0.007666 -0.001660 0.025487 0.005810 -0.000940
# 5 -0.003021 0.001333 -0.000544 0.005810 0.019281 0.002451
# 6 -0.001733 0.002517 0.000091 -0.000940 0.002451 0.019818
#
#
# Mechanical properties :
#
#
# Convention : Reuss Voigt Hill
#
# Bulk Modulus (GPa) = 59.57313 88.24937 73.91125
# Shear Modulus (GPa) = 41.97670 54.98090 48.47880
#
# Velocity S-wave (km/s) = 3.85657 4.41371 4.14451
# Velocity P-wave (km/s) = 6.39834 7.56590 7.00648
#
# Compressibility (1/GPa) = 0.01678609
#
# Stress axis : x y z
#
# Youngs Moduli (GPa) = 164.36371 49.36179 153.45162
#
# Poissons Ratio (x) = 0.16739 0.19343
# Poissons Ratio (y) = 0.55738 0.51943
# Poissons Ratio (z) = 0.20718 0.16709
#
# Static dielectric constant tensor:
#      x y z
#    x 2.268650 -0.149690 -0.199820 
#    y -0.149690 2.362690 0.141780 
#    z -0.199820 0.141780 2.184660 
# 
# From -- ./inp_files/92643.got.cif
#   From: 2010.05.17/outbox.cif.g08.bks.cpg/sg2_47_cif.got.tgz:92643.got - 2010.06.03 11:33:40.
