data_PCOD9068960
_publ_section_title
;
Structure prediction by ZEFSAII (Michael W. Deem and Ramdas Pophale) SiO2 
 PCOD9068960
Probable space group: P -1
;
_chemical_formula_sum "Si O2"
_cell_formula_units_Z 15
_cell_length_a 13.026545
_cell_length_b 9.786789
_cell_length_c 8.327550
_cell_angle_alpha 135.917708
_cell_angle_beta 57.302819
_cell_angle_gamma 115.658637
_cell_volume 619.714826
_symmetry_space_group_name_H-M "P -1"
_symmetry_group_IT_number 2
_symmetry_cell_setting 'triclinic'
loop_
_space_group_symop_operation_xyz
x,y,z
-x,-y,-z
loop_
_atom_site_type_symbol
_atom_site_label
_atom_site_fract_x
_atom_site_fract_y
_atom_site_fract_z
Si Si1 0.000000 0.500000 0.000000
Si Si2 0.179510 0.918708 0.008456
Si Si3 0.441484 0.808155 0.293479
Si Si4 0.053621 0.844660 0.512705
Si Si5 0.706590 0.734432 0.993341
Si Si6 0.221628 0.250442 0.687587
Si Si7 0.810795 0.365074 0.494600
Si Si8 0.368213 0.991828 0.182319
O O1 0.869014 0.588029 0.141052
O O2 0.032874 0.695729 0.257297
O O3 0.251007 0.047397 0.918591
O O4 0.271597 0.897781 0.057518
O O5 0.067339 0.042207 0.253730
O O6 0.142314 0.708818 0.779680
O O7 0.330985 0.705751 0.404048
O O8 0.500000 0.000000 0.500000
O O9 0.380216 0.873614 0.236670
O O10 0.561818 0.696515 0.053381
O O11 0.102392 0.723018 0.519941
O O12 0.149709 0.033160 0.563863
O O13 0.799195 0.596417 0.711381
O O14 0.726904 0.712467 0.146600
O O15 0.329635 0.211966 0.440499
O O16 0.500000 0.000000 0.000000
#
# Coordination Sequence:
#
# PCOD9068960 Si02
#       8
#     1   2   2   2   2   2   2   2
#     4  12  26  44  70 108 136 178 240 294 336 422
#     4  12  26  44  68 103 145 179 231 298 350 415
#     4  12  21  45  76  98 139 189 233 285 351 419
#     4  12  25  46  72 101 138 188 232 287 356 415
#     4  12  25  45  72 104 137 188 237 283 349 423
#     4  12  25  47  75  99 143 188 236 288 350 423
#     4  12  25  45  72 101 139 187 236 285 349 425
#     4  12  23  43  74 101 139 185 229 290 357 403
#
# _framework density 24.204681000000001
#
# number of rings (size 3 to 8) (size 9 to 14) (size 15 to 20)
#    0.000    0.000    9.333    1.200    0.000    1.600 
#    0.000    0.667    0.000    0.000    0.000    0.000 
#    0.000    0.000    0.000    0.000    0.000    0.000 
#
# Total GULP energy -83793.675209 kJ/mol
# GULP energy per Si atom -5586.245014 kJ/mol
# Density = 2.414959 g / cm^3
# Si number density = 24.204681 Si / 1000 Ang^3
#
#
#
# Elastic Constant Matrix: (Units=GPa)
#
#
# Indices 1 2 3 4 5 6 
#
# 1 169.4899 9.7627 70.3458 -1.6668 -29.9165 -20.2477
# 2 9.7627 31.4727 8.6737 8.9199 -15.6334 -0.4686
# 3 70.3458 8.6737 209.6633 16.6025 -31.4834 -12.7952
# 4 -1.6668 8.9199 16.6025 24.6672 0.9767 -6.6593
# 5 -29.9165 -15.6334 -31.4834 0.9767 50.8585 -4.2962
# 6 -20.2477 -0.4686 -12.7952 -6.6593 -4.2962 34.5043
#
#
#
# Elastic Compliance Matrix: (Units=1/GPa)
#
#
# Indices 1 2 3 4 5 6 
#
# 1 0.008103 -0.001170 -0.002131 0.003640 0.003447 0.005081
# 2 -0.001170 0.043826 0.002113 -0.018196 0.014353 -0.001033
# 3 -0.002131 0.002113 0.006365 -0.005175 0.003484 0.000574
# 4 0.003640 -0.018196 -0.005175 0.053678 -0.006886 0.009472
# 5 0.003447 0.014353 0.003484 -0.006886 0.028879 0.005776
# 6 0.005081 -0.001033 0.000574 0.009472 0.005776 0.034709
#
#
# Mechanical properties :
#
#
# Convention : Reuss Voigt Hill
#
# Bulk Modulus (GPa) = 17.88356 65.35447 41.61902
# Shear Modulus (GPa) = 25.43545 43.46224 34.44884
#
# Velocity S-wave (km/s) = 3.24520 4.24206 3.77667
# Velocity P-wave (km/s) = 4.63101 7.14513 6.02076
#
# Compressibility (1/GPa) = 0.05591727
#
# Stress axis : x y z
#
# Youngs Moduli (GPa) = 123.41079 22.81771 157.10729
#
# Poissons Ratio (x) = 0.02670 0.33478
# Poissons Ratio (y) = 0.14439 -0.33192
# Poissons Ratio (z) = 0.26297 -0.04821
#
# Static dielectric constant tensor:
#      x y z
#    x 1.867260 0.019830 -0.015620 
#    y 0.019830 1.975110 -0.027560 
#    z -0.015620 -0.027560 1.978030 
# 
# From -- ./inp_files/260837.got.cif
#   From: 2010.05.17/outbox.cif.g08.bks.cpg/sg2_131_cif.got.tgz:260837.got - 2010.06.03 11:33:40.
