data_PCOD9068573
_publ_section_title
;
Structure prediction by ZEFSAII (Michael W. Deem and Ramdas Pophale) SiO2 
 PCOD9068573
Probable space group: P -1
;
_chemical_formula_sum "Si O2"
_cell_formula_units_Z 16
_cell_length_a 11.632652
_cell_length_b 9.053984
_cell_length_c 8.247071
_cell_angle_alpha 96.780036
_cell_angle_beta 92.606673
_cell_angle_gamma 55.537937
_cell_volume 710.909333
_symmetry_space_group_name_H-M "P -1"
_symmetry_group_IT_number 2
_symmetry_cell_setting 'triclinic'
loop_
_space_group_symop_operation_xyz
x,y,z
-x,-y,-z
loop_
_atom_site_type_symbol
_atom_site_label
_atom_site_fract_x
_atom_site_fract_y
_atom_site_fract_z
Si Si1 0.955988 0.172861 0.302110
Si Si2 0.667384 0.507034 0.188311
Si Si3 0.018406 0.194882 0.681097
Si Si4 0.229641 0.098000 0.148066
Si Si5 0.244023 0.443523 0.152504
Si Si6 0.498013 0.099719 0.673054
Si Si7 0.496613 0.604487 0.671128
Si Si8 0.687839 0.996677 0.213118
O O1 0.977249 0.213105 0.492900
O O2 0.080490 0.149028 0.200566
O O3 0.808621 0.336897 0.248498
O O4 0.967011 0.985699 0.279086
O O5 0.602986 0.686393 0.315538
O O6 0.551884 0.462518 0.190164
O O7 0.700991 0.548243 0.019642
O O8 0.170261 0.156879 0.710625
O O9 0.901942 0.369920 0.793792
O O10 0.228801 0.277152 0.146686
O O11 0.347237 0.971789 0.271052
O O12 0.274315 0.993797 0.967189
O O13 0.358677 0.421616 0.282913
O O14 0.429069 0.044650 0.797822
O O15 0.500000 0.000000 0.500000
O O16 0.500000 0.500000 0.500000
O O17 0.378447 0.816062 0.674248
#
# Coordination Sequence:
#
# PCOD9068573 Si02
#       8
#     2   2   2   2   2   2   2   2
#     4  11  27  48  72 105 143 183 240 289 354 417
#     4  12  26  46  73 106 141 187 236 290 350 417
#     4  11  27  47  74 103 140 189 235 293 350 418
#     4  12  27  47  73 107 145 186 232 290 353 424
#     4  12  27  46  74 107 143 186 235 288 354 421
#     4  12  26  45  73 104 143 186 233 288 353 416
#     4  12  26  46  74 104 142 185 239 294 346 414
#     4  12  24  48  73 101 145 186 233 291 349 419
#
# _framework density 22.506387
#
# number of rings (size 3 to 8) (size 9 to 14) (size 15 to 20)
#    0.000    0.250    3.750    4.500    8.750    2.500 
#    0.000    0.000    0.000    0.000    0.000    0.000 
#    0.000    0.000    0.000    0.000    0.000    0.000 
#
# Total GULP energy -89664.045336 kJ/mol
# GULP energy per Si atom -5604.002833 kJ/mol
# Density = 2.245516 g / cm^3
# Si number density = 22.506387 Si / 1000 Ang^3
#
#
#
# Elastic Constant Matrix: (Units=GPa)
#
#
# Indices 1 2 3 4 5 6 
#
# 1 54.9395 27.5370 -13.3635 6.5265 -3.3390 -7.6649
# 2 27.5370 121.9081 43.0688 24.5098 -6.0879 -19.6632
# 3 -13.3635 43.0688 75.0936 9.9763 8.6623 -8.4187
# 4 6.5265 24.5098 9.9763 39.6614 -1.7548 -8.2892
# 5 -3.3390 -6.0879 8.6623 -1.7548 35.5509 -10.2960
# 6 -7.6649 -19.6632 -8.4187 -8.2892 -10.2960 35.3606
#
#
#
# Elastic Compliance Matrix: (Units=1/GPa)
#
#
# Indices 1 2 3 4 5 6 
#
# 1 0.025441 -0.008758 0.010045 -0.000794 -0.000843 0.002605
# 2 -0.008758 0.015716 -0.010060 -0.004446 0.005555 0.005021
# 3 0.010045 -0.010060 0.021719 -0.001250 -0.006236 -0.000354
# 4 -0.000794 -0.004446 -0.001250 0.029473 0.002263 0.004626
# 5 -0.000843 0.005555 -0.006236 0.002263 0.034070 0.011872
# 6 0.002605 0.005021 -0.000354 0.004626 0.011872 0.036094
#
#
# Mechanical properties :
#
#
# Convention : Reuss Voigt Hill
#
# Bulk Modulus (GPa) = 22.05928 40.71398 31.38663
# Shear Modulus (GPa) = 25.61877 35.09451 30.35664
#
# Velocity S-wave (km/s) = 3.37751 3.95310 3.67659
# Velocity P-wave (km/s) = 5.00327 6.24221 5.65676
#
# Compressibility (1/GPa) = 0.04533240
#
# Stress axis : x y z
#
# Youngs Moduli (GPa) = 39.30593 63.62863 46.04173
#
# Poissons Ratio (x) = 0.55726 -0.46250
# Poissons Ratio (y) = 0.34424 0.46316
# Poissons Ratio (z) = -0.39484 0.64008
#
# Static dielectric constant tensor:
#      x y z
#    x 1.818120 0.028650 -0.021850 
#    y 0.028650 1.817000 -0.024170 
#    z -0.021850 -0.024170 1.816960 
# 
# From -- ./inp_files/154628.got.cif
#   From: 2010.05.17/outbox.cif.g08.bks.cpg/sg2_78_cif.got.tgz:154628.got - 2010.06.03 11:33:40.
