data_PCOD9068532
_publ_section_title
;
Structure prediction by ZEFSAII (Michael W. Deem and Ramdas Pophale) SiO2 
 PCOD9068532
Probable space group: P -1
;
_chemical_formula_sum "Si O2"
_cell_formula_units_Z 16
_cell_length_a 9.121906
_cell_length_b 4.748486
_cell_length_c 18.063464
_cell_angle_alpha 97.280717
_cell_angle_beta 126.567379
_cell_angle_gamma 78.428430
_cell_volume 615.610203
_symmetry_space_group_name_H-M "P -1"
_symmetry_group_IT_number 2
_symmetry_cell_setting 'triclinic'
loop_
_space_group_symop_operation_xyz
x,y,z
-x,-y,-z
loop_
_atom_site_type_symbol
_atom_site_label
_atom_site_fract_x
_atom_site_fract_y
_atom_site_fract_z
Si Si1 0.843516 0.281706 0.448397
Si Si2 0.750553 0.201194 0.826021
Si Si3 0.669218 0.351504 0.598921
Si Si4 0.917190 0.062837 0.188552
Si Si5 0.543477 0.895830 0.647807
Si Si6 0.695943 0.613326 0.065835
Si Si7 0.193720 0.287364 0.059873
Si Si8 0.986084 0.575931 0.630225
O O1 0.661589 0.165079 0.414894
O O2 0.864664 0.555232 0.516727
O O3 0.833334 0.397348 0.364589
O O4 0.000000 0.000000 0.500000
O O5 0.699756 0.524396 0.847841
O O6 0.580356 0.083340 0.734350
O O7 0.810016 0.009192 0.910146
O O8 0.917081 0.125790 0.814016
O O9 0.500000 0.500000 0.500000
O O10 0.664809 0.582358 0.671191
O O11 0.876566 0.339604 0.628891
O O12 0.609965 0.064407 0.602959
O O13 0.838240 0.330768 0.121226
O O14 0.988653 0.207680 0.288302
O O15 0.756452 0.863879 0.145235
O O16 0.500000 0.500000 0.000000
O O17 0.722027 0.740104 0.996788
O O18 0.000000 0.500000 0.000000
#
# Coordination Sequence:
#
# PCOD9068532 Si02
#       8
#     2   2   2   2   2   2   2   2
#     4  11  27  49  70 103 151 204 236 300 377 441
#     4  12  24  43  75 111 139 186 244 306 352 422
#     4  12  24  44  72 106 138 197 247 303 350 430
#     4  12  25  46  76 106 142 185 246 304 356 432
#     4  12  27  44  74 107 148 186 257 299 357 430
#     4  12  28  47  74 107 145 192 236 290 371 448
#     4  12  23  45  74 102 145 185 234 294 367 433
#     4  11  27  44  75 103 146 191 246 297 372 428
#
# _framework density 25.990469000000001
#
# number of rings (size 3 to 8) (size 9 to 14) (size 15 to 20)
#    0.000    0.250    5.000    3.375    7.000    2.000 
#    0.000    0.000    0.000    0.000    0.000    0.000 
#    0.000    0.000    0.000    0.000    0.000    0.000 
#
# Total GULP energy -89296.263136 kJ/mol
# GULP energy per Si atom -5581.016446 kJ/mol
# Density = 2.593131 g / cm^3
# Si number density = 25.990469 Si / 1000 Ang^3
#
#
#
# Elastic Constant Matrix: (Units=GPa)
#
#
# Indices 1 2 3 4 5 6 
#
# 1 130.2135 41.2459 49.9888 -0.7600 -5.5018 35.3344
# 2 41.2459 143.4011 52.0880 9.0993 5.5883 35.6784
# 3 49.9888 52.0880 149.8531 40.4100 -3.5935 10.9530
# 4 -0.7600 9.0993 40.4100 55.7443 6.1633 7.4338
# 5 -5.5018 5.5883 -3.5935 6.1633 36.4554 1.8437
# 6 35.3344 35.6784 10.9530 7.4338 1.8437 37.5823
#
#
#
# Elastic Compliance Matrix: (Units=1/GPa)
#
#
# Indices 1 2 3 4 5 6 
#
# 1 0.012806 0.000890 -0.005058 0.005247 0.001043 -0.012500
# 2 0.000890 0.010615 -0.004031 0.002765 -0.001842 -0.010196
# 3 -0.005058 -0.004031 0.011768 -0.009098 0.002207 0.006844
# 4 0.005247 0.002765 -0.009098 0.025953 -0.004420 -0.009824
# 5 0.001043 -0.001842 0.002207 -0.004420 0.028856 -0.000416
# 6 -0.012500 -0.010196 0.006844 -0.009824 -0.000416 0.048009
#
#
# Mechanical properties :
#
#
# Convention : Reuss Voigt Hill
#
# Bulk Modulus (GPa) = 53.21618 78.90145 66.05881
# Shear Modulus (GPa) = 31.11999 44.63275 37.87637
#
# Velocity S-wave (km/s) = 3.46405 4.14850 3.82162
# Velocity P-wave (km/s) = 6.04311 7.30551 6.70409
#
# Compressibility (1/GPa) = 0.01879128
#
# Stress axis : x y z
#
# Youngs Moduli (GPa) = 78.08766 94.20924 84.97803
#
# Poissons Ratio (x) = -0.08387 0.42980
# Poissons Ratio (y) = -0.06952 0.34256
# Poissons Ratio (z) = 0.39495 0.37977
#
# Static dielectric constant tensor:
#      x y z
#    x 2.155010 0.064140 0.033050 
#    y 0.064140 2.091150 0.029280 
#    z 0.033050 0.029280 2.198340 
# 
# From -- ./inp_files/552841.got.cif
#   From: 2010.05.17/outbox.cif.g08.bks.cpg/sg2_277_cif.got.tgz:552841.got - 2010.06.03 11:33:40.
