data_PCOD9068366
_publ_section_title
;
Structure prediction by ZEFSAII (Michael W. Deem and Ramdas Pophale) SiO2 
 PCOD9068366
Probable space group: P -1
;
_chemical_formula_sum "Si O2"
_cell_formula_units_Z 13
_cell_length_a 17.634775
_cell_length_b 5.195304
_cell_length_c 8.772629
_cell_angle_alpha 123.412925
_cell_angle_beta 53.419997
_cell_angle_gamma 100.951625
_cell_volume 527.171502
_symmetry_space_group_name_H-M "P -1"
_symmetry_group_IT_number 2
_symmetry_cell_setting 'triclinic'
loop_
_space_group_symop_operation_xyz
x,y,z
-x,-y,-z
loop_
_atom_site_type_symbol
_atom_site_label
_atom_site_fract_x
_atom_site_fract_y
_atom_site_fract_z
Si Si1 0.705785 0.209366 0.601870
Si Si2 0.202333 0.231422 0.382262
Si Si3 0.910346 0.733636 0.757822
Si Si4 0.543310 0.626814 0.338043
Si Si5 0.913290 0.344223 0.108764
Si Si6 0.500000 0.500000 0.000000
Si Si7 0.238484 0.360240 0.858283
O O1 0.715475 0.574652 0.698295
O O2 0.765371 0.028268 0.612308
O O3 0.740259 0.007211 0.343155
O O4 0.594395 0.218756 0.766319
O O5 0.154935 0.105944 0.252473
O O6 0.120737 0.513639 0.641289
O O7 0.000000 0.500000 0.500000
O O8 0.836395 0.583576 0.895791
O O9 0.942424 0.978698 0.915064
O O10 0.500000 0.500000 0.500000
O O11 0.519983 0.478193 0.157661
O O12 0.659247 0.563357 0.198932
O O13 0.500000 0.000000 0.500000
O O14 0.817372 0.463020 0.160811
O O15 0.000000 0.500000 0.000000
#
# Coordination Sequence:
#
# PCOD9068366 Si02
#       7
#     2   2   2   2   2   1   2
#     4  11  26  49  77 111 152 216 255 338 396 493
#     4  11  27  48  76 109 156 202 268 315 418 472
#     4  12  28  46  82 114 157 212 277 339 420 497
#     4  12  30  51  84 123 165 217 280 345 414 506
#     4  11  27  48  77 108 159 208 265 334 405 490
#     4  12  28  50  82 116 168 208 286 330 426 478
#     4  11  26  51  77 111 164 209 267 338 414 487
#
# _framework density 24.659905999999999
#
# number of rings (size 3 to 8) (size 9 to 14) (size 15 to 20)
#    0.000    0.615    3.077    1.846   15.077    4.923 
#    0.000    0.000    0.000    0.000    0.000    0.000 
#    0.000    0.000    0.000    0.000    0.000    0.000 
#
# Total GULP energy -72550.896908 kJ/mol
# GULP energy per Si atom -5580.838224 kJ/mol
# Density = 2.460378 g / cm^3
# Si number density = 24.659906 Si / 1000 Ang^3
#
#
#
# Elastic Constant Matrix: (Units=GPa)
#
#
# Indices 1 2 3 4 5 6 
#
# 1 135.1759 32.8574 31.8009 -15.0381 19.0434 -9.8179
# 2 32.8574 106.0690 39.2659 -16.5196 7.4778 3.3593
# 3 31.8009 39.2659 128.3407 -2.9601 11.6404 -5.3089
# 4 -15.0381 -16.5196 -2.9601 33.4523 -7.7183 11.7666
# 5 19.0434 7.4778 11.6404 -7.7183 53.8115 5.9112
# 6 -9.8179 3.3593 -5.3089 11.7666 5.9112 26.8058
#
#
#
# Elastic Compliance Matrix: (Units=1/GPa)
#
#
# Indices 1 2 3 4 5 6 
#
# 1 0.008948 -0.002104 -0.001145 0.000983 -0.002872 0.003516
# 2 -0.002104 0.012745 -0.003631 0.007826 0.001637 -0.006883
# 3 -0.001145 -0.003631 0.009451 -0.003270 -0.002020 0.003788
# 4 0.000983 0.007826 -0.003270 0.043527 0.007946 -0.022127
# 5 -0.002872 0.001637 -0.002020 0.007946 0.022048 -0.010007
# 6 0.003516 -0.006883 0.003788 -0.022127 -0.010007 0.052125
#
#
# Mechanical properties :
#
#
# Convention : Reuss Voigt Hill
#
# Bulk Modulus (GPa) = 57.52222 64.15934 60.84078
# Shear Modulus (GPa) = 29.69168 40.52466 35.10817
#
# Velocity S-wave (km/s) = 3.47370 4.05821 3.77728
# Velocity P-wave (km/s) = 6.28217 6.93058 6.61433
#
# Compressibility (1/GPa) = 0.01738459
#
# Stress axis : x y z
#
# Youngs Moduli (GPa) = 111.75989 78.46239 105.81156
#
# Poissons Ratio (x) = 0.16507 0.12114
# Poissons Ratio (y) = 0.23512 0.38418
# Poissons Ratio (z) = 0.12795 0.28488
#
# Static dielectric constant tensor:
#      x y z
#    x 1.940780 0.128780 -0.132290 
#    y 0.128780 1.886500 0.230610 
#    z -0.132290 0.230610 1.621160 
# 
# From -- ./inp_files/110494.got.cif
#   From: 2010.05.17/outbox.cif.g08.bks.cpg/sg2_56_cif.got.tgz:110494.got - 2010.06.03 11:33:40.
