data_PCOD9068897
_publ_section_title
;
Structure prediction by ZEFSAII (Michael W. Deem and Ramdas Pophale) SiO2 
 PCOD9068897
Probable space group: P -1
;
_chemical_formula_sum "Si O2"
_cell_formula_units_Z 15
_cell_length_a 12.019556
_cell_length_b 14.501131
_cell_length_c 11.760618
_cell_angle_alpha 30.119200
_cell_angle_beta 43.122731
_cell_angle_gamma 38.646644
_cell_volume 632.657492
_symmetry_space_group_name_H-M "P -1"
_symmetry_group_IT_number 2
_symmetry_cell_setting 'triclinic'
loop_
_space_group_symop_operation_xyz
x,y,z
-x,-y,-z
loop_
_atom_site_type_symbol
_atom_site_label
_atom_site_fract_x
_atom_site_fract_y
_atom_site_fract_z
Si Si1 0.015079 0.994255 0.631638
Si Si2 0.000000 0.500000 0.500000
Si Si3 0.639420 0.872376 0.427982
Si Si4 0.902193 0.641376 0.815637
Si Si5 0.500229 0.250207 0.977818
Si Si6 0.896320 0.691020 0.133099
Si Si7 0.585752 0.309771 0.352722
Si Si8 0.520880 0.771574 0.238844
O O1 0.214299 0.826947 0.694989
O O2 0.007194 0.210405 0.440572
O O3 0.000000 0.000000 0.500000
O O4 0.881565 0.911738 0.874154
O O5 0.842171 0.698608 0.486087
O O6 0.918402 0.640056 0.301642
O O7 0.546649 0.748883 0.560895
O O8 0.500000 0.000000 0.500000
O O9 0.636321 0.048908 0.155917
O O10 0.926833 0.474845 0.881863
O O11 0.690353 0.767455 0.863742
O O12 0.000000 0.500000 0.000000
O O13 0.476945 0.448881 0.853341
O O14 0.528434 0.286147 0.785556
O O15 0.731576 0.654758 0.241960
O O16 0.585240 0.248126 0.551562
O O17 0.500000 0.000000 0.000000
#
# Coordination Sequence:
#
# PCOD9068897 Si02
#       8
#     2   1   2   2   2   2   2   2
#     4  12  23  41  74 112 149 193 250 316 394 461
#     4  12  28  56  76 108 156 214 266 320 388 466
#     4  12  28  53  80 105 155 209 264 325 382 467
#     4  12  21  40  70 113 151 190 246 316 389 458
#     4  12  23  45  75 112 150 198 254 322 398 458
#     4  12  25  46  72 104 153 197 253 320 376 467
#     4  12  25  45  73 114 148 200 259 316 400 472
#     4  12  22  44  72 105 153 194 247 326 394 457
#
# _framework density 23.709510999999999
#
# number of rings (size 3 to 8) (size 9 to 14) (size 15 to 20)
#    0.000    0.000    8.000    2.000    0.000    0.533 
#    4.800    1.333    0.000    0.000    0.000    0.000 
#    0.000    0.000    0.000    0.000    0.000    0.000 
#
# Total GULP energy -83618.040736 kJ/mol
# GULP energy per Si atom -5574.536049 kJ/mol
# Density = 2.365555 g / cm^3
# Si number density = 23.709511 Si / 1000 Ang^3
#
#
#
# Elastic Constant Matrix: (Units=GPa)
#
#
# Indices 1 2 3 4 5 6 
#
# 1 56.1334 15.8261 59.6016 -8.4798 -0.0978 15.8895
# 2 15.8261 110.8372 39.8871 -17.4490 0.7756 -2.5460
# 3 59.6016 39.8871 122.1657 -28.2061 6.3236 8.4311
# 4 -8.4798 -17.4490 -28.2061 50.0521 9.7274 4.7237
# 5 -0.0978 0.7756 6.3236 9.7274 46.8546 -4.0241
# 6 15.8895 -2.5460 8.4311 4.7237 -4.0241 42.8670
#
#
#
# Elastic Compliance Matrix: (Units=1/GPa)
#
#
# Indices 1 2 3 4 5 6 
#
# 1 0.042959 0.000693 -0.021542 -0.004155 0.002911 -0.010914
# 2 0.000693 0.010443 -0.003397 0.001766 -0.000008 0.000836
# 3 -0.021542 -0.003397 0.021743 0.008068 -0.004409 0.002204
# 4 -0.004155 0.001766 0.008068 0.026094 -0.006841 -0.003459
# 5 0.002911 -0.000008 -0.004409 -0.006841 0.023601 0.002757
# 6 -0.010914 0.000836 0.002204 -0.003459 0.002757 0.027630
#
#
# Mechanical properties :
#
#
# Convention : Reuss Voigt Hill
#
# Bulk Modulus (GPa) = 37.51862 57.75175 47.63518
# Shear Modulus (GPa) = 23.82700 39.54283 31.68492
#
# Velocity S-wave (km/s) = 3.17354 4.08831 3.65962
# Velocity P-wave (km/s) = 5.41176 6.83349 6.16375
#
# Compressibility (1/GPa) = 0.02665343
#
# Stress axis : x y z
#
# Youngs Moduli (GPa) = 23.27817 95.75602 45.99100
#
# Poissons Ratio (x) = -0.06636 0.99072
# Poissons Ratio (y) = -0.01613 0.15625
# Poissons Ratio (z) = 0.50145 0.32532
#
# Static dielectric constant tensor:
#      x y z
#    x 1.907010 -0.003850 0.059670 
#    y -0.003850 2.044820 0.055300 
#    z 0.059670 0.055300 2.207360 
# 
# From -- ./inp_files/432223.got.cif
#   From: 2010.05.17/outbox.cif.g08.bks.cpg/sg2_217_cif.got.tgz:432223.got - 2010.06.03 11:33:40.
