data_PCOD9068900
_publ_section_title
;
Structure prediction by ZEFSAII (Michael W. Deem and Ramdas Pophale) SiO2 
 PCOD9068900
Probable space group: P -1
;
_chemical_formula_sum "Si O2"
_cell_formula_units_Z 14
_cell_length_a 7.298100
_cell_length_b 8.646106
_cell_length_c 11.667840
_cell_angle_alpha 122.312333
_cell_angle_beta 107.468007
_cell_angle_gamma 53.392100
_cell_volume 499.300772
_symmetry_space_group_name_H-M "P -1"
_symmetry_group_IT_number 2
_symmetry_cell_setting 'triclinic'
loop_
_space_group_symop_operation_xyz
x,y,z
-x,-y,-z
loop_
_atom_site_type_symbol
_atom_site_label
_atom_site_fract_x
_atom_site_fract_y
_atom_site_fract_z
Si Si1 0.248721 0.216302 0.506614
Si Si2 0.068343 0.784501 0.091476
Si Si3 0.398843 0.913150 0.116422
Si Si4 0.804111 0.527554 0.193009
Si Si5 0.534900 0.592091 0.831979
Si Si6 0.606449 0.667134 0.634896
Si Si7 0.913799 0.074855 0.383849
O O1 0.130955 0.357304 0.654623
O O2 0.272525 0.364135 0.476378
O O3 0.091880 0.134965 0.398762
O O4 0.500000 0.000000 0.500000
O O5 0.172972 0.910577 0.101683
O O6 0.282053 0.584459 0.117302
O O7 0.911708 0.920890 0.222752
O O8 0.016146 0.660547 0.934322
O O9 0.604377 0.724738 0.158631
O O10 0.381530 0.130123 0.234924
O O11 0.456738 0.825914 0.962486
O O12 0.682175 0.429051 0.203576
O O13 0.647282 0.535698 0.706991
O O14 0.349063 0.739457 0.584426
O O15 0.000000 0.000000 0.500000
#
# Coordination Sequence:
#
# PCOD9068900 Si02
#       7
#     2   2   2   2   2   2   2
#     4  12  21  41  67  89 127 173 210 254 315 379
#     4   9  19  41  69  89 125 170 212 254 310 381
#     4   9  16  37  66  89 122 171 208 245 309 386
#     4   9  18  37  66  90 121 172 211 248 310 379
#     4   9  20  36  65  98 123 165 210 257 324 366
#     4  12  23  37  68  98 127 160 211 269 311 367
#     4  12  24  40  66  97 123 165 223 253 304 392
#
# _framework density 28.039210000000001
#
# number of rings (size 3 to 8) (size 9 to 14) (size 15 to 20)
#    0.000    1.714    4.286    3.000    0.000    0.571 
#    0.000   10.000    6.286    0.000    0.000    0.000 
#    0.000    0.000    0.000    0.000    0.000    0.000 
#
# Total GULP energy -78443.898614 kJ/mol
# GULP energy per Si atom -5603.135615 kJ/mol
# Density = 2.797539 g / cm^3
# Si number density = 28.039210 Si / 1000 Ang^3
#
#
#
# Elastic Constant Matrix: (Units=GPa)
#
#
# Indices 1 2 3 4 5 6 
#
# 1 94.2903 16.0021 25.1072 -15.1063 -7.9470 6.1825
# 2 16.0021 67.9730 26.7017 -13.8703 1.6899 6.7323
# 3 25.1072 26.7017 232.2089 2.0012 -23.7880 -4.6792
# 4 -15.1063 -13.8703 2.0012 50.9470 -0.6022 -3.3382
# 5 -7.9470 1.6899 -23.7880 -0.6022 51.1629 -2.6472
# 6 6.1825 6.7323 -4.6792 -3.3382 -2.6472 37.2218
#
#
#
# Elastic Compliance Matrix: (Units=1/GPa)
#
#
# Indices 1 2 3 4 5 6 
#
# 1 0.011851 -0.001674 -0.001001 0.003021 0.001393 -0.001421
# 2 -0.001674 0.017067 -0.002066 0.004023 -0.001884 -0.002842
# 3 -0.001001 -0.002066 0.004916 -0.000945 0.002251 0.001233
# 4 0.003021 0.004023 -0.000945 0.021698 0.000184 0.000611
# 5 0.001393 -0.001884 0.002251 0.000184 0.020971 0.001900
# 6 -0.001421 -0.002842 0.001233 0.000611 0.001900 0.027961
#
#
# Mechanical properties :
#
#
# Convention : Reuss Voigt Hill
#
# Bulk Modulus (GPa) = 41.06694 58.89935 49.98315
# Shear Modulus (GPa) = 40.96222 49.64375 45.30298
#
# Velocity S-wave (km/s) = 3.82631 4.21231 4.02394
# Velocity P-wave (km/s) = 5.84798 6.68653 6.28127
#
# Compressibility (1/GPa) = 0.02435049
#
# Stress axis : x y z
#
# Youngs Moduli (GPa) = 84.38322 58.59337 203.42122
#
# Poissons Ratio (x) = 0.09810 0.20359
# Poissons Ratio (y) = 0.14127 0.42036
# Poissons Ratio (z) = 0.08445 0.12108
#
# Static dielectric constant tensor:
#      x y z
#    x 2.131720 -0.043550 -0.049050 
#    y -0.043550 2.217590 0.061000 
#    z -0.049050 0.061000 2.215420 
# 
# From -- ./inp_files/264333.got.cif
#   From: 2010.05.17/outbox.cif.g08.bks.cpg/sg2_133_cif.got.tgz:264333.got - 2010.06.03 11:33:40.
