data_PCOD9068216
_publ_section_title
;
Structure prediction by ZEFSAII (Michael W. Deem and Ramdas Pophale) SiO2 
 PCOD9068216
Probable space group: P -1
;
_chemical_formula_sum "Si O2"
_cell_formula_units_Z 15
_cell_length_a 10.502906
_cell_length_b 6.346883
_cell_length_c 9.495525
_cell_angle_alpha 105.001311
_cell_angle_beta 82.544854
_cell_angle_gamma 89.924853
_cell_volume 605.835608
_symmetry_space_group_name_H-M "P -1"
_symmetry_group_IT_number 2
_symmetry_cell_setting 'triclinic'
loop_
_space_group_symop_operation_xyz
x,y,z
-x,-y,-z
loop_
_atom_site_type_symbol
_atom_site_label
_atom_site_fract_x
_atom_site_fract_y
_atom_site_fract_z
Si Si1 0.571236 0.071393 0.360120
Si Si2 0.208436 0.586609 0.961861
Si Si3 0.217393 0.990748 0.213853
Si Si4 0.368893 0.405319 0.346155
Si Si5 0.191928 0.796234 0.496597
Si Si6 0.536389 0.640937 0.154284
Si Si7 0.000000 0.500000 0.500000
Si Si8 0.960149 0.674017 0.837017
O O1 0.495550 0.298716 0.381174
O O2 0.719662 0.083681 0.383592
O O3 0.500000 0.000000 0.500000
O O4 0.550396 0.900497 0.207621
O O5 0.323638 0.460688 0.843049
O O6 0.098495 0.674788 0.888936
O O7 0.263409 0.786593 0.077560
O O8 0.140203 0.425365 0.053690
O O9 0.204718 0.907597 0.361956
O O10 0.307307 0.199063 0.244756
O O11 0.093674 0.092465 0.168320
O O12 0.250394 0.540209 0.459763
O O13 0.426096 0.585483 0.269480
O O14 0.046397 0.754681 0.546086
O O15 0.500000 0.500000 0.000000
O O16 0.970638 0.506820 0.676039
#
# Coordination Sequence:
#
# PCOD9068216 Si02
#       8
#     2   2   2   2   2   2   1   2
#     4  12  26  46  77 114 148 199 247 311 384 450
#     4  11  26  49  71 108 155 195 253 311 374 454
#     4  12  22  47  76 103 150 201 243 308 383 448
#     4  12  24  45  76 106 152 193 240 309 379 443
#     4  12  26  47  74 112 153 192 253 312 379 448
#     4  12  27  47  75 111 151 197 247 308 377 457
#     4  12  26  50  76 106 146 202 250 320 372 446
#     4  11  26  48  75 104 149 198 254 316 374 440
#
# _framework density 24.75919
#
# number of rings (size 3 to 8) (size 9 to 14) (size 15 to 20)
#    0.000    0.267    5.333    3.200    1.867    4.800 
#    4.800    0.000    0.000    0.000    0.000    0.000 
#    0.000    0.000    0.000    0.000    0.000    0.000 
#
# Total GULP energy -83633.863921 kJ/mol
# GULP energy per Si atom -5575.590928 kJ/mol
# Density = 2.470284 g / cm^3
# Si number density = 24.759190 Si / 1000 Ang^3
#
#
#
# Elastic Constant Matrix: (Units=GPa)
#
#
# Indices 1 2 3 4 5 6 
#
# 1 52.6186 43.4282 20.4449 -6.8758 21.9672 -11.4344
# 2 43.4282 103.4138 26.7938 19.3890 16.5162 -13.5737
# 3 20.4449 26.7938 63.3682 12.7967 19.0899 -7.8196
# 4 -6.8758 19.3890 12.7967 48.0570 -3.6711 6.6108
# 5 21.9672 16.5162 19.0899 -3.6711 34.1177 5.4510
# 6 -11.4344 -13.5737 -7.8196 6.6108 5.4510 55.2576
#
#
#
# Elastic Compliance Matrix: (Units=1/GPa)
#
#
# Indices 1 2 3 4 5 6 
#
# 1 0.043828 -0.016145 -0.003689 0.011722 -0.017868 0.004942
# 2 -0.016145 0.018752 -0.000407 -0.010093 0.000075 0.002408
# 3 -0.003689 -0.000407 0.022859 -0.007969 -0.011793 0.004488
# 4 0.011722 -0.010093 -0.007969 0.029861 0.005862 -0.005332
# 5 -0.017868 0.000075 -0.011793 0.005862 0.049758 -0.010958
# 6 0.004942 0.002408 0.004488 -0.005332 -0.010958 0.022065
#
#
# Mechanical properties :
#
#
# Convention : Reuss Voigt Hill
#
# Bulk Modulus (GPa) = 22.24342 44.52605 33.38474
# Shear Modulus (GPa) = 20.61082 36.06871 28.33977
#
# Velocity S-wave (km/s) = 2.88835 3.82092 3.38689
# Velocity P-wave (km/s) = 4.48630 6.12279 5.36728
#
# Compressibility (1/GPa) = 0.04495711
#
# Stress axis : x y z
#
# Youngs Moduli (GPa) = 22.81624 53.32790 43.74726
#
# Poissons Ratio (x) = 0.86100 0.16136
# Poissons Ratio (y) = 0.36838 0.01780
# Poissons Ratio (z) = 0.08416 0.02170
#
# Static dielectric constant tensor:
#      x y z
#    x 1.252980 0.213870 0.216550 
#    y 0.213870 1.945400 -0.024740 
#    z 0.216550 -0.024740 1.986150 
# 
# From -- ./inp_files/229893.got.cif
#   From: 2010.05.17/outbox.cif.g08.bks.cpg/sg2_115_cif.got.tgz:229893.got - 2010.06.03 11:33:40.
