data_PCOD9068438
_publ_section_title
;
Structure prediction by ZEFSAII (Michael W. Deem and Ramdas Pophale) SiO2 
 PCOD9068438
Probable space group: P -1
;
_chemical_formula_sum "Si O2"
_cell_formula_units_Z 14
_cell_length_a 9.394653
_cell_length_b 11.480979
_cell_length_c 9.382786
_cell_angle_alpha 47.884300
_cell_angle_beta 51.504436
_cell_angle_gamma 72.541520
_cell_volume 575.407237
_symmetry_space_group_name_H-M "P -1"
_symmetry_group_IT_number 2
_symmetry_cell_setting 'triclinic'
loop_
_space_group_symop_operation_xyz
x,y,z
-x,-y,-z
loop_
_atom_site_type_symbol
_atom_site_label
_atom_site_fract_x
_atom_site_fract_y
_atom_site_fract_z
Si Si1 0.872559 0.725238 0.275482
Si Si2 0.154594 0.609560 0.912713
Si Si3 0.173928 0.954647 0.059917
Si Si4 0.314696 0.527931 0.168009
Si Si5 0.876828 0.022953 0.420807
Si Si6 0.322025 0.414134 0.763599
Si Si7 0.525101 0.832116 0.952601
O O1 0.788135 0.610321 0.550245
O O2 0.077149 0.818208 0.120463
O O3 0.178452 0.557347 0.102212
O O4 0.772707 0.875755 0.192722
O O5 0.318809 0.545277 0.781277
O O6 0.147780 0.794925 0.740057
O O7 0.000000 0.500000 0.000000
O O8 0.835958 0.631563 0.223426
O O9 0.003043 0.968049 0.262099
O O10 0.364823 0.922597 0.034045
O O11 0.500000 0.500000 0.000000
O O12 0.392795 0.680988 0.088030
O O13 0.670453 0.924142 0.669588
O O14 0.000000 0.000000 0.500000
O O15 0.500000 0.500000 0.500000
O O16 0.351463 0.246784 0.949229
#
# Coordination Sequence:
#
# PCOD9068438 Si02
#       7
#     2   2   2   2   2   2   2
#     4  11  26  50  78 111 165 204 267 328 395 474
#     4  12  29  50  79 114 159 208 262 326 401 470
#     4  11  29  51  79 119 157 212 267 328 398 475
#     4  12  26  49  78 118 159 210 268 327 393 478
#     4  12  30  53  81 118 164 207 267 335 398 478
#     4  12  26  50  76 119 154 207 267 323 395 476
#     4  12  28  49  86 116 157 214 267 328 403 469
#
# _framework density 24.330594000000001
#
# number of rings (size 3 to 8) (size 9 to 14) (size 15 to 20)
#    0.000    0.286    2.857    3.429   14.000    2.286 
#    0.000    0.000    0.000    0.000    0.000    0.000 
#    0.000    0.000    0.000    0.000    0.000    0.000 
#
# Total GULP energy -78220.347084 kJ/mol
# GULP energy per Si atom -5587.167649 kJ/mol
# Density = 2.427522 g / cm^3
# Si number density = 24.330594 Si / 1000 Ang^3
#
#
#
# Elastic Constant Matrix: (Units=GPa)
#
#
# Indices 1 2 3 4 5 6 
#
# 1 177.7902 55.1868 47.3943 -10.1383 22.9226 -13.9081
# 2 55.1868 143.4198 66.0804 1.0427 16.2132 -13.1164
# 3 47.3943 66.0804 156.6661 -34.7421 22.5826 -11.9265
# 4 -10.1383 1.0427 -34.7421 40.9673 1.0440 -3.4734
# 5 22.9226 16.2132 22.5826 1.0440 46.3385 2.6027
# 6 -13.9081 -13.1164 -11.9265 -3.4734 2.6027 50.7743
#
#
#
# Elastic Compliance Matrix: (Units=1/GPa)
#
#
# Indices 1 2 3 4 5 6 
#
# 1 0.006917 -0.002073 -0.000351 0.001664 -0.002649 0.001526
# 2 -0.002073 0.009957 -0.004496 -0.004519 -0.000202 0.000649
# 3 -0.000351 -0.004496 0.011371 0.009972 -0.004149 0.002308
# 4 0.001664 -0.004519 0.009972 0.033880 -0.005101 0.004210
# 5 -0.002649 -0.000202 -0.004149 -0.005101 0.025289 -0.003397
# 6 0.001526 0.000649 0.002308 0.004210 -0.003397 0.021285
#
#
# Mechanical properties :
#
#
# Convention : Reuss Voigt Hill
#
# Bulk Modulus (GPa) = 69.42568 90.57769 80.00168
# Shear Modulus (GPa) = 39.26445 48.23034 43.74739
#
# Velocity S-wave (km/s) = 4.02156 4.45712 4.24493
# Velocity P-wave (km/s) = 7.08238 7.98728 7.54840
#
# Compressibility (1/GPa) = 0.01440389
#
# Stress axis : x y z
#
# Youngs Moduli (GPa) = 144.56108 100.43272 87.94392
#
# Poissons Ratio (x) = 0.20819 0.03091
# Poissons Ratio (y) = 0.29967 0.39542
# Poissons Ratio (z) = 0.05080 0.45158
#
# Static dielectric constant tensor:
#      x y z
#    x 1.980740 -0.072340 -0.078350 
#    y -0.072340 1.896050 0.034140 
#    z -0.078350 0.034140 1.916510 
# 
# From -- ./inp_files/432407.got.cif
#   From: 2010.05.17/outbox.cif.g08.bks.cpg/sg2_217_cif.got.tgz:432407.got - 2010.06.03 11:33:40.
