data_PCOD9068848
_publ_section_title
;
Structure prediction by ZEFSAII (Michael W. Deem and Ramdas Pophale) SiO2 
 PCOD9068848
Probable space group: P -1
;
_chemical_formula_sum "Si O2"
_cell_formula_units_Z 16
_cell_length_a 9.499521
_cell_length_b 5.302904
_cell_length_c 14.752893
_cell_angle_alpha 75.966103
_cell_angle_beta 89.385025
_cell_angle_gamma 110.147309
_cell_volume 673.243573
_symmetry_space_group_name_H-M "P -1"
_symmetry_group_IT_number 2
_symmetry_cell_setting 'triclinic'
loop_
_space_group_symop_operation_xyz
x,y,z
-x,-y,-z
loop_
_atom_site_type_symbol
_atom_site_label
_atom_site_fract_x
_atom_site_fract_y
_atom_site_fract_z
Si Si1 0.784371 0.648264 0.006737
Si Si2 0.675570 0.078822 0.008122
Si Si3 0.122041 0.640074 0.741615
Si Si4 0.996027 0.993903 0.168964
Si Si5 0.583252 0.426349 0.590710
Si Si6 0.689849 0.895002 0.839089
Si Si7 0.945035 0.676129 0.557835
Si Si8 0.529076 0.209475 0.307885
O O1 0.728793 0.828093 0.060583
O O2 0.939082 0.822596 0.938740
O O3 0.665400 0.627400 0.925791
O O4 0.753338 0.332966 0.051032
O O5 0.734157 0.128050 0.898373
O O6 0.500000 0.000000 0.000000
O O7 0.292345 0.700319 0.704559
O O8 0.105064 0.881765 0.783310
O O9 0.018616 0.634610 0.655720
O O10 0.066943 0.336402 0.816293
O O11 0.154740 0.053531 0.218469
O O12 0.500000 0.500000 0.500000
O O13 0.763703 0.561460 0.574049
O O14 0.524338 0.558226 0.665067
O O15 0.537299 0.093688 0.619409
O O16 0.547157 0.856017 0.784851
O O17 0.000000 0.500000 0.500000
O O18 0.000000 0.000000 0.500000
#
# Coordination Sequence:
#
# PCOD9068848 Si02
#       8
#     2   2   2   2   2   2   2   2
#     4   8  18  29  53  76 112 134 184 212 269 312
#     4   9  16  29  51  84 114 139 174 224 267 314
#     4  12  21  36  55  78 104 137 181 221 274 319
#     4   9  19  35  53  75 104 138 175 219 260 317
#     4  12  25  42  58  78 111 145 179 227 283 325
#     4   8  21  32  56  79 112 138 183 219 275 313
#     4  12  24  39  58  78 103 138 181 222 265 332
#     4  12  24  37  58  83 110 141 180 230 276 323
#
# _framework density 23.765546000000001
#
# number of rings (size 3 to 8) (size 9 to 14) (size 15 to 20)
#    1.500    0.000    0.000    7.500    1.750    0.000 
#    0.000    0.000    0.000    0.000    0.000   12.250 
#    0.000    0.000    0.000    0.000    0.000    0.000 
#
# Total GULP energy -89333.232006 kJ/mol
# GULP energy per Si atom -5583.327000 kJ/mol
# Density = 2.371145 g / cm^3
# Si number density = 23.765546 Si / 1000 Ang^3
#
#
#
# Elastic Constant Matrix: (Units=GPa)
#
#
# Indices 1 2 3 4 5 6 
#
# 1 171.0008 41.4106 32.4612 4.7115 -18.9757 17.0561
# 2 41.4106 138.9909 12.9249 4.3011 -23.1327 -13.7495
# 3 32.4612 12.9249 41.8842 14.9781 0.5010 3.2226
# 4 4.7115 4.3011 14.9781 39.9105 1.8554 -10.3520
# 5 -18.9757 -23.1327 0.5010 1.8554 59.1622 6.2801
# 6 17.0561 -13.7495 3.2226 -10.3520 6.2801 50.9505
#
#
#
# Elastic Compliance Matrix: (Units=1/GPa)
#
#
# Indices 1 2 3 4 5 6 
#
# 1 0.007839 -0.001768 -0.005499 0.000469 0.002165 -0.002925
# 2 -0.001768 0.008554 -0.001710 0.000543 0.002477 0.002813
# 3 -0.005499 -0.001710 0.033340 -0.012362 -0.002009 -0.002994
# 4 0.000469 0.000543 -0.012362 0.031546 -0.001301 0.007341
# 5 0.002165 0.002477 -0.002009 -0.001301 0.018891 -0.002522
# 6 -0.002925 0.002813 -0.002994 0.007341 -0.002522 0.023357
#
#
# Mechanical properties :
#
#
# Convention : Reuss Voigt Hill
#
# Bulk Modulus (GPa) = 31.46626 58.38547 44.92587
# Shear Modulus (GPa) = 32.87908 47.67659 40.27784
#
# Velocity S-wave (km/s) = 3.72355 4.48383 4.12126
# Velocity P-wave (km/s) = 5.63520 7.17126 6.44912
#
# Compressibility (1/GPa) = 0.03178007
#
# Stress axis : x y z
#
# Youngs Moduli (GPa) = 127.56919 116.90358 29.99441
#
# Poissons Ratio (x) = 0.20665 0.16493
# Poissons Ratio (y) = 0.22550 0.05129
# Poissons Ratio (z) = 0.70144 0.19991
#
# Static dielectric constant tensor:
#      x y z
#    x 1.956240 -0.042540 0.012160 
#    y -0.042540 2.032430 0.040170 
#    z 0.012160 0.040170 1.953750 
# 
# From -- ./inp_files/552063.got.cif
#   From: 2010.05.17/outbox.cif.g08.bks.cpg/sg2_277_cif.got.tgz:552063.got - 2010.06.03 11:33:40.
