data_PCOD9068536
_publ_section_title
;
Structure prediction by ZEFSAII (Michael W. Deem and Ramdas Pophale) SiO2 
 PCOD9068536
Probable space group: P -1
;
_chemical_formula_sum "Si O2"
_cell_formula_units_Z 16
_cell_length_a 13.936391
_cell_length_b 14.012780
_cell_length_c 13.636379
_cell_angle_alpha 159.088352
_cell_angle_beta 44.753250
_cell_angle_gamma 137.998533
_cell_volume 634.607032
_symmetry_space_group_name_H-M "P -1"
_symmetry_group_IT_number 2
_symmetry_cell_setting 'triclinic'
loop_
_space_group_symop_operation_xyz
x,y,z
-x,-y,-z
loop_
_atom_site_type_symbol
_atom_site_label
_atom_site_fract_x
_atom_site_fract_y
_atom_site_fract_z
Si Si1 0.571846 0.679010 0.267792
Si Si2 0.266524 0.390510 0.617441
Si Si3 0.050674 0.567854 0.416770
Si Si4 0.767971 0.829834 0.099003
Si Si5 0.598761 0.950365 0.174913
Si Si6 0.136733 0.029771 0.546082
Si Si7 0.960810 0.401683 0.112817
Si Si8 0.557344 0.818501 0.860374
O O1 0.622088 0.769870 0.208295
O O2 0.712147 0.841351 0.384470
O O3 0.443111 0.790930 0.501853
O O4 0.525948 0.344838 0.995182
O O5 0.168092 0.153437 0.532489
O O6 0.414573 0.548784 0.718806
O O7 0.319178 0.272932 0.369161
O O8 0.179885 0.596019 0.842013
O O9 0.948642 0.436263 0.272418
O O10 0.000000 0.500000 0.500000
O O11 0.110469 0.904124 0.688977
O O12 0.181677 0.441173 0.189275
O O13 0.737397 0.913331 0.092021
O O14 0.607878 0.970908 0.071606
O O15 0.081257 0.693598 0.271207
O O16 0.021598 0.153431 0.799894
O O17 0.500000 0.000000 0.000000
#
# Coordination Sequence:
#
# PCOD9068536 Si02
#       8
#     2   2   2   2   2   2   2   2
#     4  12  22  45  71 103 141 176 229 287 344 404
#     4  11  27  45  71 102 139 182 236 286 346 413
#     4  12  26  46  69 101 143 179 228 285 339 411
#     4  12  25  46  70 104 136 182 232 280 345 410
#     4  12  26  43  74 100 139 185 226 284 348 409
#     4  12  24  46  74 102 141 180 232 293 345 401
#     4  12  26  46  74 104 136 186 231 286 347 409
#     4  11  27  47  69 102 142 186 229 287 345 417
#
# _framework density 25.212451999999999
#
# number of rings (size 3 to 8) (size 9 to 14) (size 15 to 20)
#    0.000    0.250    3.750    4.875    7.000    1.000 
#    0.000    0.000    0.000    0.000    0.000    0.000 
#    0.000    0.000    0.000    0.000    0.000    0.000 
#
# Total GULP energy -89774.567967 kJ/mol
# GULP energy per Si atom -5610.910498 kJ/mol
# Density = 2.515507 g / cm^3
# Si number density = 25.212452 Si / 1000 Ang^3
#
#
#
# Elastic Constant Matrix: (Units=GPa)
#
#
# Indices 1 2 3 4 5 6 
#
# 1 119.9019 20.0870 10.3398 -7.6543 2.1231 -17.6318
# 2 20.0870 86.7075 13.5458 4.3096 16.6628 -19.0124
# 3 10.3398 13.5458 73.2005 -2.0621 -4.0964 -1.8415
# 4 -7.6543 4.3096 -2.0621 25.3669 -2.3623 6.3772
# 5 2.1231 16.6628 -4.0964 -2.3623 39.0057 -2.8768
# 6 -17.6318 -19.0124 -1.8415 6.3772 -2.8768 50.2253
#
#
#
# Elastic Compliance Matrix: (Units=1/GPa)
#
#
# Indices 1 2 3 4 5 6 
#
# 1 0.009180 -0.001714 -0.000827 0.002470 0.000462 0.002256
# 2 -0.001714 0.015074 -0.002931 -0.005259 -0.006582 0.005288
# 3 -0.000827 -0.002931 0.014511 0.001934 0.002868 -0.000949
# 4 0.002470 -0.005259 0.001934 0.043213 0.004469 -0.006284
# 5 0.000462 -0.006582 0.002868 0.004469 0.028912 -0.001136
# 6 0.002256 0.005288 -0.000949 -0.006284 -0.001136 0.023402
#
#
# Mechanical properties :
#
#
# Convention : Reuss Voigt Hill
#
# Bulk Modulus (GPa) = 35.94458 40.86167 38.40313
# Shear Modulus (GPa) = 32.36031 38.64205 35.50118
#
# Velocity S-wave (km/s) = 3.58649 3.91916 3.75651
# Velocity P-wave (km/s) = 5.60698 6.05986 5.83781
#
# Compressibility (1/GPa) = 0.02782061
#
# Stress axis : x y z
#
# Youngs Moduli (GPa) = 108.93312 66.34073 68.91133
#
# Poissons Ratio (x) = 0.11372 0.05701
# Poissons Ratio (y) = 0.18673 0.20196
# Poissons Ratio (z) = 0.09012 0.19443
#
# Static dielectric constant tensor:
#      x y z
#    x 1.985090 -0.003750 0.041680 
#    y -0.003750 2.012690 0.022160 
#    z 0.041680 0.022160 1.920820 
# 
# From -- ./inp_files/534670.got.cif
#   From: 2010.05.17/outbox.cif.g08.bks.cpg/sg2_268_cif.got.tgz:534670.got - 2010.06.03 11:33:40.
