data_PCOD9068487
_publ_section_title
;
Structure prediction by ZEFSAII (Michael W. Deem and Ramdas Pophale) SiO2 
 PCOD9068487
Probable space group: P -1
;
_chemical_formula_sum "Si O2"
_cell_formula_units_Z 13
_cell_length_a 5.215694
_cell_length_b 13.291349
_cell_length_c 9.415503
_cell_angle_alpha 62.470839
_cell_angle_beta 68.742274
_cell_angle_gamma 57.474432
_cell_volume 482.316312
_symmetry_space_group_name_H-M "P -1"
_symmetry_group_IT_number 2
_symmetry_cell_setting 'triclinic'
loop_
_space_group_symop_operation_xyz
x,y,z
-x,-y,-z
loop_
_atom_site_type_symbol
_atom_site_label
_atom_site_fract_x
_atom_site_fract_y
_atom_site_fract_z
Si Si1 0.771085 0.643026 0.908185
Si Si2 0.210030 0.000187 0.240790
Si Si3 0.293576 0.210493 0.922671
Si Si4 0.500000 0.000000 0.500000
Si Si5 0.130220 0.591770 0.341705
Si Si6 0.377256 0.649137 0.712364
Si Si7 0.980041 0.193253 0.550224
O O1 0.575645 0.640240 0.815269
O O2 0.031611 0.687757 0.799291
O O3 0.572211 0.735905 0.013419
O O4 0.000000 0.500000 0.000000
O O5 0.450530 0.879585 0.180746
O O6 0.336418 0.010837 0.360758
O O7 0.931868 0.958963 0.343077
O O8 0.155556 0.119978 0.076149
O O9 0.054948 0.334417 0.807586
O O10 0.683148 0.843066 0.551384
O O11 0.471539 0.490656 0.297112
O O12 0.100441 0.703753 0.379171
O O13 0.000000 0.500000 0.500000
O O14 0.308899 0.748653 0.533703
#
# Coordination Sequence:
#
# PCOD9068487 Si02
#       7
#     2   2   2   1   2   2   2
#     4  12  27  49  80 120 166 214 269 342 416 494
#     4  11  27  50  79 114 157 218 270 339 405 490
#     4  11  26  51  79 119 163 208 271 336 413 490
#     4  12  26  54  76 118 160 214 274 338 400 488
#     4  12  26  51  83 119 168 213 271 343 418 492
#     4  12  28  49  82 125 163 217 273 338 417 495
#     4  12  28  48  85 115 159 218 274 337 409 496
#
# _framework density 26.953268000000001
#
# number of rings (size 3 to 8) (size 9 to 14) (size 15 to 20)
#    0.000    0.308    3.077    4.154    6.462    0.615 
#    0.000    0.000    0.000    0.000    0.000    0.000 
#    0.000    0.000    0.000    0.000    0.000    0.000 
#
# Total GULP energy -72590.132783 kJ/mol
# GULP energy per Si atom -5583.856368 kJ/mol
# Density = 2.689192 g / cm^3
# Si number density = 26.953268 Si / 1000 Ang^3
#
#
#
# Elastic Constant Matrix: (Units=GPa)
#
#
# Indices 1 2 3 4 5 6 
#
# 1 112.7567 37.2769 52.6949 3.3376 39.6159 18.0438
# 2 37.2769 193.8523 72.2496 34.1631 19.8109 -1.4852
# 3 52.6949 72.2496 143.0842 -17.4861 21.4675 20.0040
# 4 3.3376 34.1631 -17.4861 75.1211 3.9884 6.7314
# 5 39.6159 19.8109 21.4675 3.9884 42.9736 -1.2508
# 6 18.0438 -1.4852 20.0040 6.7314 -1.2508 55.4009
#
#
#
# Elastic Compliance Matrix: (Units=1/GPa)
#
#
# Indices 1 2 3 4 5 6 
#
# 1 0.015626 -0.000649 -0.002903 -0.000007 -0.012782 -0.004346
# 2 -0.000649 0.007955 -0.004737 -0.004927 -0.000166 0.002730
# 3 -0.002903 -0.004737 0.011982 0.005544 -0.001764 -0.004221
# 4 -0.000007 -0.004927 0.005544 0.017346 -0.002227 -0.004290
# 5 -0.012782 -0.000166 -0.001764 -0.002227 0.036389 0.005887
# 6 -0.004346 0.002730 -0.004221 -0.004290 0.005887 0.021717
#
#
# Mechanical properties :
#
#
# Convention : Reuss Voigt Hill
#
# Bulk Modulus (GPa) = 52.66835 86.01512 69.34173
# Shear Modulus (GPa) = 37.33548 53.86391 45.59969
#
# Velocity S-wave (km/s) = 3.72586 4.47522 4.11762
# Velocity P-wave (km/s) = 6.17190 7.66064 6.95621
#
# Compressibility (1/GPa) = 0.01898674
#
# Stress axis : x y z
#
# Youngs Moduli (GPa) = 63.99504 125.70751 83.45887
#
# Poissons Ratio (x) = 0.08157 0.24224
# Poissons Ratio (y) = 0.04153 0.39532
# Poissons Ratio (z) = 0.18575 0.59544
#
# Static dielectric constant tensor:
#      x y z
#    x 1.596750 0.156030 0.127880 
#    y 0.156030 1.984540 -0.119560 
#    z 0.127880 -0.119560 2.251020 
# 
# From -- ./inp_files/131368.got.cif
#   From: 2010.05.17/outbox.cif.g08.bks.cpg/sg2_66_cif.got.tgz:131368.got - 2010.06.03 11:33:40.
