data_PCOD9068521
_publ_section_title
;
Structure prediction by ZEFSAII (Michael W. Deem and Ramdas Pophale) SiO2 
 PCOD9068521
Probable space group: P -1
;
_chemical_formula_sum "Si O2"
_cell_formula_units_Z 12
_cell_length_a 7.319839
_cell_length_b 6.923396
_cell_length_c 10.855499
_cell_angle_alpha 90.022016
_cell_angle_beta 57.746373
_cell_angle_gamma 70.750031
_cell_volume 428.389126
_symmetry_space_group_name_H-M "P -1"
_symmetry_group_IT_number 2
_symmetry_cell_setting 'triclinic'
loop_
_space_group_symop_operation_xyz
x,y,z
-x,-y,-z
loop_
_atom_site_type_symbol
_atom_site_label
_atom_site_fract_x
_atom_site_fract_y
_atom_site_fract_z
Si Si1 0.249760 0.273888 0.153234
Si Si2 0.001622 0.694781 0.396787
Si Si3 0.007796 0.971131 0.178965
Si Si4 0.229890 0.547003 0.951183
Si Si5 0.478948 0.052241 0.314473
Si Si6 0.436747 0.615652 0.392599
O O1 0.087678 0.487766 0.281645
O O2 0.415930 0.115079 0.194234
O O3 0.360804 0.366089 0.005440
O O4 0.101422 0.154278 0.145407
O O5 0.169665 0.662969 0.452785
O O6 0.041322 0.872604 0.302759
O O7 0.734138 0.777257 0.534116
O O8 0.140101 0.778193 0.040394
O O9 0.733406 0.043284 0.252563
O O10 0.598860 0.479131 0.223940
O O11 0.000000 0.500000 0.000000
O O12 0.475886 0.831405 0.361160
O O13 0.500000 0.500000 0.500000
#
# Coordination Sequence:
#
# PCOD9068521 Si02
#       6
#     2   2   2   2   2   2
#     4  11  28  52  87 124 174 224 285 362 426 514
#     4  11  27  53  81 129 178 224 292 351 431 519
#     4  11  26  54  89 125 175 223 288 359 433 513
#     4  11  27  55  84 130 171 225 295 351 434 513
#     4  12  26  53  83 134 171 229 288 348 438 516
#     4  12  29  55  90 125 176 232 286 364 429 511
#
# _framework density 28.011911999999999
#
# number of rings (size 3 to 8) (size 9 to 14) (size 15 to 20)
#    0.000    0.667    3.333    1.500    2.333    8.667 
#    3.000    1.667    0.000    0.000    0.000    0.000 
#    0.000    0.000    0.000    0.000    0.000    0.000 
#
# Total GULP energy -67567.465340 kJ/mol
# GULP energy per Si atom -5630.622112 kJ/mol
# Density = 2.794816 g / cm^3
# Si number density = 28.011912 Si / 1000 Ang^3
#
#
#
# Elastic Constant Matrix: (Units=GPa)
#
#
# Indices 1 2 3 4 5 6 
#
# 1 181.1637 88.5697 72.4276 16.1299 8.9963 0.3757
# 2 88.5697 244.7736 99.1940 -24.6811 11.0070 16.3671
# 3 72.4276 99.1940 166.0053 -33.6216 -11.5225 -11.4802
# 4 16.1299 -24.6811 -33.6216 62.5001 3.6750 7.2035
# 5 8.9963 11.0070 -11.5225 3.6750 47.0561 3.0326
# 6 0.3757 16.3671 -11.4802 7.2035 3.0326 59.4659
#
#
#
# Elastic Compliance Matrix: (Units=1/GPa)
#
#
# Indices 1 2 3 4 5 6 
#
# 1 0.008454 -0.002091 -0.003500 -0.004854 -0.001638 0.000518
# 2 -0.002091 0.006428 -0.002829 0.001944 -0.001791 -0.002446
# 3 -0.003500 -0.002829 0.010649 0.005076 0.003409 0.002068
# 4 -0.004854 0.001944 0.005076 0.020978 0.000212 -0.002076
# 5 -0.001638 -0.001791 0.003409 0.000212 0.022803 -0.000027
# 6 0.000518 -0.002446 0.002068 -0.002076 -0.000027 0.018139
#
#
# Mechanical properties :
#
#
# Convention : Reuss Voigt Hill
#
# Bulk Modulus (GPa) = 115.04976 123.59169 119.32072
# Shear Modulus (GPa) = 46.64761 55.92118 51.28440
#
# Velocity S-wave (km/s) = 4.08521 4.47288 4.28343
# Velocity P-wave (km/s) = 7.96322 8.41977 8.19467
#
# Compressibility (1/GPa) = 0.00869189
#
# Stress axis : x y z
#
# Youngs Moduli (GPa) = 118.29073 155.55827 93.90763
#
# Poissons Ratio (x) = 0.32527 0.32866
# Poissons Ratio (y) = 0.24734 0.26564
# Poissons Ratio (z) = 0.41400 0.44003
#
# Static dielectric constant tensor:
#      x y z
#    x 2.134720 -0.024980 0.044890 
#    y -0.024980 2.193900 -0.014450 
#    z 0.044890 -0.014450 2.182460 
# 
# From -- ./inp_files/225594.got.cif
#   From: 2010.05.17/outbox.cif.g08.bks.cpg/sg2_113_cif.got.tgz:225594.got - 2010.06.03 11:33:40.
