data_PCOD9068325
_publ_section_title
;
Structure prediction by ZEFSAII (Michael W. Deem and Ramdas Pophale) SiO2 
 PCOD9068325
Probable space group: P -1
;
_chemical_formula_sum "Si O2"
_cell_formula_units_Z 14
_cell_length_a 8.715632
_cell_length_b 18.098847
_cell_length_c 6.790873
_cell_angle_alpha 113.367288
_cell_angle_beta 54.950245
_cell_angle_gamma 78.131899
_cell_volume 657.639453
_symmetry_space_group_name_H-M "P -1"
_symmetry_group_IT_number 2
_symmetry_cell_setting 'triclinic'
loop_
_space_group_symop_operation_xyz
x,y,z
-x,-y,-z
loop_
_atom_site_type_symbol
_atom_site_label
_atom_site_fract_x
_atom_site_fract_y
_atom_site_fract_z
Si Si1 0.518757 0.446261 0.132539
Si Si2 0.069829 0.141002 0.064262
Si Si3 0.843003 0.099123 0.844476
Si Si4 0.348940 0.770725 0.248653
Si Si5 0.232578 0.242689 0.861780
Si Si6 0.462274 0.955371 0.788236
Si Si7 0.883482 0.450436 0.140208
O O1 0.714595 0.444345 0.110582
O O2 0.285028 0.495038 0.487817
O O3 0.500000 0.500000 0.000000
O O4 0.592982 0.337258 0.916170
O O5 0.889324 0.161077 0.386367
O O6 0.079946 0.234672 0.129251
O O7 0.982988 0.121716 0.908379
O O8 0.317659 0.045875 0.841382
O O9 0.688502 0.186250 0.897016
O O10 0.694982 0.079761 0.071681
O O11 0.000000 0.000000 0.500000
O O12 0.550462 0.768786 0.208401
O O13 0.320658 0.145226 0.564473
O O14 0.087581 0.341839 0.948813
O O15 0.500000 0.000000 0.000000
O O16 0.000000 0.500000 0.000000
#
# Coordination Sequence:
#
# PCOD9068325 Si02
#       7
#     2   2   2   2   2   2   2
#     4  11  26  49  74 103 140 186 237 293 361 420
#     4  12  25  46  67 101 144 183 234 284 340 419
#     4  12  23  43  69  97 141 188 230 282 343 410
#     4  12  26  44  73 102 139 189 230 285 352 412
#     4  12  26  45  70 104 141 181 233 289 345 415
#     4  12  25  43  69 102 142 184 232 284 345 413
#     4  11  27  48  74 106 143 181 239 299 351 425
#
# _framework density 21.288260999999999
#
# number of rings (size 3 to 8) (size 9 to 14) (size 15 to 20)
#    0.000    0.286    2.857    6.000    4.000    5.714 
#    0.000    0.000    0.000    0.000    0.000    0.000 
#    0.000    0.000    0.000    0.000    0.000    0.000 
#
# Total GULP energy -78308.903125 kJ/mol
# GULP energy per Si atom -5593.493080 kJ/mol
# Density = 2.123981 g / cm^3
# Si number density = 21.288261 Si / 1000 Ang^3
#
#
#
# Elastic Constant Matrix: (Units=GPa)
#
#
# Indices 1 2 3 4 5 6 
#
# 1 125.1177 58.4032 43.2954 5.3527 1.8941 3.6275
# 2 58.4032 187.7398 28.6621 4.3224 -0.1606 -6.7662
# 3 43.2954 28.6621 79.6426 3.1480 4.1652 -1.3150
# 4 5.3527 4.3224 3.1480 35.7380 8.8496 -9.4701
# 5 1.8941 -0.1606 4.1652 8.8496 32.5205 -6.6588
# 6 3.6275 -6.7662 -1.3150 -9.4701 -6.6588 50.7297
#
#
#
# Elastic Compliance Matrix: (Units=1/GPa)
#
#
# Indices 1 2 3 4 5 6 
#
# 1 0.011098 -0.002709 -0.005033 -0.001302 0.000027 -0.001525
# 2 -0.002709 0.006335 -0.000813 -0.000143 0.000550 0.001063
# 3 -0.005033 -0.000813 0.015678 -0.000009 -0.001626 0.000443
# 4 -0.001302 -0.000143 -0.000009 0.031349 -0.007441 0.004949
# 5 0.000027 0.000550 -0.001626 -0.007441 0.033609 0.003052
# 6 -0.001525 0.001063 0.000443 0.004949 0.003052 0.021299
#
#
# Mechanical properties :
#
#
# Convention : Reuss Voigt Hill
#
# Bulk Modulus (GPa) = 62.49754 72.58016 67.53885
# Shear Modulus (GPa) = 35.25786 41.27358 38.26572
#
# Velocity S-wave (km/s) = 4.07407 4.40795 4.24430
# Velocity P-wave (km/s) = 7.17999 7.75079 7.47084
#
# Compressibility (1/GPa) = 0.01600063
#
# Stress axis : x y z
#
# Youngs Moduli (GPa) = 90.10404 157.84206 63.78518
#
# Poissons Ratio (x) = 0.42760 0.32106
# Poissons Ratio (y) = 0.24409 0.05185
# Poissons Ratio (z) = 0.45353 0.12831
#
# Static dielectric constant tensor:
#      x y z
#    x 2.065450 -0.038280 -0.209060 
#    y -0.038280 1.766310 -0.000860 
#    z -0.209060 -0.000860 1.971500 
# 
# From -- ./inp_files/47223.got.cif
#   From: 2010.05.17/outbox.cif.g08.bks.cpg/sg2_24_cif.got.tgz:47223.got - 2010.06.03 11:33:40.
