data_PCOD9068118
_publ_section_title
;
Structure prediction by ZEFSAII (Michael W. Deem and Ramdas Pophale) SiO2 
 PCOD9068118
Probable space group: P -1
;
_chemical_formula_sum "Si O2"
_cell_formula_units_Z 16
_cell_length_a 11.776501
_cell_length_b 8.522430
_cell_length_c 14.086773
_cell_angle_alpha 137.824368
_cell_angle_beta 130.077192
_cell_angle_gamma 70.166755
_cell_volume 699.703995
_symmetry_space_group_name_H-M "P -1"
_symmetry_group_IT_number 2
_symmetry_cell_setting 'triclinic'
loop_
_space_group_symop_operation_xyz
x,y,z
-x,-y,-z
loop_
_atom_site_type_symbol
_atom_site_label
_atom_site_fract_x
_atom_site_fract_y
_atom_site_fract_z
Si Si1 0.624279 0.165042 0.569762
Si Si2 0.831350 0.111639 0.993820
Si Si3 0.805515 0.934505 0.244740
Si Si4 0.315920 0.270044 0.113855
Si Si5 0.156667 0.269439 0.306598
Si Si6 0.323341 0.487784 0.878638
Si Si7 0.605958 0.242585 0.379730
Si Si8 0.153928 0.170752 0.477529
O O1 0.671935 0.444797 0.754003
O O2 0.559743 0.158146 0.424183
O O3 0.500000 0.000000 0.500000
O O4 0.768994 0.051613 0.589939
O O5 0.704522 0.250137 0.008703
O O6 0.997402 0.289971 0.184825
O O7 0.814729 0.888464 0.958040
O O8 0.823791 0.989553 0.832826
O O9 0.784951 0.689397 0.183493
O O10 0.717434 0.093406 0.329260
O O11 0.719234 0.853020 0.062492
O O12 0.982348 0.076646 0.384934
O O13 0.470667 0.239584 0.232212
O O14 0.296156 0.478821 0.436251
O O15 0.148204 0.281099 0.419990
O O16 0.265787 0.370498 0.693793
O O17 0.500000 0.500000 0.000000
#
# Coordination Sequence:
#
# PCOD9068118 Si02
#       8
#     2   2   2   2   2   2   2   2
#     4  12  29  49  78 111 150 195 250 310 377 447
#     4  11  26  48  73 109 152 190 248 308 371 445
#     4  12  28  49  73 112 150 200 250 308 375 446
#     4  12  27  47  75 112 146 194 252 307 372 439
#     4  11  26  47  77 109 147 200 249 308 371 443
#     4  12  29  46  74 108 155 198 248 310 376 439
#     4  12  26  49  79 106 151 198 251 307 370 445
#     4  12  28  49  76 109 152 203 249 308 377 447
#
# _framework density 22.866810999999998
#
# number of rings (size 3 to 8) (size 9 to 14) (size 15 to 20)
#    0.000    0.250    3.750    3.375   10.500    1.500 
#    0.000    0.000    0.000    0.000    0.000    0.000 
#    0.000    0.000    0.000    0.000    0.000    0.000 
#
# Total GULP energy -89682.315573 kJ/mol
# GULP energy per Si atom -5605.144723 kJ/mol
# Density = 2.281477 g / cm^3
# Si number density = 22.866811 Si / 1000 Ang^3
#
#
#
# Elastic Constant Matrix: (Units=GPa)
#
#
# Indices 1 2 3 4 5 6 
#
# 1 126.9640 49.9682 60.7150 -7.5180 -6.0555 0.2716
# 2 49.9682 59.2706 49.7273 9.4077 1.3915 -5.7219
# 3 60.7150 49.7273 149.2506 -23.9324 -10.1549 -2.4281
# 4 -7.5180 9.4077 -23.9324 33.2391 0.2795 -8.9474
# 5 -6.0555 1.3915 -10.1549 0.2795 34.4050 -5.9721
# 6 0.2716 -5.7219 -2.4281 -8.9474 -5.9721 47.9813
#
#
#
# Elastic Compliance Matrix: (Units=1/GPa)
#
#
# Indices 1 2 3 4 5 6 
#
# 1 0.013193 -0.012030 -0.000175 0.006235 0.002703 -0.000019
# 2 -0.012030 0.042778 -0.013951 -0.025133 -0.007972 -0.001216
# 3 -0.000175 -0.013951 0.014160 0.014714 0.005014 0.002422
# 4 0.006235 -0.025133 0.014714 0.051352 0.007466 0.008217
# 5 0.002703 -0.007972 0.005014 0.007466 0.032094 0.004675
# 6 -0.000019 -0.001216 0.002422 0.008217 0.004675 0.022933
#
#
# Mechanical properties :
#
#
# Convention : Reuss Voigt Hill
#
# Bulk Modulus (GPa) = 56.12635 72.92289 64.52462
# Shear Modulus (GPa) = 21.29821 34.79673 28.04747
#
# Velocity S-wave (km/s) = 3.05520 3.90515 3.50602
# Velocity P-wave (km/s) = 6.08637 7.23139 6.68345
#
# Compressibility (1/GPa) = 0.01781694
#
# Stress axis : x y z
#
# Youngs Moduli (GPa) = 75.79918 23.37668 70.62342
#
# Poissons Ratio (x) = 0.28122 0.01238
# Poissons Ratio (y) = 0.91186 0.98529
# Poissons Ratio (z) = 0.01329 0.32613
#
# Static dielectric constant tensor:
#      x y z
#    x 1.850920 -0.005110 0.000400 
#    y -0.005110 1.848680 -0.001020 
#    z 0.000400 -0.001020 1.862160 
# 
# From -- ./inp_files/516436.got.cif
#   From: 2010.05.17/outbox.cif.g08.bks.cpg/sg2_259_cif.got.tgz:516436.got - 2010.06.03 11:33:40.
