data_PCOD9068374
_publ_section_title
;
Structure prediction by ZEFSAII (Michael W. Deem and Ramdas Pophale) SiO2 
 PCOD9068374
Probable space group: P -1
;
_chemical_formula_sum "Si O2"
_cell_formula_units_Z 14
_cell_length_a 8.926269
_cell_length_b 11.835881
_cell_length_c 13.839985
_cell_angle_alpha 147.611797
_cell_angle_beta 52.211450
_cell_angle_gamma 133.890558
_cell_volume 563.032430
_symmetry_space_group_name_H-M "P -1"
_symmetry_group_IT_number 2
_symmetry_cell_setting 'triclinic'
loop_
_space_group_symop_operation_xyz
x,y,z
-x,-y,-z
loop_
_atom_site_type_symbol
_atom_site_label
_atom_site_fract_x
_atom_site_fract_y
_atom_site_fract_z
Si Si1 0.068796 0.486329 0.584595
Si Si2 0.713708 0.077478 0.722963
Si Si3 0.722972 0.026817 0.892527
Si Si4 0.430886 0.352908 0.018683
Si Si5 0.478427 0.621889 0.388741
Si Si6 0.960801 0.108154 0.218520
Si Si7 0.131336 0.463671 0.768559
O O1 0.282072 0.545369 0.483102
O O2 0.013338 0.700885 0.735308
O O3 0.095072 0.469298 0.673668
O O4 0.912822 0.237976 0.423517
O O5 0.696713 0.936367 0.727606
O O6 0.951555 0.236308 0.719246
O O7 0.599061 0.898465 0.553659
O O8 0.593997 0.243499 0.903059
O O9 0.869990 0.299862 0.019876
O O10 0.837983 0.930541 0.854204
O O11 0.500000 0.000000 0.000000
O O12 0.426823 0.520079 0.227915
O O13 0.500000 0.500000 0.000000
O O14 0.218967 0.130582 0.916448
O O15 0.643760 0.528810 0.295308
#
# Coordination Sequence:
#
# PCOD9068374 Si02
#       7
#     2   2   2   2   2   2   2
#     4  11  26  49  78 118 158 211 263 321 398 468
#     4  12  27  52  76 116 160 204 272 320 396 469
#     4  12  26  49  82 112 156 207 266 332 388 469
#     4  12  29  49  79 117 161 209 259 330 398 470
#     4  12  26  50  80 115 162 210 267 319 392 473
#     4  11  27  48  77 114 159 201 267 319 394 462
#     4  12  26  46  83 114 162 210 260 331 392 464
#
# _framework density 24.865352999999999
#
# number of rings (size 3 to 8) (size 9 to 14) (size 15 to 20)
#    0.000    0.286    2.857    4.714    4.000    6.286 
#    0.000    0.000    0.000    0.000    0.000    0.000 
#    0.000    0.000    0.000    0.000    0.000    0.000 
#
# Total GULP energy -78492.432734 kJ/mol
# GULP energy per Si atom -5606.602338 kJ/mol
# Density = 2.480876 g / cm^3
# Si number density = 24.865353 Si / 1000 Ang^3
#
#
#
# Elastic Constant Matrix: (Units=GPa)
#
#
# Indices 1 2 3 4 5 6 
#
# 1 161.6323 80.0508 45.5362 -22.2506 4.8655 -6.7641
# 2 80.0508 111.6940 57.5139 -11.3375 12.9694 -10.9886
# 3 45.5362 57.5139 162.9183 3.8128 27.6663 -2.2602
# 4 -22.2506 -11.3375 3.8128 28.9075 -3.0853 14.6533
# 5 4.8655 12.9694 27.6663 -3.0853 60.0455 -6.3768
# 6 -6.7641 -10.9886 -2.2602 14.6533 -6.3768 36.5712
#
#
#
# Elastic Compliance Matrix: (Units=1/GPa)
#
#
# Indices 1 2 3 4 5 6 
#
# 1 0.010690 -0.006835 -0.000976 0.007236 0.001130 -0.002839
# 2 -0.006835 0.016092 -0.003558 -0.000247 -0.000946 0.003285
# 3 -0.000976 -0.003558 0.008289 -0.003669 -0.003140 0.000185
# 4 0.007236 -0.000247 -0.003669 0.050265 0.001744 -0.018799
# 5 0.001130 -0.000946 -0.003140 0.001744 0.018544 0.002265
# 6 -0.002839 0.003285 0.000185 -0.018799 0.002265 0.035745
#
#
# Mechanical properties :
#
#
# Convention : Reuss Voigt Hill
#
# Bulk Modulus (GPa) = 81.08661 89.16071 85.12366
# Shear Modulus (GPa) = 30.03460 41.98108 36.00784
#
# Velocity S-wave (km/s) = 3.47924 4.11339 3.80954
# Velocity P-wave (km/s) = 6.98722 7.64822 7.32518
#
# Compressibility (1/GPa) = 0.01233249
#
# Stress axis : x y z
#
# Youngs Moduli (GPa) = 93.54182 62.14154 120.64773
#
# Poissons Ratio (x) = 0.42477 0.11770
# Poissons Ratio (y) = 0.63940 0.42931
# Poissons Ratio (z) = 0.09125 0.22112
#
# Static dielectric constant tensor:
#      x y z
#    x 1.978140 0.025230 -0.001680 
#    y 0.025230 1.925800 0.008580 
#    z -0.001680 0.008580 2.026380 
# 
# From -- ./inp_files/501086.got.cif
#   From: 2010.05.17/outbox.cif.g08.bks.cpg/sg2_251_cif.got.tgz:501086.got - 2010.06.03 11:33:40.
