data_PCOD9068476
_publ_section_title
;
Structure prediction by ZEFSAII (Michael W. Deem and Ramdas Pophale) SiO2 
 PCOD9068476
Probable space group: P -1
;
_chemical_formula_sum "Si O2"
_cell_formula_units_Z 16
_cell_length_a 21.524908
_cell_length_b 6.641031
_cell_length_c 8.378770
_cell_angle_alpha 121.763485
_cell_angle_beta 57.441087
_cell_angle_gamma 132.470608
_cell_volume 718.561936
_symmetry_space_group_name_H-M "P -1"
_symmetry_group_IT_number 2
_symmetry_cell_setting 'triclinic'
loop_
_space_group_symop_operation_xyz
x,y,z
-x,-y,-z
loop_
_atom_site_type_symbol
_atom_site_label
_atom_site_fract_x
_atom_site_fract_y
_atom_site_fract_z
Si Si1 0.264307 0.684724 0.274712
Si Si2 0.533590 0.801887 0.300680
Si Si3 0.012405 0.280041 0.795164
Si Si4 0.907496 0.393567 0.501303
Si Si5 0.849326 0.781361 0.233567
Si Si6 0.730111 0.196887 0.308513
Si Si7 0.450096 0.155442 0.086001
Si Si8 0.177334 0.117634 0.047102
O O1 0.169309 0.598469 0.302033
O O2 0.266621 0.756266 0.486997
O O3 0.257513 0.391145 0.136775
O O4 0.347612 0.940220 0.179771
O O5 0.482905 0.458982 0.251976
O O6 0.500000 0.000000 0.500000
O O7 0.631794 0.955697 0.296953
O O8 0.537425 0.816858 0.109883
O O9 0.066672 0.427009 0.622469
O O10 0.065087 0.200234 0.806355
O O11 0.912939 0.027356 0.788525
O O12 0.000000 0.500000 0.000000
O O13 0.000000 0.500000 0.500000
O O14 0.859101 0.062544 0.399288
O O15 0.765126 0.494012 0.296816
O O16 0.843575 0.801938 0.061413
O O17 0.794137 0.099691 0.121352
O O18 0.500000 0.000000 0.000000
#
# Coordination Sequence:
#
# PCOD9068476 Si02
#       8
#     2   2   2   2   2   2   2   2
#     4  12  26  47  72 104 144 191 236 298 356 430
#     4  11  27  48  79 112 146 191 233 304 371 444
#     4  12  23  44  65 100 141 189 247 299 353 423
#     4  12  28  44  66 106 142 193 247 295 362 421
#     4  12  23  45  68  96 147 188 243 298 360 421
#     4  12  26  47  69 109 146 185 244 295 359 434
#     4  11  26  51  76 113 147 185 246 296 372 447
#     4  12  26  44  72 101 143 195 243 297 358 419
#
# _framework density 22.266696
#
# number of rings (size 3 to 8) (size 9 to 14) (size 15 to 20)
#    0.000    0.250    5.000    3.375    5.250    6.000 
#    0.000    0.000    0.000    0.000    0.000    0.000 
#    0.000    0.000    0.000    0.000    0.000    0.000 
#
# Total GULP energy -89466.337047 kJ/mol
# GULP energy per Si atom -5591.646065 kJ/mol
# Density = 2.221602 g / cm^3
# Si number density = 22.266696 Si / 1000 Ang^3
#
#
#
# Elastic Constant Matrix: (Units=GPa)
#
#
# Indices 1 2 3 4 5 6 
#
# 1 83.7318 27.8122 16.0449 -1.6681 -5.6969 7.0515
# 2 27.8122 176.3063 52.2769 14.4468 -10.9861 21.4976
# 3 16.0449 52.2769 94.0509 25.1401 -16.1204 1.8120
# 4 -1.6681 14.4468 25.1401 43.9464 12.0320 -1.8994
# 5 -5.6969 -10.9861 -16.1204 12.0320 24.3395 2.1905
# 6 7.0515 21.4976 1.8120 -1.8994 2.1905 41.2727
#
#
#
# Elastic Compliance Matrix: (Units=1/GPa)
#
#
# Indices 1 2 3 4 5 6 
#
# 1 0.012949 -0.001481 -0.001785 0.001837 0.000388 -0.001298
# 2 -0.001481 0.007530 -0.003118 -0.001469 0.002047 -0.003708
# 3 -0.001785 -0.003118 0.020373 -0.016126 0.019708 -0.000753
# 4 0.001837 -0.001469 -0.016126 0.041454 -0.031834 0.004756
# 5 0.000388 0.002047 0.019708 -0.031834 0.071543 -0.007260
# 6 -0.001298 -0.003708 -0.000753 0.004756 -0.007260 0.027020
#
#
# Mechanical properties :
#
#
# Convention : Reuss Voigt Hill
#
# Bulk Modulus (GPa) = 35.60814 60.70632 48.15723
# Shear Modulus (GPa) = 24.63060 39.10874 31.86967
#
# Velocity S-wave (km/s) = 3.32951 4.19546 3.78732
# Velocity P-wave (km/s) = 5.55043 7.12683 6.38745
#
# Compressibility (1/GPa) = 0.02808347
#
# Stress axis : x y z
#
# Youngs Moduli (GPa) = 77.22335 132.79795 49.08450
#
# Poissons Ratio (x) = 0.19673 0.08763
# Poissons Ratio (y) = 0.11440 0.15304
# Poissons Ratio (z) = 0.13786 0.41406
#
# Static dielectric constant tensor:
#      x y z
#    x 1.898350 -0.082190 -0.100670 
#    y -0.082190 2.031950 0.185950 
#    z -0.100670 0.185950 1.952110 
# 
# From -- ./inp_files/340653.got.cif
#   From: 2010.05.17/outbox.cif.g08.bks.cpg/sg2_171_cif.got.tgz:340653.got - 2010.06.03 11:33:40.
