data_PCOD9068999
_publ_section_title
;
Structure prediction by ZEFSAII (Michael W. Deem and Ramdas Pophale) SiO2 
 PCOD9068999
Probable space group: P -1
;
_chemical_formula_sum "Si O2"
_cell_formula_units_Z 13
_cell_length_a 13.854438
_cell_length_b 14.701561
_cell_length_c 5.073936
_cell_angle_alpha 89.300683
_cell_angle_beta 69.311869
_cell_angle_gamma 145.129949
_cell_volume 456.166935
_symmetry_space_group_name_H-M "P -1"
_symmetry_group_IT_number 2
_symmetry_cell_setting 'triclinic'
loop_
_space_group_symop_operation_xyz
x,y,z
-x,-y,-z
loop_
_atom_site_type_symbol
_atom_site_label
_atom_site_fract_x
_atom_site_fract_y
_atom_site_fract_z
Si Si1 0.425032 0.000001 0.320771
Si Si2 0.926416 0.500000 0.821776
Si Si3 0.500000 0.500000 0.500000
Si Si4 0.983592 0.253779 0.164202
Si Si5 0.643310 0.779988 0.009212
Si Si6 0.916671 0.779993 0.430803
Si Si7 0.523970 0.253783 0.328238
O O1 0.641530 0.249251 0.094313
O O2 0.500000 0.000000 0.500000
O O3 0.294252 0.000002 0.522674
O O4 0.500000 0.000000 0.000000
O O5 0.000000 0.500000 0.500000
O O6 0.143030 0.750751 0.592813
O O7 0.801435 0.500002 0.047400
O O8 0.000000 0.500000 0.000000
O O9 0.613012 0.662125 0.185448
O O10 0.711245 0.662129 0.490286
O O11 0.095363 0.271653 0.265166
O O12 0.008020 0.244146 0.834696
O O13 0.519722 0.755847 0.322992
O O14 0.552053 0.728342 0.808472
O O15 0.893429 0.999998 0.758774
#
# Coordination Sequence:
#
# PCOD9068999 Si02
#       7
#     2   2   1   2   2   2   2
#     4  12  22  38  66 101 136 181 234 272 330 418
#     4  12  24  41  64 101 144 187 240 293 344 414
#     4  12  30  48  80 108 136 190 246 292 384 436
#     4  12  24  45  69 100 143 188 232 290 364 413
#     4  12  25  49  72 106 142 183 238 302 360 437
#     4  12  25  49  72 106 142 183 238 302 360 437
#     4  12  24  45  69 100 143 188 232 290 364 413
#
# _framework density 28.498339000000001
#
# number of rings (size 3 to 8) (size 9 to 14) (size 15 to 20)
#    0.000    0.000    3.077    7.846    0.000    2.462 
#    0.000    3.077    0.000    0.000    0.000    0.000 
#    0.000    0.000    0.000    0.000    0.000    0.000 
#
# Total GULP energy -72604.212695 kJ/mol
# GULP energy per Si atom -5584.939438 kJ/mol
# Density = 2.843348 g / cm^3
# Si number density = 28.498339 Si / 1000 Ang^3
#
#
#
# Elastic Constant Matrix: (Units=GPa)
#
#
# Indices 1 2 3 4 5 6 
#
# 1 143.3146 24.5513 31.2830 2.2557 2.7729 -0.2542
# 2 24.5513 137.0347 62.3959 -52.3947 -35.1874 7.7668
# 3 31.2830 62.3959 98.0139 9.0670 -2.1849 -32.5951
# 4 2.2557 -52.3947 9.0670 82.3366 0.8537 16.2250
# 5 2.7729 -35.1874 -2.1849 0.8537 57.5281 -15.5457
# 6 -0.2542 7.7668 -32.5951 16.2250 -15.5457 71.5901
#
#
#
# Elastic Compliance Matrix: (Units=1/GPa)
#
#
# Indices 1 2 3 4 5 6 
#
# 1 0.007659 0.000485 -0.003514 0.000886 -0.000757 -0.001990
# 2 0.000485 0.062701 -0.057814 0.053883 0.024521 -0.040011
# 3 -0.003514 -0.057814 0.067389 -0.052695 -0.019804 0.044584
# 4 0.000886 0.053883 -0.052695 0.059725 0.019449 -0.039147
# 5 -0.000757 0.024521 -0.019804 0.019449 0.028714 -0.009852
# 6 -0.001990 -0.040011 0.044584 -0.039147 -0.009852 0.045334
#
#
# Mechanical properties :
#
#
# Convention : Reuss Voigt Hill
#
# Bulk Modulus (GPa) = 62.25793 68.31373 65.28583
# Shear Modulus (GPa) = 12.54506 59.63316 36.08911
#
# Velocity S-wave (km/s) = 2.10038 4.57936 3.56245
# Velocity P-wave (km/s) = 5.27027 7.20999 6.31505
#
# Compressibility (1/GPa) = 0.01606221
#
# Stress axis : x y z
#
# Youngs Moduli (GPa) = 130.56920 15.94864 14.83924
#
# Poissons Ratio (x) = -0.00773 0.05214
# Poissons Ratio (y) = -0.06332 0.85792
# Poissons Ratio (z) = 0.45881 0.92206
#
# Static dielectric constant tensor:
#      x y z
#    x 2.032770 -0.129770 -0.145000 
#    y -0.129770 2.505070 -0.417640 
#    z -0.145000 -0.417640 2.155980 
# 
# From -- ./inp_files/75965.got.cif
#   From: 2010.05.17/outbox.cif.g08.bks.cpg/sg2_38_cif.got.tgz:75965.got - 2010.06.03 11:33:40.
