data_PCOD9068696
_publ_section_title
;
Structure prediction by ZEFSAII (Michael W. Deem and Ramdas Pophale) SiO2 
 PCOD9068696
Probable space group: P -1
;
_chemical_formula_sum "Si O2"
_cell_formula_units_Z 12
_cell_length_a 5.011853
_cell_length_b 13.149963
_cell_length_c 11.745186
_cell_angle_alpha 135.936072
_cell_angle_beta 102.465249
_cell_angle_gamma 60.684149
_cell_volume 457.441618
_symmetry_space_group_name_H-M "P -1"
_symmetry_group_IT_number 2
_symmetry_cell_setting 'triclinic'
loop_
_space_group_symop_operation_xyz
x,y,z
-x,-y,-z
loop_
_atom_site_type_symbol
_atom_site_label
_atom_site_fract_x
_atom_site_fract_y
_atom_site_fract_z
Si Si1 0.160530 0.152463 0.055780
Si Si2 0.667957 0.796420 0.524829
Si Si3 0.487160 0.700645 0.220620
Si Si4 0.843142 0.425555 0.763019
Si Si5 0.334641 0.525488 0.627109
Si Si6 0.419204 0.869284 0.108252
O O1 -0.733520 0.218201 0.008985
O O2 0.905731 0.096164 0.953403
O O3 0.500000 0.000000 0.000000
O O4 0.404360 0.043502 0.281664
O O5 0.439154 0.834168 0.424610
O O6 0.686270 0.638037 0.467267
O O7 0.004006 0.726993 0.438298
O O8 0.003670 0.696433 0.746831
O O9 0.266732 0.627500 0.177357
O O10 0.449838 0.771055 0.148831
O O11 0.849531 0.564661 0.170735
O O12 0.537549 0.550951 0.765935
O O13 0.500000 0.500000 0.500000
#
# Coordination Sequence:
#
# PCOD9068696 Si02
#       6
#     2   2   2   2   2   2
#     4  12  32  52  74 112 159 201 261 323 393 449
#     4   9  24  44  79 116 151 194 268 298 376 460
#     4   9  20  42  75 116 153 194 251 310 378 457
#     4   9  21  42  73 114 146 189 268 303 358 455
#     4  11  27  54  80 105 154 214 262 316 381 463
#     4  12  26  49  79 113 159 203 245 325 394 445
#
# _framework density 26.232858
#
# number of rings (size 3 to 8) (size 9 to 14) (size 15 to 20)
#    1.000    0.667    0.000    2.000    9.333    2.667 
#    0.000   12.500    0.000    0.000    0.000    0.000 
#    0.000    0.000    0.000    0.000    0.000    0.000 
#
# Total GULP energy -67132.855512 kJ/mol
# GULP energy per Si atom -5594.404626 kJ/mol
# Density = 2.617315 g / cm^3
# Si number density = 26.232858 Si / 1000 Ang^3
#
#
#
# Elastic Constant Matrix: (Units=GPa)
#
#
# Indices 1 2 3 4 5 6 
#
# 1 158.3799 34.9877 81.4161 11.1228 -10.9965 0.4453
# 2 34.9877 132.6816 69.0070 1.2621 -7.7042 1.7871
# 3 81.4161 69.0070 188.6196 -10.2338 -26.8361 11.0310
# 4 11.1228 1.2621 -10.2338 46.8384 0.6313 -2.7299
# 5 -10.9965 -7.7042 -26.8361 0.6313 66.9105 -3.6687
# 6 0.4453 1.7871 11.0310 -2.7299 -3.6687 40.0582
#
#
#
# Elastic Compliance Matrix: (Units=1/GPa)
#
#
# Indices 1 2 3 4 5 6 
#
# 1 0.008505 -0.000264 -0.003782 -0.002793 -0.000081 0.000761
# 2 -0.000264 0.009378 -0.003436 -0.000911 -0.000309 0.000440
# 3 -0.003782 -0.003436 0.008787 0.002773 0.002381 -0.001817
# 4 -0.002793 -0.000911 0.002773 0.022690 0.000383 0.000890
# 5 -0.000081 -0.000309 0.002381 0.000383 0.015894 0.000841
# 6 0.000761 0.000440 -0.001817 0.000890 0.000841 0.025574
#
#
# Mechanical properties :
#
#
# Convention : Reuss Voigt Hill
#
# Bulk Modulus (GPa) = 85.43170 94.50028 89.96599
# Shear Modulus (GPa) = 45.58101 50.37942 47.98022
#
# Velocity S-wave (km/s) = 4.17292 4.38707 4.28133
# Velocity P-wave (km/s) = 7.47362 7.85899 7.66873
#
# Compressibility (1/GPa) = 0.01170526
#
# Stress axis : x y z
#
# Youngs Moduli (GPa) = 117.57980 106.62729 113.80632
#
# Poissons Ratio (x) = 0.02816 0.43043
# Poissons Ratio (y) = 0.03105 0.39107
# Poissons Ratio (z) = 0.44470 0.36640
#
# Static dielectric constant tensor:
#      x y z
#    x 2.043000 0.042400 0.049750 
#    y 0.042400 2.161390 0.011130 
#    z 0.049750 0.011130 2.113450 
# 
# From -- ./inp_files/368367.got.cif
#   From: 2010.05.17/outbox.cif.g08.bks.cpg/sg2_185_cif.got.tgz:368367.got - 2010.06.03 11:33:40.
