data_PCOD9068172
_publ_section_title
;
Structure prediction by ZEFSAII (Michael W. Deem and Ramdas Pophale) SiO2 
 PCOD9068172
Probable space group: P -1
;
_chemical_formula_sum "Si O2"
_cell_formula_units_Z 13
_cell_length_a 18.914931
_cell_length_b 15.421042
_cell_length_c 12.879288
_cell_angle_alpha 149.691639
_cell_angle_beta 27.463217
_cell_angle_gamma 158.025222
_cell_volume 630.221717
_symmetry_space_group_name_H-M "P -1"
_symmetry_group_IT_number 2
_symmetry_cell_setting 'triclinic'
loop_
_space_group_symop_operation_xyz
x,y,z
-x,-y,-z
loop_
_atom_site_type_symbol
_atom_site_label
_atom_site_fract_x
_atom_site_fract_y
_atom_site_fract_z
Si Si1 0.259137 0.834871 0.603259
Si Si2 0.874093 0.782873 0.521130
Si Si3 0.062141 0.730500 0.532142
Si Si4 0.974016 0.007457 0.848059
Si Si5 0.433677 0.501918 0.704805
Si Si6 0.697014 0.242383 0.937492
Si Si7 0.000000 0.500000 0.000000
O O1 0.118260 0.556958 0.525884
O O2 0.222222 0.831431 0.524444
O O3 0.500000 0.000000 0.500000
O O4 0.156023 0.923864 0.881354
O O5 0.627214 0.600025 0.626026
O O6 0.900333 0.877057 0.698947
O O7 0.000000 0.000000 0.500000
O O8 0.962645 0.660444 0.266295
O O9 0.188694 0.799913 0.332436
O O10 0.961579 0.841998 0.775353
O O11 0.218928 0.249433 0.763212
O O12 0.500000 0.500000 0.500000
O O13 0.391981 0.672666 0.929580
O O14 0.853030 0.439386 0.025611
O O15 0.500000 0.000000 0.000000
#
# Coordination Sequence:
#
# PCOD9068172 Si02
#       7
#     2   2   2   2   2   2   1
#     4  11  28  50  75 100 137 186 246 304 346 410
#     4  12  25  40  65 101 145 186 230 276 344 424
#     4  11  26  48  71 105 139 183 239 293 355 417
#     4  12  25  46  71 103 141 186 237 291 352 425
#     4  12  23  41  65 101 147 184 221 283 350 420
#     4  12  24  42  70 104 145 184 226 284 357 428
#     4  12  24  40  62 102 140 182 226 272 334 428
#
# _framework density 20.627661
#
# number of rings (size 3 to 8) (size 9 to 14) (size 15 to 20)
#    0.000    0.308    6.154    2.308    2.154    3.077 
#    0.000    0.000    0.000    0.000    0.000    0.000 
#    0.000    0.000    0.000    0.000    0.000    0.000 
#
# Total GULP energy -72488.034668 kJ/mol
# GULP energy per Si atom -5576.002667 kJ/mol
# Density = 2.058071 g / cm^3
# Si number density = 20.627661 Si / 1000 Ang^3
#
#
#
# Elastic Constant Matrix: (Units=GPa)
#
#
# Indices 1 2 3 4 5 6 
#
# 1 119.5160 68.6270 50.0803 3.4974 -3.6711 15.0873
# 2 68.6270 105.0434 62.1788 -0.0144 -3.7081 19.6974
# 3 50.0803 62.1788 138.4030 14.3139 -12.3763 7.1937
# 4 3.4974 -0.0144 14.3139 29.0942 -3.7866 -7.2106
# 5 -3.6711 -3.7081 -12.3763 -3.7866 52.0148 8.0159
# 6 15.0873 19.6974 7.1937 -7.2106 8.0159 33.7880
#
#
#
# Elastic Compliance Matrix: (Units=1/GPa)
#
#
# Indices 1 2 3 4 5 6 
#
# 1 0.013651 -0.007954 -0.001108 -0.001461 0.000273 -0.001600
# 2 -0.007954 0.019206 -0.005619 0.002295 0.000577 -0.006096
# 3 -0.001108 -0.005619 0.010820 -0.004968 0.001735 -0.000005
# 4 -0.001461 0.002295 -0.004968 0.039185 0.000399 0.008640
# 5 0.000273 0.000577 0.001735 0.000399 0.020595 -0.005628
# 6 -0.001600 -0.006096 -0.000005 0.008640 -0.005628 0.037045
#
#
# Mechanical properties :
#
#
# Convention : Reuss Voigt Hill
#
# Bulk Modulus (GPa) = 69.85254 80.52605 75.18929
# Shear Modulus (GPa) = 28.63096 35.11782 31.87439
#
# Velocity S-wave (km/s) = 3.72961 4.13057 3.93520
# Velocity P-wave (km/s) = 7.24457 7.86584 7.56159
#
# Compressibility (1/GPa) = 0.01431587
#
# Stress axis : x y z
#
# Youngs Moduli (GPa) = 73.25288 52.06641 92.42207
#
# Poissons Ratio (x) = 0.41411 0.10239
# Poissons Ratio (y) = 0.58262 0.51936
# Poissons Ratio (z) = 0.08115 0.29259
#
# Static dielectric constant tensor:
#      x y z
#    x 1.747100 -0.023810 -0.009400 
#    y -0.023810 1.696690 0.004990 
#    z -0.009400 0.004990 1.764840 
# 
# From -- ./inp_files/453587.got.cif
#   From: 2010.05.17/outbox.cif.g08.bks.cpg/sg2_227_cif.got.tgz:453587.got - 2010.06.03 11:33:40.
