data_PCOD9068642
_publ_section_title
;
Structure prediction by ZEFSAII (Michael W. Deem and Ramdas Pophale) SiO2 
 PCOD9068642
Probable space group: P -1
;
_chemical_formula_sum "Si O2"
_cell_formula_units_Z 10
_cell_length_a 12.217648
_cell_length_b 11.940445
_cell_length_c 11.231115
_cell_angle_alpha 35.671752
_cell_angle_beta 141.836829
_cell_angle_gamma 157.079583
_cell_volume 366.846962
_symmetry_space_group_name_H-M "P -1"
_symmetry_group_IT_number 2
_symmetry_cell_setting 'triclinic'
loop_
_space_group_symop_operation_xyz
x,y,z
-x,-y,-z
loop_
_atom_site_type_symbol
_atom_site_label
_atom_site_fract_x
_atom_site_fract_y
_atom_site_fract_z
Si Si1 0.843445 0.623521 0.858573
Si Si2 0.667947 0.267587 0.776866
Si Si3 0.647523 0.455861 0.091531
Si Si4 0.890520 0.104210 0.502194
Si Si5 0.809975 0.148697 0.659175
O O1 0.696211 0.401743 0.810353
O O2 0.910993 0.903453 0.650960
O O3 0.635849 0.445313 0.949296
O O4 0.130655 0.746920 0.026148
O O5 0.342663 0.981161 0.703768
O O6 0.818064 0.532446 0.578982
O O7 0.978830 0.765901 0.136861
O O8 0.494919 0.133883 0.292891
O O9 0.500000 0.500000 0.000000
O O10 0.807988 0.039433 0.625893
O O11 0.000000 0.500000 0.500000
#
# Coordination Sequence:
#
# PCOD9068642 Si02
#       5
#     2   2   2   2   2
#     4  11  27  49  81 107 160 196 259 322 379 461
#     4  11  28  49  76 118 143 207 258 315 387 454
#     4  12  26  48  75 110 149 201 253 309 392 451
#     4  12  26  50  77 111 157 197 259 317 387 455
#     4  12  27  48  75 111 153 199 255 317 383 462
#
# _framework density 27.259325
#
# number of rings (size 3 to 8) (size 9 to 14) (size 15 to 20)
#    0.000    0.400    2.000    4.800    0.000   11.200 
#    0.000    0.000    0.000    0.000    0.000    0.000 
#    0.000    0.000    0.000    0.000    0.000    0.000 
#
# Total GULP energy -56124.790982 kJ/mol
# GULP energy per Si atom -5612.479098 kJ/mol
# Density = 2.719728 g / cm^3
# Si number density = 27.259325 Si / 1000 Ang^3
#
#
#
# Elastic Constant Matrix: (Units=GPa)
#
#
# Indices 1 2 3 4 5 6 
#
# 1 162.4276 11.1368 33.3637 5.6076 -3.9084 -13.2567
# 2 11.1368 140.2924 12.2313 8.4444 5.9357 6.2373
# 3 33.3637 12.2313 80.8014 -18.1235 7.5307 -4.7544
# 4 5.6076 8.4444 -18.1235 46.3513 -4.8927 -13.8820
# 5 -3.9084 5.9357 7.5307 -4.8927 55.0319 -8.4818
# 6 -13.2567 6.2373 -4.7544 -13.8820 -8.4818 39.4066
#
#
#
# Elastic Compliance Matrix: (Units=1/GPa)
#
#
# Indices 1 2 3 4 5 6 
#
# 1 0.007052 -0.000328 -0.003169 -0.001375 0.001125 0.001800
# 2 -0.000328 0.007676 -0.001758 -0.003055 -0.001329 -0.002900
# 3 -0.003169 -0.001758 0.016057 0.008012 -0.000939 0.003770
# 4 -0.001375 -0.003055 0.008012 0.029449 0.003625 0.012142
# 5 0.001125 -0.001329 -0.000939 0.003625 0.019771 0.006008
# 6 0.001800 -0.002900 0.003770 0.012142 0.006008 0.032466
#
#
# Mechanical properties :
#
#
# Convention : Reuss Voigt Hill
#
# Bulk Modulus (GPa) = 49.32644 55.22056 52.27350
# Shear Modulus (GPa) = 38.53798 49.94391 44.24095
#
# Velocity S-wave (km/s) = 3.76407 4.28504 4.03298
# Velocity P-wave (km/s) = 6.08486 6.69205 6.39566
#
# Compressibility (1/GPa) = 0.02027310
#
# Stress axis : x y z
#
# Youngs Moduli (GPa) = 141.81377 130.26909 62.27703
#
# Poissons Ratio (x) = 0.04277 0.19737
# Poissons Ratio (y) = 0.04656 0.10951
# Poissons Ratio (z) = 0.44944 0.22908
#
# Static dielectric constant tensor:
#      x y z
#    x 2.044430 0.007450 0.052920 
#    y 0.007450 2.038590 -0.015980 
#    z 0.052920 -0.015980 2.340750 
# 
# From -- ./inp_files/180963.got.cif
#   From: 2010.05.17/outbox.cif.g08.bks.cpg/sg2_91_cif.got.tgz:180963.got - 2010.06.03 11:33:40.
