data_PCOD9068153
_publ_section_title
;
Structure prediction by ZEFSAII (Michael W. Deem and Ramdas Pophale) SiO2 
 PCOD9068153
Probable space group: P -1
;
_chemical_formula_sum "Si O2"
_cell_formula_units_Z 12
_cell_length_a 17.839770
_cell_length_b 12.675848
_cell_length_c 7.260923
_cell_angle_alpha 42.501375
_cell_angle_beta 46.284966
_cell_angle_gamma 24.241806
_cell_volume 454.420077
_symmetry_space_group_name_H-M "P -1"
_symmetry_group_IT_number 2
_symmetry_cell_setting 'triclinic'
loop_
_space_group_symop_operation_xyz
x,y,z
-x,-y,-z
loop_
_atom_site_type_symbol
_atom_site_label
_atom_site_fract_x
_atom_site_fract_y
_atom_site_fract_z
Si Si1 0.821077 0.511295 0.698831
Si Si2 0.520081 0.669553 0.865863
Si Si3 0.879426 0.960309 0.931565
Si Si4 0.663353 0.248493 0.411520
Si Si5 0.601758 0.998152 0.699393
Si Si6 0.944115 0.234553 0.481318
O O1 0.760117 0.729668 0.647365
O O2 0.867037 0.452669 0.479156
O O3 0.637618 0.630803 0.857390
O O4 0.006678 0.214994 0.852895
O O5 0.614308 0.385919 0.119783
O O6 0.305674 0.905558 0.961837
O O7 0.525238 0.757457 0.551801
O O8 0.845379 0.189233 0.687017
O O9 0.021349 0.742317 0.808093
O O10 0.500000 0.500000 0.500000
O O11 0.672531 0.051803 0.633539
O O12 0.855160 0.066512 0.398736
O O13 0.500000 0.000000 0.000000
#
# Coordination Sequence:
#
# PCOD9068153 Si02
#       6
#     2   2   2   2   2   2
#     4  12  28  51  77 119 167 208 270 336 402 487
#     4  12  27  51  86 115 159 220 271 326 405 487
#     4  11  26  48  81 123 161 211 271 335 401 484
#     4  12  25  51  86 118 156 216 276 326 403 495
#     4  12  31  50  79 121 166 218 268 338 415 473
#     4  11  26  47  83 124 161 211 270 338 405 477
#
# _framework density 26.407281999999999
#
# number of rings (size 3 to 8) (size 9 to 14) (size 15 to 20)
#    0.000    0.333    3.333    3.500    7.000    2.667 
#    0.000    1.667    0.000    0.000    0.000    0.000 
#    0.000    0.000    0.000    0.000    0.000    0.000 
#
# Total GULP energy -67183.925558 kJ/mol
# GULP energy per Si atom -5598.660463 kJ/mol
# Density = 2.634718 g / cm^3
# Si number density = 26.407282 Si / 1000 Ang^3
#
#
#
# Elastic Constant Matrix: (Units=GPa)
#
#
# Indices 1 2 3 4 5 6 
#
# 1 107.5422 45.3750 38.8885 13.0571 -1.2353 3.7719
# 2 45.3750 120.9532 27.7992 11.2543 -19.0229 12.0089
# 3 38.8885 27.7992 137.6335 18.1520 1.2846 -2.3535
# 4 13.0571 11.2543 18.1520 45.1921 2.5729 -1.9081
# 5 -1.2353 -19.0229 1.2846 2.5729 46.0920 1.9710
# 6 3.7719 12.0089 -2.3535 -1.9081 1.9710 79.8514
#
#
#
# Elastic Compliance Matrix: (Units=1/GPa)
#
#
# Indices 1 2 3 4 5 6 
#
# 1 0.012015 -0.004006 -0.002384 -0.001451 -0.001182 -0.000041
# 2 -0.004006 0.011026 -0.000964 -0.001534 0.004626 -0.001648
# 3 -0.002384 -0.000964 0.008466 -0.002419 -0.000583 0.000464
# 4 -0.001451 -0.001534 -0.002419 0.024049 -0.001983 0.000852
# 5 -0.001182 0.004626 -0.000583 -0.001983 0.023756 -0.001291
# 6 -0.000041 -0.001648 0.000464 0.000852 -0.001291 0.012839
#
#
# Mechanical properties :
#
#
# Convention : Reuss Voigt Hill
#
# Bulk Modulus (GPa) = 59.52845 65.58381 62.55613
# Shear Modulus (GPa) = 44.46009 51.16484 47.81247
#
# Velocity S-wave (km/s) = 4.10766 4.40651 4.25971
# Velocity P-wave (km/s) = 6.71480 7.12595 6.92343
#
# Compressibility (1/GPa) = 0.01679869
#
# Stress axis : x y z
#
# Youngs Moduli (GPa) = 83.22815 90.69286 118.11379
#
# Poissons Ratio (x) = 0.36335 0.28159
# Poissons Ratio (y) = 0.33345 0.11387
# Poissons Ratio (z) = 0.19842 0.08744
#
# Static dielectric constant tensor:
#      x y z
#    x 2.073220 0.049850 0.012230 
#    y 0.049850 2.146360 0.054890 
#    z 0.012230 0.054890 2.125700 
# 
# From -- ./inp_files/471519.got.cif
#   From: 2010.05.17/outbox.cif.g08.bks.cpg/sg2_236_cif.got.tgz:471519.got - 2010.06.03 11:33:40.
