data_PCOD9068133
_publ_section_title
;
Structure prediction by ZEFSAII (Michael W. Deem and Ramdas Pophale) SiO2 
 PCOD9068133
Probable space group: P -1
;
_chemical_formula_sum "Si O2"
_cell_formula_units_Z 15
_cell_length_a 15.620143
_cell_length_b 14.835179
_cell_length_c 5.121373
_cell_angle_alpha 65.806150
_cell_angle_beta 66.288292
_cell_angle_gamma 28.646205
_cell_volume 516.507541
_symmetry_space_group_name_H-M "P -1"
_symmetry_group_IT_number 2
_symmetry_cell_setting 'triclinic'
loop_
_space_group_symop_operation_xyz
x,y,z
-x,-y,-z
loop_
_atom_site_type_symbol
_atom_site_label
_atom_site_fract_x
_atom_site_fract_y
_atom_site_fract_z
Si Si1 0.607899 0.752811 0.677277
Si Si2 0.212443 0.791147 0.033087
Si Si3 0.173339 0.301872 0.876728
Si Si4 0.133989 0.029729 0.181599
Si Si5 0.002206 0.674703 0.340974
Si Si6 0.198972 0.616961 0.549473
Si Si7 0.421999 0.766624 0.528414
Si Si8 0.500000 0.000000 0.000000
O O1 0.658227 0.776974 0.326729
O O2 0.800174 0.530718 0.776130
O O3 0.480530 0.783191 0.679429
O O4 0.535692 0.884446 0.841123
O O5 0.243601 0.648298 0.212012
O O6 0.231232 0.842066 0.204860
O O7 0.343846 0.730255 0.751900
O O8 0.000000 0.000000 0.000000
O O9 0.112821 0.306816 0.677543
O O10 0.294454 0.138618 0.132603
O O11 0.000000 0.500000 0.000000
O O12 0.932948 0.198076 0.337230
O O13 0.263677 0.954719 0.329872
O O14 0.094035 0.140510 0.864962
O O15 0.074489 0.637547 0.585548
O O16 0.393278 0.410522 0.649537
#
# Coordination Sequence:
#
# PCOD9068133 Si02
#       8
#     2   2   2   2   2   2   2   1
#     4  11  28  53  75 115 154 204 260 319 388 457
#     4  12  24  49  74 113 151 200 251 306 381 455
#     4  12  28  50  79 112 152 202 258 324 382 458
#     4  12  26  46  77 108 152 197 247 310 389 444
#     4  11  26  47  78 106 150 198 253 308 383 452
#     4  11  26  48  77 107 153 198 251 316 372 461
#     4  11  28  47  76 113 153 192 255 317 375 460
#     4  12  28  46  80 110 152 198 258 318 382 452
#
# _framework density 29.0412
#
# number of rings (size 3 to 8) (size 9 to 14) (size 15 to 20)
#    0.000    0.533    4.000    1.600    9.333    2.667 
#    0.000    0.000    0.000    0.000    0.000    0.000 
#    0.000    0.000    0.000    0.000    0.000    0.000 
#
# Total GULP energy -83790.407137 kJ/mol
# GULP energy per Si atom -5586.027142 kJ/mol
# Density = 2.897510 g / cm^3
# Si number density = 29.041200 Si / 1000 Ang^3
#
#
#
# Elastic Constant Matrix: (Units=GPa)
#
#
# Indices 1 2 3 4 5 6 
#
# 1 126.1588 24.7939 35.4074 -16.3948 -2.8839 -17.9185
# 2 24.7939 179.1368 0.9335 3.3361 20.0058 -26.4958
# 3 35.4074 0.9335 74.0252 4.2452 18.9867 2.1453
# 4 -16.3948 3.3361 4.2452 32.3735 6.1588 4.4727
# 5 -2.8839 20.0058 18.9867 6.1588 45.2112 -3.6634
# 6 -17.9185 -26.4958 2.1453 4.4727 -3.6634 64.3524
#
#
#
# Elastic Compliance Matrix: (Units=1/GPa)
#
#
# Indices 1 2 3 4 5 6 
#
# 1 0.011345 -0.001689 -0.006764 0.005751 0.003731 0.002502
# 2 -0.001689 0.006508 0.001592 -0.001392 -0.003299 0.002065
# 3 -0.006764 0.001592 0.019290 -0.004149 -0.008841 -0.002086
# 4 0.005751 -0.001392 -0.004149 0.035095 -0.002168 -0.001396
# 5 0.003731 -0.003299 -0.008841 -0.002168 0.027963 0.001718
# 6 0.002502 0.002065 -0.002086 -0.001396 0.001718 0.017351
#
#
# Mechanical properties :
#
#
# Convention : Reuss Voigt Hill
#
# Bulk Modulus (GPa) = 42.69846 55.73226 49.21536
# Shear Modulus (GPa) = 35.95029 49.59983 42.77506
#
# Velocity S-wave (km/s) = 3.52221 4.13717 3.84201
# Velocity P-wave (km/s) = 5.59248 6.48491 6.05516
#
# Compressibility (1/GPa) = 0.02342005
#
# Stress axis : x y z
#
# Youngs Moduli (GPa) = 88.14573 153.66828 51.83952
#
# Poissons Ratio (x) = 0.25950 0.35066
# Poissons Ratio (y) = 0.14885 -0.08252
# Poissons Ratio (z) = 0.59625 -0.24460
#
# Static dielectric constant tensor:
#      x y z
#    x 2.275630 0.164070 -0.161340 
#    y 0.164070 1.415420 0.826800 
#    z -0.161340 0.826800 1.489640 
# 
# From -- ./inp_files/97685.got.cif
#   From: 2010.05.17/outbox.cif.g08.bks.cpg/sg2_49_cif.got.tgz:97685.got - 2010.06.03 11:33:40.
