data_PCOD9068326
_publ_section_title
;
Structure prediction by ZEFSAII (Michael W. Deem and Ramdas Pophale) SiO2 
 PCOD9068326
Probable space group: P -1
;
_chemical_formula_sum "Si O2"
_cell_formula_units_Z 16
_cell_length_a 11.776428
_cell_length_b 6.320100
_cell_length_c 11.273105
_cell_angle_alpha 97.642858
_cell_angle_beta 86.785217
_cell_angle_gamma 56.920625
_cell_volume 688.382175
_symmetry_space_group_name_H-M "P -1"
_symmetry_group_IT_number 2
_symmetry_cell_setting 'triclinic'
loop_
_space_group_symop_operation_xyz
x,y,z
-x,-y,-z
loop_
_atom_site_type_symbol
_atom_site_label
_atom_site_fract_x
_atom_site_fract_y
_atom_site_fract_z
Si Si1 0.032994 0.918150 0.355138
Si Si2 0.426395 0.079684 0.136814
Si Si3 0.884216 0.537286 0.826593
Si Si4 0.344654 0.091708 0.538925
Si Si5 0.681771 0.145127 0.693754
Si Si6 0.567504 0.294167 0.294883
Si Si7 0.212059 0.603330 0.738998
Si Si8 0.018705 0.734899 0.953455
O O1 0.048793 0.649261 0.303440
O O2 0.178172 0.870479 0.305752
O O3 0.000000 0.000000 0.500000
O O4 0.913291 0.146253 0.299916
O O5 0.276066 0.342227 0.150791
O O6 0.519683 0.132551 0.217535
O O7 0.391235 0.892756 0.191885
O O8 0.500000 0.000000 0.000000
O O9 0.903810 0.765962 0.872409
O O10 0.968072 0.368131 0.923030
O O11 0.270296 0.362857 0.629637
O O12 0.500000 0.000000 0.500000
O O13 0.284963 0.083801 0.415810
O O14 0.356335 0.872021 0.605278
O O15 0.568416 0.419469 0.661278
O O16 0.675539 0.337720 0.230444
O O17 0.157767 0.552084 0.858040
O O18 0.000000 0.000000 0.000000
#
# Coordination Sequence:
#
# PCOD9068326 Si02
#       8
#     2   2   2   2   2   2   2   2
#     4  12  28  48  77 114 155 201 245 314 385 451
#     4  12  29  45  76 109 148 198 248 311 382 447
#     4  11  27  48  73 107 153 193 255 314 372 445
#     4  12  26  45  75 107 147 196 245 309 372 449
#     4  12  27  51  74 110 155 196 249 314 378 450
#     4  12  26  48  75 106 148 191 255 304 378 444
#     4  12  28  45  76 108 145 198 257 299 378 451
#     4  11  26  49  74 103 144 198 251 312 367 439
#
# _framework density 23.242902000000001
#
# number of rings (size 3 to 8) (size 9 to 14) (size 15 to 20)
#    0.000    0.250    5.000    1.875   12.250    1.000 
#    0.000    0.000    0.000    0.000    0.000    0.000 
#    0.000    0.000    0.000    0.000    0.000    0.000 
#
# Total GULP energy -89452.046597 kJ/mol
# GULP energy per Si atom -5590.752912 kJ/mol
# Density = 2.319000 g / cm^3
# Si number density = 23.242902 Si / 1000 Ang^3
#
#
#
# Elastic Constant Matrix: (Units=GPa)
#
#
# Indices 1 2 3 4 5 6 
#
# 1 123.0588 17.3006 20.8461 3.8651 0.4822 -1.2391
# 2 17.3006 76.6036 26.9092 15.3717 0.4746 -8.6924
# 3 20.8461 26.9092 116.1133 18.5680 -9.4003 6.3793
# 4 3.8651 15.3717 18.5680 37.8875 1.9992 -4.3112
# 5 0.4822 0.4746 -9.4003 1.9992 33.6065 -0.5210
# 6 -1.2391 -8.6924 6.3793 -4.3112 -0.5210 32.6137
#
#
#
# Elastic Compliance Matrix: (Units=1/GPa)
#
#
# Indices 1 2 3 4 5 6 
#
# 1 0.008553 -0.001534 -0.001302 0.000439 -0.000488 0.000221
# 2 -0.001534 0.015783 -0.002985 -0.004273 -0.000717 0.004156
# 3 -0.001302 -0.002985 0.010709 -0.004472 0.003268 -0.003479
# 4 0.000439 -0.004273 -0.004472 0.030862 -0.002974 0.003785
# 5 -0.000488 -0.000717 0.003268 -0.002974 0.030853 -0.000749
# 6 0.000221 0.004156 -0.003479 0.003785 -0.000749 0.032947
#
#
# Mechanical properties :
#
#
# Convention : Reuss Voigt Hill
#
# Bulk Modulus (GPa) = 42.73183 49.54307 46.13745
# Shear Modulus (GPa) = 33.52343 37.53622 35.52982
#
# Velocity S-wave (km/s) = 3.80189 4.02301 3.91401
# Velocity P-wave (km/s) = 6.13981 6.55295 6.34974
#
# Compressibility (1/GPa) = 0.02340176
#
# Stress axis : x y z
#
# Youngs Moduli (GPa) = 116.92122 63.35978 93.38165
#
# Poissons Ratio (x) = 0.09721 0.12156
# Poissons Ratio (y) = 0.17939 0.27877
# Poissons Ratio (z) = 0.15220 0.18915
#
# Static dielectric constant tensor:
#      x y z
#    x 2.015210 0.116510 -0.029270 
#    y 0.116510 1.990050 -0.038850 
#    z -0.029270 -0.038850 1.885920 
# 
# From -- ./inp_files/410812.got.cif
#   From: 2010.05.17/outbox.cif.g08.bks.cpg/sg2_206_cif.got.tgz:410812.got - 2010.06.03 11:33:40.
