data_PCOD9068264
_publ_section_title
;
Structure prediction by ZEFSAII (Michael W. Deem and Ramdas Pophale) SiO2 
 PCOD9068264
Probable space group: P -1
;
_chemical_formula_sum "Si O2"
_cell_formula_units_Z 16
_cell_length_a 13.702112
_cell_length_b 13.980812
_cell_length_c 5.774592
_cell_angle_alpha 49.143749
_cell_angle_beta 98.705574
_cell_angle_gamma 124.775354
_cell_volume 641.984323
_symmetry_space_group_name_H-M "P -1"
_symmetry_group_IT_number 2
_symmetry_cell_setting 'triclinic'
loop_
_space_group_symop_operation_xyz
x,y,z
-x,-y,-z
loop_
_atom_site_type_symbol
_atom_site_label
_atom_site_fract_x
_atom_site_fract_y
_atom_site_fract_z
Si Si1 0.293439 0.793276 0.180325
Si Si2 0.092828 0.494018 0.879978
Si Si3 0.975568 0.852745 0.081690
Si Si4 0.138203 0.852077 0.829449
Si Si5 0.543943 0.697137 0.963557
Si Si6 0.250469 0.414666 0.295768
Si Si7 0.787807 0.810425 0.741340
Si Si8 0.460729 0.167596 0.769700
O O1 0.162722 0.640960 0.489927
O O2 0.394119 0.762499 0.248286
O O3 0.240611 0.823250 0.887848
O O4 0.371525 0.970789 0.045037
O O5 0.211727 0.510221 0.994490
O O6 0.000000 0.500000 0.000000
O O7 0.994469 0.309489 0.047374
O O8 0.861115 0.675040 0.414578
O O9 0.911822 0.849400 0.829699
O O10 0.101456 0.874004 0.040678
O O11 0.000000 0.000000 0.000000
O O12 0.192196 0.024428 0.472387
O O13 0.650004 0.672988 0.020478
O O14 0.548764 0.771767 0.587217
O O15 0.399203 0.538167 0.195690
O O16 0.574463 0.789109 0.074464
O O17 0.224993 0.261216 0.399932
#
# Coordination Sequence:
#
# PCOD9068264 Si02
#       8
#     2   2   2   2   2   2   2   2
#     4  11  26  48  78 108 158 199 266 315 397 455
#     4  12  27  45  75 113 156 203 257 321 389 466
#     4  12  26  45  75 110 153 201 251 314 385 470
#     4  12  25  47  75 112 153 201 255 318 390 469
#     4  12  29  50  83 111 157 200 269 325 390 455
#     4  12  27  50  75 110 155 200 259 321 388 460
#     4  12  27  50  76 110 154 203 259 318 388 461
#     4  11  28  52  79 113 151 211 258 331 381 466
#
# _framework density 24.922729
#
# number of rings (size 3 to 8) (size 9 to 14) (size 15 to 20)
#    0.000    0.250    5.000    2.625   10.500    2.500 
#    0.000    0.000    0.000    0.000    0.000    0.000 
#    0.000    0.000    0.000    0.000    0.000    0.000 
#
# Total GULP energy -89267.365071 kJ/mol
# GULP energy per Si atom -5579.210317 kJ/mol
# Density = 2.486600 g / cm^3
# Si number density = 24.922729 Si / 1000 Ang^3
#
#
#
# Elastic Constant Matrix: (Units=GPa)
#
#
# Indices 1 2 3 4 5 6 
#
# 1 118.9431 18.4499 11.1597 5.2819 -9.6427 9.8037
# 2 18.4499 81.8369 13.1553 -8.1550 -8.4858 -4.9138
# 3 11.1597 13.1553 80.0662 -0.5189 6.1997 -9.1817
# 4 5.2819 -8.1550 -0.5189 27.2027 -1.4377 -6.4267
# 5 -9.6427 -8.4858 6.1997 -1.4377 34.6060 0.1937
# 6 9.8037 -4.9138 -9.1817 -6.4267 0.1937 36.0889
#
#
#
# Elastic Compliance Matrix: (Units=1/GPa)
#
#
# Indices 1 2 3 4 5 6 
#
# 1 0.009563 -0.002229 -0.001616 -0.003362 0.002290 -0.003923
# 2 -0.002229 0.014107 -0.001889 0.005516 0.003389 0.003010
# 3 -0.001616 -0.001889 0.013729 0.000735 -0.003364 0.003824
# 4 -0.003362 0.005516 0.000735 0.041360 0.001951 0.009206
# 5 0.002290 0.003389 -0.003364 0.001951 0.031054 -0.000836
# 6 -0.003923 0.003010 0.003824 0.009206 -0.000836 0.031802
#
#
# Mechanical properties :
#
#
# Convention : Reuss Voigt Hill
#
# Bulk Modulus (GPa) = 38.56234 40.70844 39.63539
# Shear Modulus (GPa) = 30.91645 35.45161 33.18403
#
# Velocity S-wave (km/s) = 3.52588 3.77564 3.65290
# Velocity P-wave (km/s) = 5.66411 5.94783 5.80770
#
# Compressibility (1/GPa) = 0.02593204
#
# Stress axis : x y z
#
# Youngs Moduli (GPa) = 104.56871 70.88445 72.83927
#
# Poissons Ratio (x) = 0.15803 0.11768
# Poissons Ratio (y) = 0.23313 0.13757
# Poissons Ratio (z) = 0.16894 0.13388
#
# Static dielectric constant tensor:
#      x y z
#    x 1.985140 -0.026400 0.119410 
#    y -0.026400 2.026290 0.041580 
#    z 0.119410 0.041580 2.256540 
# 
# From -- ./inp_files/97502.got.cif
#   From: 2010.05.17/outbox.cif.g08.bks.cpg/sg2_49_cif.got.tgz:97502.got - 2010.06.03 11:33:40.
