data_PCOD9068335
_publ_section_title
;
Structure prediction by ZEFSAII (Michael W. Deem and Ramdas Pophale) SiO2 
 PCOD9068335
Probable space group: P -1
;
_chemical_formula_sum "Si O2"
_cell_formula_units_Z 15
_cell_length_a 11.380947
_cell_length_b 10.285239
_cell_length_c 14.857733
_cell_angle_alpha 130.638412
_cell_angle_beta 41.865279
_cell_angle_gamma 146.683848
_cell_volume 635.530841
_symmetry_space_group_name_H-M "P -1"
_symmetry_group_IT_number 2
_symmetry_cell_setting 'triclinic'
loop_
_space_group_symop_operation_xyz
x,y,z
-x,-y,-z
loop_
_atom_site_type_symbol
_atom_site_label
_atom_site_fract_x
_atom_site_fract_y
_atom_site_fract_z
Si Si1 0.245805 0.620508 0.787240
Si Si2 0.962340 0.955272 0.238373
Si Si3 0.500000 0.500000 0.500000
Si Si4 0.442524 0.325897 0.030381
Si Si5 0.605616 0.123128 0.729928
Si Si6 0.888697 0.707050 0.530661
Si Si7 0.542978 0.219305 0.611625
Si Si8 0.208366 0.503237 0.939998
O O1 0.287284 0.457498 0.657003
O O2 0.333798 0.693802 0.874180
O O3 0.410063 0.837701 0.721191
O O4 0.974812 0.512363 0.900448
O O5 0.163509 0.149790 0.139018
O O6 0.028604 0.085902 0.354991
O O7 0.699742 0.847016 0.310373
O O8 0.953221 0.745357 0.133428
O O9 0.685187 0.633944 0.544155
O O10 0.598018 0.459070 0.091401
O O11 0.500000 0.500000 0.000000
O O12 0.526636 0.197968 0.887790
O O13 0.578682 0.214664 0.695221
O O14 0.870723 0.212606 0.617098
O O15 0.766671 0.472617 0.553910
O O16 0.500000 0.000000 0.500000
#
# Coordination Sequence:
#
# PCOD9068335 Si02
#       8
#     2   2   1   2   2   2   2   2
#     4  11  26  49  75 105 148 199 247 316 366 448
#     4  12  25  49  77 108 152 201 246 304 382 447
#     4  12  26  50  74 106 148 188 258 302 366 438
#     4  12  27  45  76 112 150 194 254 309 373 451
#     4  12  26  48  77 115 148 193 256 313 373 442
#     4  12  28  50  75 112 151 198 248 313 375 452
#     4  12  26  47  78 110 156 197 246 309 381 443
#     4  11  26  52  72 105 155 200 246 304 384 443
#
# _framework density 23.602315999999998
#
# number of rings (size 3 to 8) (size 9 to 14) (size 15 to 20)
#    0.000    0.267    2.667    6.000    5.600    2.133 
#    9.600    0.000    0.000    0.000    0.000    0.000 
#    0.000    0.000    0.000    0.000    0.000    0.000 
#
# Total GULP energy -83691.622347 kJ/mol
# GULP energy per Si atom -5579.441490 kJ/mol
# Density = 2.354860 g / cm^3
# Si number density = 23.602316 Si / 1000 Ang^3
#
#
#
# Elastic Constant Matrix: (Units=GPa)
#
#
# Indices 1 2 3 4 5 6 
#
# 1 60.9813 -9.0043 -20.6685 -2.8650 -4.3232 12.9917
# 2 -9.0043 38.8102 17.0728 -6.0013 -1.4051 -2.5048
# 3 -20.6685 17.0728 131.6574 -9.2070 -19.4497 3.0923
# 4 -2.8650 -6.0013 -9.2070 42.2361 6.1695 12.2602
# 5 -4.3232 -1.4051 -19.4497 6.1695 30.9860 -5.2401
# 6 12.9917 -2.5048 3.0923 12.2602 -5.2401 28.7103
#
#
#
# Elastic Compliance Matrix: (Units=1/GPa)
#
#
# Indices 1 2 3 4 5 6 
#
# 1 0.021186 0.003420 0.003925 0.005839 0.002423 -0.011762
# 2 0.003420 0.028416 -0.003007 0.003939 -0.001009 -0.000611
# 3 0.003925 -0.003007 0.009631 0.001965 0.005575 -0.002897
# 4 0.005839 0.003939 0.001965 0.030987 -0.006816 -0.016987
# 5 0.002423 -0.001009 0.005575 -0.006816 0.038810 0.008209
# 6 -0.011762 -0.000611 -0.002897 -0.016987 0.008209 0.049164
#
#
# Mechanical properties :
#
#
# Convention : Reuss Voigt Hill
#
# Bulk Modulus (GPa) = 14.72580 22.91654 18.82117
# Shear Modulus (GPa) = 26.02087 36.65642 31.33864
#
# Velocity S-wave (km/s) = 3.32395 3.94520 3.64782
# Velocity P-wave (km/s) = 4.58085 5.52117 5.07284
#
# Compressibility (1/GPa) = 0.06790804
#
# Stress axis : x y z
#
# Youngs Moduli (GPa) = 47.20148 35.19153 103.83491
#
# Poissons Ratio (x) = -0.12036 -0.40754
# Poissons Ratio (y) = -0.16144 0.31226
# Poissons Ratio (z) = -0.18526 0.10583
#
# Static dielectric constant tensor:
#      x y z
#    x 1.890900 -0.057050 0.023950 
#    y -0.057050 1.932510 0.050850 
#    z 0.023950 0.050850 1.903210 
# 
# From -- ./inp_files/519112.got.cif
#   From: 2010.05.17/outbox.cif.g08.bks.cpg/sg2_260_cif.got.tgz:519112.got - 2010.06.03 11:33:40.
