data_PCOD9068304
_publ_section_title
;
Structure prediction by ZEFSAII (Michael W. Deem and Ramdas Pophale) SiO2 
 PCOD9068304
Probable space group: P -1
;
_chemical_formula_sum "Si O2"
_cell_formula_units_Z 12
_cell_length_a 6.813197
_cell_length_b 15.523008
_cell_length_c 13.601300
_cell_angle_alpha 27.424705
_cell_angle_beta 62.278489
_cell_angle_gamma 71.635422
_cell_volume 569.361243
_symmetry_space_group_name_H-M "P -1"
_symmetry_group_IT_number 2
_symmetry_cell_setting 'triclinic'
loop_
_space_group_symop_operation_xyz
x,y,z
-x,-y,-z
loop_
_atom_site_type_symbol
_atom_site_label
_atom_site_fract_x
_atom_site_fract_y
_atom_site_fract_z
Si Si1 0.434791 0.419829 0.487478
Si Si2 0.486571 0.204545 0.009602
Si Si3 0.124696 0.436292 0.129781
Si Si4 0.060892 0.800930 0.212610
Si Si5 0.780230 0.177891 0.623177
Si Si6 0.507595 0.200668 0.238657
O O1 0.500000 0.500000 0.500000
O O2 0.540822 0.238599 0.628054
O O3 0.163667 0.360515 0.599640
O O4 0.547556 0.583109 0.217368
O O5 0.523309 0.167617 0.152105
O O6 0.281065 0.040127 0.180468
O O7 0.714174 0.207826 0.890882
O O8 0.287453 0.291083 0.214275
O O9 0.939847 0.320487 0.366506
O O10 0.281161 0.630415 0.944264
O O11 0.000000 0.500000 0.000000
O O12 0.108176 0.797809 0.320461
O O13 0.000000 0.000000 0.000000
O O14 0.500000 0.000000 0.500000
#
# Coordination Sequence:
#
# PCOD9068304 Si02
#       6
#     2   2   2   2   2   2
#     4  12  25  43  67 101 138 178 227 270 339 407
#     4  12  25  45  70 101 138 179 227 278 339 406
#     4  11  26  49  71 100 139 178 233 288 341 404
#     4  12  25  44  68 101 142 178 220 280 340 401
#     4  12  26  45  70 101 139 179 224 282 336 405
#     4  11  27  47  72 102 135 182 233 285 343 405
#
# _framework density 21.076250000000002
#
# number of rings (size 3 to 8) (size 9 to 14) (size 15 to 20)
#    0.000    0.333    3.333    5.000    4.667    6.667 
#    0.000    0.000    0.000    0.000    0.000    0.000 
#    0.000    0.000    0.000    0.000    0.000    0.000 
#
# Total GULP energy -67182.345869 kJ/mol
# GULP energy per Si atom -5598.528822 kJ/mol
# Density = 2.102828 g / cm^3
# Si number density = 21.076250 Si / 1000 Ang^3
#
#
#
# Elastic Constant Matrix: (Units=GPa)
#
#
# Indices 1 2 3 4 5 6 
#
# 1 124.7674 50.5191 58.2076 9.3898 -9.0458 27.7590
# 2 50.5191 103.2342 57.8396 19.5291 -8.6258 35.5787
# 3 58.2076 57.8396 155.6115 9.1565 0.8660 23.0727
# 4 9.3898 19.5291 9.1565 49.9032 4.0281 9.2289
# 5 -9.0458 -8.6258 0.8660 4.0281 43.4990 -0.0137
# 6 27.7590 35.5787 23.0727 9.2289 -0.0137 40.2324
#
#
#
# Elastic Compliance Matrix: (Units=1/GPa)
#
#
# Indices 1 2 3 4 5 6 
#
# 1 0.011329 -0.002427 -0.002736 -0.000081 0.001935 -0.004082
# 2 -0.002427 0.017913 -0.003900 -0.004088 0.003500 -0.010991
# 3 -0.002736 -0.003900 0.008857 0.000517 -0.001566 0.000138
# 4 -0.000081 -0.004088 0.000517 0.022106 -0.002885 -0.001697
# 5 0.001935 0.003500 -0.001566 -0.002885 0.024383 -0.002862
# 6 -0.004082 -0.010991 0.000138 -0.001697 -0.002862 0.037701
#
#
# Mechanical properties :
#
#
# Convention : Reuss Voigt Hill
#
# Bulk Modulus (GPa) = 50.06751 79.63840 64.85296
# Shear Modulus (GPa) = 33.99702 41.19671 37.59687
#
# Velocity S-wave (km/s) = 4.02063 4.42594 4.22815
# Velocity P-wave (km/s) = 6.73506 7.99915 7.39417
#
# Compressibility (1/GPa) = 0.01997303
#
# Stress axis : x y z
#
# Youngs Moduli (GPa) = 88.27133 55.82542 112.90419
#
# Poissons Ratio (x) = 0.13549 0.30894
# Poissons Ratio (y) = 0.21424 0.44027
# Poissons Ratio (z) = 0.24153 0.21769
#
# Static dielectric constant tensor:
#      x y z
#    x 1.768340 0.025600 -0.045550 
#    y 0.025600 1.868540 -0.188090 
#    z -0.045550 -0.188090 1.933950 
# 
# From -- ./inp_files/22038.got.cif
#   From: 2010.05.17/outbox.cif.g08.bks.cpg/sg2_12_cif.got.tgz:22038.got - 2010.06.03 11:33:40.
