data_PCOD9068084
_publ_section_title
;
Structure prediction by ZEFSAII (Michael W. Deem and Ramdas Pophale) SiO2 
 PCOD9068084
Probable space group: P -1
;
_chemical_formula_sum "Si O2"
_cell_formula_units_Z 13
_cell_length_a 8.988371
_cell_length_b 9.902699
_cell_length_c 8.508366
_cell_angle_alpha 74.769206
_cell_angle_beta 49.099817
_cell_angle_gamma 85.145988
_cell_volume 548.337522
_symmetry_space_group_name_H-M "P -1"
_symmetry_group_IT_number 2
_symmetry_cell_setting 'triclinic'
loop_
_space_group_symop_operation_xyz
x,y,z
-x,-y,-z
loop_
_atom_site_type_symbol
_atom_site_label
_atom_site_fract_x
_atom_site_fract_y
_atom_site_fract_z
Si Si1 0.608203 0.488910 0.094888
Si Si2 0.898655 0.868273 0.705090
Si Si3 0.500000 0.000000 0.000000
Si Si4 0.582159 0.274758 0.673904
Si Si5 0.477418 0.192503 0.422316
Si Si6 0.156623 0.957736 0.779095
Si Si7 0.009075 0.423989 0.350326
O O1 0.568515 0.623997 0.182595
O O2 0.505364 0.347896 0.289095
O O3 0.500000 0.500000 0.000000
O O4 0.840902 0.484734 0.899317
O O5 0.893557 0.721975 0.662205
O O6 0.000000 0.000000 0.500000
O O7 0.034053 0.857714 0.769480
O O8 0.687925 0.911160 0.885779
O O9 0.371175 0.852394 0.206377
O O10 0.502614 0.203034 0.589430
O O11 0.783861 0.378155 0.468683
O O12 0.272323 0.093825 0.568916
O O13 0.660184 0.114768 0.253158
O O14 0.000000 0.000000 0.000000
O O15 0.000000 0.500000 0.500000
#
# Coordination Sequence:
#
# PCOD9068084 Si02
#       7
#     2   2   1   2   2   2   2
#     4  12  28  45  73 104 151 202 250 307 379 452
#     4  12  25  45  76 108 147 192 251 313 369 443
#     4  12  24  42  82 108 144 188 256 306 382 434
#     4  12  25  47  73 110 148 198 248 313 376 449
#     4  11  27  49  71 109 152 197 253 308 376 454
#     4  11  26  47  75 109 147 194 251 312 379 440
#     4  12  26  47  71 110 151 194 256 305 381 453
#
# _framework density 23.708024000000002
#
# number of rings (size 3 to 8) (size 9 to 14) (size 15 to 20)
#    0.000    0.308    6.154    1.385    2.154    8.000 
#    0.000    0.000    0.000    0.000    0.000    0.000 
#    0.000    0.000    0.000    0.000    0.000    0.000 
#
# Total GULP energy -72556.215801 kJ/mol
# GULP energy per Si atom -5581.247369 kJ/mol
# Density = 2.365406 g / cm^3
# Si number density = 23.708024 Si / 1000 Ang^3
#
#
#
# Elastic Constant Matrix: (Units=GPa)
#
#
# Indices 1 2 3 4 5 6 
#
# 1 57.5143 31.9965 25.7985 16.7182 -21.7973 13.2519
# 2 31.9965 162.4217 54.8924 3.2046 -2.3786 4.9477
# 3 25.7985 54.8924 104.0544 10.7286 -36.9344 -6.4439
# 4 16.7182 3.2046 10.7286 57.3345 -9.1285 3.1319
# 5 -21.7973 -2.3786 -36.9344 -9.1285 34.8929 0.1389
# 6 13.2519 4.9477 -6.4439 3.1319 0.1389 33.4844
#
#
#
# Elastic Compliance Matrix: (Units=1/GPa)
#
#
# Indices 1 2 3 4 5 6 
#
# 1 0.031724 -0.006519 0.002988 -0.005501 0.021139 -0.010590
# 2 -0.006519 0.009889 -0.007758 0.001017 -0.011342 -0.000422
# 3 0.002988 -0.007758 0.021943 -0.000901 0.024312 0.004170
# 4 -0.005501 0.001017 -0.000901 0.019269 0.000721 0.000048
# 5 0.021139 -0.011342 0.024312 0.000721 0.067024 -0.002357
# 6 -0.010590 -0.000422 0.004170 0.000048 -0.002357 0.034926
#
#
# Mechanical properties :
#
#
# Convention : Reuss Voigt Hill
#
# Bulk Modulus (GPa) = 24.40228 61.04059 42.72143
# Shear Modulus (GPa) = 22.62325 39.22920 30.92623
#
# Velocity S-wave (km/s) = 3.09244 4.07219 3.61565
# Velocity P-wave (km/s) = 4.80271 6.92192 5.95731
#
# Compressibility (1/GPa) = 0.04097978
#
# Stress axis : x y z
#
# Youngs Moduli (GPa) = 31.52216 101.11740 45.57321
#
# Poissons Ratio (x) = 0.65915 -0.13619
# Poissons Ratio (y) = 0.20548 0.35354
# Poissons Ratio (z) = -0.09420 0.78444
#
# Static dielectric constant tensor:
#      x y z
#    x 1.956730 0.020090 0.022240 
#    y 0.020090 1.864340 0.019210 
#    z 0.022240 0.019210 1.971610 
# 
# From -- ./inp_files/157068.got.cif
#   From: 2010.05.17/outbox.cif.g08.bks.cpg/sg2_79_cif.got.tgz:157068.got - 2010.06.03 11:33:40.
