data_PCOD9068217
_publ_section_title
;
Structure prediction by ZEFSAII (Michael W. Deem and Ramdas Pophale) SiO2 
 PCOD9068217
Probable space group: P -1
;
_chemical_formula_sum "Si O2"
_cell_formula_units_Z 14
_cell_length_a 5.229515
_cell_length_b 14.486351
_cell_length_c 11.802495
_cell_angle_alpha 56.650534
_cell_angle_beta 120.617901
_cell_angle_gamma 113.215153
_cell_volume 634.595266
_symmetry_space_group_name_H-M "P -1"
_symmetry_group_IT_number 2
_symmetry_cell_setting 'triclinic'
loop_
_space_group_symop_operation_xyz
x,y,z
-x,-y,-z
loop_
_atom_site_type_symbol
_atom_site_label
_atom_site_fract_x
_atom_site_fract_y
_atom_site_fract_z
Si Si1 0.197733 0.395913 0.378140
Si Si2 0.197920 0.214544 0.850333
Si Si3 0.329334 0.049040 0.590577
Si Si4 0.478765 0.721941 0.654678
Si Si5 0.679696 0.351454 0.705433
Si Si6 0.702647 0.847910 0.830601
Si Si7 0.238493 0.023659 0.840950
O O1 0.316840 0.353794 0.315230
O O2 0.448529 0.371353 0.541148
O O3 0.195146 0.528275 0.293390
O O4 0.871243 0.331068 0.383619
O O5 0.483466 0.273493 0.804760
O O6 0.064815 0.103730 0.823727
O O7 0.949233 0.293908 0.756422
O O8 0.303679 0.182150 0.019214
O O9 0.469379 0.157925 0.478210
O O10 0.320063 0.080381 0.700321
O O11 0.513470 0.946579 0.694411
O O12 0.000000 0.000000 0.500000
O O13 0.593831 0.746308 0.791856
O O14 0.042744 0.905745 0.845336
O O15 0.500000 0.000000 0.000000
#
# Coordination Sequence:
#
# PCOD9068217 Si02
#       7
#     2   2   2   2   2   2   2
#     4  11  26  48  75 106 138 182 250 311 361 427
#     4  12  26  45  74 103 144 196 233 298 377 418
#     4  12  26  45  69 104 151 194 239 293 360 437
#     4  12  26  45  74 103 144 196 233 298 377 418
#     4  11  26  48  75 106 138 182 250 311 361 427
#     4  12  28  44  65 108 151 184 242 298 346 462
#     4  12  26  45  69 104 151 194 239 293 360 437
#
# _framework density 22.061305000000001
#
# number of rings (size 3 to 8) (size 9 to 14) (size 15 to 20)
#    0.000    0.286    2.857    5.143    8.000    2.286 
#    0.000    4.286    0.000    0.000    0.000    0.000 
#    0.000    0.000    0.000    0.000    0.000    0.000 
#
# Total GULP energy -78471.834272 kJ/mol
# GULP energy per Si atom -5605.131019 kJ/mol
# Density = 2.201109 g / cm^3
# Si number density = 22.061305 Si / 1000 Ang^3
#
#
#
# Elastic Constant Matrix: (Units=GPa)
#
#
# Indices 1 2 3 4 5 6 
#
# 1 110.8983 54.2830 18.2950 11.3893 8.6771 -14.5496
# 2 54.2830 130.1700 19.8889 10.8303 7.1961 -6.1424
# 3 18.2950 19.8889 55.9025 17.9575 -0.8270 -0.5447
# 4 11.3893 10.8303 17.9575 28.6725 -8.9970 4.0680
# 5 8.6771 7.1961 -0.8270 -8.9970 46.3077 4.5124
# 6 -14.5496 -6.1424 -0.5447 4.0680 4.5124 47.2109
#
#
#
# Elastic Compliance Matrix: (Units=1/GPa)
#
#
# Indices 1 2 3 4 5 6 
#
# 1 0.012493 -0.004345 -0.001273 -0.003965 -0.002837 0.003883
# 2 -0.004345 0.009926 -0.001707 -0.001296 -0.001024 0.000142
# 3 -0.001273 -0.001707 0.023499 -0.014338 -0.001967 0.001080
# 4 -0.003965 -0.001296 -0.014338 0.050411 0.011161 -0.006967
# 5 -0.002837 -0.001024 -0.001967 0.011161 0.024844 -0.004367
# 6 0.003883 0.000142 0.001080 -0.006967 -0.004367 0.023427
#
#
# Mechanical properties :
#
#
# Convention : Reuss Voigt Hill
#
# Bulk Modulus (GPa) = 31.98168 53.54496 42.76332
# Shear Modulus (GPa) = 29.46826 38.07183 33.77005
#
# Velocity S-wave (km/s) = 3.65875 4.15870 3.91671
# Velocity P-wave (km/s) = 5.69006 6.88356 6.31507
#
# Compressibility (1/GPa) = 0.03126790
#
# Stress axis : x y z
#
# Youngs Moduli (GPa) = 80.04598 100.74270 42.55443
#
# Poissons Ratio (x) = 0.43775 0.05417
# Poissons Ratio (y) = 0.34782 0.07264
# Poissons Ratio (z) = 0.10190 0.17197
#
# Static dielectric constant tensor:
#      x y z
#    x 1.837650 -0.006260 0.003610 
#    y -0.006260 1.815950 0.000500 
#    z 0.003610 0.000500 1.791600 
# 
# From -- ./inp_files/367557.got.cif
#   From: 2010.05.17/outbox.cif.g08.bks.cpg/sg2_184_cif.got.tgz:367557.got - 2010.06.03 11:33:40.
