data_PCOD9068195
_publ_section_title
;
Structure prediction by ZEFSAII (Michael W. Deem and Ramdas Pophale) SiO2 
 PCOD9068195
Probable space group: P -1
;
_chemical_formula_sum "Si O2"
_cell_formula_units_Z 13
_cell_length_a 8.457140
_cell_length_b 8.288101
_cell_length_c 11.408013
_cell_angle_alpha 48.437629
_cell_angle_beta 60.532151
_cell_angle_gamma 74.364008
_cell_volume 518.920611
_symmetry_space_group_name_H-M "P -1"
_symmetry_group_IT_number 2
_symmetry_cell_setting 'triclinic'
loop_
_space_group_symop_operation_xyz
x,y,z
-x,-y,-z
loop_
_atom_site_type_symbol
_atom_site_label
_atom_site_fract_x
_atom_site_fract_y
_atom_site_fract_z
Si Si1 0.468105 0.318420 0.195593
Si Si2 0.993215 0.025490 0.130265
Si Si3 0.608934 0.859194 0.307019
Si Si4 0.042171 0.255171 0.353929
Si Si5 0.840424 0.320823 0.615510
Si Si6 0.000000 0.500000 0.000000
Si Si7 0.551458 0.527118 0.297825
O O1 0.249742 0.298964 0.306987
O O2 0.597781 0.416528 0.209871
O O3 0.522909 0.089765 0.233254
O O4 0.500000 0.500000 0.000000
O O5 0.999212 0.274855 0.036696
O O6 0.794095 0.906278 0.289210
O O7 0.130232 0.898610 0.219398
O O8 0.000000 0.000000 0.000000
O O9 0.648436 0.737702 0.227723
O O10 0.479887 0.678390 0.507336
O O11 0.877480 0.320356 0.463972
O O12 0.029637 0.362741 0.180573
O O13 0.000000 0.000000 0.500000
O O14 0.646039 0.388287 0.689163
O O15 0.000000 0.500000 0.500000
#
# Coordination Sequence:
#
# PCOD9068195 Si02
#       7
#     2   2   2   2   2   1   2
#     4  12  27  48  74 110 157 197 250 315 388 462
#     4  12  27  47  76 113 156 195 259 320 375 457
#     4  11  26  48  73 110 146 200 249 311 380 460
#     4  12  25  49  76 112 151 201 258 316 380 454
#     4  12  22  47  80 105 149 203 255 314 380 451
#     4  12  28  46  78 118 150 198 258 318 384 446
#     4  11  26  49  77 107 148 201 250 310 385 455
#
# _framework density 25.051998999999999
#
# number of rings (size 3 to 8) (size 9 to 14) (size 15 to 20)
#    0.000    0.308    4.615    3.231    2.154    3.077 
#    8.308    0.000    0.000    0.000    0.000    0.000 
#    0.000    0.000    0.000    0.000    0.000    0.000 
#
# Total GULP energy -72454.783438 kJ/mol
# GULP energy per Si atom -5573.444880 kJ/mol
# Density = 2.499498 g / cm^3
# Si number density = 25.051999 Si / 1000 Ang^3
#
#
#
# Elastic Constant Matrix: (Units=GPa)
#
#
# Indices 1 2 3 4 5 6 
#
# 1 76.8528 41.1249 31.8426 -23.5934 15.5852 -0.7206
# 2 41.1249 207.4155 77.9651 -33.0326 11.6203 31.7851
# 3 31.8426 77.9651 131.7487 -27.9779 26.4799 7.0328
# 4 -23.5934 -33.0326 -27.9779 58.1534 2.0084 6.3198
# 5 15.5852 11.6203 26.4799 2.0084 23.3851 1.8905
# 6 -0.7206 31.7851 7.0328 6.3198 1.8905 45.6778
#
#
#
# Elastic Compliance Matrix: (Units=1/GPa)
#
#
# Indices 1 2 3 4 5 6 
#
# 1 0.018725 -0.002449 0.000947 0.006956 -0.013048 0.001431
# 2 -0.002449 0.007701 -0.003689 0.002096 0.002224 -0.005212
# 3 0.000947 -0.003689 0.013602 0.005300 -0.014685 0.000362
# 4 0.006956 0.002096 0.005300 0.024769 -0.013399 -0.005037
# 5 -0.013048 0.002224 -0.014685 -0.013399 0.068169 -0.000460
# 6 0.001431 -0.005212 0.000362 -0.005037 -0.000460 0.026202
#
#
# Mechanical properties :
#
#
# Convention : Reuss Voigt Hill
#
# Bulk Modulus (GPa) = 33.73172 79.76469 56.74821
# Shear Modulus (GPa) = 27.86554 43.11558 35.49056
#
# Velocity S-wave (km/s) = 3.33875 4.15305 3.76796
# Velocity P-wave (km/s) = 5.32512 7.40985 6.45224
#
# Compressibility (1/GPa) = 0.02964568
#
# Stress axis : x y z
#
# Youngs Moduli (GPa) = 53.40417 129.84670 73.51687
#
# Poissons Ratio (x) = 0.31801 -0.06961
# Poissons Ratio (y) = 0.13079 0.27123
# Poissons Ratio (z) = -0.05057 0.47906
#
# Static dielectric constant tensor:
#      x y z
#    x 2.377640 -0.198890 -0.283310 
#    y -0.198890 2.108200 0.187600 
#    z -0.283310 0.187600 2.095420 
# 
# From -- ./inp_files/183552.got.cif
#   From: 2010.05.17/outbox.cif.g08.bks.cpg/sg2_92_cif.got.tgz:183552.got - 2010.06.03 11:33:40.
