data_PCOD9068877
_publ_section_title
;
Structure prediction by ZEFSAII (Michael W. Deem and Ramdas Pophale) SiO2 
 PCOD9068877
Probable space group: P -1
;
_chemical_formula_sum "Si O2"
_cell_formula_units_Z 16
_cell_length_a 12.599660
_cell_length_b 14.726124
_cell_length_c 10.534637
_cell_angle_alpha 47.117712
_cell_angle_beta 36.247358
_cell_angle_gamma 67.122792
_cell_volume 786.965528
_symmetry_space_group_name_H-M "P -1"
_symmetry_group_IT_number 2
_symmetry_cell_setting 'triclinic'
loop_
_space_group_symop_operation_xyz
x,y,z
-x,-y,-z
loop_
_atom_site_type_symbol
_atom_site_label
_atom_site_fract_x
_atom_site_fract_y
_atom_site_fract_z
Si Si1 0.295238 0.489111 0.263476
Si Si2 0.378160 0.340607 0.793685
Si Si3 0.991854 0.208836 0.888955
Si Si4 0.644969 0.069053 0.178017
Si Si5 0.261539 0.645100 0.919546
Si Si6 0.347090 0.692967 0.228996
Si Si7 0.950162 0.583175 0.856952
Si Si8 0.331040 0.175082 0.738092
O O1 0.146766 0.339884 0.551443
O O2 0.318594 0.554408 0.316944
O O3 0.500000 0.500000 0.000000
O O4 0.218618 0.577072 0.162434
O O5 0.500000 0.500000 0.500000
O O6 0.490655 0.289630 0.839065
O O7 0.351570 0.249294 0.781849
O O8 0.172204 0.334872 0.048264
O O9 0.124738 0.151879 0.896392
O O10 0.852617 0.121536 0.997676
O O11 0.855470 0.256745 0.066808
O O12 0.500000 0.000000 0.500000
O O13 0.637881 0.963558 0.175616
O O14 0.606301 0.190797 0.031609
O O15 0.488958 0.723400 0.611711
O O16 0.184941 0.527802 0.003621
O O17 0.145326 0.671593 0.513135
O O18 0.000000 0.500000 0.000000
#
# Coordination Sequence:
#
# PCOD9068877 Si02
#       8
#     2   2   2   2   2   2   2   2
#     4  12  22  38  68 106 138 167 224 295 361 413
#     4  12  24  44  72 105 136 180 231 293 351 411
#     4  12  23  42  69  98 139 177 226 289 355 407
#     4  12  27  49  70  99 140 193 238 283 342 416
#     4  12  21  39  66 101 137 175 222 287 362 410
#     4  12  25  46  69 102 146 181 229 290 352 414
#     4  12  23  41  69 105 142 177 226 287 356 417
#     4  12  25  45  67  97 138 186 237 280 341 416
#
# _framework density 20.33126
#
# number of rings (size 3 to 8) (size 9 to 14) (size 15 to 20)
#    0.000    0.000    7.500    3.750    0.000    0.500 
#    2.250    0.625    0.000    0.000    0.000    0.000 
#    0.000    0.000    0.000    0.000    0.000    0.000 
#
# Total GULP energy -89468.014974 kJ/mol
# GULP energy per Si atom -5591.750936 kJ/mol
# Density = 2.028498 g / cm^3
# Si number density = 20.331260 Si / 1000 Ang^3
#
#
#
# Elastic Constant Matrix: (Units=GPa)
#
#
# Indices 1 2 3 4 5 6 
#
# 1 113.5243 33.9209 33.9945 -7.7177 -5.6175 3.6348
# 2 33.9209 108.6274 37.8659 11.3704 -8.9807 20.3990
# 3 33.9945 37.8659 103.5820 13.8442 -9.5516 -4.4556
# 4 -7.7177 11.3704 13.8442 36.7994 -6.8327 -3.3247
# 5 -5.6175 -8.9807 -9.5516 -6.8327 28.6142 3.7677
# 6 3.6348 20.3990 -4.4556 -3.3247 3.7677 38.1484
#
#
#
# Elastic Compliance Matrix: (Units=1/GPa)
#
#
# Indices 1 2 3 4 5 6 
#
# 1 0.010915 -0.002789 -0.003038 0.004567 0.001296 0.000367
# 2 -0.002789 0.013411 -0.003603 -0.003597 0.002640 -0.007901
# 3 -0.003038 -0.003603 0.012725 -0.003797 0.001185 0.003254
# 4 0.004567 -0.003597 -0.003797 0.032029 0.005718 0.003271
# 5 0.001296 0.002640 0.001185 0.005718 0.038410 -0.004692
# 6 0.000367 -0.007901 0.003254 0.003271 -0.004692 0.031532
#
#
# Mechanical properties :
#
#
# Convention : Reuss Voigt Hill
#
# Bulk Modulus (GPa) = 54.97157 59.69958 57.33557
# Shear Modulus (GPa) = 30.49815 35.37588 32.93702
#
# Velocity S-wave (km/s) = 3.87727 4.17583 4.02931
# Velocity P-wave (km/s) = 6.86592 7.25791 7.06463
#
# Compressibility (1/GPa) = 0.01819122
#
# Stress axis : x y z
#
# Youngs Moduli (GPa) = 91.62052 74.56501 78.58589
#
# Poissons Ratio (x) = 0.20798 0.23871
# Poissons Ratio (y) = 0.25556 0.28313
# Poissons Ratio (z) = 0.27830 0.26865
#
# Static dielectric constant tensor:
#      x y z
#    x 1.748130 -0.021760 -0.001150 
#    y -0.021760 1.761860 0.000140 
#    z -0.001150 0.000140 1.718560 
# 
# From -- ./inp_files/271738.got.cif
#   From: 2010.05.17/outbox.cif.g08.bks.cpg/sg2_136_cif.got.tgz:271738.got - 2010.06.03 11:33:40.
