data_PCOD9068170
_publ_section_title
;
Structure prediction by ZEFSAII (Michael W. Deem and Ramdas Pophale) SiO2 
 PCOD9068170
Probable space group: P -1
;
_chemical_formula_sum "Si O2"
_cell_formula_units_Z 12
_cell_length_a 4.820473
_cell_length_b 14.695662
_cell_length_c 18.152049
_cell_angle_alpha 22.156224
_cell_angle_beta 79.869391
_cell_angle_gamma 86.759828
_cell_volume 457.372489
_symmetry_space_group_name_H-M "P -1"
_symmetry_group_IT_number 2
_symmetry_cell_setting 'triclinic'
loop_
_space_group_symop_operation_xyz
x,y,z
-x,-y,-z
loop_
_atom_site_type_symbol
_atom_site_label
_atom_site_fract_x
_atom_site_fract_y
_atom_site_fract_z
Si Si1 0.427297 0.400102 0.311095
Si Si2 0.744397 0.179676 0.907416
Si Si3 0.853281 0.922231 0.248197
Si Si4 0.720986 0.423503 0.488678
Si Si5 0.971797 0.457835 0.889804
Si Si6 0.812781 0.082072 0.384925
O O1 0.378535 0.596249 0.225346
O O2 0.324736 0.510209 0.156826
O O3 0.230073 0.109428 0.537702
O O4 0.768734 0.420789 0.272323
O O5 0.051358 0.332414 0.740305
O O6 0.500000 0.000000 0.000000
O O7 0.807390 0.035046 0.085295
O O8 0.075778 0.749634 0.362878
O O9 0.529244 0.762321 0.410091
O O10 0.967628 0.169488 0.106763
O O11 0.500000 0.500000 0.500000
O O12 0.060392 0.618057 0.839622
O O13 0.500000 0.000000 0.500000
O O14 0.000000 0.000000 0.500000
#
# Coordination Sequence:
#
# PCOD9068170 Si02
#       6
#     2   2   2   2   2   2
#     4   9  18  35  58  92 131 170 224 274 330 402
#     4  11  28  48  74 101 140 190 234 283 348 408
#     4  11  26  48  70  99 142 178 232 289 344 413
#     4  12  30  48  70 101 138 183 238 290 344 408
#     4   9  17  34  61  94 126 173 218 271 340 403
#     4   8  14  27  55  90 125 163 216 271 325 400
#
# _framework density 26.236823000000001
#
# number of rings (size 3 to 8) (size 9 to 14) (size 15 to 20)
#    0.000    2.000    0.000    2.500    7.000    5.333 
#    0.000    0.000    0.000    2.000    0.000    0.000 
#    0.000    0.000    0.000    0.667    0.000    0.167 
#
# Total GULP energy -67082.360720 kJ/mol
# GULP energy per Si atom -5590.196727 kJ/mol
# Density = 2.617711 g / cm^3
# Si number density = 26.236823 Si / 1000 Ang^3
#
#
#
# Elastic Constant Matrix: (Units=GPa)
#
#
# Indices 1 2 3 4 5 6 
#
# 1 176.8818 39.7967 69.2259 -1.3529 -4.2908 -12.8579
# 2 39.7967 119.6301 101.6317 -51.7882 -2.5869 7.7824
# 3 69.2259 101.6317 192.0688 -20.7733 -14.6387 16.3892
# 4 -1.3529 -51.7882 -20.7733 68.4189 14.2416 -6.2602
# 5 -4.2908 -2.5869 -14.6387 14.2416 56.2011 -11.4679
# 6 -12.8579 7.7824 16.3892 -6.2602 -11.4679 35.1904
#
#
#
# Elastic Compliance Matrix: (Units=1/GPa)
#
#
# Indices 1 2 3 4 5 6 
#
# 1 0.007158 -0.001187 -0.002363 -0.001318 0.001044 0.004084
# 2 -0.001187 0.026897 -0.012398 0.017976 -0.006544 0.000457
# 3 -0.002363 -0.012398 0.012495 -0.006710 0.003381 -0.004033
# 4 -0.001318 0.017976 -0.006710 0.027895 -0.007872 0.001065
# 5 0.001044 -0.006544 0.003381 -0.007872 0.021653 0.005910
# 6 0.004084 0.000457 -0.004033 0.001065 0.005910 0.033801
#
#
# Mechanical properties :
#
#
# Convention : Reuss Voigt Hill
#
# Bulk Modulus (GPa) = 68.24812 101.09882 84.67347
# Shear Modulus (GPa) = 29.99761 50.49049 40.24405
#
# Velocity S-wave (km/s) = 3.38500 4.39157 3.92072
# Velocity P-wave (km/s) = 6.43012 8.02068 7.26904
#
# Compressibility (1/GPa) = 0.01465242
#
# Stress axis : x y z
#
# Youngs Moduli (GPa) = 139.71296 37.17829 80.03500
#
# Poissons Ratio (x) = 0.04415 0.18912
# Poissons Ratio (y) = 0.16590 0.99229
# Poissons Ratio (z) = 0.33013 0.46094
#
# Static dielectric constant tensor:
#      x y z
#    x 1.982610 0.063590 0.020760 
#    y 0.063590 2.220580 -0.049380 
#    z 0.020760 -0.049380 2.165180 
# 
# From -- ./inp_files/604874.got.cif
#   From: 2010.05.17/outbox.cif.g08.bks.cpg/sg2_303_cif.got.tgz:604874.got - 2010.06.03 11:33:40.
