data_PCOD9068640
_publ_section_title
;
Structure prediction by ZEFSAII (Michael W. Deem and Ramdas Pophale) SiO2 
 PCOD9068640
Probable space group: P -1
;
_chemical_formula_sum "Si O2"
_cell_formula_units_Z 12
_cell_length_a 11.862880
_cell_length_b 5.010291
_cell_length_c 15.998993
_cell_angle_alpha 119.145406
_cell_angle_beta 140.026545
_cell_angle_gamma 51.453085
_cell_volume 477.702289
_symmetry_space_group_name_H-M "P -1"
_symmetry_group_IT_number 2
_symmetry_cell_setting 'triclinic'
loop_
_space_group_symop_operation_xyz
x,y,z
-x,-y,-z
loop_
_atom_site_type_symbol
_atom_site_label
_atom_site_fract_x
_atom_site_fract_y
_atom_site_fract_z
Si Si1 0.234618 0.385491 0.268609
Si Si2 0.166119 0.752301 0.452668
Si Si3 0.350147 0.243608 0.631363
Si Si4 0.382599 0.894000 0.014667
Si Si5 0.713188 0.078447 0.220998
Si Si6 0.010538 0.968689 0.100449
O O1 0.244947 0.629214 0.384829
O O2 0.099989 0.229523 0.211694
O O3 0.436071 0.066616 0.309003
O O4 0.141562 0.614266 0.168286
O O5 0.282550 0.456773 0.539452
O O6 0.207015 0.074677 0.544090
O O7 0.934766 0.866010 0.344528
O O8 0.336680 0.526310 0.734294
O O9 0.289713 0.044818 0.894492
O O10 0.207251 0.938252 0.980749
O O11 0.500000 0.500000 0.000000
O O12 0.530650 0.039314 0.151387
O O13 0.000000 0.000000 0.000000
#
# Coordination Sequence:
#
# PCOD9068640 Si02
#       6
#     2   2   2   2   2   2
#     4  12  26  51  77 114 165 205 265 323 397 473
#     4  12  25  50  79 114 160 211 263 322 396 465
#     4  12  28  46  79 119 156 208 268 325 385 473
#     4  11  27  50  82 112 160 209 262 327 407 470
#     4  11  27  49  79 117 159 205 267 329 395 470
#     4  12  28  50  81 117 158 211 263 326 396 476
#
# _framework density 25.120249000000001
#
# number of rings (size 3 to 8) (size 9 to 14) (size 15 to 20)
#    0.000    0.333    1.667    5.500    9.333    1.333 
#    0.000    0.000    0.000    0.000    0.000    0.000 
#    0.000    0.000    0.000    0.000    0.000    0.000 
#
# Total GULP energy -67318.519218 kJ/mol
# GULP energy per Si atom -5609.876602 kJ/mol
# Density = 2.506307 g / cm^3
# Si number density = 25.120249 Si / 1000 Ang^3
#
#
#
# Elastic Constant Matrix: (Units=GPa)
#
#
# Indices 1 2 3 4 5 6 
#
# 1 162.8826 62.1439 61.6616 -23.6159 7.4658 0.6874
# 2 62.1439 174.0795 72.8162 -20.4480 5.3359 11.9526
# 3 61.6616 72.8162 154.9812 1.2892 24.2863 1.0772
# 4 -23.6159 -20.4480 1.2892 43.2088 4.3982 -3.2705
# 5 7.4658 5.3359 24.2863 4.3982 49.1773 2.7933
# 6 0.6874 11.9526 1.0772 -3.2705 2.7933 52.9065
#
#
#
# Elastic Compliance Matrix: (Units=1/GPa)
#
#
# Indices 1 2 3 4 5 6 
#
# 1 0.008257 -0.001410 -0.002630 0.003983 -0.000187 0.000521
# 2 -0.001410 0.008096 -0.003387 0.002956 0.000835 -0.001603
# 3 -0.002630 -0.003387 0.009706 -0.002896 -0.003803 0.000624
# 4 0.003983 0.002956 -0.002896 0.027092 -0.001982 0.001119
# 5 -0.000187 0.000835 -0.003803 -0.001982 0.022408 -0.001414
# 6 0.000521 -0.001603 0.000624 0.001119 -0.001414 0.019388
#
#
# Mechanical properties :
#
#
# Convention : Reuss Voigt Hill
#
# Bulk Modulus (GPa) = 89.24786 98.35407 93.80096
# Shear Modulus (GPa) = 44.03885 48.74662 46.39274
#
# Velocity S-wave (km/s) = 4.19157 4.40992 4.30213
# Velocity P-wave (km/s) = 7.68317 8.07268 7.88033
#
# Compressibility (1/GPa) = 0.01120475
#
# Stress axis : x y z
#
# Youngs Moduli (GPa) = 121.11411 123.51277 103.02779
#
# Poissons Ratio (x) = 0.17410 0.27098
# Poissons Ratio (y) = 0.17071 0.34900
# Poissons Ratio (z) = 0.31855 0.41840
#
# Static dielectric constant tensor:
#      x y z
#    x 2.018060 0.033400 -0.056740 
#    y 0.033400 1.965330 0.022020 
#    z -0.056740 0.022020 2.117060 
# 
# From -- ./inp_files/596702.got.cif
#   From: 2010.05.17/outbox.cif.g08.bks.cpg/sg2_299_cif.got.tgz:596702.got - 2010.06.03 11:33:40.
