data_PCOD9068921
_publ_section_title
;
Structure prediction by ZEFSAII (Michael W. Deem and Ramdas Pophale) SiO2 
 PCOD9068921
Probable space group: P -1
;
_chemical_formula_sum "Si O2"
_cell_formula_units_Z 16
_cell_length_a 11.309907
_cell_length_b 11.924153
_cell_length_c 13.563871
_cell_angle_alpha 95.388424
_cell_angle_beta 33.414893
_cell_angle_gamma 118.649612
_cell_volume 683.799259
_symmetry_space_group_name_H-M "P -1"
_symmetry_group_IT_number 2
_symmetry_cell_setting 'triclinic'
loop_
_space_group_symop_operation_xyz
x,y,z
-x,-y,-z
loop_
_atom_site_type_symbol
_atom_site_label
_atom_site_fract_x
_atom_site_fract_y
_atom_site_fract_z
Si Si1 0.711264 0.130672 0.155887
Si Si2 0.713231 0.688762 0.340524
Si Si3 0.321306 0.185662 0.127889
Si Si4 0.121208 0.346669 0.261189
Si Si5 0.669447 0.203652 0.722762
Si Si6 0.987233 0.826768 0.368644
Si Si7 0.241530 0.712230 0.684079
Si Si8 0.654153 0.346551 0.105257
O O1 0.643119 0.142075 0.315319
O O2 0.647458 0.219239 0.144220
O O3 0.536182 0.955417 0.218749
O O4 0.083349 0.250853 0.893380
O O5 0.500000 0.500000 0.500000
O O6 0.952151 0.786793 0.274666
O O7 0.516020 0.727664 0.474797
O O8 0.085040 0.199506 0.294413
O O9 0.596027 0.315604 0.025958
O O10 0.458975 0.214989 0.925979
O O11 0.142953 0.008761 0.278720
O O12 0.966587 0.352721 0.461280
O O13 0.932289 0.309750 0.293270
O O14 0.500000 0.500000 0.000000
O O15 0.803927 0.180251 0.717162
O O16 0.640152 0.700441 0.646719
O O17 0.976428 0.537212 0.912154
#
# Coordination Sequence:
#
# PCOD9068921 Si02
#       8
#     2   2   2   2   2   2   2   2
#     4  12  24  44  70 105 139 178 228 287 355 406
#     4  12  25  41  71 107 143 177 225 285 352 409
#     4  12  24  44  73 104 138 175 236 291 343 408
#     4  12  28  50  69  99 138 190 234 280 345 419
#     4  12  26  44  75 103 137 183 231 291 344 406
#     4  12  22  42  72 110 137 175 228 293 351 402
#     4  12  27  46  66 100 144 187 228 280 345 416
#     4  12  21  42  73 103 141 175 224 292 350 405
#
# _framework density 23.398679999999999
#
# number of rings (size 3 to 8) (size 9 to 14) (size 15 to 20)
#    0.000    0.000    7.500    3.375    0.000    2.000 
#    0.000    1.250    0.000    0.000    0.000    0.000 
#    0.000    0.000    0.000    0.000    0.000    0.000 
#
# Total GULP energy -89630.721692 kJ/mol
# GULP energy per Si atom -5601.920106 kJ/mol
# Density = 2.334542 g / cm^3
# Si number density = 23.398680 Si / 1000 Ang^3
#
#
#
# Elastic Constant Matrix: (Units=GPa)
#
#
# Indices 1 2 3 4 5 6 
#
# 1 113.9678 10.1114 -4.8737 11.0546 -6.3910 13.4662
# 2 10.1114 52.5359 3.3978 13.4147 -2.1839 20.5932
# 3 -4.8737 3.3978 97.4443 24.8909 0.7613 2.1848
# 4 11.0546 13.4147 24.8909 45.3932 1.7106 2.0527
# 5 -6.3910 -2.1839 0.7613 1.7106 28.0026 0.4477
# 6 13.4662 20.5932 2.1848 2.0527 0.4477 17.0274
#
#
#
# Elastic Compliance Matrix: (Units=1/GPa)
#
#
# Indices 1 2 3 4 5 6 
#
# 1 0.010663 0.004382 0.001776 -0.004376 0.003211 -0.013518
# 2 0.004382 0.042943 0.003300 -0.013332 0.005943 -0.054373
# 3 0.001776 0.003300 0.012400 -0.007968 0.000909 -0.006050
# 4 -0.004376 -0.013332 -0.007968 0.030785 -0.003974 0.017000
# 5 0.003211 0.005943 0.000909 -0.003974 0.037291 -0.010345
# 6 -0.013518 -0.054373 -0.006050 0.017000 -0.010345 0.134178
#
#
# Mechanical properties :
#
#
# Convention : Reuss Voigt Hill
#
# Bulk Modulus (GPa) = 11.77538 31.24656 21.51097
# Shear Modulus (GPa) = 18.00825 35.10546 26.55686
#
# Velocity S-wave (km/s) = 2.77722 3.87760 3.37259
# Velocity P-wave (km/s) = 3.91502 5.78192 4.93751
#
# Compressibility (1/GPa) = 0.08492293
#
# Stress axis : x y z
#
# Youngs Moduli (GPa) = 93.77972 23.28692 80.64608
#
# Poissons Ratio (x) = -0.10205 -0.14324
# Poissons Ratio (y) = -0.41098 -0.26614
# Poissons Ratio (z) = -0.16657 -0.07685
#
# Static dielectric constant tensor:
#      x y z
#    x 1.869750 0.014230 0.041690 
#    y 0.014230 1.942370 -0.059880 
#    z 0.041690 -0.059880 1.951920 
# 
# From -- ./inp_files/433647.got.cif
#   From: 2010.05.17/outbox.cif.g08.bks.cpg/sg2_217_cif.got.tgz:433647.got - 2010.06.03 11:33:40.
