data_PCOD9068732
_publ_section_title
;
Structure prediction by ZEFSAII (Michael W. Deem and Ramdas Pophale) SiO2 
 PCOD9068732
Probable space group: P -1
;
_chemical_formula_sum "Si O2"
_cell_formula_units_Z 10
_cell_length_a 13.230660
_cell_length_b 4.908006
_cell_length_c 7.882986
_cell_angle_alpha 109.568208
_cell_angle_beta 117.438545
_cell_angle_gamma 101.812088
_cell_volume 386.604863
_symmetry_space_group_name_H-M "P -1"
_symmetry_group_IT_number 2
_symmetry_cell_setting 'triclinic'
loop_
_space_group_symop_operation_xyz
x,y,z
-x,-y,-z
loop_
_atom_site_type_symbol
_atom_site_label
_atom_site_fract_x
_atom_site_fract_y
_atom_site_fract_z
Si Si1 0.055402 0.866554 0.163087
Si Si2 0.432452 0.660826 0.287329
Si Si3 0.264803 0.559486 0.823994
Si Si4 0.099081 0.870922 0.691291
Si Si5 0.316816 0.398965 0.480555
O O1 0.205369 0.042099 0.332293
O O2 0.991009 0.963152 0.288271
O O3 0.000000 0.500000 0.000000
O O4 0.000000 0.000000 0.000000
O O5 0.322674 0.475670 0.300711
O O6 0.542434 0.542949 0.348132
O O7 0.500000 0.000000 0.500000
O O8 0.383408 0.674567 0.065462
O O9 0.190447 0.772398 0.859672
O O10 0.282629 0.595350 0.640667
O O11 0.198400 0.175630 0.725815
O O12 0.000000 0.500000 0.500000
#
# Coordination Sequence:
#
# PCOD9068732 Si02
#       5
#     2   2   2   2   2
#     4  12  28  46  80 118 160 205 261 329 404 474
#     4  11  29  50  79 113 159 213 274 332 396 476
#     4  12  28  51  83 115 163 209 269 333 402 477
#     4  12  27  49  80 122 160 210 265 328 406 493
#     4  11  28  51  77 116 159 212 272 329 401 479
#
# _framework density 25.866201
#
# number of rings (size 3 to 8) (size 9 to 14) (size 15 to 20)
#    0.000    0.400    2.000    3.600   19.600    0.800 
#    0.000    0.000    0.000    0.000    0.000    0.000 
#    0.000    0.000    0.000    0.000    0.000    0.000 
#
# Total GULP energy -55823.848697 kJ/mol
# GULP energy per Si atom -5582.384870 kJ/mol
# Density = 2.580733 g / cm^3
# Si number density = 25.866201 Si / 1000 Ang^3
#
#
#
# Elastic Constant Matrix: (Units=GPa)
#
#
# Indices 1 2 3 4 5 6 
#
# 1 95.1230 35.1091 35.5412 24.9159 0.3921 2.1685
# 2 35.1091 131.3116 28.6035 32.5551 -0.0552 -21.2440
# 3 35.5412 28.6035 131.3562 14.1207 -3.8141 -0.1729
# 4 24.9159 32.5551 14.1207 52.4001 -15.9238 1.2374
# 5 0.3921 -0.0552 -3.8141 -15.9238 34.9648 -1.6237
# 6 2.1685 -21.2440 -0.1729 1.2374 -1.6237 37.0064
#
#
#
# Elastic Compliance Matrix: (Units=1/GPa)
#
#
# Indices 1 2 3 4 5 6 
#
# 1 0.013785 -0.002058 -0.002792 -0.005392 -0.003009 -0.001954
# 2 -0.002058 0.011143 -0.001231 -0.006620 -0.002802 0.006610
# 3 -0.002792 -0.001231 0.008657 0.000069 0.000984 -0.000462
# 4 -0.005392 -0.006620 0.000069 0.029940 0.013512 -0.003893
# 5 -0.003009 -0.002802 0.000984 0.013512 0.034874 -0.000349
# 6 -0.001954 0.006610 -0.000462 -0.003893 -0.000349 0.031044
#
#
# Mechanical properties :
#
#
# Convention : Reuss Voigt Hill
#
# Bulk Modulus (GPa) = 46.67759 61.81091 54.24425
# Shear Modulus (GPa) = 33.61423 42.11006 37.86214
#
# Velocity S-wave (km/s) = 3.60883 4.03922 3.83007
# Velocity P-wave (km/s) = 5.95397 6.76033 6.36992
#
# Compressibility (1/GPa) = 0.02142356
#
# Stress axis : x y z
#
# Youngs Moduli (GPa) = 72.54416 89.73872 115.51625
#
# Poissons Ratio (x) = 0.18470 0.32251
# Poissons Ratio (y) = 0.14931 0.14216
# Poissons Ratio (z) = 0.20254 0.11043
#
# Static dielectric constant tensor:
#      x y z
#    x 2.413190 0.261810 -0.288050 
#    y 0.261810 2.290560 -0.326840 
#    z -0.288050 -0.326840 2.386740 
# 
# From -- ./inp_files/289311.got.cif
#   From: 2010.05.17/outbox.cif.g08.bks.cpg/sg2_145_cif.got.tgz:289311.got - 2010.06.03 11:33:40.
