data_PCOD9068785
_publ_section_title
;
Structure prediction by ZEFSAII (Michael W. Deem and Ramdas Pophale) SiO2 
 PCOD9068785
Probable space group: P -1
;
_chemical_formula_sum "Si O2"
_cell_formula_units_Z 16
_cell_length_a 25.466703
_cell_length_b 26.186433
_cell_length_c 11.633974
_cell_angle_alpha 30.463390
_cell_angle_beta 31.187686
_cell_angle_gamma 11.169118
_cell_volume 758.092389
_symmetry_space_group_name_H-M "P -1"
_symmetry_group_IT_number 2
_symmetry_cell_setting 'triclinic'
loop_
_space_group_symop_operation_xyz
x,y,z
-x,-y,-z
loop_
_atom_site_type_symbol
_atom_site_label
_atom_site_fract_x
_atom_site_fract_y
_atom_site_fract_z
Si Si1 0.789278 0.025249 0.598460
Si Si2 0.997333 0.603520 0.875357
Si Si3 0.603269 0.557095 0.071149
Si Si4 0.861464 0.627900 0.705472
Si Si5 0.021041 0.008988 0.308581
Si Si6 0.480666 0.820263 0.393716
Si Si7 0.712180 0.557265 0.105495
Si Si8 0.547586 0.817976 0.540804
O O1 0.686815 0.113196 0.487575
O O2 0.551109 0.206335 0.778437
O O3 0.883087 0.048913 0.415040
O O4 0.038528 0.720084 0.750557
O O5 0.210711 0.475551 0.654783
O O6 0.692061 0.926875 0.827222
O O7 0.000000 0.500000 0.000000
O O8 0.125608 0.447631 0.054882
O O9 0.545368 0.716376 0.810758
O O10 0.666670 0.523238 0.150657
O O11 0.856094 0.265311 0.108372
O O12 0.335272 0.735421 0.220198
O O13 0.160273 0.396959 0.576401
O O14 0.664342 0.904026 0.554581
O O15 0.764030 0.620843 0.827889
O O16 0.000000 0.000000 0.500000
O O17 0.487772 0.840058 0.477043
#
# Coordination Sequence:
#
# PCOD9068785 Si02
#       8
#     2   2   2   2   2   2   2   2
#     4  12  23  38  66 101 118 150 206 279 315 344
#     4  12  20  33  61  89 122 163 215 251 284 350
#     4  12  26  45  64  93 126 164 208 252 315 384
#     4  12  23  38  62  95 127 171 208 247 301 359
#     4  12  23  44  73  93 116 155 212 271 321 356
#     4  12  22  38  59  93 128 161 203 257 304 357
#     4  12  23  39  64  96 127 154 207 263 308 357
#     4  12  26  41  61  88 136 178 199 235 307 387
#
# _framework density 21.105608
#
# number of rings (size 3 to 8) (size 9 to 14) (size 15 to 20)
#    0.000    0.000    7.500    3.750    0.000    1.000 
#    0.000    1.250    0.000    0.000    0.000    0.000 
#    0.000    0.000    0.000    0.000    0.000    0.000 
#
# Total GULP energy -89355.639424 kJ/mol
# GULP energy per Si atom -5584.727464 kJ/mol
# Density = 2.105757 g / cm^3
# Si number density = 21.105608 Si / 1000 Ang^3
#
#
#
# Elastic Constant Matrix: (Units=GPa)
#
#
# Indices 1 2 3 4 5 6 
#
# 1 79.7916 29.4592 27.7452 23.3155 -32.7495 0.9482
# 2 29.4592 81.4979 -15.2870 -35.2108 -7.9569 -24.4264
# 3 27.7452 -15.2870 31.2586 -33.3193 -15.9745 -24.2729
# 4 23.3155 -35.2108 -33.3193 5.3637 -5.8461 -33.8106
# 5 -32.7495 -7.9569 -15.9745 -5.8461 30.7684 -2.4286
# 6 0.9482 -24.4264 -24.2729 -33.8106 -2.4286 15.7343
#
#
#
# Elastic Compliance Matrix: (Units=1/GPa)
#
#
# Indices 1 2 3 4 5 6 
#
# 1 0.021697 -0.001136 0.002685 0.002078 0.025335 0.009448
# 2 -0.001136 0.008161 -0.004847 -0.004441 -0.002832 -0.004721
# 3 0.002685 -0.004847 0.012929 -0.010039 0.005745 -0.008427
# 4 0.002078 -0.004441 -0.010039 0.005141 -0.004126 -0.012096
# 5 0.025335 -0.002832 0.005745 -0.004126 0.061212 0.003521
# 6 0.009448 -0.004721 -0.008427 -0.012096 0.003521 0.017208
#
#
# Mechanical properties :
#
#
# Convention : Reuss Voigt Hill
#
# Bulk Modulus (GPa) = 27.63096 30.70924 29.17010
# Shear Modulus (GPa) = 34.48073 20.41533 27.44803
#
# Velocity S-wave (km/s) = 4.04632 3.11351 3.61017
# Velocity P-wave (km/s) = 5.91189 5.24472 5.58827
#
# Compressibility (1/GPa) = 0.03619129
#
# Stress axis : x y z
#
# Youngs Moduli (GPa) = 46.08847 122.52826 77.34651
#
# Poissons Ratio (x) = 0.13919 -0.20770
# Poissons Ratio (y) = 0.05236 0.37493
# Poissons Ratio (z) = -0.12376 0.59395
#
# Static dielectric constant tensor:
#      x y z
#    x 1.607900 -0.036660 0.005210 
#    y -0.036660 1.745700 0.011170 
#    z 0.005210 0.011170 1.752460 
# 
# From -- ./inp_files/477191.got.cif
#   From: 2010.05.17/outbox.cif.g08.bks.cpg/sg2_239_cif.got.tgz:477191.got - 2010.06.03 11:33:40.
