data_PCOD9068876
_publ_section_title
;
Structure prediction by ZEFSAII (Michael W. Deem and Ramdas Pophale) SiO2 
 PCOD9068876
Probable space group: P -1
;
_chemical_formula_sum "Si O2"
_cell_formula_units_Z 12
_cell_length_a 22.893488
_cell_length_b 20.623302
_cell_length_c 11.868519
_cell_angle_alpha 153.147987
_cell_angle_beta 153.427529
_cell_angle_gamma 12.261566
_cell_volume 522.480067
_symmetry_space_group_name_H-M "P -1"
_symmetry_group_IT_number 2
_symmetry_cell_setting 'triclinic'
loop_
_space_group_symop_operation_xyz
x,y,z
-x,-y,-z
loop_
_atom_site_type_symbol
_atom_site_label
_atom_site_fract_x
_atom_site_fract_y
_atom_site_fract_z
Si Si1 0.977943 0.706051 0.427107
Si Si2 0.643213 0.055720 0.187401
Si Si3 0.372276 0.602733 0.314929
Si Si4 0.787245 0.004397 0.954995
Si Si5 0.992692 0.611137 0.890827
Si Si6 0.442129 0.725307 0.262583
O O1 0.263544 0.487294 0.525319
O O2 0.047934 0.513927 0.339541
O O3 0.778443 0.839909 0.191208
O O4 0.809070 0.992233 0.647969
O O5 0.651484 0.212721 0.484306
O O6 0.326142 0.319898 0.019972
O O7 0.835052 0.851527 0.091175
O O8 0.500000 0.500000 0.500000
O O9 0.578916 0.305470 0.136219
O O10 0.073584 0.815259 0.137145
O O11 0.644955 0.122736 0.772379
O O12 0.866247 0.787194 0.827213
O O13 0.500000 0.500000 0.000000
#
# Coordination Sequence:
#
# PCOD9068876 Si02
#       6
#     2   2   2   2   2   2
#     4  12  26  44  66  93 127 175 209 252 320 377
#     4  12  23  41  66  95 132 164 211 264 312 373
#     4  12  21  39  65  97 129 159 209 260 320 366
#     4  12  24  41  65  98 128 165 212 262 312 371
#     4  12  24  41  65  97 130 163 210 264 317 374
#     4  12  26  47  67  90 128 168 216 260 306 380
#
# _framework density 22.967383999999999
#
# number of rings (size 3 to 8) (size 9 to 14) (size 15 to 20)
#    0.000    0.000    3.333    8.000    0.000    1.333 
#    0.000    0.000    0.000    0.000    0.000    0.000 
#    0.000    0.000    0.000    0.000    0.000    0.000 
#
# Total GULP energy -67260.737861 kJ/mol
# GULP energy per Si atom -5605.061488 kJ/mol
# Density = 2.291511 g / cm^3
# Si number density = 22.967384 Si / 1000 Ang^3
#
#
#
# Elastic Constant Matrix: (Units=GPa)
#
#
# Indices 1 2 3 4 5 6 
#
# 1 63.3218 18.3973 1.1555 -10.0746 0.1541 26.6969
# 2 18.3973 110.0373 15.7021 -8.6781 0.2851 -5.7084
# 3 1.1555 15.7021 17.2269 5.1935 7.9420 11.0327
# 4 -10.0746 -8.6781 5.1935 33.3454 8.9778 7.5638
# 5 0.1541 0.2851 7.9420 8.9778 54.4184 -2.4781
# 6 26.6969 -5.7084 11.0327 7.5638 -2.4781 54.2613
#
#
#
# Elastic Compliance Matrix: (Units=1/GPa)
#
#
# Indices 1 2 3 4 5 6 
#
# 1 0.026955 -0.007009 0.015977 0.009375 -0.004773 -0.018773
# 2 -0.007009 0.013596 -0.019338 0.001679 0.002890 0.008709
# 3 0.015977 -0.019338 0.103063 -0.005071 -0.015554 -0.030854
# 4 0.009375 0.001679 -0.005071 0.037666 -0.005916 -0.008925
# 5 -0.004773 0.002890 -0.015554 -0.005916 0.021968 0.007643
# 6 -0.018773 0.008709 -0.030854 -0.008925 0.007643 0.036448
#
#
# Mechanical properties :
#
#
# Convention : Reuss Voigt Hill
#
# Bulk Modulus (GPa) = 8.13842 29.01063 18.57453
# Shear Modulus (GPa) = 16.58957 38.76042 27.67500
#
# Velocity S-wave (km/s) = 2.69050 4.11253 3.47503
# Velocity P-wave (km/s) = 3.63357 5.93374 4.91996
#
# Compressibility (1/GPa) = 0.12287399
#
# Stress axis : x y z
#
# Youngs Moduli (GPa) = 37.09895 73.55168 9.70280
#
# Poissons Ratio (x) = 0.51550 -0.15502
# Poissons Ratio (y) = 0.26002 0.18764
# Poissons Ratio (z) = -0.59274 1.42237
#
# Static dielectric constant tensor:
#      x y z
#    x 1.869840 0.061320 0.030700 
#    y 0.061320 1.855930 0.031690 
#    z 0.030700 0.031690 1.829110 
# 
# From -- ./inp_files/26262.got.cif
#   From: 2010.05.17/outbox.cif.g08.bks.cpg/sg2_14_cif.got.tgz:26262.got - 2010.06.03 11:33:40.
