data_PCOD9068327
_publ_section_title
;
Structure prediction by ZEFSAII (Michael W. Deem and Ramdas Pophale) SiO2 
 PCOD9068327
Probable space group: P -1
;
_chemical_formula_sum "Si O2"
_cell_formula_units_Z 16
_cell_length_a 15.048457
_cell_length_b 6.421152
_cell_length_c 12.085304
_cell_angle_alpha 116.629943
_cell_angle_beta 44.623837
_cell_angle_gamma 95.915807
_cell_volume 688.562567
_symmetry_space_group_name_H-M "P -1"
_symmetry_group_IT_number 2
_symmetry_cell_setting 'triclinic'
loop_
_space_group_symop_operation_xyz
x,y,z
-x,-y,-z
loop_
_atom_site_type_symbol
_atom_site_label
_atom_site_fract_x
_atom_site_fract_y
_atom_site_fract_z
Si Si1 0.426513 0.703739 0.021886
Si Si2 0.640044 0.552438 0.405555
Si Si3 0.175030 0.994587 0.944132
Si Si4 0.994716 0.889581 0.274166
Si Si5 0.138873 0.270357 0.825934
Si Si6 0.767779 0.542094 0.925890
Si Si7 0.663719 0.760476 0.676136
Si Si8 0.871665 0.426285 0.573026
O O1 0.339950 0.591964 0.990466
O O2 0.340815 0.960863 0.221828
O O3 0.500000 0.500000 0.000000
O O4 0.539428 0.744019 0.854345
O O5 0.500000 0.500000 0.500000
O O6 0.717603 0.686523 0.285348
O O7 0.639539 0.688629 0.555314
O O8 0.742474 0.274947 0.236809
O O9 0.109393 0.128238 0.922328
O O10 0.256264 0.175887 0.952487
O O11 0.083059 0.969545 0.121500
O O12 0.092002 0.643086 0.189844
O O13 0.869950 0.853854 0.312350
O O14 0.927383 0.130681 0.463761
O O15 0.000000 0.500000 0.000000
O O16 0.773674 0.539043 0.787634
O O17 0.797951 0.549645 0.555248
O O18 0.000000 0.500000 0.500000
#
# Coordination Sequence:
#
# PCOD9068327 Si02
#       8
#     2   2   2   2   2   2   2   2
#     4  11  26  49  74 104 143 195 240 294 364 436
#     4  12  31  49  74 108 148 195 250 309 360 433
#     4  12  26  48  74 103 150 192 245 300 374 432
#     4  12  26  45  75 106 150 186 247 307 365 442
#     4  12  26  47  74 107 140 196 246 298 372 433
#     4  12  26  44  75 107 145 192 242 295 374 442
#     4  11  28  48  74 105 148 188 247 301 361 436
#     4  12  25  44  72 111 148 187 233 305 370 429
#
# _framework density 23.236813000000001
#
# number of rings (size 3 to 8) (size 9 to 14) (size 15 to 20)
#    0.000    0.250    5.000    2.250   10.500    1.500 
#    0.000    0.000    0.000    0.000    0.000    0.000 
#    0.000    0.000    0.000    0.000    0.000    0.000 
#
# Total GULP energy -89334.132240 kJ/mol
# GULP energy per Si atom -5583.383265 kJ/mol
# Density = 2.318392 g / cm^3
# Si number density = 23.236813 Si / 1000 Ang^3
#
#
#
# Elastic Constant Matrix: (Units=GPa)
#
#
# Indices 1 2 3 4 5 6 
#
# 1 90.1759 18.2002 9.0215 -14.6256 -2.0182 23.8056
# 2 18.2002 90.8215 24.0860 -4.7250 1.9174 15.8153
# 3 9.0215 24.0860 78.0453 -5.6374 8.5475 10.9514
# 4 -14.6256 -4.7250 -5.6374 43.2858 14.4416 3.9361
# 5 -2.0182 1.9174 8.5475 14.4416 39.8163 -3.3400
# 6 23.8056 15.8153 10.9514 3.9361 -3.3400 48.1220
#
#
#
# Elastic Compliance Matrix: (Units=1/GPa)
#
#
# Indices 1 2 3 4 5 6 
#
# 1 0.014187 -0.001329 0.000475 0.006093 -0.002144 -0.007337
# 2 -0.001329 0.012701 -0.003224 0.000976 -0.000585 -0.002903
# 3 0.000475 -0.003224 0.014964 0.003582 -0.004600 -0.003193
# 4 0.006093 0.000976 0.003582 0.030483 -0.012192 -0.007490
# 5 -0.002144 -0.000585 -0.004600 -0.012192 0.030901 0.005442
# 6 -0.007337 -0.002903 -0.003193 -0.007490 0.005442 0.027081
#
#
# Mechanical properties :
#
#
# Convention : Reuss Voigt Hill
#
# Bulk Modulus (GPa) = 29.67825 40.18426 34.93126
# Shear Modulus (GPa) = 33.39904 40.09383 36.74644
#
# Velocity S-wave (km/s) = 3.79533 4.15835 3.98098
# Velocity P-wave (km/s) = 5.65737 6.35506 6.01634
#
# Compressibility (1/GPa) = 0.03369471
#
# Stress axis : x y z
#
# Youngs Moduli (GPa) = 70.48586 78.73591 66.82795
#
# Poissons Ratio (x) = 0.10465 -0.03172
# Poissons Ratio (y) = 0.09368 0.21546
# Poissons Ratio (z) = -0.03346 0.25385
#
# Static dielectric constant tensor:
#      x y z
#    x 1.959450 0.112990 0.023580 
#    y 0.112990 1.971300 -0.019130 
#    z 0.023580 -0.019130 1.885570 
# 
# From -- ./inp_files/442147.got.cif
#   From: 2010.05.17/outbox.cif.g08.bks.cpg/sg2_222_cif.got.tgz:442147.got - 2010.06.03 11:33:40.
