data_PCOD9068467
_publ_section_title
;
Structure prediction by ZEFSAII (Michael W. Deem and Ramdas Pophale) SiO2 
 PCOD9068467
Probable space group: P -1
;
_chemical_formula_sum "Si O2"
_cell_formula_units_Z 10
_cell_length_a 8.827833
_cell_length_b 7.424191
_cell_length_c 9.015309
_cell_angle_alpha 95.852351
_cell_angle_beta 92.873585
_cell_angle_gamma 144.127689
_cell_volume 335.376355
_symmetry_space_group_name_H-M "P -1"
_symmetry_group_IT_number 2
_symmetry_cell_setting 'triclinic'
loop_
_space_group_symop_operation_xyz
x,y,z
-x,-y,-z
loop_
_atom_site_type_symbol
_atom_site_label
_atom_site_fract_x
_atom_site_fract_y
_atom_site_fract_z
Si Si1 0.207516 0.185418 0.307871
Si Si2 0.494434 0.921368 0.324970
Si Si3 0.526388 0.264261 0.131063
Si Si4 0.026224 0.745178 0.511474
Si Si5 0.053212 0.298751 0.075149
O O1 0.465583 0.369878 0.248201
O O2 0.207250 0.585438 0.219847
O O3 0.198895 0.343082 0.437989
O O4 0.096739 0.903680 0.369202
O O5 0.597179 0.171465 0.236770
O O6 0.708225 0.970245 0.350323
O O7 0.044683 0.108009 0.155713
O O8 0.500000 0.000000 0.500000
O O9 0.239548 0.940318 0.014586
O O10 0.739268 0.500178 0.033842
O O11 0.000000 0.500000 0.500000
#
# Coordination Sequence:
#
# PCOD9068467 Si02
#       5
#     2   2   2   2   2
#     4  11  26  50  87 122 168 228 281 349 422 501
#     4  12  26  50  83 125 170 226 286 348 420 505
#     4  12  28  53  84 125 172 221 283 350 424 504
#     4  11  26  52  85 129 171 218 290 352 419 497
#     4  12  28  52  83 126 172 223 280 348 428 501
#
# _framework density 29.817250000000001
#
# number of rings (size 3 to 8) (size 9 to 14) (size 15 to 20)
#    0.000    0.400    2.000    4.800    2.800    2.400 
#    3.600    0.000    0.000    0.000    0.000    0.000 
#    0.000    0.000    0.000    0.000    0.000    0.000 
#
# Total GULP energy -56078.785177 kJ/mol
# GULP energy per Si atom -5607.878518 kJ/mol
# Density = 2.974938 g / cm^3
# Si number density = 29.817250 Si / 1000 Ang^3
#
#
#
# Elastic Constant Matrix: (Units=GPa)
#
#
# Indices 1 2 3 4 5 6 
#
# 1 163.0155 72.7417 117.7234 -5.3737 17.5786 2.6838
# 2 72.7417 227.5284 109.9626 -9.7878 5.2027 -19.2032
# 3 117.7234 109.9626 282.5007 -26.6995 6.0638 -9.7780
# 4 -5.3737 -9.7878 -26.6995 67.5219 -9.6542 8.9052
# 5 17.5786 5.2027 6.0638 -9.6542 89.0257 -5.0626
# 6 2.6838 -19.2032 -9.7780 8.9052 -5.0626 65.2871
#
#
#
# Elastic Compliance Matrix: (Units=1/GPa)
#
#
# Indices 1 2 3 4 5 6 
#
# 1 0.009474 -0.001464 -0.003473 -0.000900 -0.001723 -0.001351
# 2 -0.001464 0.005753 -0.001588 -0.000094 0.000138 0.001538
# 3 -0.003473 -0.001588 0.005776 0.001819 0.000602 0.000339
# 4 -0.000900 -0.000094 0.001819 0.015917 0.001685 -0.001759
# 5 -0.001723 0.000138 0.000602 0.001685 0.011757 0.000883
# 6 -0.001351 0.001538 0.000339 -0.001759 0.000883 0.016184
#
#
# Mechanical properties :
#
#
# Convention : Reuss Voigt Hill
#
# Bulk Modulus (GPa) = 125.73057 141.54445 133.63751
# Shear Modulus (GPa) = 62.06435 69.20808 65.63621
#
# Velocity S-wave (km/s) = 4.56729 4.82298 4.69687
# Velocity P-wave (km/s) = 8.37091 8.86502 8.62150
#
# Compressibility (1/GPa) = 0.00795351
#
# Stress axis : x y z
#
# Youngs Moduli (GPa) = 105.55176 173.81957 173.13197
#
# Poissons Ratio (x) = 0.25442 0.60130
# Poissons Ratio (y) = 0.15450 0.27493
# Poissons Ratio (z) = 0.36659 0.27603
#
# Static dielectric constant tensor:
#      x y z
#    x 2.397030 0.096140 -0.127540 
#    y 0.096140 2.549440 0.078920 
#    z -0.127540 0.078920 2.339710 
# 
# From -- ./inp_files/29798.got.cif
#   From: 2010.05.17/outbox.cif.g08.bks.cpg/sg2_15_cif.got.tgz:29798.got - 2010.06.03 11:33:40.
