data_PCOD9068235
_publ_section_title
;
Structure prediction by ZEFSAII (Michael W. Deem and Ramdas Pophale) SiO2 
 PCOD9068235
Probable space group: P -1
;
_chemical_formula_sum "Si O2"
_cell_formula_units_Z 13
_cell_length_a 14.583343
_cell_length_b 8.421316
_cell_length_c 9.337051
_cell_angle_alpha 103.903269
_cell_angle_beta 82.456141
_cell_angle_gamma 149.179958
_cell_volume 563.754323
_symmetry_space_group_name_H-M "P -1"
_symmetry_group_IT_number 2
_symmetry_cell_setting 'triclinic'
loop_
_space_group_symop_operation_xyz
x,y,z
-x,-y,-z
loop_
_atom_site_type_symbol
_atom_site_label
_atom_site_fract_x
_atom_site_fract_y
_atom_site_fract_z
Si Si1 0.043019 0.755959 0.064826
Si Si2 0.379908 0.322134 0.304867
Si Si3 0.000000 0.500000 0.500000
Si Si4 0.740495 0.721383 0.396290
Si Si5 0.794563 0.435566 0.313173
Si Si6 0.946112 0.688402 0.755539
Si Si7 0.552283 0.206047 0.661278
O O1 0.911447 0.621026 0.186417
O O2 0.246292 0.088532 0.151661
O O3 0.000000 0.500000 0.000000
O O4 0.006897 0.786527 0.927937
O O5 0.539016 0.432616 0.311423
O O6 0.265661 0.166252 0.442170
O O7 0.472760 0.642403 0.342239
O O8 0.123336 0.559945 0.584298
O O9 0.921749 0.466009 0.657825
O O10 0.784029 0.604897 0.409758
O O11 0.889603 0.004069 0.313853
O O12 0.592144 0.062183 0.245919
O O13 0.759147 0.498013 0.728481
O O14 0.500000 0.000000 0.500000
#
# Coordination Sequence:
#
# PCOD9068235 Si02
#       7
#     2   2   1   2   2   2   2
#     4  12  29  49  73 113 154 206 245 320 388 457
#     4  11  26  48  76 111 159 189 261 314 380 444
#     4  12  22  44  76 102 140 194 252 312 356 450
#     4  11  26  48  80 112 144 207 251 320 369 456
#     4  12  26  47  76 111 151 191 259 311 379 444
#     4  12  27  46  76 106 154 197 255 306 390 443
#     4  12  25  46  77 117 143 201 256 318 366 455
#
# _framework density 23.059691000000001
#
# number of rings (size 3 to 8) (size 9 to 14) (size 15 to 20)
#    0.000    0.308    4.615    2.769    2.154    6.769 
#    0.000    0.000    0.000    0.000    0.000    0.000 
#    0.000    0.000    0.000    0.000    0.000    0.000 
#
# Total GULP energy -72580.728723 kJ/mol
# GULP energy per Si atom -5583.132979 kJ/mol
# Density = 2.300721 g / cm^3
# Si number density = 23.059691 Si / 1000 Ang^3
#
#
#
# Elastic Constant Matrix: (Units=GPa)
#
#
# Indices 1 2 3 4 5 6 
#
# 1 124.7182 16.5939 13.3499 1.3052 11.7759 9.7876
# 2 16.5939 111.9595 34.9719 -9.2225 13.3883 9.1876
# 3 13.3499 34.9719 121.9195 1.2230 31.2286 11.4661
# 4 1.3052 -9.2225 1.2230 25.9052 -5.4791 -5.9737
# 5 11.7759 13.3883 31.2286 -5.4791 32.1128 6.7560
# 6 9.7876 9.1876 11.4661 -5.9737 6.7560 36.6425
#
#
#
# Elastic Compliance Matrix: (Units=1/GPa)
#
#
# Indices 1 2 3 4 5 6 
#
# 1 0.008565 -0.001011 0.000299 -0.001861 -0.002930 -0.001891
# 2 -0.001011 0.010342 -0.002670 0.003553 -0.000569 -0.000803
# 3 0.000299 -0.002670 0.011960 -0.004272 -0.010972 -0.001826
# 4 -0.001861 0.003553 -0.004272 0.043621 0.009471 0.006308
# 5 -0.002930 -0.000569 -0.010972 0.009471 0.045251 -0.002440
# 6 -0.001891 -0.000803 -0.001826 0.006308 -0.002440 0.030047
#
#
# Mechanical properties :
#
#
# Convention : Reuss Voigt Hill
#
# Bulk Modulus (GPa) = 41.48655 54.26983 47.87819
# Shear Modulus (GPa) = 30.37934 38.51086 34.44510
#
# Velocity S-wave (km/s) = 3.63357 4.09106 3.86908
# Velocity P-wave (km/s) = 5.96940 6.77505 6.38494
#
# Compressibility (1/GPa) = 0.02410420
#
# Stress axis : x y z
#
# Youngs Moduli (GPa) = 116.75315 96.68955 83.60936
#
# Poissons Ratio (x) = 0.09772 -0.02500
# Poissons Ratio (y) = 0.11799 0.22326
# Poissons Ratio (z) = -0.03492 0.25819
#
# Static dielectric constant tensor:
#      x y z
#    x 1.894920 -0.057350 -0.010620 
#    y -0.057350 1.995610 -0.005570 
#    z -0.010620 -0.005570 1.910880 
# 
# From -- ./inp_files/204363.got.cif
#   From: 2010.05.17/outbox.cif.g08.bks.cpg/sg2_103_cif.got.tgz:204363.got - 2010.06.03 11:33:40.
