data_PCOD9068941
_publ_section_title
;
Structure prediction by ZEFSAII (Michael W. Deem and Ramdas Pophale) SiO2 
 PCOD9068941
Probable space group: P -1
;
_chemical_formula_sum "Si O2"
_cell_formula_units_Z 12
_cell_length_a 11.901946
_cell_length_b 8.511870
_cell_length_c 9.299438
_cell_angle_alpha 116.413809
_cell_angle_beta 87.696121
_cell_angle_gamma 139.218531
_cell_volume 475.004438
_symmetry_space_group_name_H-M "P -1"
_symmetry_group_IT_number 2
_symmetry_cell_setting 'triclinic'
loop_
_space_group_symop_operation_xyz
x,y,z
-x,-y,-z
loop_
_atom_site_type_symbol
_atom_site_label
_atom_site_fract_x
_atom_site_fract_y
_atom_site_fract_z
Si Si1 0.542479 0.932894 0.839420
Si Si2 0.711557 0.695716 0.513513
Si Si3 0.065381 0.682993 0.921300
Si Si4 0.893889 0.197707 0.485322
Si Si5 0.478420 0.831089 0.308501
Si Si6 0.102434 0.249675 0.244937
O O1 0.356703 0.585317 0.648194
O O2 0.608891 0.160509 0.809524
O O3 0.500000 0.000000 0.000000
O O4 0.702071 0.005962 0.926130
O O5 0.500000 0.500000 0.500000
O O6 0.883558 0.898117 0.707672
O O7 0.801139 0.921063 0.471107
O O8 0.996337 0.456786 0.705726
O O9 0.006493 0.798183 0.905442
O O10 0.000000 0.500000 0.000000
O O11 0.033684 0.304487 0.394414
O O12 0.694806 0.027085 0.353282
O O13 0.317015 0.499595 0.255998
O O14 0.500000 0.000000 0.500000
#
# Coordination Sequence:
#
# PCOD9068941 Si02
#       6
#     2   2   2   2   2   2
#     4  12  25  44  72 105 141 181 234 296 351 410
#     4  12  24  47  73 101 143 189 233 286 354 424
#     4  12  23  42  68 105 137 176 237 292 343 407
#     4  12  25  44  74 100 136 189 239 283 344 425
#     4  12  21  44  71 100 138 190 235 281 343 427
#     4  12  24  43  70 102 135 186 241 278 341 435
#
# _framework density 25.262922
#
# number of rings (size 3 to 8) (size 9 to 14) (size 15 to 20)
#    0.000    0.000    6.667    4.000    0.000    0.000 
#    0.000    8.333    0.000    0.000    0.000    0.000 
#    0.000    0.000    0.000    0.000    0.000    0.000 
#
# Total GULP energy -66828.723509 kJ/mol
# GULP energy per Si atom -5569.060292 kJ/mol
# Density = 2.520542 g / cm^3
# Si number density = 25.262922 Si / 1000 Ang^3
#
#
#
# Elastic Constant Matrix: (Units=GPa)
#
#
# Indices 1 2 3 4 5 6 
#
# 1 129.4008 19.4322 49.7646 -11.3313 57.7394 -2.0589
# 2 19.4322 118.6598 28.0631 -21.6587 14.9358 -21.8350
# 3 49.7646 28.0631 110.9681 -24.7357 26.7820 24.7947
# 4 -11.3313 -21.6587 -24.7357 42.3035 -7.1149 10.5054
# 5 57.7394 14.9358 26.7820 -7.1149 59.5151 -11.8943
# 6 -2.0589 -21.8350 24.7947 10.5054 -11.8943 39.1570
#
#
#
# Elastic Compliance Matrix: (Units=1/GPa)
#
#
# Indices 1 2 3 4 5 6 
#
# 1 0.014829 -0.000315 -0.002940 0.000265 -0.013280 -0.001640
# 2 -0.000315 0.011503 -0.005501 0.000344 0.002014 0.010401
# 3 -0.002940 -0.005501 0.022219 0.013779 -0.008851 -0.023677
# 4 0.000265 0.000344 0.013779 0.035868 -0.006263 -0.020044
# 5 -0.013280 0.002014 -0.008851 -0.006263 0.036151 0.018690
# 6 -0.001640 0.010401 -0.023677 -0.020044 0.018690 0.057299
#
#
# Mechanical properties :
#
#
# Convention : Reuss Voigt Hill
#
# Bulk Modulus (GPa) = 32.21676 61.50539 46.86107
# Shear Modulus (GPa) = 24.30412 45.64638 34.97525
#
# Velocity S-wave (km/s) = 3.10505 4.25532 3.72486
# Velocity P-wave (km/s) = 5.06314 6.96725 6.09008
#
# Compressibility (1/GPa) = 0.03103975
#
# Stress axis : x y z
#
# Youngs Moduli (GPa) = 67.43695 86.93186 45.00630
#
# Poissons Ratio (x) = 0.02737 0.13231
# Poissons Ratio (y) = 0.02123 0.24759
# Poissons Ratio (z) = 0.19825 0.47822
#
# Static dielectric constant tensor:
#      x y z
#    x 1.869190 -0.061070 -0.172950 
#    y -0.061070 2.041710 0.153610 
#    z -0.172950 0.153610 2.107480 
# 
# From -- ./inp_files/160274.got.cif
#   From: 2010.05.17/outbox.cif.g08.bks.cpg/sg2_81_cif.got.tgz:160274.got - 2010.06.03 11:33:40.
