data_PCOD9068000
_publ_section_title
;
Structure prediction by ZEFSAII (Michael W. Deem and Ramdas Pophale) SiO2 
 PCOD9068000
Probable space group: P -1
;
_chemical_formula_sum "Si O2"
_cell_formula_units_Z 12
_cell_length_a 5.001642
_cell_length_b 12.412008
_cell_length_c 10.998654
_cell_angle_alpha 123.830641
_cell_angle_beta 122.250923
_cell_angle_gamma 74.187941
_cell_volume 479.392361
_symmetry_space_group_name_H-M "P -1"
_symmetry_group_IT_number 2
_symmetry_cell_setting 'triclinic'
loop_
_space_group_symop_operation_xyz
x,y,z
-x,-y,-z
loop_
_atom_site_type_symbol
_atom_site_label
_atom_site_fract_x
_atom_site_fract_y
_atom_site_fract_z
Si Si1 0.907723 0.910186 0.536522
Si Si2 0.571151 0.284164 0.440024
Si Si3 0.641610 0.467008 0.347284
Si Si4 0.232877 0.379055 0.975808
Si Si5 0.821587 0.984264 0.821592
Si Si6 0.622056 0.220441 0.799810
O O1 0.991686 0.977840 0.727343
O O2 0.543746 0.859629 0.401171
O O3 0.092869 0.777244 0.500658
O O4 0.000000 0.000000 0.500000
O O5 0.522359 0.362450 0.352665
O O6 0.520411 0.394741 0.596127
O O7 0.345538 0.157438 0.306210
O O8 0.532553 0.406957 0.155522
O O9 0.000000 0.500000 0.500000
O O10 0.398821 0.334204 0.863592
O O11 0.000000 0.500000 0.000000
O O12 0.977645 0.268691 0.888977
O O13 0.621002 0.112380 0.837963
O O14 0.000000 0.000000 0.000000
#
# Coordination Sequence:
#
# PCOD9068000 Si02
#       6
#     2   2   2   2   2   2
#     4  12  26  49  78 118 158 214 266 335 411 490
#     4  11  26  46  79 109 158 206 273 325 415 475
#     4  11  27  48  77 114 158 214 272 331 407 486
#     4  12  29  50  79 114 160 211 276 331 403 487
#     4  12  28  47  78 115 160 206 269 340 412 481
#     4  12  28  49  80 115 162 206 270 336 412 483
#
# _framework density 25.031686000000001
#
# number of rings (size 3 to 8) (size 9 to 14) (size 15 to 20)
#    0.000    0.333    1.667    5.000   16.333    0.667 
#    0.000    0.000    0.000    0.000    0.000    0.000 
#    0.000    0.000    0.000    0.000    0.000    0.000 
#
# Total GULP energy -67128.035789 kJ/mol
# GULP energy per Si atom -5594.002982 kJ/mol
# Density = 2.497471 g / cm^3
# Si number density = 25.031686 Si / 1000 Ang^3
#
#
#
# Elastic Constant Matrix: (Units=GPa)
#
#
# Indices 1 2 3 4 5 6 
#
# 1 95.5019 18.0294 43.4464 1.5571 1.2331 0.0874
# 2 18.0294 124.2942 30.5847 19.3068 6.3340 1.0173
# 3 43.4464 30.5847 185.9174 -19.0721 -4.2519 7.6801
# 4 1.5571 19.3068 -19.0721 46.4453 4.0060 0.6459
# 5 1.2331 6.3340 -4.2519 4.0060 39.6453 9.5784
# 6 0.0874 1.0173 7.6801 0.6459 9.5784 50.0551
#
#
#
# Elastic Compliance Matrix: (Units=1/GPa)
#
#
# Indices 1 2 3 4 5 6 
#
# 1 0.011931 -0.000836 -0.002805 -0.001164 -0.000553 0.000547
# 2 -0.000836 0.009393 -0.001862 -0.004533 -0.001314 0.000406
# 3 -0.002805 -0.001862 0.006783 0.003580 0.001051 -0.001245
# 4 -0.001164 -0.004533 0.003580 0.025040 -0.001256 -0.000538
# 5 -0.000553 -0.001314 0.001051 -0.001256 0.026966 -0.005277
# 6 0.000547 0.000406 -0.001245 -0.000538 -0.005277 0.021177
#
#
# Mechanical properties :
#
#
# Convention : Reuss Voigt Hill
#
# Bulk Modulus (GPa) = 58.47596 65.53719 62.00657
# Shear Modulus (GPa) = 42.37488 48.13933 45.25711
#
# Velocity S-wave (km/s) = 4.11889 4.39011 4.25666
# Velocity P-wave (km/s) = 6.78468 7.20666 6.99885
#
# Compressibility (1/GPa) = 0.01710105
#
# Stress axis : x y z
#
# Youngs Moduli (GPa) = 83.81828 106.46736 147.42110
#
# Poissons Ratio (x) = 0.08898 0.41355
# Poissons Ratio (y) = 0.07005 0.27445
# Poissons Ratio (z) = 0.23513 0.19821
#
# Static dielectric constant tensor:
#      x y z
#    x 2.082910 -0.006040 -0.005370 
#    y -0.006040 1.942140 -0.011500 
#    z -0.005370 -0.011500 2.018840 
# 
# From -- ./inp_files/108714.got.cif
#   From: 2010.05.17/outbox.cif.g08.bks.cpg/sg2_55_cif.got.tgz:108714.got - 2010.06.03 11:33:40.
