data_PCOD9068686
_publ_section_title
;
Structure prediction by ZEFSAII (Michael W. Deem and Ramdas Pophale) SiO2 
 PCOD9068686
Probable space group: P -1
;
_chemical_formula_sum "Si O2"
_cell_formula_units_Z 10
_cell_length_a 5.240820
_cell_length_b 11.401798
_cell_length_c 8.955018
_cell_angle_alpha 41.597786
_cell_angle_beta 94.689983
_cell_angle_gamma 81.127158
_cell_volume 334.781361
_symmetry_space_group_name_H-M "P -1"
_symmetry_group_IT_number 2
_symmetry_cell_setting 'triclinic'
loop_
_space_group_symop_operation_xyz
x,y,z
-x,-y,-z
loop_
_atom_site_type_symbol
_atom_site_label
_atom_site_fract_x
_atom_site_fract_y
_atom_site_fract_z
Si Si1 0.305851 0.402770 0.156038
Si Si2 0.640769 0.839953 0.376241
Si Si3 0.139692 0.094648 0.292222
Si Si4 0.338412 0.768441 0.082227
Si Si5 0.184676 0.582134 0.538979
O O1 0.390269 0.358527 0.374488
O O2 0.320430 0.197333 0.292222
O O3 0.500000 0.500000 0.000000
O O4 0.000000 0.500000 0.000000
O O5 0.974286 0.730305 0.495587
O O6 0.349493 0.962883 0.314649
O O7 0.664833 0.018734 0.112412
O O8 0.000000 0.000000 0.500000
O O9 0.891274 0.224282 0.057351
O O10 0.297841 0.698245 0.312045
O O11 0.623675 0.616013 0.196126
O O12 0.000000 0.500000 0.500000
#
# Coordination Sequence:
#
# PCOD9068686 Si02
#       5
#     2   2   2   2   2
#     4  12  30  50  83 129 180 232 291 358 448 530
#     4  12  28  49  87 119 170 230 290 357 440 519
#     4  12  27  53  84 128 178 229 288 361 440 533
#     4  11  27  52  85 117 177 221 297 356 443 514
#     4  11  28  53  82 126 169 227 293 368 435 518
#
# _framework density 29.870242999999999
#
# number of rings (size 3 to 8) (size 9 to 14) (size 15 to 20)
#    0.000    0.400    2.000    3.600    8.400    6.400 
#    0.000    0.000    0.000    0.000    0.000    0.000 
#    0.000    0.000    0.000    0.000    0.000    0.000 
#
# Total GULP energy -55718.235976 kJ/mol
# GULP energy per Si atom -5571.823598 kJ/mol
# Density = 2.980226 g / cm^3
# Si number density = 29.870243 Si / 1000 Ang^3
#
#
#
# Elastic Constant Matrix: (Units=GPa)
#
#
# Indices 1 2 3 4 5 6 
#
# 1 127.4960 21.8024 92.1615 12.7219 17.5632 -32.3690
# 2 21.8024 75.3587 25.4209 18.5673 20.4688 8.3448
# 3 92.1615 25.4209 300.3976 4.2963 8.1528 -2.0546
# 4 12.7219 18.5673 4.2963 58.9104 -13.3835 14.8200
# 5 17.5632 20.4688 8.1528 -13.3835 109.3494 -7.1201
# 6 -32.3690 8.3448 -2.0546 14.8200 -7.1201 79.1480
#
#
#
# Elastic Compliance Matrix: (Units=1/GPa)
#
#
# Indices 1 2 3 4 5 6 
#
# 1 0.012904 -0.001800 -0.003670 -0.003797 -0.001540 0.005944
# 2 -0.001800 0.016415 -0.000683 -0.005059 -0.003472 -0.001850
# 3 -0.003670 -0.000683 0.004474 0.001154 0.000428 -0.001490
# 4 -0.003797 -0.005059 0.001154 0.021332 0.003779 -0.004644
# 5 -0.001540 -0.003472 0.000428 0.003779 0.010472 -0.000018
# 6 0.005944 -0.001850 -0.001490 -0.004644 -0.000018 0.016090
#
#
# Mechanical properties :
#
#
# Convention : Reuss Voigt Hill
#
# Bulk Modulus (GPa) = 46.53700 86.89133 66.71416
# Shear Modulus (GPa) = 49.42868 73.73939 61.58404
#
# Velocity S-wave (km/s) = 4.07231 4.97395 4.54554
# Velocity P-wave (km/s) = 6.14208 7.88287 7.06629
#
# Compressibility (1/GPa) = 0.02148828
#
# Stress axis : x y z
#
# Youngs Moduli (GPa) = 77.49454 60.91846 223.49679
#
# Poissons Ratio (x) = 0.10965 0.82021
# Poissons Ratio (y) = 0.13948 0.15265
# Poissons Ratio (z) = 0.28440 0.04161
#
# Static dielectric constant tensor:
#      x y z
#    x 2.365230 -0.233110 0.005460 
#    y -0.233110 2.130130 0.067240 
#    z 0.005460 0.067240 2.380950 
# 
# From -- ./inp_files/367337.got.cif
#   From: 2010.05.17/outbox.cif.g08.bks.cpg/sg2_184_cif.got.tgz:367337.got - 2010.06.03 11:33:40.
