data_PCOD9068080
_publ_section_title
;
Structure prediction by ZEFSAII (Michael W. Deem and Ramdas Pophale) SiO2 
 PCOD9068080
Probable space group: P -1
;
_chemical_formula_sum "Si O2"
_cell_formula_units_Z 16
_cell_length_a 4.867629
_cell_length_b 8.933850
_cell_length_c 14.718895
_cell_angle_alpha 90.468813
_cell_angle_beta 80.666369
_cell_angle_gamma 96.759555
_cell_volume 627.172312
_symmetry_space_group_name_H-M "P -1"
_symmetry_group_IT_number 2
_symmetry_cell_setting 'triclinic'
loop_
_space_group_symop_operation_xyz
x,y,z
-x,-y,-z
loop_
_atom_site_type_symbol
_atom_site_label
_atom_site_fract_x
_atom_site_fract_y
_atom_site_fract_z
Si Si1 0.404272 0.424080 0.409202
Si Si2 0.805476 0.621270 0.046525
Si Si3 0.380809 0.369461 0.142559
Si Si4 0.978879 0.509876 0.294580
Si Si5 0.535869 0.054300 0.192644
Si Si6 0.370003 0.151024 0.527708
Si Si7 0.060708 0.936570 0.094827
Si Si8 0.794109 0.172390 0.654896
O O1 0.500000 0.500000 0.500000
O O2 0.114244 0.458733 0.381693
O O3 0.376830 0.249432 0.437257
O O4 0.648271 0.473065 0.324188
O O5 0.581150 0.525947 0.121661
O O6 0.970462 0.759152 0.090648
O O7 0.676667 0.677738 0.960058
O O8 0.000000 0.500000 0.000000
O O9 0.108642 0.414567 0.209022
O O10 0.501625 0.229958 0.184318
O O11 0.085766 0.687890 0.286873
O O12 0.854174 0.016268 0.173275
O O13 0.370573 0.966396 0.283350
O O14 0.374226 0.975180 0.113460
O O15 0.573370 0.228407 0.595963
O O16 0.059343 0.128422 0.584845
O O17 0.500000 0.000000 0.500000
O O18 0.000000 0.000000 0.000000
#
# Coordination Sequence:
#
# PCOD9068080 Si02
#       8
#     2   2   2   2   2   2   2   2
#     4  12  24  47  74 100 139 184 236 285 346 426
#     4  11  26  47  75 101 147 188 242 295 353 423
#     4  11  28  45  71 110 141 186 241 298 352 421
#     4  12  26  44  74 105 141 183 234 293 351 414
#     4  12  28  46  72 105 144 186 241 291 357 419
#     4  12  27  45  72 102 139 184 234 283 355 417
#     4  12  25  47  74 100 141 191 235 290 355 425
#     4  12  25  47  69 102 143 182 231 290 350 422
#
# _framework density 25.511326
#
# number of rings (size 3 to 8) (size 9 to 14) (size 15 to 20)
#    0.000    0.250    3.750    4.125   10.500    0.000 
#    0.000    0.000    0.000    0.000    0.000    0.000 
#    0.000    0.000    0.000    0.000    0.000    0.000 
#
# Total GULP energy -89790.399159 kJ/mol
# GULP energy per Si atom -5611.899947 kJ/mol
# Density = 2.545326 g / cm^3
# Si number density = 25.511326 Si / 1000 Ang^3
#
#
#
# Elastic Constant Matrix: (Units=GPa)
#
#
# Indices 1 2 3 4 5 6 
#
# 1 86.6773 -2.4944 20.2575 -3.5008 -14.3449 -8.3410
# 2 -2.4944 136.8931 33.7523 -2.1144 -6.7918 -12.3507
# 3 20.2575 33.7523 116.2699 -13.7377 -11.6246 -3.6893
# 4 -3.5008 -2.1144 -13.7377 38.7401 -5.1900 3.6956
# 5 -14.3449 -6.7918 -11.6246 -5.1900 58.5226 6.3804
# 6 -8.3410 -12.3507 -3.6893 3.6956 6.3804 37.4494
#
#
#
# Elastic Compliance Matrix: (Units=1/GPa)
#
#
# Indices 1 2 3 4 5 6 
#
# 1 0.012766 0.001125 -0.002144 0.000566 0.002611 0.002503
# 2 0.001125 0.008200 -0.002517 -0.000549 0.000385 0.002696
# 3 -0.002144 -0.002517 0.010267 0.003619 0.001645 -0.000933
# 4 0.000566 -0.000549 0.003619 0.027893 0.003602 -0.003065
# 5 0.002611 0.000385 0.001645 0.003602 0.018710 -0.002672
# 6 0.002503 0.002696 -0.000933 -0.003065 -0.002672 0.028815
#
#
# Mechanical properties :
#
#
# Convention : Reuss Voigt Hill
#
# Bulk Modulus (GPa) = 41.38669 49.20789 45.29729
# Shear Modulus (GPa) = 41.05908 46.16408 43.61158
#
# Velocity S-wave (km/s) = 4.01614 4.25850 4.13909
# Velocity P-wave (km/s) = 6.14524 6.59623 6.37472
#
# Compressibility (1/GPa) = 0.02416236
#
# Stress axis : x y z
#
# Youngs Moduli (GPa) = 78.33155 121.95198 97.39640
#
# Poissons Ratio (x) = -0.13722 0.20877
# Poissons Ratio (y) = -0.08814 0.24517
# Poissons Ratio (z) = 0.16790 0.30699
#
# Static dielectric constant tensor:
#      x y z
#    x 1.962670 0.032150 0.058110 
#    y 0.032150 2.032060 0.019000 
#    z 0.058110 0.019000 2.029650 
# 
# From -- ./inp_files/135330.got.cif
#   From: 2010.05.17/outbox.cif.g08.bks.cpg/sg2_68_cif.got.tgz:135330.got - 2010.06.03 11:33:40.
