data_PCOD9068437
_publ_section_title
;
Structure prediction by ZEFSAII (Michael W. Deem and Ramdas Pophale) SiO2 
 PCOD9068437
Probable space group: P -1
;
_chemical_formula_sum "Si O2"
_cell_formula_units_Z 11
_cell_length_a 12.613740
_cell_length_b 8.068327
_cell_length_c 8.314572
_cell_angle_alpha 68.162554
_cell_angle_beta 57.939853
_cell_angle_gamma 112.765813
_cell_volume 445.615791
_symmetry_space_group_name_H-M "P -1"
_symmetry_group_IT_number 2
_symmetry_cell_setting 'triclinic'
loop_
_space_group_symop_operation_xyz
x,y,z
-x,-y,-z
loop_
_atom_site_type_symbol
_atom_site_label
_atom_site_fract_x
_atom_site_fract_y
_atom_site_fract_z
Si Si1 0.691873 0.861386 0.485361
Si Si2 0.000000 0.000000 0.000000
Si Si3 0.213182 0.662272 0.284624
Si Si4 0.201849 0.277198 0.291181
Si Si5 0.419657 0.896588 0.365447
Si Si6 0.666208 0.556764 0.223466
O O1 0.632220 0.002945 0.502571
O O2 0.895005 0.038144 0.186351
O O3 0.692160 0.774493 0.693567
O O4 0.544013 0.598430 0.586876
O O5 0.165572 0.148575 0.949997
O O6 0.204180 0.437300 0.362077
O O7 0.301061 0.809906 0.330561
O O8 0.000000 0.500000 0.500000
O O9 0.364089 0.882196 0.948109
O O10 0.285700 0.440240 0.001009
O O11 0.000000 0.000000 0.500000
O O12 0.351252 0.636330 0.583191
#
# Coordination Sequence:
#
# PCOD9068437 Si02
#       6
#     2   1   2   2   2   2
#     4  12  26  50  77 109 151 201 249 316 376 448
#     4  12  28  48  74 112 150 198 254 310 372 444
#     4  11  26  50  78 111 151 200 248 311 380 453
#     4  12  25  50  78 110 153 203 250 308 383 446
#     4  11  27  49  77 113 149 197 255 309 377 448
#     4  12  27  50  77 111 152 201 254 312 374 452
#
# _framework density 24.684941999999999
#
# number of rings (size 3 to 8) (size 9 to 14) (size 15 to 20)
#    0.000    0.364    3.636    3.818    0.000    3.636 
#    6.545    0.000    0.000    0.000    0.000    0.000 
#    0.000    0.000    0.000    0.000    0.000    0.000 
#
# Total GULP energy -61288.074991 kJ/mol
# GULP energy per Si atom -5571.643181 kJ/mol
# Density = 2.462876 g / cm^3
# Si number density = 24.684942 Si / 1000 Ang^3
#
#
#
# Elastic Constant Matrix: (Units=GPa)
#
#
# Indices 1 2 3 4 5 6 
#
# 1 92.9379 4.4363 27.5633 11.2454 -6.0788 13.1685
# 2 4.4363 84.4114 3.3120 15.1945 -0.9560 8.6690
# 3 27.5633 3.3120 112.6357 17.5216 -17.3108 -10.2905
# 4 11.2454 15.1945 17.5216 33.8764 -3.2337 -7.4515
# 5 -6.0788 -0.9560 -17.3108 -3.2337 51.0549 -10.3931
# 6 13.1685 8.6690 -10.2905 -7.4515 -10.3931 53.9522
#
#
#
# Elastic Compliance Matrix: (Units=1/GPa)
#
#
# Indices 1 2 3 4 5 6 
#
# 1 0.012692 0.000615 -0.003013 -0.003971 -0.000656 -0.004446
# 2 0.000615 0.013434 0.000131 -0.007123 -0.000778 -0.003417
# 3 -0.003013 0.000131 0.011051 -0.003748 0.003770 0.003031
# 4 -0.003971 -0.007123 -0.003748 0.037689 0.001930 0.006976
# 5 -0.000656 -0.000778 0.003770 0.001930 0.022017 0.005512
# 6 -0.004446 -0.003417 0.003031 0.006976 0.005512 0.022773
#
#
# Mechanical properties :
#
#
# Convention : Reuss Voigt Hill
#
# Bulk Modulus (GPa) = 30.63527 40.06759 35.35143
# Shear Modulus (GPa) = 37.01779 44.75492 40.88635
#
# Velocity S-wave (km/s) = 3.87668 4.26261 4.07422
# Velocity P-wave (km/s) = 5.69874 6.36343 6.04024
#
# Compressibility (1/GPa) = 0.03264212
#
# Stress axis : x y z
#
# Youngs Moduli (GPa) = 78.79148 74.44004 90.48928
#
# Poissons Ratio (x) = -0.04580 0.27266
# Poissons Ratio (y) = -0.04847 -0.01183
# Poissons Ratio (z) = 0.23741 -0.00974
#
# Static dielectric constant tensor:
#      x y z
#    x 1.944220 -0.036650 -0.090490 
#    y -0.036650 2.010810 0.087800 
#    z -0.090490 0.087800 2.261610 
# 
# From -- ./inp_files/172663.got.cif
#   From: 2010.05.17/outbox.cif.g08.bks.cpg/sg2_87_cif.got.tgz:172663.got - 2010.06.03 11:33:40.
