data_PCOD9068976
_publ_section_title
;
Structure prediction by ZEFSAII (Michael W. Deem and Ramdas Pophale) SiO2 
 PCOD9068976
Probable space group: P -1
;
_chemical_formula_sum "Si O2"
_cell_formula_units_Z 16
_cell_length_a 14.491833
_cell_length_b 12.615720
_cell_length_c 9.902757
_cell_angle_alpha 46.475409
_cell_angle_beta 109.507855
_cell_angle_gamma 72.642445
_cell_volume 785.016222
_symmetry_space_group_name_H-M "P -1"
_symmetry_group_IT_number 2
_symmetry_cell_setting 'triclinic'
loop_
_space_group_symop_operation_xyz
x,y,z
-x,-y,-z
loop_
_atom_site_type_symbol
_atom_site_label
_atom_site_fract_x
_atom_site_fract_y
_atom_site_fract_z
Si Si1 0.873107 0.048652 0.821217
Si Si2 0.884803 0.059282 0.496843
Si Si3 0.617353 0.989835 0.118357
Si Si4 0.570477 0.520047 0.900542
Si Si5 0.536696 0.527174 0.348900
Si Si6 0.164576 0.234048 0.834541
Si Si7 0.626024 0.963093 0.652972
Si Si8 0.837387 0.772486 0.669617
O O1 0.912453 0.005194 0.718521
O O2 0.705342 0.304049 0.562232
O O3 0.868633 0.886681 0.012212
O O4 0.000000 0.000000 0.000000
O O5 0.854498 0.929790 0.537725
O O6 0.745011 0.338315 0.187335
O O7 0.000000 0.000000 0.500000
O O8 0.738595 0.889076 0.147713
O O9 0.726491 0.842119 0.433204
O O10 0.500000 0.000000 0.000000
O O11 0.506553 0.254359 0.861030
O O12 0.577551 0.421225 0.854176
O O13 0.465561 0.780096 0.595741
O O14 0.500000 0.500000 0.000000
O O15 0.500000 0.500000 0.500000
O O16 0.000000 0.500000 0.500000
O O17 0.279779 0.185059 0.036819
O O18 0.500000 0.000000 0.500000
O O19 0.749969 0.843006 0.703418
O O20 0.000000 0.500000 0.000000
#
# Coordination Sequence:
#
# PCOD9068976 Si02
#       8
#     2   2   2   2   2   2   2   2
#     4  12  28  47  72 108 145 189 240 299 363 429
#     4  12  28  47  74 107 140 192 244 297 364 428
#     4  12  27  45  72 110 141 191 244 291 360 430
#     4  12  21  47  73  96 138 186 243 299 348 417
#     4  12  23  45  74 100 141 187 239 298 353 419
#     4  12  26  49  69 104 153 190 233 296 363 431
#     4  12  25  46  73 104 138 192 241 293 361 427
#     4  12  26  47  69 103 149 186 234 303 358 429
#
# _framework density 20.381743
#
# number of rings (size 3 to 8) (size 9 to 14) (size 15 to 20)
#    0.000    0.000    7.500    1.500    7.000    1.000 
#    0.000    0.000    0.000    0.000    0.000    0.000 
#    0.000    0.000    0.000    0.000    0.000    0.000 
#
# Total GULP energy -89344.558144 kJ/mol
# GULP energy per Si atom -5584.034884 kJ/mol
# Density = 2.033535 g / cm^3
# Si number density = 20.381743 Si / 1000 Ang^3
#
#
#
# Elastic Constant Matrix: (Units=GPa)
#
#
# Indices 1 2 3 4 5 6 
#
# 1 51.5222 35.8251 22.8867 -19.5652 6.9229 -8.9013
# 2 35.8251 124.4653 58.7070 2.2028 -7.6626 -0.1799
# 3 22.8867 58.7070 147.4831 -17.1897 5.1608 7.0765
# 4 -19.5652 2.2028 -17.1897 49.2838 -4.3241 3.0072
# 5 6.9229 -7.6626 5.1608 -4.3241 23.7773 4.6963
# 6 -8.9013 -0.1799 7.0765 3.0072 4.6963 51.9207
#
#
#
# Elastic Compliance Matrix: (Units=1/GPa)
#
#
# Indices 1 2 3 4 5 6 
#
# 1 0.034726 -0.011394 0.000822 0.013079 -0.012807 0.006203
# 2 -0.011394 0.014175 -0.004781 -0.006009 0.008155 -0.001642
# 3 0.000822 -0.004781 0.009120 0.003530 -0.002908 -0.001060
# 4 0.013079 -0.006009 0.003530 0.026813 -0.001702 0.000341
# 5 -0.012807 0.008155 -0.002908 -0.001702 0.049958 -0.006191
# 6 0.006203 -0.001642 -0.001060 0.000341 -0.006191 0.021003
#
#
# Mechanical properties :
#
#
# Convention : Reuss Voigt Hill
#
# Bulk Modulus (GPa) = 36.61084 62.03426 49.32255
# Shear Modulus (GPa) = 25.56145 38.73313 32.14729
#
# Velocity S-wave (km/s) = 3.54522 4.36407 3.97578
# Velocity P-wave (km/s) = 5.89573 7.47634 6.73258
#
# Compressibility (1/GPa) = 0.02731432
#
# Stress axis : x y z
#
# Youngs Moduli (GPa) = 28.79693 70.54634 109.64520
#
# Poissons Ratio (x) = 0.80378 -0.09008
# Poissons Ratio (y) = 0.32810 0.52425
# Poissons Ratio (z) = -0.02366 0.33731
#
# Static dielectric constant tensor:
#      x y z
#    x 1.685990 0.069160 0.075410 
#    y 0.069160 1.664410 -0.029150 
#    z 0.075410 -0.029150 1.736840 
# 
# From -- ./inp_files/227717.got.cif
#   From: 2010.05.17/outbox.cif.g08.bks.cpg/sg2_114_cif.got.tgz:227717.got - 2010.06.03 11:33:40.
