data_PCOD9068972
_publ_section_title
;
Structure prediction by ZEFSAII (Michael W. Deem and Ramdas Pophale) SiO2 
 PCOD9068972
Probable space group: P -1
;
_chemical_formula_sum "Si O2"
_cell_formula_units_Z 14
_cell_length_a 15.634656
_cell_length_b 10.416429
_cell_length_c 17.205143
_cell_angle_alpha 152.660780
_cell_angle_beta 25.785235
_cell_angle_gamma 152.465157
_cell_volume 504.073316
_symmetry_space_group_name_H-M "P -1"
_symmetry_group_IT_number 2
_symmetry_cell_setting 'triclinic'
loop_
_space_group_symop_operation_xyz
x,y,z
-x,-y,-z
loop_
_atom_site_type_symbol
_atom_site_label
_atom_site_fract_x
_atom_site_fract_y
_atom_site_fract_z
Si Si1 0.836037 0.694916 0.166838
Si Si2 0.897969 0.225313 0.753868
Si Si3 0.374251 0.630565 0.071359
Si Si4 0.977757 0.372167 0.345325
Si Si5 0.643090 0.020693 0.316250
Si Si6 0.172175 0.106569 0.217621
Si Si7 0.594074 0.493136 0.505513
O O1 0.585246 0.484425 0.277985
O O2 0.890251 0.039926 0.278046
O O3 0.969088 0.790867 0.189474
O O4 0.918741 0.530956 0.948122
O O5 0.149830 0.276857 0.567722
O O6 0.779251 0.946783 0.762671
O O7 0.745107 0.215056 0.801630
O O8 0.630386 0.845574 0.975083
O O9 0.356884 0.307187 0.876182
O O10 0.237748 0.545785 0.216841
O O11 0.880484 0.275594 0.285996
O O12 0.886302 0.601847 0.578564
O O13 0.577454 0.159192 0.369169
O O14 0.500000 0.000000 0.500000
O O15 0.500000 0.500000 0.500000
#
# Coordination Sequence:
#
# PCOD9068972 Si02
#       7
#     2   2   2   2   2   2   2
#     4  12  26  48  74 101 148 192 244 294 361 437
#     4  12  26  47  74 105 142 193 243 293 364 435
#     4  12  25  46  77 105 141 189 246 297 358 435
#     4  12  25  44  75 105 142 189 248 297 355 433
#     4  12  21  46  78 106 139 194 245 299 353 432
#     4  12  28  44  66 111 150 186 231 310 368 418
#     4  12  25  43  74 107 141 187 244 294 359 423
#
# _framework density 27.773738999999999
#
# number of rings (size 3 to 8) (size 9 to 14) (size 15 to 20)
#    0.000    0.000    7.143    2.571    0.000    3.429 
#    0.000    0.000    0.000    0.000    0.000    0.000 
#    0.000    0.000    0.000    0.000    0.000    0.000 
#
# Total GULP energy -78533.100841 kJ/mol
# GULP energy per Si atom -5609.507203 kJ/mol
# Density = 2.771052 g / cm^3
# Si number density = 27.773739 Si / 1000 Ang^3
#
#
#
# Elastic Constant Matrix: (Units=GPa)
#
#
# Indices 1 2 3 4 5 6 
#
# 1 117.5505 28.1298 28.7118 4.7496 -21.8277 -25.8317
# 2 28.1298 117.0861 69.0507 -15.6862 -12.9675 -14.6864
# 3 28.7118 69.0507 175.8809 -10.3907 -3.2776 -15.4755
# 4 4.7496 -15.6862 -10.3907 82.9856 -5.2850 -7.9504
# 5 -21.8277 -12.9675 -3.2776 -5.2850 36.4027 3.6019
# 6 -25.8317 -14.6864 -15.4755 -7.9504 3.6019 60.2362
#
#
#
# Elastic Compliance Matrix: (Units=1/GPa)
#
#
# Indices 1 2 3 4 5 6 
#
# 1 0.010875 -0.000960 -0.000969 -0.000198 0.005686 0.003815
# 2 -0.000960 0.012183 -0.004296 0.002193 0.003544 0.001533
# 3 -0.000969 -0.004296 0.007564 0.000153 -0.001466 0.000588
# 4 -0.000198 0.002193 0.000153 0.012840 0.002338 0.002044
# 5 0.005686 0.003544 -0.001466 0.002338 0.032220 0.001308
# 6 0.003815 0.001533 0.000588 0.002044 0.001308 0.018954
#
#
# Mechanical properties :
#
#
# Convention : Reuss Voigt Hill
#
# Bulk Modulus (GPa) = 55.02456 73.58913 64.30684
# Shear Modulus (GPa) = 44.19158 54.89991 49.54574
#
# Velocity S-wave (km/s) = 3.99322 4.45081 4.22821
# Velocity P-wave (km/s) = 6.41216 7.27781 6.85865
#
# Compressibility (1/GPa) = 0.01817370
#
# Stress axis : x y z
#
# Youngs Moduli (GPa) = 91.95133 82.07873 132.20632
#
# Poissons Ratio (x) = 0.07878 0.12805
# Poissons Ratio (y) = 0.08826 0.56797
# Poissons Ratio (z) = 0.08906 0.35262
#
# Static dielectric constant tensor:
#      x y z
#    x 2.261780 0.025460 -0.092740 
#    y 0.025460 2.148830 -0.036740 
#    z -0.092740 -0.036740 2.137950 
# 
# From -- ./inp_files/600117.got.cif
#   From: 2010.05.17/outbox.cif.g08.bks.cpg/sg2_301_cif.got.tgz:600117.got - 2010.06.03 11:33:40.
