data_PCOD9068943
_publ_section_title
;
Structure prediction by ZEFSAII (Michael W. Deem and Ramdas Pophale) SiO2 
 PCOD9068943
Probable space group: P -1
;
_chemical_formula_sum "Si O2"
_cell_formula_units_Z 14
_cell_length_a 9.797235
_cell_length_b 11.358578
_cell_length_c 10.959682
_cell_angle_alpha 98.024005
_cell_angle_beta 80.588156
_cell_angle_gamma 153.882841
_cell_volume 529.586627
_symmetry_space_group_name_H-M "P -1"
_symmetry_group_IT_number 2
_symmetry_cell_setting 'triclinic'
loop_
_space_group_symop_operation_xyz
x,y,z
-x,-y,-z
loop_
_atom_site_type_symbol
_atom_site_label
_atom_site_fract_x
_atom_site_fract_y
_atom_site_fract_z
Si Si1 0.167727 0.274925 0.465759
Si Si2 0.236029 0.029942 0.291496
Si Si3 0.117179 0.953268 0.767056
Si Si4 0.038073 0.851938 0.042324
Si Si5 0.924221 0.570569 0.363535
Si Si6 0.280389 0.635195 0.017841
Si Si7 0.805017 0.470162 0.705581
O O1 0.500000 0.500000 0.500000
O O2 0.129368 0.390930 0.500388
O O3 0.133770 0.205713 0.322980
O O4 0.915187 0.041466 0.569595
O O5 0.604811 0.327915 0.296926
O O6 0.165208 0.834127 0.288457
O O7 0.040766 0.919448 0.183154
O O8 0.048901 0.923745 0.916968
O O9 0.065711 0.770368 0.737432
O O10 0.449955 0.242758 0.700136
O O11 0.780934 0.551119 0.032340
O O12 0.385944 0.066382 0.033389
O O13 0.049836 0.538050 0.370339
O O14 0.283959 0.644250 0.162260
O O15 0.000000 0.500000 0.000000
#
# Coordination Sequence:
#
# PCOD9068943 Si02
#       7
#     2   2   2   2   2   2   2
#     4  10  26  46  64  83 115 161 206 248 294 349
#     4  10  21  38  61  89 118 156 200 242 288 349
#     4  10  23  38  61  90 124 157 191 239 296 356
#     4  10  19  34  55  85 121 148 191 238 286 346
#     4  10  22  38  64  89 122 156 199 241 291 354
#     4  10  18  28  53  83 125 159 184 221 286 359
#     4  10  20  36  57  95 124 155 188 240 298 351
#
# _framework density 26.435714000000001
#
# number of rings (size 3 to 8) (size 9 to 14) (size 15 to 20)
#    0.857    1.143    0.000    3.857    2.000    4.000 
#    0.000    0.714    0.000    0.857    0.000    0.000 
#    0.000    0.000    0.000    0.000    0.000    0.000 
#
# Total GULP energy -78142.378649 kJ/mol
# GULP energy per Si atom -5581.598475 kJ/mol
# Density = 2.637554 g / cm^3
# Si number density = 26.435714 Si / 1000 Ang^3
#
#
#
# Elastic Constant Matrix: (Units=GPa)
#
#
# Indices 1 2 3 4 5 6 
#
# 1 69.5751 5.3443 25.5445 11.8651 -13.9188 -9.3865
# 2 5.3443 115.8359 23.2738 7.6721 -3.1306 -4.8318
# 3 25.5445 23.2738 170.5716 34.0121 -16.3530 -5.9267
# 4 11.8651 7.6721 34.0121 43.3306 -3.8857 8.1684
# 5 -13.9188 -3.1306 -16.3530 -3.8857 41.4410 10.6341
# 6 -9.3865 -4.8318 -5.9267 8.1684 10.6341 39.4771
#
#
#
# Elastic Compliance Matrix: (Units=1/GPa)
#
#
# Indices 1 2 3 4 5 6 
#
# 1 0.016751 -0.000012 -0.001225 -0.003952 0.003853 0.003577
# 2 -0.000012 0.008946 -0.000980 -0.001047 -0.000119 0.001194
# 3 -0.001225 -0.000980 0.007475 -0.005483 0.001586 0.001418
# 4 -0.003952 -0.001047 -0.005483 0.030400 0.001482 -0.008581
# 5 0.003853 -0.000119 0.001586 0.001482 0.027895 -0.006681
# 6 0.003577 0.001194 0.001418 -0.008581 -0.006681 0.030116
#
#
# Mechanical properties :
#
#
# Convention : Reuss Voigt Hill
#
# Bulk Modulus (GPa) = 34.79697 51.58975 43.19336
# Shear Modulus (GPa) = 36.87404 44.97107 40.92255
#
# Velocity S-wave (km/s) = 3.73883 4.12897 3.93873
# Velocity P-wave (km/s) = 5.64180 6.50298 6.08764
#
# Compressibility (1/GPa) = 0.02873813
#
# Stress axis : x y z
#
# Youngs Moduli (GPa) = 59.69741 111.77805 133.78753
#
# Poissons Ratio (x) = 0.00129 0.16393
# Poissons Ratio (y) = 0.00069 0.13112
# Poissons Ratio (z) = 0.07315 0.10955
#
# Static dielectric constant tensor:
#      x y z
#    x 2.314290 -0.088940 0.065280 
#    y -0.088940 1.539500 0.110540 
#    z 0.065280 0.110540 2.200050 
# 
# From -- ./inp_files/432949.got.cif
#   From: 2010.05.17/outbox.cif.g08.bks.cpg/sg2_217_cif.got.tgz:432949.got - 2010.06.03 11:33:40.
