data_PCOD9068649
_publ_section_title
;
Structure prediction by ZEFSAII (Michael W. Deem and Ramdas Pophale) SiO2 
 PCOD9068649
Probable space group: P -1
;
_chemical_formula_sum "Si O2"
_cell_formula_units_Z 12
_cell_length_a 17.062634
_cell_length_b 13.933213
_cell_length_c 9.221995
_cell_angle_alpha 31.947466
_cell_angle_beta 143.266238
_cell_angle_gamma 157.607780
_cell_volume 440.382064
_symmetry_space_group_name_H-M "P -1"
_symmetry_group_IT_number 2
_symmetry_cell_setting 'triclinic'
loop_
_space_group_symop_operation_xyz
x,y,z
-x,-y,-z
loop_
_atom_site_type_symbol
_atom_site_label
_atom_site_fract_x
_atom_site_fract_y
_atom_site_fract_z
Si Si1 0.955078 0.173566 0.301213
Si Si2 0.564417 0.637121 0.262837
Si Si3 0.232175 0.289406 0.786410
Si Si4 0.643960 0.291384 0.319274
Si Si5 0.267615 0.775873 0.899567
Si Si6 0.840765 0.208018 0.601437
O O1 0.827630 0.201293 0.145836
O O2 0.029483 0.138320 0.593109
O O3 0.805121 0.936220 0.262693
O O4 0.153456 0.462375 0.144279
O O5 0.500000 0.500000 0.500000
O O6 0.578364 0.523355 0.289072
O O7 0.430777 0.667371 0.981042
O O8 0.290431 0.505800 0.710793
O O9 0.188258 0.041739 0.097950
O O10 0.894829 0.497178 0.378816
O O11 0.382257 0.967441 0.409908
O O12 0.219961 0.809668 0.631128
O O13 0.500000 0.000000 0.000000
#
# Coordination Sequence:
#
# PCOD9068649 Si02
#       6
#     2   2   2   2   2   2
#     4  11  28  50  81 122 170 213 276 347 414 497
#     4  12  29  50  82 122 165 221 276 342 421 496
#     4  12  29  53  80 120 170 212 279 351 407 498
#     4  12  29  51  81 115 162 219 277 339 417 489
#     4  11  27  49  83 121 164 219 276 338 419 496
#     4  12  28  50  81 116 162 217 277 340 418 496
#
# _framework density 27.249068000000001
#
# number of rings (size 3 to 8) (size 9 to 14) (size 15 to 20)
#    0.000    0.333    1.667    4.000   16.333    1.333 
#    0.000    0.833    0.000    0.000    0.000    0.000 
#    0.000    0.000    0.000    0.000    0.000    0.000 
#
# Total GULP energy -67261.479276 kJ/mol
# GULP energy per Si atom -5605.123273 kJ/mol
# Density = 2.718705 g / cm^3
# Si number density = 27.249068 Si / 1000 Ang^3
#
#
#
# Elastic Constant Matrix: (Units=GPa)
#
#
# Indices 1 2 3 4 5 6 
#
# 1 178.9567 89.5106 62.9470 -22.4073 10.4287 -16.8724
# 2 89.5106 221.5889 97.8627 20.8352 12.4779 -1.8697
# 3 62.9470 97.8627 214.5990 20.2994 -0.5489 -7.3291
# 4 -22.4073 20.8352 20.2994 51.1465 4.5538 -5.2551
# 5 10.4287 12.4779 -0.5489 4.5538 56.1134 1.6381
# 6 -16.8724 -1.8697 -7.3291 -5.2551 1.6381 46.0446
#
#
#
# Elastic Compliance Matrix: (Units=1/GPa)
#
#
# Indices 1 2 3 4 5 6 
#
# 1 0.009178 -0.003503 -0.001595 0.006610 -0.001589 0.003778
# 2 -0.003503 0.007161 -0.001938 -0.003805 -0.000601 -0.001714
# 3 -0.001595 -0.001938 0.006249 -0.002476 0.000989 0.000014
# 4 0.006610 -0.003805 -0.002476 0.025719 -0.002637 0.004903
# 5 -0.001589 -0.000601 0.000989 -0.002637 0.018515 -0.001409
# 6 0.003778 -0.001714 0.000014 0.004903 -0.001409 0.023645
#
#
# Mechanical properties :
#
#
# Convention : Reuss Voigt Hill
#
# Bulk Modulus (GPa) = 117.43890 123.97613 120.70752
# Shear Modulus (GPa) = 46.56504 54.98254 50.77379
#
# Velocity S-wave (km/s) = 4.13833 4.49684 4.32130
# Velocity P-wave (km/s) = 8.12565 8.51811 8.32420
#
# Compressibility (1/GPa) = 0.00851507
#
# Stress axis : x y z
#
# Youngs Moduli (GPa) = 108.96132 139.64221 160.03234
#
# Poissons Ratio (x) = 0.48918 0.25522
# Poissons Ratio (y) = 0.38171 0.31018
# Poissons Ratio (z) = 0.17377 0.27066
#
# Static dielectric constant tensor:
#      x y z
#    x 2.181520 0.150000 0.061530 
#    y 0.150000 2.115940 -0.090060 
#    z 0.061530 -0.090060 2.055300 
# 
# From -- ./inp_files/62674.got.cif
#   From: 2010.05.17/outbox.cif.g08.bks.cpg/sg2_32_cif.got.tgz:62674.got - 2010.06.03 11:33:40.
