data_PCOD9068905
_publ_section_title
;
Structure prediction by ZEFSAII (Michael W. Deem and Ramdas Pophale) SiO2 
 PCOD9068905
Probable space group: P -1
;
_chemical_formula_sum "Si O2"
_cell_formula_units_Z 16
_cell_length_a 10.046332
_cell_length_b 14.087883
_cell_length_c 10.779948
_cell_angle_alpha 30.628426
_cell_angle_beta 93.831049
_cell_angle_gamma 103.855930
_cell_volume 724.153986
_symmetry_space_group_name_H-M "P -1"
_symmetry_group_IT_number 2
_symmetry_cell_setting 'triclinic'
loop_
_space_group_symop_operation_xyz
x,y,z
-x,-y,-z
loop_
_atom_site_type_symbol
_atom_site_label
_atom_site_fract_x
_atom_site_fract_y
_atom_site_fract_z
Si Si1 0.361742 0.762599 0.864687
Si Si2 0.667736 0.113992 0.905501
Si Si3 0.638259 0.400857 0.226429
Si Si4 0.672899 0.886584 0.411139
Si Si5 0.168268 0.816652 0.409214
Si Si6 0.667736 0.553744 0.426762
Si Si7 0.831730 0.648383 0.577482
Si Si8 0.672900 0.786316 0.915961
O O1 0.371603 0.685801 0.814199
O O2 0.329309 0.965659 0.643591
O O3 0.241632 0.581513 0.128927
O O4 0.515626 0.801727 0.894116
O O5 0.757595 0.088101 0.822771
O O6 0.696119 0.348060 0.651940
O O7 0.500000 0.000000 0.000000
O O8 0.698750 0.027375 0.133434
O O9 0.484375 0.286101 0.409743
O O10 0.758370 0.339881 0.370557
O O11 0.670692 0.636350 0.972899
O O12 0.786833 0.779323 0.529567
O O13 1.000000 0.716747 0.498166
O O14 0.213165 0.992490 0.316401
O O15 0.500000 0.500000 0.500000
O O16 0.757595 0.669494 0.419633
O O17 0.698750 0.671375 0.167815
#
# Coordination Sequence:
#
# PCOD9068905 Si02
#       8
#     2   2   2   2   2   2   2   2
#     4  12  25  45  75 103 136 184 246 288 329 408
#     4  12  21  41  71 103 137 176 227 282 344 415
#     4  12  25  45  75 103 136 184 246 288 329 408
#     4  12  23  43  73 103 134 184 234 287 343 404
#     4  12  28  45  69 108 145 179 226 288 355 415
#     4  12  21  41  71 103 137 176 227 282 344 415
#     4  12  28  45  69 108 145 179 226 288 355 415
#     4  12  23  43  73 103 134 184 234 287 343 404
#
# _framework density 22.094746000000001
#
# number of rings (size 3 to 8) (size 9 to 14) (size 15 to 20)
#    0.000    0.000    7.500    3.000    0.000    4.000 
#    0.000    1.250    0.000    0.000    0.000    0.000 
#    0.000    0.000    0.000    0.000    0.000    0.000 
#
# Total GULP energy -89629.961460 kJ/mol
# GULP energy per Si atom -5601.872591 kJ/mol
# Density = 2.204446 g / cm^3
# Si number density = 22.094746 Si / 1000 Ang^3
#
#
#
# Elastic Constant Matrix: (Units=GPa)
#
#
# Indices 1 2 3 4 5 6 
#
# 1 126.9133 25.9333 28.1853 -0.7067 -23.8101 10.9157
# 2 25.9333 98.2433 18.4602 -9.8870 -2.9046 -10.2279
# 3 28.1853 18.4602 53.0608 -10.3355 -0.4239 2.7778
# 4 -0.7067 -9.8870 -10.3355 41.5056 -8.3652 8.7895
# 5 -23.8101 -2.9046 -0.4239 -8.3652 27.9128 -13.8259
# 6 10.9157 -10.2279 2.7778 8.7895 -13.8259 30.1550
#
#
#
# Elastic Compliance Matrix: (Units=1/GPa)
#
#
# Indices 1 2 3 4 5 6 
#
# 1 0.011125 -0.001634 -0.005197 0.000381 0.009404 0.000098
# 2 -0.001634 0.012113 -0.003371 0.001382 0.003250 0.006098
# 3 -0.005197 -0.003371 0.024025 0.005132 -0.005632 -0.005553
# 4 0.000381 0.001382 0.005132 0.028128 0.006268 -0.005466
# 5 0.009404 0.003250 -0.005632 0.006268 0.057175 0.022605
# 6 0.000098 0.006098 -0.005553 -0.005466 0.022605 0.047664
#
#
# Mechanical properties :
#
#
# Convention : Reuss Voigt Hill
#
# Bulk Modulus (GPa) = 37.22878 47.04166 42.13522
# Shear Modulus (GPa) = 23.85643 33.62393 28.74018
#
# Velocity S-wave (km/s) = 3.28949 3.90527 3.61053
# Velocity P-wave (km/s) = 5.59588 6.45538 6.04093
#
# Compressibility (1/GPa) = 0.02686094
#
# Stress axis : x y z
#
# Youngs Moduli (GPa) = 89.88491 82.55302 41.62329
#
# Poissons Ratio (x) = 0.13486 0.21632
# Poissons Ratio (y) = 0.14684 0.14030
# Poissons Ratio (z) = 0.46715 0.27825
#
# Static dielectric constant tensor:
#      x y z
#    x 1.742090 -0.037030 0.032400 
#    y -0.037030 1.914470 0.015360 
#    z 0.032400 0.015360 1.825800 
# 
# From -- ./inp_files/188160.got.cif
#   From: 2010.05.17/outbox.cif.g08.bks.cpg/sg2_95_cif.got.tgz:188160.got - 2010.06.03 11:33:40.
