data_PCOD9068940
_publ_section_title
;
Structure prediction by ZEFSAII (Michael W. Deem and Ramdas Pophale) SiO2 
 PCOD9068940
Probable space group: P -1
;
_chemical_formula_sum "Si O2"
_cell_formula_units_Z 12
_cell_length_a 8.554792
_cell_length_b 12.216902
_cell_length_c 9.477907
_cell_angle_alpha 36.649950
_cell_angle_beta 70.954299
_cell_angle_gamma 65.336470
_cell_volume 537.285832
_symmetry_space_group_name_H-M "P -1"
_symmetry_group_IT_number 2
_symmetry_cell_setting 'triclinic'
loop_
_space_group_symop_operation_xyz
x,y,z
-x,-y,-z
loop_
_atom_site_type_symbol
_atom_site_label
_atom_site_fract_x
_atom_site_fract_y
_atom_site_fract_z
Si Si1 0.457155 0.381699 0.764960
Si Si2 0.271996 0.095713 0.042319
Si Si3 0.656427 0.464337 0.877793
Si Si4 0.153155 0.745203 0.497299
Si Si5 0.122331 0.312673 0.581193
Si Si6 0.015220 0.696875 0.865129
O O1 0.500000 0.500000 0.500000
O O2 0.593956 0.365121 0.865638
O O3 0.275794 0.532034 0.706837
O O4 0.432896 0.178501 0.939374
O O5 0.141416 0.201584 0.094607
O O6 0.273492 0.878551 0.285325
O O7 0.200803 0.170838 0.831603
O O8 0.727316 0.633222 0.611149
O O9 0.500000 0.500000 0.000000
O O10 0.821121 0.346061 0.036263
O O11 0.050724 0.812515 0.600997
O O12 0.010236 0.752632 0.413135
O O13 0.000000 0.500000 0.500000
O O14 0.000000 0.500000 0.000000
#
# Coordination Sequence:
#
# PCOD9068940 Si02
#       6
#     2   2   2   2   2   2
#     4  12  24  43  66  93 137 173 213 271 338 395
#     4  12  25  43  69  98 129 175 227 276 322 393
#     4  12  22  39  70  96 130 176 213 268 340 390
#     4  12  25  43  69  98 130 174 226 274 326 391
#     4  12  21  44  70  96 129 175 226 274 323 387
#     4  12  21  44  71  94 131 175 221 272 329 392
#
# _framework density 22.334479999999999
#
# number of rings (size 3 to 8) (size 9 to 14) (size 15 to 20)
#    0.000    0.000   10.000    1.000    0.000    0.667 
#    0.000    0.833    0.000    0.000    0.000    0.000 
#    0.000    0.000    0.000    0.000    0.000    0.000 
#
# Total GULP energy -67074.713812 kJ/mol
# GULP energy per Si atom -5589.559484 kJ/mol
# Density = 2.228365 g / cm^3
# Si number density = 22.334480 Si / 1000 Ang^3
#
#
#
# Elastic Constant Matrix: (Units=GPa)
#
#
# Indices 1 2 3 4 5 6 
#
# 1 103.7495 48.0420 31.3469 -0.7465 -14.2919 45.5860
# 2 48.0420 83.6384 58.7718 13.0578 -5.8790 22.8864
# 3 31.3469 58.7718 139.8341 7.6832 -31.0314 16.6530
# 4 -0.7465 13.0578 7.6832 55.2966 1.4371 -9.1764
# 5 -14.2919 -5.8790 -31.0314 1.4371 46.9278 14.5943
# 6 45.5860 22.8864 16.6530 -9.1764 14.5943 62.4204
#
#
#
# Elastic Compliance Matrix: (Units=1/GPa)
#
#
# Indices 1 2 3 4 5 6 
#
# 1 0.022545 -0.010162 0.004449 -0.001158 0.013969 -0.017362
# 2 -0.010162 0.023883 -0.009312 -0.003947 -0.006812 0.002162
# 3 0.004449 -0.009312 0.013240 -0.000863 0.010845 -0.006029
# 4 -0.001158 -0.003947 -0.000863 0.020297 -0.004046 0.006453
# 5 0.013969 -0.006812 0.010845 -0.004046 0.038269 -0.020140
# 6 -0.017362 0.002162 -0.006029 0.006453 -0.020140 0.035173
#
#
# Mechanical properties :
#
#
# Convention : Reuss Voigt Hill
#
# Bulk Modulus (GPa) = 33.76514 67.06037 50.41275
# Shear Modulus (GPa) = 25.86257 45.53306 35.69781
#
# Velocity S-wave (km/s) = 3.40658 4.52008 4.00225
# Velocity P-wave (km/s) = 5.53388 7.57180 6.63159
#
# Compressibility (1/GPa) = 0.02961634
#
# Stress axis : x y z
#
# Youngs Moduli (GPa) = 44.35634 41.87124 75.52893
#
# Poissons Ratio (x) = 0.42550 -0.33599
# Poissons Ratio (y) = 0.45075 0.70332
# Poissons Ratio (z) = -0.19732 0.38990
#
# Static dielectric constant tensor:
#      x y z
#    x 1.841540 -0.052440 -0.060770 
#    y -0.052440 1.778090 0.006660 
#    z -0.060770 0.006660 1.883140 
# 
# From -- ./inp_files/149531.got.cif
#   From: 2010.05.17/outbox.cif.g08.bks.cpg/sg2_75_cif.got.tgz:149531.got - 2010.06.03 11:33:40.
