data_PCOD9068141
_publ_section_title
;
Structure prediction by ZEFSAII (Michael W. Deem and Ramdas Pophale) SiO2 
 PCOD9068141
Probable space group: P -1
;
_chemical_formula_sum "Si O2"
_cell_formula_units_Z 16
_cell_length_a 17.620415
_cell_length_b 6.471554
_cell_length_c 15.786850
_cell_angle_alpha 137.325045
_cell_angle_beta 142.952507
_cell_angle_gamma 44.484026
_cell_volume 698.922554
_symmetry_space_group_name_H-M "P -1"
_symmetry_group_IT_number 2
_symmetry_cell_setting 'triclinic'
loop_
_space_group_symop_operation_xyz
x,y,z
-x,-y,-z
loop_
_atom_site_type_symbol
_atom_site_label
_atom_site_fract_x
_atom_site_fract_y
_atom_site_fract_z
Si Si1 0.223608 0.151341 0.291356
Si Si2 0.997474 0.964299 0.591230
Si Si3 0.313321 0.396427 0.151354
Si Si4 0.424456 0.247639 0.380569
Si Si5 0.775708 0.623182 0.322403
Si Si6 0.666167 0.649728 0.407106
Si Si7 0.567821 0.048276 0.160316
Si Si8 0.987262 0.521170 0.099667
O O1 0.319060 0.328971 0.386008
O O2 0.208604 0.304502 0.417309
O O3 0.093934 0.200811 0.134570
O O4 0.298407 0.774246 0.254085
O O5 0.140519 0.728443 0.677797
O O6 0.884430 0.797655 0.454739
O O7 0.971811 0.233626 0.724769
O O8 0.000000 0.000000 0.500000
O O9 0.337440 0.240425 0.218566
O O10 0.443400 0.204355 0.158039
O O11 0.167470 0.404922 0.995319
O O12 0.500000 0.500000 0.500000
O O13 0.531244 0.911212 0.395127
O O14 0.682420 0.757107 0.359276
O O15 0.671764 0.710318 0.179700
O O16 0.647771 0.304470 0.296943
O O17 0.500000 0.000000 0.000000
O O18 0.000000 0.500000 0.000000
#
# Coordination Sequence:
#
# PCOD9068141 Si02
#       8
#     2   2   2   2   2   2   2   2
#     4  12  25  46  72 105 145 194 242 297 370 446
#     4  11  27  53  77 109 143 199 257 306 365 452
#     4  12  26  46  69 105 149 194 233 311 370 442
#     4  12  23  42  72 105 146 182 238 301 376 438
#     4  11  26  47  79 103 143 196 249 310 364 439
#     4  12  25  44  75 107 142 188 247 306 366 443
#     4  12  28  46  72 108 148 195 248 305 374 443
#     4  12  28  47  74 106 152 194 247 306 378 434
#
# _framework density 22.892378000000001
#
# number of rings (size 3 to 8) (size 9 to 14) (size 15 to 20)
#    0.000    0.250    5.000    3.750    7.000    2.500 
#    2.250    0.000    0.000    0.000    0.000    0.000 
#    0.000    0.000    0.000    0.000    0.000    0.000 
#
# Total GULP energy -89245.380310 kJ/mol
# GULP energy per Si atom -5577.836269 kJ/mol
# Density = 2.284027 g / cm^3
# Si number density = 22.892378 Si / 1000 Ang^3
#
#
#
# Elastic Constant Matrix: (Units=GPa)
#
#
# Indices 1 2 3 4 5 6 
#
# 1 80.5718 20.7986 17.1252 -1.3997 1.1131 0.5503
# 2 20.7986 118.0189 56.9240 -40.1871 -12.4783 -6.1345
# 3 17.1252 56.9240 89.9630 -36.4641 -19.1526 -0.6761
# 4 -1.3997 -40.1871 -36.4641 49.6592 -1.7549 -0.2437
# 5 1.1131 -12.4783 -19.1526 -1.7549 41.4548 -7.5462
# 6 0.5503 -6.1345 -0.6761 -0.2437 -7.5462 29.2895
#
#
#
# Elastic Compliance Matrix: (Units=1/GPa)
#
#
# Indices 1 2 3 4 5 6 
#
# 1 0.013829 -0.002754 -0.003419 -0.004475 -0.003298 -0.001802
# 2 -0.002754 0.014624 -0.004454 0.008630 0.003509 0.003988
# 3 -0.003419 -0.004454 0.021825 0.012682 0.009783 0.002261
# 4 -0.004475 0.008630 0.012682 0.036726 0.011106 0.005351
# 5 -0.003298 0.003509 0.009783 0.011106 0.031959 0.009349
# 6 -0.001802 0.003988 0.002261 0.005351 0.009349 0.037516
#
#
# Mechanical properties :
#
#
# Convention : Reuss Voigt Hill
#
# Bulk Modulus (GPa) = 34.45553 53.13878 43.79716
# Shear Modulus (GPa) = 26.67977 36.99443 31.83710
#
# Velocity S-wave (km/s) = 3.41756 4.02433 3.73329
# Velocity P-wave (km/s) = 5.53685 6.69750 6.14464
#
# Compressibility (1/GPa) = 0.02902291
#
# Stress axis : x y z
#
# Youngs Moduli (GPa) = 72.31124 68.38187 45.81976
#
# Poissons Ratio (x) = 0.18833 0.15667
# Poissons Ratio (y) = 0.19915 0.20408
# Poissons Ratio (z) = 0.24725 0.30457
#
# Static dielectric constant tensor:
#      x y z
#    x 1.911950 -0.051540 -0.042660 
#    y -0.051540 1.961270 -0.014570 
#    z -0.042660 -0.014570 1.907940 
# 
# From -- ./inp_files/78759.got.cif
#   From: 2010.05.17/outbox.cif.g08.bks.cpg/sg2_40_cif.got.tgz:78759.got - 2010.06.03 11:33:40.
