data_PCOD9068585
_publ_section_title
;
Structure prediction by ZEFSAII (Michael W. Deem and Ramdas Pophale) SiO2 
 PCOD9068585
Probable space group: P -1
;
_chemical_formula_sum "Si O2"
_cell_formula_units_Z 13
_cell_length_a 9.412246
_cell_length_b 9.593556
_cell_length_c 9.552387
_cell_angle_alpha 134.865351
_cell_angle_beta 60.922156
_cell_angle_gamma 124.401372
_cell_volume 498.753387
_symmetry_space_group_name_H-M "P -1"
_symmetry_group_IT_number 2
_symmetry_cell_setting 'triclinic'
loop_
_space_group_symop_operation_xyz
x,y,z
-x,-y,-z
loop_
_atom_site_type_symbol
_atom_site_label
_atom_site_fract_x
_atom_site_fract_y
_atom_site_fract_z
Si Si1 0.802446 0.877915 0.469347
Si Si2 0.141291 0.637449 0.699568
Si Si3 0.000000 0.000000 0.000000
Si Si4 0.688211 0.054740 0.388398
Si Si5 0.788968 0.763732 0.685240
Si Si6 0.539141 0.683377 0.997590
Si Si7 0.792132 0.425550 0.076462
O O1 0.775663 0.019639 0.460614
O O2 0.714034 0.840761 0.638279
O O3 0.761628 0.646194 0.262115
O O4 0.000000 0.000000 0.500000
O O5 0.114504 0.392608 0.524674
O O6 0.235420 0.691232 0.843297
O O7 0.250777 0.732367 0.574988
O O8 0.997700 0.747008 0.837289
O O9 0.074922 0.051880 0.159927
O O10 0.684914 0.888335 0.147649
O O11 0.500000 0.000000 0.500000
O O12 0.630412 0.655425 0.791331
O O13 0.500000 0.500000 0.000000
O O14 0.354027 0.701745 0.056609
O O15 0.000000 0.500000 0.000000
#
# Coordination Sequence:
#
# PCOD9068585 Si02
#       7
#     2   2   1   2   2   2   2
#     4  11  27  49  73 110 151 203 247 318 381 457
#     4  11  27  47  76 113 152 205 251 317 382 457
#     4  12  24  48  76 112 154 200 254 304 390 448
#     4  12  27  47  77 112 153 198 256 316 386 452
#     4  11  27  48  79 108 157 200 261 314 383 450
#     4  12  26  49  79 111 150 204 257 321 378 457
#     4  11  29  48  76 111 152 200 259 316 388 456
#
# _framework density 26.064983999999999
#
# number of rings (size 3 to 8) (size 9 to 14) (size 15 to 20)
#    0.000    0.615    3.077    2.308   10.769    3.077 
#    0.000    0.000    0.000    0.000    0.000    0.000 
#    0.000    0.000    0.000    0.000    0.000    0.000 
#
# Total GULP energy -72482.099559 kJ/mol
# GULP energy per Si atom -5575.546120 kJ/mol
# Density = 2.600566 g / cm^3
# Si number density = 26.064984 Si / 1000 Ang^3
#
#
#
# Elastic Constant Matrix: (Units=GPa)
#
#
# Indices 1 2 3 4 5 6 
#
# 1 143.2270 54.5412 31.5121 -24.3690 26.8045 -24.7898
# 2 54.5412 164.2286 29.7115 -36.8742 8.1928 -36.7966
# 3 31.5121 29.7115 115.9887 -13.1252 8.3540 -10.9829
# 4 -24.3690 -36.8742 -13.1252 57.8350 -1.7987 9.3808
# 5 26.8045 8.1928 8.3540 -1.7987 46.4069 -12.7784
# 6 -24.7898 -36.7966 -10.9829 9.3808 -12.7784 33.5562
#
#
#
# Elastic Compliance Matrix: (Units=1/GPa)
#
#
# Indices 1 2 3 4 5 6 
#
# 1 0.009492 -0.001647 -0.001376 0.002088 -0.004150 0.002592
# 2 -0.001647 0.009472 -0.000876 0.003819 0.001940 0.008554
# 3 -0.001376 -0.000876 0.009420 0.000876 -0.000531 0.000658
# 4 0.002088 0.003819 0.000876 0.020812 -0.001314 -0.000302
# 5 -0.004150 0.001940 -0.000531 -0.001314 0.026188 0.009229
# 6 0.002592 0.008554 0.000658 -0.000302 0.009229 0.044910
#
#
# Mechanical properties :
#
#
# Convention : Reuss Voigt Hill
#
# Bulk Modulus (GPa) = 48.58059 72.77487 60.67773
# Shear Modulus (GPa) = 37.04917 48.07157 42.56037
#
# Velocity S-wave (km/s) = 3.77426 4.29919 4.04525
# Velocity P-wave (km/s) = 6.13776 7.25432 6.71927
#
# Compressibility (1/GPa) = 0.02058435
#
# Stress axis : x y z
#
# Youngs Moduli (GPa) = 105.34797 105.57499 106.16114
#
# Poissons Ratio (x) = 0.17387 0.14613
# Poissons Ratio (y) = 0.17349 0.09305
# Poissons Ratio (z) = 0.14501 0.09253
#
# Static dielectric constant tensor:
#      x y z
#    x 2.102250 0.048020 0.051250 
#    y 0.048020 2.092030 0.016540 
#    z 0.051250 0.016540 2.051370 
# 
# From -- ./inp_files/160331.got.cif
#   From: 2010.05.17/outbox.cif.g08.bks.cpg/sg2_81_cif.got.tgz:160331.got - 2010.06.03 11:33:40.
