data_PCOD9068747
_publ_section_title
;
Structure prediction by ZEFSAII (Michael W. Deem and Ramdas Pophale) SiO2 
 PCOD9068747
Probable space group: P -1
;
_chemical_formula_sum "Si O2"
_cell_formula_units_Z 14
_cell_length_a 7.086036
_cell_length_b 10.151783
_cell_length_c 7.331599
_cell_angle_alpha 104.702609
_cell_angle_beta 90.380285
_cell_angle_gamma 75.764560
_cell_volume 493.595659
_symmetry_space_group_name_H-M "P -1"
_symmetry_group_IT_number 2
_symmetry_cell_setting 'triclinic'
loop_
_space_group_symop_operation_xyz
x,y,z
-x,-y,-z
loop_
_atom_site_type_symbol
_atom_site_label
_atom_site_fract_x
_atom_site_fract_y
_atom_site_fract_z
Si Si1 0.093849 0.849316 0.854141
Si Si2 0.552964 0.820806 0.797471
Si Si3 0.454785 0.128268 0.769852
Si Si4 0.919007 0.863369 0.472252
Si Si5 0.179179 0.550202 0.938734
Si Si6 0.763954 0.539159 0.487738
Si Si7 0.301708 0.664441 0.301843
O O1 0.317714 0.842148 0.800150
O O2 0.964201 0.831396 0.674105
O O3 0.112380 0.711545 0.927297
O O4 0.000000 0.000000 0.000000
O O5 0.663425 0.685568 0.636117
O O6 0.571646 0.969720 0.768162
O O7 0.613005 0.807739 0.007442
O O8 0.266846 0.461247 0.729695
O O9 0.589497 0.216245 0.704828
O O10 0.072472 0.740954 0.326766
O O11 0.717587 0.879575 0.371450
O O12 0.000000 0.000000 0.500000
O O13 0.324700 0.548874 0.105000
O O14 0.000000 0.500000 0.000000
O O15 0.679711 0.417781 0.537009
O O16 0.000000 0.500000 0.500000
#
# Coordination Sequence:
#
# PCOD9068747 Si02
#       7
#     2   2   2   2   2   2   2
#     4  12  27  59  93 135 188 241 315 391 468 563
#     4  11  28  57  91 143 187 244 317 387 470 566
#     4  11  28  56  96 139 190 239 314 400 467 558
#     4  12  27  53  91 139 183 244 310 382 477 557
#     4  12  27  56  92 128 181 248 312 382 470 554
#     4  12  29  57  90 133 190 249 314 385 469 570
#     4  12  28  57  89 139 183 244 313 390 468 560
#
# _framework density 28.363296999999999
#
# number of rings (size 3 to 8) (size 9 to 14) (size 15 to 20)
#    0.000    0.286    5.714    0.857    2.000    4.000 
#    7.714    3.571    0.000    0.000    0.000    0.000 
#    0.000    0.000    0.000    0.000    0.000    0.000 
#
# Total GULP energy -78741.785588 kJ/mol
# GULP energy per Si atom -5624.413256 kJ/mol
# Density = 2.829874 g / cm^3
# Si number density = 28.363297 Si / 1000 Ang^3
#
#
#
# Elastic Constant Matrix: (Units=GPa)
#
#
# Indices 1 2 3 4 5 6 
#
# 1 192.4946 38.0448 75.3813 -1.9919 8.2810 18.3384
# 2 38.0448 159.0478 58.0668 7.1174 -39.1032 38.1322
# 3 75.3813 58.0668 240.9336 19.4397 7.4814 3.2469
# 4 -1.9919 7.1174 19.4397 78.9827 -4.3621 -16.0663
# 5 8.2810 -39.1032 7.4814 -4.3621 56.8947 -1.5724
# 6 18.3384 38.1322 3.2469 -16.0663 -1.5724 64.6239
#
#
#
# Elastic Compliance Matrix: (Units=1/GPa)
#
#
# Indices 1 2 3 4 5 6 
#
# 1 0.006207 -0.000967 -0.001683 0.000371 -0.001347 -0.001047
# 2 -0.000967 0.010746 -0.002341 -0.001233 0.007572 -0.006071
# 3 -0.001683 -0.002341 0.005371 -0.001008 -0.002112 0.001287
# 4 0.000371 -0.001233 -0.001008 0.013894 0.000411 0.004137
# 5 -0.001347 0.007572 -0.002112 0.000411 0.023194 -0.003313
# 6 -0.001047 -0.006071 0.001287 0.004137 -0.003313 0.020237
#
#
# Mechanical properties :
#
#
# Convention : Reuss Voigt Hill
#
# Bulk Modulus (GPa) = 81.02870 103.94018 92.48444
# Shear Modulus (GPa) = 53.33708 68.16579 60.75144
#
# Velocity S-wave (km/s) = 4.34117 4.90767 4.63309
# Velocity P-wave (km/s) = 7.33198 8.29694 7.82934
#
# Compressibility (1/GPa) = 0.01234131
#
# Stress axis : x y z
#
# Youngs Moduli (GPa) = 161.11959 93.06011 186.19279
#
# Poissons Ratio (x) = 0.09001 0.31331
# Poissons Ratio (y) = 0.15583 0.43588
# Poissons Ratio (z) = 0.27112 0.21785
#
# Static dielectric constant tensor:
#      x y z
#    x 2.246190 -0.027000 -0.039450 
#    y -0.027000 2.175290 -0.002530 
#    z -0.039450 -0.002530 2.252030 
# 
# From -- ./inp_files/158468.got.cif
#   From: 2010.05.17/outbox.cif.g08.bks.cpg/sg2_80_cif.got.tgz:158468.got - 2010.06.03 11:33:40.
