data_PCOD9068623
_publ_section_title
;
Structure prediction by ZEFSAII (Michael W. Deem and Ramdas Pophale) SiO2 
 PCOD9068623
Probable space group: P -1
;
_chemical_formula_sum "Si O2"
_cell_formula_units_Z 16
_cell_length_a 9.145218
_cell_length_b 8.543777
_cell_length_c 15.719667
_cell_angle_alpha 84.448636
_cell_angle_beta 100.534836
_cell_angle_gamma 148.079816
_cell_volume 634.427012
_symmetry_space_group_name_H-M "P -1"
_symmetry_group_IT_number 2
_symmetry_cell_setting 'triclinic'
loop_
_space_group_symop_operation_xyz
x,y,z
-x,-y,-z
loop_
_atom_site_type_symbol
_atom_site_label
_atom_site_fract_x
_atom_site_fract_y
_atom_site_fract_z
Si Si1 0.933094 0.561589 0.358688
Si Si2 0.221245 0.902171 0.545278
Si Si3 0.720236 0.836492 0.001582
Si Si4 0.019020 0.891085 0.809235
Si Si5 0.859504 0.392598 0.793973
Si Si6 0.676677 0.551604 0.579486
Si Si7 0.463695 0.510095 0.731559
Si Si8 0.446147 0.887101 0.905836
O O1 0.107285 0.666412 0.288528
O O2 0.690966 0.465158 0.306873
O O3 0.124070 0.807242 0.441415
O O4 0.804132 0.290120 0.403312
O O5 0.998331 0.817711 0.572539
O O6 0.529987 0.249582 0.571819
O O7 0.793593 0.975134 0.094500
O O8 0.500000 0.500000 0.000000
O O9 0.609786 0.870023 0.925524
O O10 0.000000 0.000000 0.000000
O O11 0.222187 0.175578 0.756136
O O12 0.916715 0.629972 0.777430
O O13 0.738551 0.741422 0.808847
O O14 0.575085 0.105167 0.830901
O O15 0.117468 0.566091 0.871311
O O16 0.500000 0.500000 0.500000
O O17 0.610513 0.575929 0.658994
O O18 0.500000 0.000000 0.000000
#
# Coordination Sequence:
#
# PCOD9068623 Si02
#       8
#     2   2   2   2   2   2   2   2
#     4  11  28  48  74 112 148 191 249 308 366 427
#     4  11  27  49  75 105 151 196 243 307 368 434
#     4  12  28  48  75 110 145 187 239 300 366 437
#     4  12  28  49  74 107 147 196 236 303 368 435
#     4  12  27  48  78 106 148 191 246 300 362 437
#     4  12  24  47  74 106 142 198 243 295 367 440
#     4  12  27  44  75 107 148 190 249 301 361 434
#     4  12  27  50  78 106 144 196 242 296 363 440
#
# _framework density 25.219605000000001
#
# number of rings (size 3 to 8) (size 9 to 14) (size 15 to 20)
#    0.000    0.250    2.500    5.250    8.750    5.000 
#    0.000    0.000    0.000    0.000    0.000    0.000 
#    0.000    0.000    0.000    0.000    0.000    0.000 
#
# Total GULP energy -89761.002128 kJ/mol
# GULP energy per Si atom -5610.062633 kJ/mol
# Density = 2.516220 g / cm^3
# Si number density = 25.219605 Si / 1000 Ang^3
#
#
#
# Elastic Constant Matrix: (Units=GPa)
#
#
# Indices 1 2 3 4 5 6 
#
# 1 148.0271 10.0899 37.0273 -6.9670 13.9691 12.2869
# 2 10.0899 98.3913 4.7835 -10.0276 -2.7653 14.8078
# 3 37.0273 4.7835 90.5653 -2.4141 -12.0654 0.1741
# 4 -6.9670 -10.0276 -2.4141 34.2334 2.9955 6.0987
# 5 13.9691 -2.7653 -12.0654 2.9955 58.0702 2.6180
# 6 12.2869 14.8078 0.1741 6.0987 2.6180 32.7116
#
#
#
# Elastic Compliance Matrix: (Units=1/GPa)
#
#
# Indices 1 2 3 4 5 6 
#
# 1 0.008320 -0.000025 -0.003699 0.002252 -0.002739 -0.003295
# 2 -0.000025 0.011563 -0.000402 0.004392 0.000521 -0.006083
# 3 -0.003699 -0.000402 0.013032 -0.000495 0.003545 0.001311
# 4 0.002252 0.004392 -0.000495 0.032636 -0.001723 -0.008778
# 5 -0.002739 0.000521 0.003545 -0.001723 0.018748 -0.000405
# 6 -0.003295 -0.006083 0.001311 -0.008778 -0.000405 0.036224
#
#
# Mechanical properties :
#
#
# Convention : Reuss Voigt Hill
#
# Bulk Modulus (GPa) = 40.54674 48.97613 44.76143
# Shear Modulus (GPa) = 36.49732 44.00859 40.25295
#
# Velocity S-wave (km/s) = 3.80831 4.18187 3.99945
# Velocity P-wave (km/s) = 5.95399 6.54060 6.25417
#
# Compressibility (1/GPa) = 0.02466290
#
# Stress axis : x y z
#
# Youngs Moduli (GPa) = 120.18627 86.47961 76.73517
#
# Poissons Ratio (x) = 0.00216 0.28384
# Poissons Ratio (y) = 0.00301 0.03088
# Poissons Ratio (z) = 0.44457 0.03480
#
# Static dielectric constant tensor:
#      x y z
#    x 1.988350 -0.043420 0.017440 
#    y -0.043420 1.942520 0.058530 
#    z 0.017440 0.058530 2.113960 
# 
# From -- ./inp_files/557257.got.cif
#   From: 2010.05.17/outbox.cif.g08.bks.cpg/sg2_279_cif.got.tgz:557257.got - 2010.06.03 11:33:40.
