data_PCOD9068484
_publ_section_title
;
Structure prediction by ZEFSAII (Michael W. Deem and Ramdas Pophale) SiO2 
 PCOD9068484
Probable space group: P -1
;
_chemical_formula_sum "Si O2"
_cell_formula_units_Z 14
_cell_length_a 10.424733
_cell_length_b 5.191520
_cell_length_c 22.614748
_cell_angle_alpha 80.317727
_cell_angle_beta 33.546550
_cell_angle_gamma 60.460275
_cell_volume 507.942852
_symmetry_space_group_name_H-M "P -1"
_symmetry_group_IT_number 2
_symmetry_cell_setting 'triclinic'
loop_
_space_group_symop_operation_xyz
x,y,z
-x,-y,-z
loop_
_atom_site_type_symbol
_atom_site_label
_atom_site_fract_x
_atom_site_fract_y
_atom_site_fract_z
Si Si1 0.162288 0.162937 0.445709
Si Si2 0.831194 0.709132 0.153946
Si Si3 0.612542 0.493721 0.392194
Si Si4 0.785259 0.668122 0.869997
Si Si5 0.289862 0.533651 0.888739
Si Si6 0.660523 0.719529 0.791266
Si Si7 0.304789 0.230149 0.503560
O O1 0.479592 0.979678 0.297094
O O2 0.378421 0.900061 0.446643
O O3 0.068350 0.457409 0.520162
O O4 0.000000 0.000000 0.500000
O O5 0.835187 0.419154 0.131430
O O6 0.023933 0.611915 0.142159
O O7 0.013873 0.740490 0.033321
O O8 0.500000 0.500000 0.500000
O O9 0.533623 0.297673 0.392708
O O10 0.959112 0.318548 0.254664
O O11 0.665600 0.608547 0.860577
O O12 0.500000 0.000000 0.000000
O O13 0.518338 0.600576 0.809218
O O14 0.477494 0.126492 0.844749
O O15 0.999868 0.517279 0.647684
O O16 0.500000 0.000000 0.500000
#
# Coordination Sequence:
#
# PCOD9068484 Si02
#       7
#     2   2   2   2   2   2   2
#     4  12  26  46  73 109 150 197 257 318 375 455
#     4  11  26  51  78 115 154 208 254 322 387 464
#     4  12  26  47  73 105 153 202 247 314 387 456
#     4  12  27  51  80 120 158 202 263 325 385 459
#     4  11  27  50  78 110 157 206 255 311 393 466
#     4  12  26  49  79 114 152 204 258 319 383 463
#     4  12  25  45  76 105 149 200 255 311 382 455
#
# _framework density 27.562156000000002
#
# number of rings (size 3 to 8) (size 9 to 14) (size 15 to 20)
#    0.000    0.286    4.286    3.857    0.000    5.143 
#    0.000    0.000    0.000    0.000    0.000    0.000 
#    0.000    0.000    0.000    0.000    0.000    0.000 
#
# Total GULP energy -78238.755766 kJ/mol
# GULP energy per Si atom -5588.482555 kJ/mol
# Density = 2.749942 g / cm^3
# Si number density = 27.562156 Si / 1000 Ang^3
#
#
#
# Elastic Constant Matrix: (Units=GPa)
#
#
# Indices 1 2 3 4 5 6 
#
# 1 130.0374 31.8742 21.7780 -12.5190 17.4628 -1.9824
# 2 31.8742 159.0086 58.7711 4.5600 -15.4422 12.9721
# 3 21.7780 58.7711 213.1699 5.8825 -2.5590 0.7949
# 4 -12.5190 4.5600 5.8825 37.3171 -7.8275 -8.4491
# 5 17.4628 -15.4422 -2.5590 -7.8275 65.8803 -7.7334
# 6 -1.9824 12.9721 0.7949 -8.4491 -7.7334 53.0479
#
#
#
# Elastic Compliance Matrix: (Units=1/GPa)
#
#
# Indices 1 2 3 4 5 6 
#
# 1 0.008883 -0.002002 -0.000471 0.003020 -0.002370 0.000964
# 2 -0.002002 0.007757 -0.001867 -0.001354 0.001894 -0.001883
# 3 -0.000471 -0.001867 0.005272 -0.000748 -0.000172 0.000216
# 4 0.003020 -0.001354 -0.000748 0.030030 0.003089 0.005688
# 5 -0.002370 0.001894 -0.000172 0.003089 0.016894 0.002406
# 6 0.000964 -0.001883 0.000216 0.005688 0.002406 0.020601
#
#
# Mechanical properties :
#
#
# Convention : Reuss Voigt Hill
#
# Bulk Modulus (GPa) = 75.57432 80.78472 78.17952
# Shear Modulus (GPa) = 48.76750 57.23522 53.00136
#
# Velocity S-wave (km/s) = 4.21094 4.56190 4.38993
# Velocity P-wave (km/s) = 7.14996 7.55788 7.35675
#
# Compressibility (1/GPa) = 0.01323201
#
# Stress axis : x y z
#
# Youngs Moduli (GPa) = 112.56837 128.91981 189.69274
#
# Poissons Ratio (x) = 0.25811 0.08934
# Poissons Ratio (y) = 0.22538 0.35413
# Poissons Ratio (z) = 0.05302 0.24068
#
# Static dielectric constant tensor:
#      x y z
#    x 1.168790 -0.118740 -0.166180 
#    y -0.118740 2.407780 0.025950 
#    z -0.166180 0.025950 1.942840 
# 
# From -- ./inp_files/585672.got.cif
#   From: 2010.05.17/outbox.cif.g08.bks.cpg/sg2_293_cif.got.tgz:585672.got - 2010.06.03 11:33:40.
