data_PCOD9068012
_publ_section_title
;
Structure prediction by ZEFSAII (Michael W. Deem and Ramdas Pophale) SiO2 
 PCOD9068012
Probable space group: P -1
;
_chemical_formula_sum "Si O2"
_cell_formula_units_Z 16
_cell_length_a 12.142301
_cell_length_b 9.401220
_cell_length_c 8.569683
_cell_angle_alpha 133.873845
_cell_angle_beta 71.392353
_cell_angle_gamma 114.187077
_cell_volume 642.363953
_symmetry_space_group_name_H-M "P -1"
_symmetry_group_IT_number 2
_symmetry_cell_setting 'triclinic'
loop_
_space_group_symop_operation_xyz
x,y,z
-x,-y,-z
loop_
_atom_site_type_symbol
_atom_site_label
_atom_site_fract_x
_atom_site_fract_y
_atom_site_fract_z
Si Si1 0.305166 0.541263 0.052537
Si Si2 0.126941 0.333298 0.700777
Si Si3 0.037887 0.002423 0.270527
Si Si4 0.443022 0.404846 0.149111
Si Si5 0.417559 0.118846 0.537357
Si Si6 0.378624 0.051941 0.143389
Si Si7 0.809366 0.173865 0.469251
Si Si8 0.156741 0.751431 0.842425
O O1 0.339230 0.402076 0.067899
O O2 0.227299 0.676253 0.274140
O O3 0.271605 0.870928 0.983131
O O4 0.441466 0.660479 0.023107
O O5 0.014557 0.194297 0.743851
O O6 0.104912 0.526590 0.767188
O O7 0.928503 0.098558 0.977311
O O8 0.145301 0.168166 0.438364
O O9 0.767689 0.575321 0.151907
O O10 0.935770 0.120881 0.390582
O O11 0.505620 0.645270 0.331265
O O12 0.388936 0.268010 0.216589
O O13 0.379039 0.061072 0.334564
O O14 0.500000 0.000000 0.500000
O O15 0.293208 0.039899 0.628396
O O16 0.500000 0.000000 0.000000
O O17 0.808628 0.261380 0.362242
#
# Coordination Sequence:
#
# PCOD9068012 Si02
#       8
#     2   2   2   2   2   2   2   2
#     4  11  26  46  82 111 156 201 256 315 391 459
#     4  11  27  52  80 111 152 201 259 325 384 458
#     4  11  29  51  83 110 150 208 263 317 394 455
#     4  11  26  48  78 113 156 204 257 314 391 465
#     4  12  25  48  78 113 155 203 258 315 390 461
#     4  12  28  47  76 113 154 202 258 319 385 460
#     4  12  27  50  77 114 157 204 255 323 382 465
#     4  12  29  50  78 114 161 200 262 318 386 462
#
# _framework density 24.907997000000002
#
# number of rings (size 3 to 8) (size 9 to 14) (size 15 to 20)
#    0.000    0.500    1.250    4.875   17.500    1.500 
#    0.000    0.000    0.000    0.000    0.000    0.000 
#    0.000    0.000    0.000    0.000    0.000    0.000 
#
# Total GULP energy -89594.690794 kJ/mol
# GULP energy per Si atom -5599.668175 kJ/mol
# Density = 2.485130 g / cm^3
# Si number density = 24.907997 Si / 1000 Ang^3
#
#
#
# Elastic Constant Matrix: (Units=GPa)
#
#
# Indices 1 2 3 4 5 6 
#
# 1 116.4055 58.3563 54.2696 8.9973 3.3093 -9.1305
# 2 58.3563 168.2686 77.1244 8.7866 19.6704 -12.5118
# 3 54.2696 77.1244 111.0739 5.2397 2.9510 0.6684
# 4 8.9973 8.7866 5.2397 43.3275 0.5270 9.0449
# 5 3.3093 19.6704 2.9510 0.5270 39.4533 -0.2117
# 6 -9.1305 -12.5118 0.6684 9.0449 -0.2117 29.8707
#
#
#
# Elastic Compliance Matrix: (Units=1/GPa)
#
#
# Indices 1 2 3 4 5 6 
#
# 1 0.012079 -0.001670 -0.004658 -0.002408 0.000220 0.003828
# 2 -0.001670 0.010298 -0.006154 -0.001878 -0.004485 0.004477
# 3 -0.004658 -0.006154 0.015458 0.001305 0.002260 -0.004726
# 4 -0.002408 -0.001878 0.001305 0.025746 0.000646 -0.009343
# 5 0.000220 -0.004485 0.002260 0.000646 0.027376 -0.001863
# 6 0.003828 0.004477 -0.004726 -0.009343 -0.001863 0.039445
#
#
# Mechanical properties :
#
#
# Convention : Reuss Voigt Hill
#
# Bulk Modulus (GPa) = 77.68084 86.13874 81.90979
# Shear Modulus (GPa) = 31.31750 36.26345 33.79048
#
# Velocity S-wave (km/s) = 3.54973 3.81976 3.68722
# Velocity P-wave (km/s) = 6.93221 7.35608 7.14729
#
# Compressibility (1/GPa) = 0.01287319
#
# Stress axis : x y z
#
# Youngs Moduli (GPa) = 82.78595 97.11010 64.68987
#
# Poissons Ratio (x) = 0.16214 0.30131
# Poissons Ratio (y) = 0.13823 0.39807
# Poissons Ratio (z) = 0.38560 0.59758
#
# Static dielectric constant tensor:
#      x y z
#    x 11.341230 -2.509930 -0.371200 
#    y -2.509930 2.591840 0.139950 
#    z -0.371200 0.139950 2.063220 
# 
# From -- ./inp_files/296390.got.cif
#   From: 2010.05.17/outbox.cif.g08.bks.cpg/sg2_149_cif.got.tgz:296390.got - 2010.06.03 11:33:40.
