data_PCOD9068636
_publ_section_title
;
Structure prediction by ZEFSAII (Michael W. Deem and Ramdas Pophale) SiO2 
 PCOD9068636
Probable space group: P -1
;
_chemical_formula_sum "Si O2"
_cell_formula_units_Z 14
_cell_length_a 10.456404
_cell_length_b 11.828394
_cell_length_c 11.009872
_cell_angle_alpha 36.113949
_cell_angle_beta 120.044239
_cell_angle_gamma 132.551870
_cell_volume 587.966536
_symmetry_space_group_name_H-M "P -1"
_symmetry_group_IT_number 2
_symmetry_cell_setting 'triclinic'
loop_
_space_group_symop_operation_xyz
x,y,z
-x,-y,-z
loop_
_atom_site_type_symbol
_atom_site_label
_atom_site_fract_x
_atom_site_fract_y
_atom_site_fract_z
Si Si1 0.801501 0.492788 0.657933
Si Si2 0.408796 0.051820 0.303162
Si Si3 0.383636 0.346626 0.217477
Si Si4 0.695393 0.314524 0.020780
Si Si5 0.884292 0.191734 0.792527
Si Si6 0.748221 0.675656 0.238713
Si Si7 0.107634 0.889657 0.605075
O O1 0.727265 0.533558 0.922639
O O2 0.834833 0.322540 0.747984
O O3 0.730475 0.596952 0.437556
O O4 0.684497 0.371470 0.826738
O O5 0.399857 0.264076 0.163679
O O6 0.523668 0.120000 0.176455
O O7 0.500000 0.000000 0.500000
O O8 0.984258 0.698888 0.616168
O O9 0.566763 0.503505 0.236388
O O10 0.278692 0.105224 0.444706
O O11 0.834550 0.239014 0.164113
O O12 0.811326 0.938856 0.028063
O O13 0.780987 0.147362 0.654784
O O14 0.089173 0.322087 0.748522
O O15 0.000000 0.000000 0.500000
#
# Coordination Sequence:
#
# PCOD9068636 Si02
#       7
#     2   2   2   2   2   2   2
#     4  12  28  48  78 110 161 194 258 317 381 463
#     4  12  25  50  81 114 157 204 260 320 373 460
#     4  12  26  50  81 111 154 202 266 311 379 455
#     4  12  28  48  79 115 148 205 256 319 389 443
#     4  11  27  50  77 114 154 207 251 313 388 450
#     4  11  27  49  78 115 154 207 251 311 387 453
#     4  12  28  51  76 112 149 202 257 316 387 458
#
# _framework density 23.810880000000001
#
# number of rings (size 3 to 8) (size 9 to 14) (size 15 to 20)
#    0.000    0.286    4.286    3.000    4.000    2.286 
#    0.000    0.000    0.000    0.000    0.000    0.000 
#    0.000    0.000    0.000    0.000    0.000    0.000 
#
# Total GULP energy -78359.297775 kJ/mol
# GULP energy per Si atom -5597.092698 kJ/mol
# Density = 2.375669 g / cm^3
# Si number density = 23.810880 Si / 1000 Ang^3
#
#
#
# Elastic Constant Matrix: (Units=GPa)
#
#
# Indices 1 2 3 4 5 6 
#
# 1 124.2477 46.3625 57.5832 2.8917 2.3650 -14.6018
# 2 46.3625 127.9020 30.9864 -2.7636 6.4065 -2.7305
# 3 57.5832 30.9864 159.6360 17.2530 -8.7855 12.1174
# 4 2.8917 -2.7636 17.2530 33.8241 -4.4219 -4.7841
# 5 2.3650 6.4065 -8.7855 -4.4219 40.4197 -9.2374
# 6 -14.6018 -2.7305 12.1174 -4.7841 -9.2374 45.9629
#
#
#
# Elastic Compliance Matrix: (Units=1/GPa)
#
#
# Indices 1 2 3 4 5 6 
#
# 1 0.011636 -0.003093 -0.004119 0.001556 0.000181 0.004797
# 2 -0.003093 0.009238 -0.000860 0.001220 -0.001420 -0.000366
# 3 -0.004119 -0.000860 0.008768 -0.004640 0.000866 -0.003980
# 4 0.001556 0.001220 -0.004640 0.033232 0.003713 0.005995
# 5 0.000181 -0.001420 0.000866 0.003713 0.026811 0.005519
# 6 0.004797 -0.000366 -0.003980 0.005995 0.005519 0.026041
#
#
# Mechanical properties :
#
#
# Convention : Reuss Voigt Hill
#
# Bulk Modulus (GPa) = 74.08469 75.73886 74.91178
# Shear Modulus (GPa) = 36.66546 42.49826 39.58186
#
# Velocity S-wave (km/s) = 3.92836 4.22930 4.08161
# Velocity P-wave (km/s) = 7.19426 7.46505 7.33090
#
# Compressibility (1/GPa) = 0.01349807
#
# Stress axis : x y z
#
# Youngs Moduli (GPa) = 85.94276 108.25356 114.04763
#
# Poissons Ratio (x) = 0.33481 0.46978
# Poissons Ratio (y) = 0.26581 0.09805
# Poissons Ratio (z) = 0.35401 0.09307
#
# Static dielectric constant tensor:
#      x y z
#    x 1.976180 0.009830 -0.014820 
#    y 0.009830 1.862500 -0.060600 
#    z -0.014820 -0.060600 2.050650 
# 
# From -- ./inp_files/174482.got.cif
#   From: 2010.05.17/outbox.cif.g08.bks.cpg/sg2_88_cif.got.tgz:174482.got - 2010.06.03 11:33:40.
