data_PCOD9068635
_publ_section_title
;
Structure prediction by ZEFSAII (Michael W. Deem and Ramdas Pophale) SiO2 
 PCOD9068635
Probable space group: P -1
;
_chemical_formula_sum "Si O2"
_cell_formula_units_Z 10
_cell_length_a 11.627984
_cell_length_b 6.984236
_cell_length_c 12.901253
_cell_angle_alpha 72.661957
_cell_angle_beta 22.692339
_cell_angle_gamma 78.676147
_cell_volume 376.948113
_symmetry_space_group_name_H-M "P -1"
_symmetry_group_IT_number 2
_symmetry_cell_setting 'triclinic'
loop_
_space_group_symop_operation_xyz
x,y,z
-x,-y,-z
loop_
_atom_site_type_symbol
_atom_site_label
_atom_site_fract_x
_atom_site_fract_y
_atom_site_fract_z
Si Si1 0.249338 0.322648 0.794184
Si Si2 0.615447 0.084336 0.278553
Si Si3 0.854386 0.048911 0.719566
Si Si4 0.234926 0.407752 0.460021
Si Si5 0.128528 0.352222 0.123704
O O1 0.500000 0.500000 0.500000
O O2 0.035494 0.788460 0.022010
O O3 0.122681 0.387144 0.998592
O O4 0.395647 0.128373 0.737785
O O5 0.408383 0.236694 0.389176
O O6 0.500000 0.000000 0.500000
O O7 0.937188 0.887969 0.759144
O O8 0.000000 0.000000 0.500000
O O9 0.985399 0.278540 0.612621
O O10 0.500000 0.000000 0.000000
O O11 0.520047 0.563160 0.148119
O O12 0.079148 0.528239 0.655369
#
# Coordination Sequence:
#
# PCOD9068635 Si02
#       5
#     2   2   2   2   2
#     4  11  28  51  78 122 167 222 268 326 400 483
#     4  11  27  49  78 113 168 215 275 325 389 482
#     4  12  29  55  85 116 157 206 268 344 413 475
#     4  12  30  49  82 120 158 210 273 331 402 486
#     4  12  30  50  83 118 164 210 267 332 406 479
#
# _framework density 26.528851
#
# number of rings (size 3 to 8) (size 9 to 14) (size 15 to 20)
#    0.000    0.400    0.000    4.800   19.600    7.200 
#    0.000    0.000    0.000    0.000    0.000    0.000 
#    0.000    0.000    0.000    0.000    0.000    0.000 
#
# Total GULP energy -56132.628595 kJ/mol
# GULP energy per Si atom -5613.262860 kJ/mol
# Density = 2.646847 g / cm^3
# Si number density = 26.528851 Si / 1000 Ang^3
#
#
#
# Elastic Constant Matrix: (Units=GPa)
#
#
# Indices 1 2 3 4 5 6 
#
# 1 77.6747 28.8221 36.6785 -7.5081 -23.2277 12.7355
# 2 28.8221 190.1315 71.3693 -3.5469 -4.3505 19.2434
# 3 36.6785 71.3693 197.9399 9.6135 -22.9049 14.0640
# 4 -7.5081 -3.5469 9.6135 65.8755 5.6755 0.2756
# 5 -23.2277 -4.3505 -22.9049 5.6755 56.8135 -8.4550
# 6 12.7355 19.2434 14.0640 0.2756 -8.4550 55.7395
#
#
#
# Elastic Compliance Matrix: (Units=1/GPa)
#
#
# Indices 1 2 3 4 5 6 
#
# 1 0.016361 -0.001442 -0.001825 0.001597 0.005390 -0.001970
# 2 -0.001442 0.006408 -0.002106 0.000601 -0.001238 -0.001542
# 3 -0.001825 -0.002106 0.006441 -0.001416 0.001801 -0.000201
# 4 0.001597 0.000601 -0.001416 0.015734 -0.001521 -0.000524
# 5 0.005390 -0.001238 0.001801 -0.001521 0.020873 0.001915
# 6 -0.001970 -0.001542 -0.000201 -0.000524 0.001915 0.019267
#
#
# Mechanical properties :
#
#
# Convention : Reuss Voigt Hill
#
# Bulk Modulus (GPa) = 54.16645 82.16512 68.16578
# Shear Modulus (GPa) = 49.02683 57.61078 53.31880
#
# Velocity S-wave (km/s) = 4.30357 4.66513 4.48799
# Velocity P-wave (km/s) = 6.71986 7.74965 7.25306
#
# Compressibility (1/GPa) = 0.01846161
#
# Stress axis : x y z
#
# Youngs Moduli (GPa) = 61.12273 156.06446 155.25522
#
# Poissons Ratio (x) = 0.22510 0.28342
# Poissons Ratio (y) = 0.08816 0.32695
# Poissons Ratio (z) = 0.11158 0.32866
#
# Static dielectric constant tensor:
#      x y z
#    x 2.134350 -0.053630 -0.050210 
#    y -0.053630 2.150100 0.060940 
#    z -0.050210 0.060940 2.084110 
# 
# From -- ./inp_files/2509.got.cif
#   From: 2010.05.17/outbox.cif.g08.bks.cpg/sg2_2_cif.got.tgz:2509.got - 2010.06.03 11:33:40.
