data_PCOD9068841
_publ_section_title
;
Structure prediction by ZEFSAII (Michael W. Deem and Ramdas Pophale) SiO2 
 PCOD9068841
Probable space group: P -1
;
_chemical_formula_sum "Si O2"
_cell_formula_units_Z 12
_cell_length_a 9.000293
_cell_length_b 15.094152
_cell_length_c 6.279386
_cell_angle_alpha 49.214917
_cell_angle_beta 111.926103
_cell_angle_gamma 100.219049
_cell_volume 596.498323
_symmetry_space_group_name_H-M "P -1"
_symmetry_group_IT_number 2
_symmetry_cell_setting 'triclinic'
loop_
_space_group_symop_operation_xyz
x,y,z
-x,-y,-z
loop_
_atom_site_type_symbol
_atom_site_label
_atom_site_fract_x
_atom_site_fract_y
_atom_site_fract_z
Si Si1 0.608982 0.099457 0.305080
Si Si2 0.930880 0.763796 0.028507
Si Si3 0.935513 0.626006 0.853110
Si Si4 0.910352 0.157904 0.624534
Si Si5 0.334139 0.239303 0.742084
Si Si6 0.199259 0.053181 0.687646
O O1 0.738105 0.124503 0.514195
O O2 0.500000 0.000000 0.500000
O O3 0.710215 0.052974 0.224789
O O4 0.503511 0.217609 0.985336
O O5 0.792816 0.756896 0.139481
O O6 0.075755 0.805613 0.179368
O O7 0.952264 0.646724 0.081948
O O8 0.871742 0.864122 0.672616
O O9 0.750773 0.661106 0.617958
O O10 0.041851 0.724015 0.655333
O O11 0.000000 0.500000 0.000000
O O12 0.048095 0.059875 0.758831
O O13 0.325277 0.121159 0.783265
#
# Coordination Sequence:
#
# PCOD9068841 Si02
#       6
#     2   2   2   2   2   2
#     4  12  21  34  53  82 119 154 169 215 276 313
#     4   8  16  36  53  82 102 137 187 224 257 332
#     4   9  19  39  63  77 100 142 184 234 276 312
#     4   9  21  35  54  82 111 141 192 218 252 332
#     4   9  19  34  53  82 110 138 188 221 260 328
#     4   9  18  36  52  75 112 153 184 212 255 319
#
# _framework density 20.117408000000001
#
# number of rings (size 3 to 8) (size 9 to 14) (size 15 to 20)
#    0.000    3.333    1.667    1.000    0.000    3.333 
#   12.000    0.833    0.000    2.000    0.000    0.000 
#    0.000    0.000    0.000    0.000    0.000    0.000 
#
# Total GULP energy -66812.308909 kJ/mol
# GULP energy per Si atom -5567.692409 kJ/mol
# Density = 2.007162 g / cm^3
# Si number density = 20.117408 Si / 1000 Ang^3
#
#
#
# Elastic Constant Matrix: (Units=GPa)
#
#
# Indices 1 2 3 4 5 6 
#
# 1 69.3250 45.4829 31.0953 9.3853 15.3511 -1.1379
# 2 45.4829 141.6653 47.1621 15.3475 11.4043 -30.3774
# 3 31.0953 47.1621 58.6205 22.7019 16.5584 -12.8496
# 4 9.3853 15.3475 22.7019 42.0116 -1.8229 -3.6061
# 5 15.3511 11.4043 16.5584 -1.8229 45.7902 7.3336
# 6 -1.1379 -30.3774 -12.8496 -3.6061 7.3336 20.6199
#
#
#
# Elastic Compliance Matrix: (Units=1/GPa)
#
#
# Indices 1 2 3 4 5 6 
#
# 1 0.023876 -0.007973 -0.011102 0.002132 0.000848 -0.017276
# 2 -0.007973 0.015493 -0.001528 -0.001288 -0.004327 0.022745
# 3 -0.011102 -0.001528 0.040744 -0.017505 -0.015318 0.024913
# 4 0.002132 -0.001288 -0.017505 0.032773 0.008860 -0.010108
# 5 0.000848 -0.004327 -0.015318 0.008860 0.032680 -0.025947
# 6 -0.017276 0.022745 0.024913 -0.010108 -0.025947 0.104037
#
#
# Mechanical properties :
#
#
# Convention : Reuss Voigt Hill
#
# Bulk Modulus (GPa) = 25.70324 57.45459 41.57892
# Shear Modulus (GPa) = 16.45938 31.40904 23.93421
#
# Velocity S-wave (km/s) = 2.86346 3.95560 3.45298
# Velocity P-wave (km/s) = 4.87205 7.03449 6.05066
#
# Compressibility (1/GPa) = 0.03890559
#
# Stress axis : x y z
#
# Youngs Moduli (GPa) = 41.88362 64.54692 24.54326
#
# Poissons Ratio (x) = 0.51464 0.27249
# Poissons Ratio (y) = 0.33394 0.03751
# Poissons Ratio (z) = 0.46501 0.09864
#
# Static dielectric constant tensor:
#      x y z
#    x 1.753700 0.027480 -0.010280 
#    y 0.027480 1.748450 0.011140 
#    z -0.010280 0.011140 1.792170 
# 
# From -- ./inp_files/31799.got.cif
#   From: 2010.05.17/outbox.cif.g08.bks.cpg/sg2_16_cif.got.tgz:31799.got - 2010.06.03 11:33:40.
