data_PCOD9068023
_publ_section_title
;
Structure prediction by ZEFSAII (Michael W. Deem and Ramdas Pophale) SiO2 
 PCOD9068023
Probable space group: P -1
;
_chemical_formula_sum "Si O2"
_cell_formula_units_Z 12
_cell_length_a 8.096790
_cell_length_b 15.541389
_cell_length_c 9.393253
_cell_angle_alpha 127.823882
_cell_angle_beta 147.584128
_cell_angle_gamma 64.464540
_cell_volume 489.918327
_symmetry_space_group_name_H-M "P -1"
_symmetry_group_IT_number 2
_symmetry_cell_setting 'triclinic'
loop_
_space_group_symop_operation_xyz
x,y,z
-x,-y,-z
loop_
_atom_site_type_symbol
_atom_site_label
_atom_site_fract_x
_atom_site_fract_y
_atom_site_fract_z
Si Si1 0.922797 0.008327 0.617781
Si Si2 0.132941 0.428607 0.324373
Si Si3 0.397997 0.337336 0.679501
Si Si4 0.198778 0.243975 0.736505
Si Si5 0.390694 0.669018 0.619382
Si Si6 0.720933 0.909570 0.777716
O O1 0.859806 0.880369 0.491161
O O2 0.611756 0.057662 0.461201
O O3 0.000000 0.000000 0.500000
O O4 0.200748 0.078576 0.985276
O O5 0.219516 0.416812 0.540706
O O6 0.232927 0.551375 0.457173
O O7 0.353295 0.357421 0.330229
O O8 0.770338 0.379356 0.979681
O O9 0.317061 0.326060 0.775575
O O10 0.288359 0.214038 0.409291
O O11 0.877704 0.276167 0.589542
O O12 0.445273 0.256105 0.055669
O O13 0.000000 0.000000 0.000000
#
# Coordination Sequence:
#
# PCOD9068023 Si02
#       6
#     2   2   2   2   2   2
#     4  12  28  46  70 105 138 181 230 279 341 402
#     4  11  26  47  71 102 134 182 231 277 350 405
#     4  12  26  43  73 103 135 184 227 278 341 409
#     4  12  26  44  71 104 138 179 228 284 340 400
#     4  11  26  47  71  99 141 177 226 291 338 406
#     4  12  26  48  70 100 143 182 223 281 338 409
#
# _framework density 24.493877999999999
#
# number of rings (size 3 to 8) (size 9 to 14) (size 15 to 20)
#    0.000    0.333    1.667    6.000    9.333    6.667 
#    0.000    0.000    0.000    0.000    0.000    0.000 
#    0.000    0.000    0.000    0.000    0.000    0.000 
#
# Total GULP energy -67376.690066 kJ/mol
# GULP energy per Si atom -5614.724172 kJ/mol
# Density = 2.443813 g / cm^3
# Si number density = 24.493878 Si / 1000 Ang^3
#
#
#
# Elastic Constant Matrix: (Units=GPa)
#
#
# Indices 1 2 3 4 5 6 
#
# 1 61.9500 15.3090 8.8531 -0.6357 2.0708 6.6990
# 2 15.3090 92.5362 16.4741 -4.5621 20.1765 -2.3122
# 3 8.8531 16.4741 101.6822 3.8127 16.8260 9.7166
# 4 -0.6357 -4.5621 3.8127 36.5582 1.0568 -4.9144
# 5 2.0708 20.1765 16.8260 1.0568 35.9621 -10.8979
# 6 6.6990 -2.3122 9.7166 -4.9144 -10.8979 42.3943
#
#
#
# Elastic Compliance Matrix: (Units=1/GPa)
#
#
# Indices 1 2 3 4 5 6 
#
# 1 0.017238 -0.002829 -0.000800 -0.000336 0.000163 -0.002692
# 2 -0.002829 0.012998 -0.000765 0.001821 -0.006895 -0.000230
# 3 -0.000800 -0.000765 0.011532 -0.001718 -0.006188 -0.004348
# 4 -0.000336 0.001821 -0.001718 0.028269 0.000140 0.003859
# 5 0.000163 -0.006895 -0.006188 0.000140 0.037816 0.010754
# 6 -0.002692 -0.000230 -0.004348 0.003859 0.010754 0.028209
#
#
# Mechanical properties :
#
#
# Convention : Reuss Voigt Hill
#
# Bulk Modulus (GPa) = 30.32033 37.49341 33.90687
# Shear Modulus (GPa) = 32.08384 37.35173 34.71778
#
# Velocity S-wave (km/s) = 3.62314 3.90929 3.76893
# Velocity P-wave (km/s) = 5.46886 5.97639 5.72825
#
# Compressibility (1/GPa) = 0.03298118
#
# Stress axis : x y z
#
# Youngs Moduli (GPa) = 58.01282 76.93399 86.71591
#
# Poissons Ratio (x) = 0.21763 0.06934
# Poissons Ratio (y) = 0.16410 0.06633
# Poissons Ratio (z) = 0.04639 0.05885
#
# Static dielectric constant tensor:
#      x y z
#    x 1.982860 0.080970 -0.026650 
#    y 0.080970 1.961430 0.018380 
#    z -0.026650 0.018380 1.880110 
# 
# From -- ./inp_files/29535.got.cif
#   From: 2010.05.17/outbox.cif.g08.bks.cpg/sg2_15_cif.got.tgz:29535.got - 2010.06.03 11:33:40.
