data_PCOD9068502
_publ_section_title
;
Structure prediction by ZEFSAII (Michael W. Deem and Ramdas Pophale) SiO2 
 PCOD9068502
Probable space group: P -1
;
_chemical_formula_sum "Si O2"
_cell_formula_units_Z 12
_cell_length_a 7.872471
_cell_length_b 7.554864
_cell_length_c 10.287537
_cell_angle_alpha 106.231850
_cell_angle_beta 43.812710
_cell_angle_gamma 102.173742
_cell_volume 406.666168
_symmetry_space_group_name_H-M "P -1"
_symmetry_group_IT_number 2
_symmetry_cell_setting 'triclinic'
loop_
_space_group_symop_operation_xyz
x,y,z
-x,-y,-z
loop_
_atom_site_type_symbol
_atom_site_label
_atom_site_fract_x
_atom_site_fract_y
_atom_site_fract_z
Si Si1 0.286780 0.415929 0.505249
Si Si2 0.267405 0.631141 0.121882
Si Si3 0.976466 0.717987 0.025061
Si Si4 0.601149 0.256721 0.670770
Si Si5 0.921298 0.099398 0.262546
Si Si6 0.392603 0.164820 0.181338
O O1 0.500000 0.500000 0.500000
O O2 0.292692 0.550879 0.404938
O O3 0.108096 0.799712 0.839456
O O4 0.330253 0.213965 0.375776
O O5 0.286406 0.781563 0.258705
O O6 0.500000 0.500000 0.000000
O O7 0.984380 0.572380 0.280265
O O8 0.368520 0.700205 0.942476
O O9 0.686675 0.731838 0.150614
O O10 0.979219 0.887003 0.161712
O O11 0.000000 0.500000 0.000000
O O12 0.685333 0.119046 0.486083
O O13 0.141378 0.193060 0.244853
O O14 0.500000 0.000000 0.000000
#
# Coordination Sequence:
#
# PCOD9068502 Si02
#       6
#     2   2   2   2   2   2
#     4  12  30  49  82 127 167 218 297 357 427 519
#     4  12  25  52  85 112 162 227 282 347 438 519
#     4  11  28  48  84 128 173 229 289 357 436 517
#     4  12  25  48  82 117 167 222 283 353 441 514
#     4  11  26  52  79 123 179 223 290 358 432 524
#     4  12  28  52  82 120 175 229 288 359 445 524
#
# _framework density 29.508234000000002
#
# number of rings (size 3 to 8) (size 9 to 14) (size 15 to 20)
#    0.000    0.333    5.000    2.000    4.667    4.000 
#    3.000    0.000    0.000    0.000    0.000    0.000 
#    0.000    0.000    0.000    0.000    0.000    0.000 
#
# Total GULP energy -67094.530243 kJ/mol
# GULP energy per Si atom -5591.210854 kJ/mol
# Density = 2.944107 g / cm^3
# Si number density = 29.508234 Si / 1000 Ang^3
#
#
#
# Elastic Constant Matrix: (Units=GPa)
#
#
# Indices 1 2 3 4 5 6 
#
# 1 97.1554 30.6599 61.5297 22.2421 -6.8078 32.3200
# 2 30.6599 122.2675 38.5413 24.0046 9.3218 17.2423
# 3 61.5297 38.5413 216.1225 19.0940 2.8989 6.1117
# 4 22.2421 24.0046 19.0940 72.3517 7.4973 7.4249
# 5 -6.8078 9.3218 2.8989 7.4973 65.0248 -5.6270
# 6 32.3200 17.2423 6.1117 7.4249 -5.6270 68.0810
#
#
#
# Elastic Compliance Matrix: (Units=1/GPa)
#
#
# Indices 1 2 3 4 5 6 
#
# 1 0.016224 -0.001467 -0.003935 -0.002989 0.001867 -0.006497
# 2 -0.001467 0.009621 -0.001045 -0.002167 -0.001368 -0.001523
# 3 -0.003935 -0.001045 0.005905 -0.000126 -0.000374 0.001585
# 4 -0.002989 -0.002167 -0.000126 0.015666 -0.001792 0.000122
# 5 0.001867 -0.001368 -0.000374 -0.001792 0.016082 0.001018
# 6 -0.006497 -0.001523 0.001585 0.000122 0.001018 0.018087
#
#
# Mechanical properties :
#
#
# Convention : Reuss Voigt Hill
#
# Bulk Modulus (GPa) = 53.03452 77.44525 65.23989
# Shear Modulus (GPa) = 49.62147 61.41245 55.51696
#
# Velocity S-wave (km/s) = 4.10520 4.56696 4.34222
# Velocity P-wave (km/s) = 6.36255 7.35607 6.87727
#
# Compressibility (1/GPa) = 0.01885564
#
# Stress axis : x y z
#
# Youngs Moduli (GPa) = 61.63707 103.94279 169.35285
#
# Poissons Ratio (x) = 0.15252 0.66632
# Poissons Ratio (y) = 0.09045 0.17698
# Poissons Ratio (z) = 0.24251 0.10862
#
# Static dielectric constant tensor:
#      x y z
#    x 2.662260 -0.021310 -0.051900 
#    y -0.021310 2.536030 0.093430 
#    z -0.051900 0.093430 2.231750 
# 
# From -- ./inp_files/377031.got.cif
#   From: 2010.05.17/outbox.cif.g08.bks.cpg/sg2_189_cif.got.tgz:377031.got - 2010.06.03 11:33:40.
