data_PCOD9068178
_publ_section_title
;
Structure prediction by ZEFSAII (Michael W. Deem and Ramdas Pophale) SiO2 
 PCOD9068178
Probable space group: P -1
;
_chemical_formula_sum "Si O2"
_cell_formula_units_Z 14
_cell_length_a 9.309537
_cell_length_b 8.722051
_cell_length_c 12.804971
_cell_angle_alpha 71.238681
_cell_angle_beta 143.702673
_cell_angle_gamma 108.717389
_cell_volume 579.258112
_symmetry_space_group_name_H-M "P -1"
_symmetry_group_IT_number 2
_symmetry_cell_setting 'triclinic'
loop_
_space_group_symop_operation_xyz
x,y,z
-x,-y,-z
loop_
_atom_site_type_symbol
_atom_site_label
_atom_site_fract_x
_atom_site_fract_y
_atom_site_fract_z
Si Si1 0.923072 0.647594 0.317107
Si Si2 0.086324 0.018062 0.878498
Si Si3 0.428800 0.498158 0.150147
Si Si4 0.158810 0.862651 0.583442
Si Si5 0.645851 0.889342 0.775001
Si Si6 0.860613 0.257386 0.190529
Si Si7 0.669299 0.561874 0.489282
O O1 0.882279 0.802867 0.190233
O O2 0.999816 0.719315 0.460391
O O3 0.145813 0.564847 0.415784
O O4 0.672607 0.533702 0.214658
O O5 0.806385 0.956331 0.757252
O O6 0.175436 0.891217 0.877359
O O7 0.230612 0.022716 0.070250
O O8 0.356814 0.307021 0.172053
O O9 0.498016 0.583738 0.284003
O O10 0.224167 0.585461 0.950590
O O11 0.366447 0.923159 0.609269
O O12 0.278084 0.795884 0.771963
O O13 0.000000 0.000000 0.500000
O O14 0.140029 0.293603 0.385469
O O15 0.500000 0.500000 0.500000
#
# Coordination Sequence:
#
# PCOD9068178 Si02
#       7
#     2   2   2   2   2   2   2
#     4  12  25  49  76 108 147 194 251 306 369 436
#     4  11  27  47  73 107 148 196 247 305 370 441
#     4  12  26  50  77 110 151 195 246 310 367 442
#     4  12  25  45  75 108 149 192 251 307 365 438
#     4  11  26  48  72 105 150 196 243 303 377 439
#     4  12  27  45  77 111 149 194 253 305 368 440
#     4  12  27  47  75 111 149 197 247 305 373 444
#
# _framework density 24.168847
#
# number of rings (size 3 to 8) (size 9 to 14) (size 15 to 20)
#    0.000    0.286    4.286    3.857    2.000    9.143 
#    0.000    0.000    0.000    0.000    0.000    0.000 
#    0.000    0.000    0.000    0.000    0.000    0.000 
#
# Total GULP energy -78443.573888 kJ/mol
# GULP energy per Si atom -5603.112421 kJ/mol
# Density = 2.411384 g / cm^3
# Si number density = 24.168847 Si / 1000 Ang^3
#
#
#
# Elastic Constant Matrix: (Units=GPa)
#
#
# Indices 1 2 3 4 5 6 
#
# 1 114.1795 25.5397 14.4673 3.6174 -12.7268 19.9991
# 2 25.5397 96.4678 17.5148 1.1003 -5.3978 -2.8895
# 3 14.4673 17.5148 88.1018 7.0701 -22.1848 -5.3735
# 4 3.6174 1.1003 7.0701 40.8611 3.8660 -3.7945
# 5 -12.7268 -5.3978 -22.1848 3.8660 35.9476 12.0966
# 6 19.9991 -2.8895 -5.3735 -3.7945 12.0966 38.6439
#
#
#
# Elastic Compliance Matrix: (Units=1/GPa)
#
#
# Indices 1 2 3 4 5 6 
#
# 1 0.011804 -0.002982 0.000077 -0.002452 0.006987 -0.008749
# 2 -0.002982 0.011519 -0.002097 0.000718 -0.001601 0.002685
# 3 0.000077 -0.002097 0.014313 -0.003457 0.009420 -0.001495
# 4 -0.002452 0.000718 -0.003457 0.026544 -0.007722 0.005865
# 5 0.006987 -0.001601 0.009420 -0.007722 0.042213 -0.016398
# 6 -0.008749 0.002685 -0.001495 0.005865 -0.016398 0.036107
#
#
# Mechanical properties :
#
#
# Convention : Reuss Voigt Hill
#
# Bulk Modulus (GPa) = 36.19096 45.97694 41.08395
# Shear Modulus (GPa) = 30.91818 39.17233 35.04526
#
# Velocity S-wave (km/s) = 3.58055 4.03026 3.81204
# Velocity P-wave (km/s) = 5.66573 6.38136 6.03417
#
# Compressibility (1/GPa) = 0.02763121
#
# Stress axis : x y z
#
# Youngs Moduli (GPa) = 84.71474 86.81201 69.86559
#
# Poissons Ratio (x) = 0.25890 -0.00537
# Poissons Ratio (y) = 0.25264 0.14653
# Poissons Ratio (z) = -0.00651 0.18207
#
# Static dielectric constant tensor:
#      x y z
#    x 1.936830 0.047340 0.014800 
#    y 0.047340 1.930340 0.010340 
#    z 0.014800 0.010340 1.956350 
# 
# From -- ./inp_files/382156.got.cif
#   From: 2010.05.17/outbox.cif.g08.bks.cpg/sg2_192_cif.got.tgz:382156.got - 2010.06.03 11:33:40.
