data_PCOD9068917
_publ_section_title
;
Structure prediction by ZEFSAII (Michael W. Deem and Ramdas Pophale) SiO2 
 PCOD9068917
Probable space group: P -1
;
_chemical_formula_sum "Si O2"
_cell_formula_units_Z 16
_cell_length_a 12.700373
_cell_length_b 12.097326
_cell_length_c 8.919783
_cell_angle_alpha 42.420584
_cell_angle_beta 90.766205
_cell_angle_gamma 61.390911
_cell_volume 637.114323
_symmetry_space_group_name_H-M "P -1"
_symmetry_group_IT_number 2
_symmetry_cell_setting 'triclinic'
loop_
_space_group_symop_operation_xyz
x,y,z
-x,-y,-z
loop_
_atom_site_type_symbol
_atom_site_label
_atom_site_fract_x
_atom_site_fract_y
_atom_site_fract_z
Si Si1 0.050569 0.021658 0.323176
Si Si2 0.081891 0.092777 0.797782
Si Si3 0.876608 0.497862 0.981303
Si Si4 0.379449 0.770888 0.677182
Si Si5 0.219277 0.438541 0.739509
Si Si6 0.521307 0.095045 0.711471
Si Si7 0.695881 0.926638 0.352882
Si Si8 0.647118 0.447607 0.547791
O O1 0.228002 0.871150 0.491536
O O2 0.000000 0.000000 0.500000
O O3 0.989609 0.967161 0.251956
O O4 0.949367 0.298084 0.057824
O O5 0.924652 0.361391 0.574635
O O6 0.174055 0.139740 0.679288
O O7 0.209705 0.838770 0.138989
O O8 0.735154 0.737079 0.658372
O O9 0.833407 0.495732 0.152120
O O10 0.000000 0.500000 0.000000
O O11 0.447350 0.837946 0.507288
O O12 0.335997 0.891426 0.716567
O O13 0.500000 0.500000 0.000000
O O14 0.321853 0.484108 0.669021
O O15 0.307023 0.168113 0.981628
O O16 0.406691 0.347054 0.544777
O O17 0.436571 0.014772 0.796121
O O18 0.500000 0.500000 0.500000
#
# Coordination Sequence:
#
# PCOD9068917 Si02
#       8
#     2   2   2   2   2   2   2   2
#     4  12  23  41  73 108 155 182 243 304 383 447
#     4  12  26  48  79 111 144 200 249 316 373 442
#     4  12  21  42  70 110 146 186 234 308 379 442
#     4  12  26  40  69 113 153 197 236 295 381 457
#     4  12  25  47  76 106 145 195 254 303 365 439
#     4  12  28  47  74 108 150 200 249 310 375 446
#     4  12  24  45  73 111 152 186 241 307 388 450
#     4  12  30  56  73 102 151 205 261 308 367 443
#
# _framework density 25.113233000000001
#
# number of rings (size 3 to 8) (size 9 to 14) (size 15 to 20)
#    0.000    0.000    6.250    3.375    5.250    0.000 
#    0.000    1.250    0.000    0.000    0.000    0.000 
#    0.000    0.000    0.000    0.000    0.000    0.000 
#
# Total GULP energy -89278.830059 kJ/mol
# GULP energy per Si atom -5579.926879 kJ/mol
# Density = 2.505607 g / cm^3
# Si number density = 25.113233 Si / 1000 Ang^3
#
#
#
# Elastic Constant Matrix: (Units=GPa)
#
#
# Indices 1 2 3 4 5 6 
#
# 1 159.5470 27.0994 14.7567 9.8377 -8.1236 -24.0685
# 2 27.0994 57.2703 14.2561 -0.6433 1.4900 -19.9320
# 3 14.7567 14.2561 185.3770 -22.8484 3.0756 -9.1614
# 4 9.8377 -0.6433 -22.8484 28.7973 -11.4723 -12.7068
# 5 -8.1236 1.4900 3.0756 -11.4723 27.8255 8.4166
# 6 -24.0685 -19.9320 -9.1614 -12.7068 8.4166 43.2957
#
#
#
# Elastic Compliance Matrix: (Units=1/GPa)
#
#
# Indices 1 2 3 4 5 6 
#
# 1 0.007217 -0.002634 -0.000487 -0.001609 0.001026 0.002025
# 2 -0.002634 0.022743 -0.000378 0.004592 -0.003357 0.010926
# 3 -0.000487 -0.000378 0.006432 0.006942 0.001207 0.002719
# 4 -0.001609 0.004592 0.006942 0.054138 0.016169 0.015434
# 5 0.001026 -0.003357 0.001207 0.016169 0.044340 -0.004594
# 6 0.002025 0.010926 0.002719 0.015434 -0.004594 0.035251
#
#
# Mechanical properties :
#
#
# Convention : Reuss Voigt Hill
#
# Bulk Modulus (GPa) = 34.01929 57.15763 45.58846
# Shear Modulus (GPa) = 26.74988 43.05584 34.90286
#
# Velocity S-wave (km/s) = 3.26724 4.14511 3.73207
# Velocity P-wave (km/s) = 5.27341 6.76155 6.06331
#
# Compressibility (1/GPa) = 0.02939509
#
# Stress axis : x y z
#
# Youngs Moduli (GPa) = 138.56078 43.96950 155.46680
#
# Poissons Ratio (x) = 0.11581 0.07574
# Poissons Ratio (y) = 0.36494 0.05871
# Poissons Ratio (z) = 0.06750 0.01661
#
# Static dielectric constant tensor:
#      x y z
#    x 1.861360 -0.114620 0.135700 
#    y -0.114620 1.862050 -0.000890 
#    z 0.135700 -0.000890 1.737540 
# 
# From -- ./inp_files/433672.got.cif
#   From: 2010.05.17/outbox.cif.g08.bks.cpg/sg2_217_cif.got.tgz:433672.got - 2010.06.03 11:33:40.
