data_PCOD9068822
_publ_section_title
;
Structure prediction by ZEFSAII (Michael W. Deem and Ramdas Pophale) SiO2 
 PCOD9068822
Probable space group: P -1
;
_chemical_formula_sum "Si O2"
_cell_formula_units_Z 15
_cell_length_a 12.036383
_cell_length_b 18.569914
_cell_length_c 14.493785
_cell_angle_alpha 28.132181
_cell_angle_beta 149.176891
_cell_angle_gamma 153.098530
_cell_volume 650.197307
_symmetry_space_group_name_H-M "P -1"
_symmetry_group_IT_number 2
_symmetry_cell_setting 'triclinic'
loop_
_space_group_symop_operation_xyz
x,y,z
-x,-y,-z
loop_
_atom_site_type_symbol
_atom_site_label
_atom_site_fract_x
_atom_site_fract_y
_atom_site_fract_z
Si Si1 0.306909 0.280207 0.824745
Si Si2 0.889325 0.489437 0.034802
Si Si3 0.496211 0.899692 0.276413
Si Si4 0.823139 0.786941 0.742319
Si Si5 0.710962 0.891998 0.169682
Si Si6 0.344336 0.586209 0.379827
Si Si7 0.008820 0.323021 0.726274
Si Si8 0.500000 0.500000 0.000000
O O1 0.583241 0.322901 0.009497
O O2 0.184499 0.124357 0.835614
O O3 0.379248 0.460986 0.615262
O O4 0.118315 0.262266 0.790582
O O5 0.892122 0.669009 0.861391
O O6 0.000000 0.500000 0.000000
O O7 0.071925 0.477483 0.253541
O O8 0.726609 0.891048 0.493371
O O9 0.363680 0.743469 0.280032
O O10 0.282998 0.836067 0.276114
O O11 0.520484 0.077053 0.050516
O O12 0.595196 0.634884 0.820005
O O13 0.069159 0.944145 0.797539
O O14 0.579243 0.700855 0.345907
O O15 0.000000 0.500000 0.500000
O O16 0.203279 0.376658 0.889614
#
# Coordination Sequence:
#
# PCOD9068822 Si02
#       8
#     2   2   2   2   2   2   2   1
#     4  12  27  46  71 108 139 187 237 294 345 417
#     4  12  24  42  71 102 135 185 235 280 345 417
#     4  12  25  45  71 103 140 188 231 289 356 409
#     4  12  26  45  73 106 139 188 234 290 352 421
#     4  12  28  44  68 106 148 182 229 299 352 411
#     4  12  24  45  73  99 144 190 233 283 350 426
#     4  12  22  43  75 100 134 181 240 286 338 423
#     4  12  20  42  76 102 130 184 236 280 344 426
#
# _framework density 23.069918999999999
#
# number of rings (size 3 to 8) (size 9 to 14) (size 15 to 20)
#    0.000    0.000    9.333    0.800    0.000    3.200 
#    0.000    0.667    0.000    0.000    0.000    0.000 
#    0.000    0.000    0.000    0.000    0.000    0.000 
#
# Total GULP energy -83727.059641 kJ/mol
# GULP energy per Si atom -5581.803976 kJ/mol
# Density = 2.301741 g / cm^3
# Si number density = 23.069919 Si / 1000 Ang^3
#
#
#
# Elastic Constant Matrix: (Units=GPa)
#
#
# Indices 1 2 3 4 5 6 
#
# 1 112.6459 25.5169 13.1890 19.4487 19.0661 -3.6943
# 2 25.5169 83.4084 23.1723 28.2659 9.4806 -12.4312
# 3 13.1890 23.1723 96.2901 19.7946 -11.6048 -7.1783
# 4 19.4487 28.2659 19.7946 41.2954 -0.8567 -5.9953
# 5 19.0661 9.4806 -11.6048 -0.8567 33.6659 -5.1222
# 6 -3.6943 -12.4312 -7.1783 -5.9953 -5.1222 46.1507
#
#
#
# Elastic Compliance Matrix: (Units=1/GPa)
#
#
# Indices 1 2 3 4 5 6 
#
# 1 0.011076 -0.000979 -0.001289 -0.004192 -0.006679 -0.000864
# 2 -0.000979 0.017252 -0.002401 -0.009961 -0.005029 0.002343
# 3 -0.001289 -0.002401 0.012676 -0.003496 0.005903 0.001423
# 4 -0.004192 -0.009961 -0.003496 0.035015 0.005101 0.001552
# 5 -0.006679 -0.005029 0.005903 0.005101 0.037656 0.003871
# 6 -0.000864 0.002343 0.001423 0.001552 0.003871 0.023083
#
#
# Mechanical properties :
#
#
# Convention : Reuss Voigt Hill
#
# Bulk Modulus (GPa) = 31.58035 46.23342 38.90688
# Shear Modulus (GPa) = 31.91775 39.58683 35.75229
#
# Velocity S-wave (km/s) = 3.72361 4.14690 3.94094
# Velocity P-wave (km/s) = 5.67501 6.55844 6.13265
#
# Compressibility (1/GPa) = 0.03166526
#
# Stress axis : x y z
#
# Youngs Moduli (GPa) = 90.28406 57.96361 78.88929
#
# Poissons Ratio (x) = 0.05676 0.10169
# Poissons Ratio (y) = 0.08840 0.18944
# Poissons Ratio (z) = 0.11638 0.13919
#
# Static dielectric constant tensor:
#      x y z
#    x 1.927090 -0.000490 -0.003040 
#    y -0.000490 1.857540 -0.032600 
#    z -0.003040 -0.032600 1.864730 
# 
# From -- ./inp_files/180843.got.cif
#   From: 2010.05.17/outbox.cif.g08.bks.cpg/sg2_91_cif.got.tgz:180843.got - 2010.06.03 11:33:40.
