data_PCOD9068358
_publ_section_title
;
Structure prediction by ZEFSAII (Michael W. Deem and Ramdas Pophale) SiO2 
 PCOD9068358
Probable space group: P -1
;
_chemical_formula_sum "Si O2"
_cell_formula_units_Z 12
_cell_length_a 5.305036
_cell_length_b 15.807610
_cell_length_c 16.016472
_cell_angle_alpha 154.789727
_cell_angle_beta 112.858602
_cell_angle_gamma 59.505243
_cell_volume 483.740340
_symmetry_space_group_name_H-M "P -1"
_symmetry_group_IT_number 2
_symmetry_cell_setting 'triclinic'
loop_
_space_group_symop_operation_xyz
x,y,z
-x,-y,-z
loop_
_atom_site_type_symbol
_atom_site_label
_atom_site_fract_x
_atom_site_fract_y
_atom_site_fract_z
Si Si1 0.923142 0.820979 0.222085
Si Si2 0.061898 0.625678 0.542657
Si Si3 0.501573 0.219951 0.160603
Si Si4 0.776812 0.442637 0.117766
Si Si5 0.330542 0.900895 0.116461
Si Si6 0.890920 0.284408 0.661957
O O1 0.629047 0.821464 0.139690
O O2 0.935969 0.766687 0.272736
O O3 0.929607 0.056180 0.424327
O O4 0.201435 0.647216 0.054081
O O5 0.205449 0.437753 0.326046
O O6 0.281941 0.724241 0.698997
O O7 0.000000 0.500000 0.500000
O O8 0.797100 0.839174 0.666472
O O9 0.607291 0.175269 0.039325
O O10 0.500000 0.000000 0.000000
O O11 0.455688 0.586093 0.243115
O O12 0.970508 0.586041 0.262342
O O13 0.878838 0.214610 0.977757
#
# Coordination Sequence:
#
# PCOD9068358 Si02
#       6
#     2   2   2   2   2   2
#     4  11  28  49  77 115 154 201 261 314 373 460
#     4  11  26  49  77 101 148 198 245 310 386 453
#     4  11  26  50  74 107 147 198 245 314 387 454
#     4  12  27  49  76 113 154 205 254 317 375 455
#     4  12  28  45  75 117 149 196 260 317 371 455
#     4  11  28  50  79 108 160 210 250 309 392 439
#
# _framework density 24.806697
#
# number of rings (size 3 to 8) (size 9 to 14) (size 15 to 20)
#    0.000    0.667    3.333    1.500    7.000    5.333 
#    0.000    0.000    0.000    0.000    0.000    0.000 
#    0.000    0.000    0.000    0.000    0.000    0.000 
#
# Total GULP energy -67224.151921 kJ/mol
# GULP energy per Si atom -5602.012660 kJ/mol
# Density = 2.475024 g / cm^3
# Si number density = 24.806697 Si / 1000 Ang^3
#
#
#
# Elastic Constant Matrix: (Units=GPa)
#
#
# Indices 1 2 3 4 5 6 
#
# 1 129.4656 50.2217 64.2059 21.2208 15.0107 31.3959
# 2 50.2217 110.5588 36.4817 11.5973 15.6199 18.4296
# 3 64.2059 36.4817 163.2127 14.6221 7.2259 27.3922
# 4 21.2208 11.5973 14.6221 52.4151 1.6956 4.4779
# 5 15.0107 15.6199 7.2259 1.6956 43.5071 23.5785
# 6 31.3959 18.4296 27.3922 4.4779 23.5785 40.1182
#
#
#
# Elastic Compliance Matrix: (Units=1/GPa)
#
#
# Indices 1 2 3 4 5 6 
#
# 1 0.012387 -0.003465 -0.002791 -0.002949 0.001069 -0.006495
# 2 -0.003465 0.011425 -0.000961 -0.000749 -0.002559 -0.000293
# 3 -0.002791 -0.000961 0.008093 -0.000633 0.002233 -0.004141
# 4 -0.002949 -0.000749 -0.000633 0.020552 0.000238 0.000651
# 5 0.001069 -0.002559 0.002233 0.000238 0.034941 -0.021748
# 6 -0.006495 -0.000293 -0.004141 0.000651 -0.021748 0.045681
#
#
# Mechanical properties :
#
#
# Convention : Reuss Voigt Hill
#
# Bulk Modulus (GPa) = 57.23975 78.33952 67.78963
# Shear Modulus (GPa) = 32.60808 44.02994 38.31901
#
# Velocity S-wave (km/s) = 3.62952 4.21755 3.93454
# Velocity P-wave (km/s) = 6.37879 7.44080 6.93017
#
# Compressibility (1/GPa) = 0.01747038
#
# Stress axis : x y z
#
# Youngs Moduli (GPa) = 80.72925 87.52803 123.56574
#
# Poissons Ratio (x) = 0.30325 0.34493
# Poissons Ratio (y) = 0.27970 0.11876
# Poissons Ratio (z) = 0.22535 0.08413
#
# Static dielectric constant tensor:
#      x y z
#    x 2.020150 -0.072410 -0.033870 
#    y -0.072410 1.987590 0.019780 
#    z -0.033870 0.019780 1.913530 
# 
# From -- ./inp_files/97692.got.cif
#   From: 2010.05.17/outbox.cif.g08.bks.cpg/sg2_49_cif.got.tgz:97692.got - 2010.06.03 11:33:40.
