data_PCOD9068708
_publ_section_title
;
Structure prediction by ZEFSAII (Michael W. Deem and Ramdas Pophale) SiO2 
 PCOD9068708
Probable space group: P -1
;
_chemical_formula_sum "Si O2"
_cell_formula_units_Z 14
_cell_length_a 11.362719
_cell_length_b 12.747430
_cell_length_c 5.250556
_cell_angle_alpha 83.907168
_cell_angle_beta 69.858531
_cell_angle_gamma 58.072412
_cell_volume 603.232364
_symmetry_space_group_name_H-M "P -1"
_symmetry_group_IT_number 2
_symmetry_cell_setting 'triclinic'
loop_
_space_group_symop_operation_xyz
x,y,z
-x,-y,-z
loop_
_atom_site_type_symbol
_atom_site_label
_atom_site_fract_x
_atom_site_fract_y
_atom_site_fract_z
Si Si1 0.576809 0.044633 0.727424
Si Si2 0.283560 0.203743 0.637406
Si Si3 0.833179 0.530809 0.525264
Si Si4 0.832004 0.099019 0.537941
Si Si5 0.524864 0.556123 0.717598
Si Si6 0.957300 0.368070 0.975055
Si Si7 0.221879 0.766517 0.957010
O O1 0.432890 0.168330 0.687154
O O2 0.705188 0.069107 0.704784
O O3 0.663333 0.927334 0.501470
O O4 0.500000 0.000000 0.000000
O O5 0.231438 0.321422 0.460761
O O6 0.129754 0.257445 0.891899
O O7 0.684877 0.529909 0.624439
O O8 0.924191 0.450271 0.721788
O O9 0.911923 0.458748 0.225083
O O10 0.836636 0.122082 0.228525
O O11 0.798237 0.208410 0.733565
O O12 0.000000 0.000000 0.500000
O O13 0.500000 0.500000 0.500000
O O14 0.394658 0.697428 0.786017
O O15 0.500000 0.500000 0.000000
O O16 0.854298 0.310107 0.045132
#
# Coordination Sequence:
#
# PCOD9068708 Si02
#       7
#     2   2   2   2   2   2   2
#     4  11  29  50  75 106 144 200 254 303 365 427
#     4  11  28  48  74 103 149 194 247 304 363 440
#     4  12  25  45  73 111 148 191 241 296 374 441
#     4  12  28  48  77 107 144 190 250 303 360 427
#     4  12  22  42  65 102 144 183 229 288 353 436
#     4  12  26  46  75 112 149 190 239 302 373 445
#     4  12  25  45  75 107 146 190 239 300 368 426
#
# _framework density 23.208303999999998
#
# number of rings (size 3 to 8) (size 9 to 14) (size 15 to 20)
#    0.000    0.286    2.857    4.714   12.000    0.000 
#    0.000    0.000    0.000    0.000    0.000    0.000 
#    0.000    0.000    0.000    0.000    0.000    0.000 
#
# Total GULP energy -78229.881286 kJ/mol
# GULP energy per Si atom -5587.848663 kJ/mol
# Density = 2.315548 g / cm^3
# Si number density = 23.208304 Si / 1000 Ang^3
#
#
#
# Elastic Constant Matrix: (Units=GPa)
#
#
# Indices 1 2 3 4 5 6 
#
# 1 164.8955 53.4262 32.2186 2.6699 -9.7438 -20.2440
# 2 53.4262 98.5626 29.1002 8.9797 -11.0914 -37.3245
# 3 32.2186 29.1002 98.8877 6.0875 -7.2031 -12.0754
# 4 2.6699 8.9797 6.0875 46.8146 2.0567 -7.0998
# 5 -9.7438 -11.0914 -7.2031 2.0567 32.7160 5.3956
# 6 -20.2440 -37.3245 -12.0754 -7.0998 5.3956 53.6513
#
#
#
# Elastic Compliance Matrix: (Units=1/GPa)
#
#
# Indices 1 2 3 4 5 6 
#
# 1 0.007547 -0.003656 -0.001361 0.000415 0.000685 -0.000016
# 2 -0.003656 0.016764 -0.002327 -0.001409 0.002636 0.009308
# 3 -0.001361 -0.002327 0.011421 -0.000995 0.001355 0.000171
# 4 0.000415 -0.001409 -0.000995 0.022160 -0.002315 0.002118
# 5 0.000685 0.002636 0.001355 -0.002315 0.032298 -0.001157
# 6 -0.000016 0.009308 0.000171 0.002118 -0.001157 0.025543
#
#
# Mechanical properties :
#
#
# Convention : Reuss Voigt Hill
#
# Bulk Modulus (GPa) = 47.51546 65.75954 56.63750
# Shear Modulus (GPa) = 36.38081 43.14312 39.76196
#
# Velocity S-wave (km/s) = 3.96356 4.31623 4.14365
# Velocity P-wave (km/s) = 6.43928 7.29629 6.88114
#
# Compressibility (1/GPa) = 0.02104578
#
# Stress axis : x y z
#
# Youngs Moduli (GPa) = 132.51119 59.65088 87.55590
#
# Poissons Ratio (x) = 0.21806 0.11912
# Poissons Ratio (y) = 0.48442 0.20373
# Poissons Ratio (z) = 0.18029 0.13880
#
# Static dielectric constant tensor:
#      x y z
#    x 1.878730 0.053810 0.095680 
#    y 0.053810 1.805270 -0.164460 
#    z 0.095680 -0.164460 1.697390 
# 
# From -- ./inp_files/69673.got.cif
#   From: 2010.05.17/outbox.cif.g08.bks.cpg/sg2_35_cif.got.tgz:69673.got - 2010.06.03 11:33:40.
