data_PCOD9068052
_publ_section_title
;
Structure prediction by ZEFSAII (Michael W. Deem and Ramdas Pophale) SiO2 
 PCOD9068052
Probable space group: P -1
;
_chemical_formula_sum "Si O2"
_cell_formula_units_Z 16
_cell_length_a 9.367801
_cell_length_b 19.183887
_cell_length_c 12.490881
_cell_angle_alpha 28.648883
_cell_angle_beta 137.017869
_cell_angle_gamma 124.896095
_cell_volume 716.756540
_symmetry_space_group_name_H-M "P -1"
_symmetry_group_IT_number 2
_symmetry_cell_setting 'triclinic'
loop_
_space_group_symop_operation_xyz
x,y,z
-x,-y,-z
loop_
_atom_site_type_symbol
_atom_site_label
_atom_site_fract_x
_atom_site_fract_y
_atom_site_fract_z
Si Si1 0.778582 0.965486 0.294857
Si Si2 0.939834 0.538330 0.621162
Si Si3 0.140125 0.756870 0.914771
Si Si4 0.955131 0.847110 0.321041
Si Si5 0.548640 0.137895 0.401295
Si Si6 0.392968 0.901303 0.287407
Si Si7 0.514631 0.621885 0.134828
Si Si8 0.626080 0.431489 0.270471
O O1 0.859127 0.911818 0.294295
O O2 0.548536 0.930507 0.240119
O O3 0.947165 0.862419 0.604944
O O4 0.778354 0.136800 0.096027
O O5 0.948649 0.676699 0.519478
O O6 0.724624 0.581036 0.376609
O O7 0.146423 0.522686 0.679555
O O8 0.932026 0.384892 0.882796
O O9 0.322783 0.694658 0.009998
O O10 0.201996 0.860377 0.444875
O O11 0.802660 0.955794 0.007456
O O12 0.463082 0.125965 0.489423
O O13 0.500000 0.000000 0.500000
O O14 0.458398 0.270162 0.093596
O O15 0.317873 0.746850 0.447609
O O16 0.490781 0.483277 0.234085
O O17 0.500000 0.500000 0.000000
#
# Coordination Sequence:
#
# PCOD9068052 Si02
#       8
#     2   2   2   2   2   2   2   2
#     4  11  26  47  73 108 140 192 240 297 356 426
#     4  12  27  47  75 108 144 190 240 299 354 435
#     4  11  26  48  74 103 145 188 246 291 359 425
#     4  12  26  47  74 110 143 186 245 293 363 423
#     4  12  25  44  74 100 143 191 233 294 360 425
#     4  12  26  45  73 105 150 182 242 299 351 429
#     4  12  26  47  70 106 145 191 242 293 362 426
#     4  12  26  48  71 108 143 188 243 295 366 423
#
# _framework density 22.322780999999999
#
# number of rings (size 3 to 8) (size 9 to 14) (size 15 to 20)
#    0.000    0.250    3.750    4.500    7.000    0.500 
#    0.000    0.000    0.000    0.000    0.000    0.000 
#    0.000    0.000    0.000    0.000    0.000    0.000 
#
# Total GULP energy -89424.718098 kJ/mol
# GULP energy per Si atom -5589.044881 kJ/mol
# Density = 2.227197 g / cm^3
# Si number density = 22.322781 Si / 1000 Ang^3
#
#
#
# Elastic Constant Matrix: (Units=GPa)
#
#
# Indices 1 2 3 4 5 6 
#
# 1 109.7131 46.9223 19.0788 -24.6747 7.7871 -15.4994
# 2 46.9223 97.1093 45.4894 -20.8243 -9.5764 -8.3759
# 3 19.0788 45.4894 114.9225 -27.2483 -5.2234 11.5860
# 4 -24.6747 -20.8243 -27.2483 40.7865 2.6615 5.0670
# 5 7.7871 -9.5764 -5.2234 2.6615 36.4919 3.7125
# 6 -15.4994 -8.3759 11.5860 5.0670 3.7125 37.3007
#
#
#
# Elastic Compliance Matrix: (Units=1/GPa)
#
#
# Indices 1 2 3 4 5 6 
#
# 1 0.013709 -0.005967 0.000799 0.005639 -0.005181 0.003858
# 2 -0.005967 0.016509 -0.005437 0.000594 0.004542 0.002384
# 3 0.000799 -0.005437 0.013024 0.007123 0.000352 -0.005937
# 4 0.005639 0.000594 0.007123 0.033636 -0.002064 -0.004100
# 5 -0.005181 0.004542 0.000352 -0.002064 0.030306 -0.003978
# 6 0.003858 0.002384 -0.005937 -0.004100 -0.003978 0.031744
#
#
# Mechanical properties :
#
#
# Convention : Reuss Voigt Hill
#
# Bulk Modulus (GPa) = 45.38979 60.52510 52.95745
# Shear Modulus (GPa) = 29.85391 36.93278 33.39335
#
# Velocity S-wave (km/s) = 3.66098 4.07195 3.87192
# Velocity P-wave (km/s) = 6.18449 7.01999 6.61544
#
# Compressibility (1/GPa) = 0.02203139
#
# Stress axis : x y z
#
# Youngs Moduli (GPa) = 72.94614 60.57465 76.77871
#
# Poissons Ratio (x) = 0.36144 -0.06132
# Poissons Ratio (y) = 0.43526 0.41744
# Poissons Ratio (z) = -0.05826 0.32934
#
# Static dielectric constant tensor:
#      x y z
#    x 1.798900 -0.007990 -0.008840 
#    y -0.007990 1.805380 0.016660 
#    z -0.008840 0.016660 1.751250 
# 
# From -- ./inp_files/402720.got.cif
#   From: 2010.05.17/outbox.cif.g08.bks.cpg/sg2_202_cif.got.tgz:402720.got - 2010.06.03 11:33:40.
