data_PCOD9068928
_publ_section_title
;
Structure prediction by ZEFSAII (Michael W. Deem and Ramdas Pophale) SiO2 
 PCOD9068928
Probable space group: P -1
;
_chemical_formula_sum "Si O2"
_cell_formula_units_Z 14
_cell_length_a 8.787304
_cell_length_b 16.192915
_cell_length_c 12.208228
_cell_angle_alpha 150.817286
_cell_angle_beta 127.698555
_cell_angle_gamma 64.511314
_cell_volume 645.601726
_symmetry_space_group_name_H-M "P -1"
_symmetry_group_IT_number 2
_symmetry_cell_setting 'triclinic'
loop_
_space_group_symop_operation_xyz
x,y,z
-x,-y,-z
loop_
_atom_site_type_symbol
_atom_site_label
_atom_site_fract_x
_atom_site_fract_y
_atom_site_fract_z
Si Si1 0.487516 0.807890 0.724034
Si Si2 0.064705 0.591770 0.365947
Si Si3 0.331141 0.332849 0.782197
Si Si4 0.918924 0.171983 0.139759
Si Si5 0.108945 0.242843 0.079154
Si Si6 0.461927 0.090958 0.385077
Si Si7 0.164728 0.026407 0.506175
O O1 0.267850 0.688001 0.507611
O O2 0.659805 0.749685 0.797779
O O3 0.524037 0.817961 0.621740
O O4 0.500000 0.000000 0.000000
O O5 0.057874 0.700825 0.600366
O O6 0.070594 0.395693 0.165618
O O7 0.867266 0.601810 0.229417
O O8 0.354943 0.186576 0.535740
O O9 0.300038 0.220434 0.752814
O O10 0.500000 0.500000 0.000000
O O11 0.035898 0.265467 0.195036
O O12 0.686962 0.100426 0.923641
O O13 0.000000 0.000000 0.000000
O O14 0.972665 0.060809 0.758884
O O15 0.673310 0.076656 0.506837
O O16 0.000000 0.000000 0.500000
#
# Coordination Sequence:
#
# PCOD9068928 Si02
#       7
#     2   2   2   2   2   2   2
#     4  12  23  44  71 100 138 179 225 280 346 407
#     4  12  25  42  69 106 138 174 229 289 341 406
#     4  12  26  46  70 100 138 184 232 283 343 410
#     4  12  21  43  70  99 132 176 230 280 338 407
#     4  12  25  44  68 102 138 179 227 284 342 410
#     4  12  24  43  72  98 132 181 229 277 340 411
#     4  12  27  47  70  99 139 184 233 281 347 412
#
# _framework density 21.685196999999999
#
# number of rings (size 3 to 8) (size 9 to 14) (size 15 to 20)
#    0.000    0.000    5.714    4.714    2.000    1.143 
#    0.000    2.857    0.000    0.000    0.000    0.000 
#    0.000    0.000    0.000    0.000    0.000    0.000 
#
# Total GULP energy -78225.301601 kJ/mol
# GULP energy per Si atom -5587.521543 kJ/mol
# Density = 2.163584 g / cm^3
# Si number density = 21.685197 Si / 1000 Ang^3
#
#
#
# Elastic Constant Matrix: (Units=GPa)
#
#
# Indices 1 2 3 4 5 6 
#
# 1 103.7125 39.3861 13.0898 0.9788 14.6177 0.1506
# 2 39.3861 119.4388 9.2328 5.4181 11.9668 -24.0425
# 3 13.0898 9.2328 39.7357 8.8028 23.9945 3.0518
# 4 0.9788 5.4181 8.8028 30.5782 -0.1434 12.4564
# 5 14.6177 11.9668 23.9945 -0.1434 36.4678 -7.5267
# 6 0.1506 -24.0425 3.0518 12.4564 -7.5267 46.7396
#
#
#
# Elastic Compliance Matrix: (Units=1/GPa)
#
#
# Indices 1 2 3 4 5 6 
#
# 1 0.011833 -0.004219 -0.001148 0.001981 -0.003253 -0.003185
# 2 -0.004219 0.011488 -0.000724 -0.004617 -0.000139 0.007178
# 3 -0.001148 -0.000724 0.048134 -0.011556 -0.032176 -0.005614
# 4 0.001981 -0.004617 -0.011556 0.041593 0.006066 -0.011735
# 5 -0.003253 -0.000139 -0.032176 0.006066 0.051774 0.008761
# 6 -0.003185 0.007178 -0.005614 -0.011735 0.008761 0.030003
#
#
# Mechanical properties :
#
#
# Convention : Reuss Voigt Hill
#
# Bulk Modulus (GPa) = 16.87086 42.92270 29.89678
# Shear Modulus (GPa) = 22.04942 36.16900 29.10921
#
# Velocity S-wave (km/s) = 3.19218 4.08844 3.66779
# Velocity P-wave (km/s) = 4.62423 6.49027 5.63503
#
# Compressibility (1/GPa) = 0.05927381
#
# Stress axis : x y z
#
# Youngs Moduli (GPa) = 84.50647 87.04854 20.77553
#
# Poissons Ratio (x) = 0.36722 0.02384
# Poissons Ratio (y) = 0.35649 0.01505
# Poissons Ratio (z) = 0.09699 0.06305
#
# Static dielectric constant tensor:
#      x y z
#    x 1.768270 -0.016660 -0.006240 
#    y -0.016660 1.737280 -0.111650 
#    z -0.006240 -0.111650 1.620640 
# 
# From -- ./inp_files/155342.got.cif
#   From: 2010.05.17/outbox.cif.g08.bks.cpg/sg2_78_cif.got.tgz:155342.got - 2010.06.03 11:33:40.
