data_PCOD9068726
_publ_section_title
;
Structure prediction by ZEFSAII (Michael W. Deem and Ramdas Pophale) SiO2 
 PCOD9068726
Probable space group: P -1
;
_chemical_formula_sum "Si O2"
_cell_formula_units_Z 14
_cell_length_a 21.411371
_cell_length_b 20.339751
_cell_length_c 5.275243
_cell_angle_alpha 101.485757
_cell_angle_beta 101.267745
_cell_angle_gamma 13.627273
_cell_volume 530.416396
_symmetry_space_group_name_H-M "P -1"
_symmetry_group_IT_number 2
_symmetry_cell_setting 'triclinic'
loop_
_space_group_symop_operation_xyz
x,y,z
-x,-y,-z
loop_
_atom_site_type_symbol
_atom_site_label
_atom_site_fract_x
_atom_site_fract_y
_atom_site_fract_z
Si Si1 0.549844 0.339320 0.447498
Si Si2 0.219670 0.991907 0.253042
Si Si3 0.085254 0.273394 0.512429
Si Si4 0.586474 0.792381 0.857677
Si Si5 0.703455 0.524315 0.947675
Si Si6 0.066756 0.474682 0.785483
Si Si7 0.245011 0.759785 0.821625
O O1 0.407709 0.419914 0.278169
O O2 0.315072 0.627363 0.584831
O O3 0.727525 0.200559 0.288221
O O4 0.745216 0.111839 0.644239
O O5 0.008170 0.203341 0.020796
O O6 0.515691 0.707619 0.183640
O O7 0.118801 0.159181 0.457851
O O8 0.805892 0.576945 0.647065
O O9 0.090071 0.296323 0.245471
O O10 0.312004 0.073852 0.709732
O O11 0.643054 0.660533 0.908383
O O12 0.645405 0.788410 0.114687
O O13 0.000000 0.500000 0.500000
O O14 0.000000 0.500000 0.000000
O O15 0.500000 0.500000 0.000000
O O16 0.000000 0.000000 0.000000
#
# Coordination Sequence:
#
# PCOD9068726 Si02
#       7
#     2   2   2   2   2   2   2
#     4  11  28  50  82 116 160 212 270 338 418 498
#     4  12  27  46  79 122 160 206 266 338 415 489
#     4  12  27  51  80 116 167 214 274 347 415 488
#     4  12  27  51  80 116 167 214 274 347 415 488
#     4  12  27  46  79 122 160 206 266 338 415 489
#     4  12  28  52  82 120 166 231 280 339 420 512
#     4  11  28  55  79 112 161 213 270 331 405 504
#
# _framework density 26.394359000000001
#
# number of rings (size 3 to 8) (size 9 to 14) (size 15 to 20)
#    0.000    0.286    4.286    2.571    0.000   10.286 
#    0.000    2.143    0.000    0.000    0.000    0.000 
#    0.000    0.000    0.000    0.000    0.000    0.000 
#
# Total GULP energy -78510.145063 kJ/mol
# GULP energy per Si atom -5607.867505 kJ/mol
# Density = 2.633428 g / cm^3
# Si number density = 26.394359 Si / 1000 Ang^3
#
#
#
# Elastic Constant Matrix: (Units=GPa)
#
#
# Indices 1 2 3 4 5 6 
#
# 1 185.3768 56.7370 62.4202 -8.6107 -34.3600 -2.7282
# 2 56.7370 133.9569 45.0371 -10.0333 -14.8284 -12.0297
# 3 62.4202 45.0371 127.6773 -10.9409 -4.6754 -10.0792
# 4 -8.6107 -10.0333 -10.9409 57.1416 1.1783 -5.4105
# 5 -34.3600 -14.8284 -4.6754 1.1783 78.9393 -4.8440
# 6 -2.7282 -12.0297 -10.0792 -5.4105 -4.8440 39.7041
#
#
#
# Elastic Compliance Matrix: (Units=1/GPa)
#
#
# Indices 1 2 3 4 5 6 
#
# 1 0.007452 -0.001918 -0.002893 0.000134 0.002682 -0.000458
# 2 -0.001918 0.009377 -0.002040 0.001181 0.000940 0.002467
# 3 -0.002893 -0.002040 0.010193 0.001351 -0.000946 0.001839
# 4 0.000134 0.001181 0.001351 0.018287 0.000286 0.003237
# 5 0.002682 0.000940 -0.000946 0.000286 0.014073 0.001985
# 6 -0.000458 0.002467 0.001839 0.003237 0.001985 0.027053
#
#
# Mechanical properties :
#
#
# Convention : Reuss Voigt Hill
#
# Bulk Modulus (GPa) = 75.07380 86.15552 80.61466
# Shear Modulus (GPa) = 47.81168 54.01144 50.91156
#
# Velocity S-wave (km/s) = 4.26071 4.52854 4.39667
# Velocity P-wave (km/s) = 7.26015 7.74959 7.50886
#
# Compressibility (1/GPa) = 0.01332023
#
# Stress axis : x y z
#
# Youngs Moduli (GPa) = 134.18810 106.64168 98.11058
#
# Poissons Ratio (x) = 0.20452 0.28386
# Poissons Ratio (y) = 0.25735 0.20012
# Poissons Ratio (z) = 0.38825 0.21752
#
# Static dielectric constant tensor:
#      x y z
#    x 2.095060 0.004630 0.036180 
#    y 0.004630 2.000160 0.068650 
#    z 0.036180 0.068650 2.140440 
# 
# From -- ./inp_files/125190.got.cif
#   From: 2010.05.17/outbox.cif.g08.bks.cpg/sg2_63_cif.got.tgz:125190.got - 2010.06.03 11:33:40.
