data_PCOD9068422
_publ_section_title
;
Structure prediction by ZEFSAII (Michael W. Deem and Ramdas Pophale) SiO2 
 PCOD9068422
Probable space group: P -1
;
_chemical_formula_sum "Si O2"
_cell_formula_units_Z 12
_cell_length_a 11.653679
_cell_length_b 4.971637
_cell_length_c 9.772369
_cell_angle_alpha 69.700561
_cell_angle_beta 118.494692
_cell_angle_gamma 116.222127
_cell_volume 439.688999
_symmetry_space_group_name_H-M "P -1"
_symmetry_group_IT_number 2
_symmetry_cell_setting 'triclinic'
loop_
_space_group_symop_operation_xyz
x,y,z
-x,-y,-z
loop_
_atom_site_type_symbol
_atom_site_label
_atom_site_fract_x
_atom_site_fract_y
_atom_site_fract_z
Si Si1 0.958078 0.789519 0.384022
Si Si2 0.226298 0.850779 0.814082
Si Si3 0.562672 0.414647 0.910774
Si Si4 0.676738 0.965795 0.717658
Si Si5 0.032257 0.754999 0.155952
Si Si6 0.397544 0.083480 0.625752
O O1 0.724968 0.160746 0.314777
O O2 0.050708 0.916766 0.284320
O O3 0.000000 0.500000 0.500000
O O4 0.000000 0.000000 0.500000
O O5 0.092146 0.564761 0.835446
O O6 0.185131 0.154565 0.750888
O O7 0.359953 0.830982 0.974083
O O8 0.684565 0.702421 0.869407
O O9 0.454829 0.331134 0.736343
O O10 0.500000 0.500000 0.000000
O O11 0.655589 0.866834 0.563091
O O12 0.535927 0.013736 0.678048
O O13 0.813672 0.254872 0.776812
O O14 0.000000 0.000000 0.000000
#
# Coordination Sequence:
#
# PCOD9068422 Si02
#       6
#     2   2   2   2   2   2
#     4  12  28  53  79 119 165 224 278 344 423 513
#     4  12  27  49  86 119 167 224 283 351 426 509
#     4  12  26  48  81 120 169 222 285 346 422 510
#     4  11  26  50  76 122 169 217 276 353 421 506
#     4  12  28  50  82 126 170 215 283 351 438 503
#     4  11  27  48  80 115 166 224 281 345 419 505
#
# _framework density 27.292019
#
# number of rings (size 3 to 8) (size 9 to 14) (size 15 to 20)
#    0.000    0.333    5.000    2.000    4.667    2.000 
#    6.000    0.000    0.000    0.000    0.000    0.000 
#    0.000    0.000    0.000    0.000    0.000    0.000 
#
# Total GULP energy -67021.880061 kJ/mol
# GULP energy per Si atom -5585.156672 kJ/mol
# Density = 2.722990 g / cm^3
# Si number density = 27.292019 Si / 1000 Ang^3
#
#
#
# Elastic Constant Matrix: (Units=GPa)
#
#
# Indices 1 2 3 4 5 6 
#
# 1 185.5686 94.2019 68.0960 -11.7846 31.5591 5.4271
# 2 94.2019 152.4356 72.9673 -8.6831 2.0801 5.9346
# 3 68.0960 72.9673 179.5333 -23.7539 -16.0444 4.3319
# 4 -11.7846 -8.6831 -23.7539 51.4812 4.8240 3.1000
# 5 31.5591 2.0801 -16.0444 4.8240 57.8269 0.9211
# 6 5.4271 5.9346 4.3319 3.1000 0.9211 58.3696
#
#
#
# Elastic Compliance Matrix: (Units=1/GPa)
#
#
# Indices 1 2 3 4 5 6 
#
# 1 0.009645 -0.004824 -0.002075 0.000988 -0.005745 -0.000214
# 2 -0.004824 0.010664 -0.002420 -0.000548 0.001631 -0.000453
# 3 -0.002075 -0.002420 0.007970 0.002512 0.003227 -0.000337
# 4 0.000988 -0.000548 0.002512 0.020941 -0.001549 -0.001310
# 5 -0.005745 0.001631 0.003227 -0.001549 0.021396 -0.000126
# 6 -0.000214 -0.000453 -0.000337 -0.001310 -0.000126 0.017295
#
#
# Mechanical properties :
#
#
# Convention : Reuss Voigt Hill
#
# Bulk Modulus (GPa) = 103.73869 109.78534 106.76201
# Shear Modulus (GPa) = 45.55211 52.35370 48.95291
#
# Velocity S-wave (km/s) = 4.08985 4.38457 4.23977
# Velocity P-wave (km/s) = 7.77146 8.12072 7.94801
#
# Compressibility (1/GPa) = 0.00963961
#
# Stress axis : x y z
#
# Youngs Moduli (GPa) = 103.67548 93.77253 125.47639
#
# Poissons Ratio (x) = 0.45238 0.26040
# Poissons Ratio (y) = 0.50016 0.30368
# Poissons Ratio (z) = 0.21516 0.22695
#
# Static dielectric constant tensor:
#      x y z
#    x 2.140500 0.092120 0.041810 
#    y 0.092120 2.231220 0.060480 
#    z 0.041810 0.060480 2.130330 
# 
# From -- ./inp_files/229791.got.cif
#   From: 2010.05.17/outbox.cif.g08.bks.cpg/sg2_115_cif.got.tgz:229791.got - 2010.06.03 11:33:40.
