data_PCOD9068919
_publ_section_title
;
Structure prediction by ZEFSAII (Michael W. Deem and Ramdas Pophale) SiO2 
 PCOD9068919
Probable space group: P -1
;
_chemical_formula_sum "Si O2"
_cell_formula_units_Z 16
_cell_length_a 9.161711
_cell_length_b 21.767776
_cell_length_c 7.689407
_cell_angle_alpha 58.867840
_cell_angle_beta 98.998992
_cell_angle_gamma 48.746263
_cell_volume 626.258386
_symmetry_space_group_name_H-M "P -1"
_symmetry_group_IT_number 2
_symmetry_cell_setting 'triclinic'
loop_
_space_group_symop_operation_xyz
x,y,z
-x,-y,-z
loop_
_atom_site_type_symbol
_atom_site_label
_atom_site_fract_x
_atom_site_fract_y
_atom_site_fract_z
Si Si1 0.776158 0.649825 0.641698
Si Si2 0.492747 0.520640 0.762269
Si Si3 0.243947 0.814081 0.844863
Si Si4 0.194390 0.213155 0.352728
Si Si5 0.563847 0.824786 0.858151
Si Si6 0.808156 0.195147 0.763521
Si Si7 0.788644 0.948025 0.271251
Si Si8 0.138189 0.537087 0.533171
O O1 0.772951 0.726979 0.624768
O O2 0.440132 0.758742 0.407000
O O3 0.933970 0.593754 0.567964
O O4 0.000000 0.500000 0.000000
O O5 0.367868 0.653384 0.508067
O O6 0.271644 0.557946 0.575793
O O7 0.500000 0.500000 0.000000
O O8 0.842329 0.358918 0.008944
O O9 0.103566 0.861085 0.940675
O O10 0.571391 0.635994 0.185300
O O11 0.323147 0.862728 0.743144
O O12 0.054291 0.857556 0.592285
O O13 0.422014 0.121650 0.366091
O O14 0.251012 0.120138 0.619225
O O15 0.501021 0.888617 0.938823
O O16 0.897863 0.646759 0.173403
O O17 0.090772 0.079044 0.853282
#
# Coordination Sequence:
#
# PCOD9068919 Si02
#       8
#     2   2   2   2   2   2   2   2
#     4  12  22  40  73 109 144 183 232 303 362 419
#     4  12  21  42  71 109 142 186 238 299 360 422
#     4  12  26  47  77 108 142 189 241 301 362 424
#     4  12  24  45  73 101 143 194 237 289 363 424
#     4  12  28  47  70 105 147 188 241 296 358 431
#     4  12  25  44  75 108 143 187 241 298 360 426
#     4  12  27  52  71 104 149 195 238 292 366 434
#     4  12  24  44  71 109 144 178 243 301 352 425
#
# _framework density 25.548559000000001
#
# number of rings (size 3 to 8) (size 9 to 14) (size 15 to 20)
#    0.000    0.000    6.250    4.125    1.750    1.500 
#    2.250    1.250    0.000    0.000    0.000    0.000 
#    0.000    0.000    0.000    0.000    0.000    0.000 
#
# Total GULP energy -89835.695808 kJ/mol
# GULP energy per Si atom -5614.730988 kJ/mol
# Density = 2.549041 g / cm^3
# Si number density = 25.548559 Si / 1000 Ang^3
#
#
#
# Elastic Constant Matrix: (Units=GPa)
#
#
# Indices 1 2 3 4 5 6 
#
# 1 190.0158 60.2802 36.1380 5.1411 -7.6070 -4.8942
# 2 60.2802 116.9685 16.7359 0.4032 -14.0289 -32.7708
# 3 36.1380 16.7359 101.3030 -7.6100 -0.4783 -10.3399
# 4 5.1411 0.4032 -7.6100 40.3147 -2.7339 -6.7693
# 5 -7.6070 -14.0289 -0.4783 -2.7339 43.9277 1.9208
# 6 -4.8942 -32.7708 -10.3399 -6.7693 1.9208 69.0632
#
#
#
# Elastic Compliance Matrix: (Units=1/GPa)
#
#
# Indices 1 2 3 4 5 6 
#
# 1 0.006837 -0.003708 -0.002119 -0.001530 -0.000042 -0.001741
# 2 -0.003708 0.012434 -0.000021 0.001516 0.003174 0.005694
# 3 -0.002119 -0.000021 0.011006 0.002631 -0.000167 0.001750
# 4 -0.001530 0.001516 0.002631 0.026190 0.001724 0.003524
# 5 -0.000042 0.003174 -0.000167 0.001724 0.023833 0.000984
# 6 -0.001741 0.005694 0.001750 0.003524 0.000984 0.017638
#
#
# Mechanical properties :
#
#
# Convention : Reuss Voigt Hill
#
# Bulk Modulus (GPa) = 53.82003 70.51061 62.16532
# Shear Modulus (GPa) = 43.16710 50.33667 46.75188
#
# Velocity S-wave (km/s) = 4.11495 4.44355 4.28240
# Velocity P-wave (km/s) = 6.60973 7.34748 6.98835
#
# Compressibility (1/GPa) = 0.01858044
#
# Stress axis : x y z
#
# Youngs Moduli (GPa) = 146.26603 80.42464 90.85658
#
# Poissons Ratio (x) = 0.29819 0.19254
# Poissons Ratio (y) = 0.54232 0.00195
# Poissons Ratio (z) = 0.30997 0.00172
#
# Static dielectric constant tensor:
#      x y z
#    x 1.970850 -0.021120 -0.032610 
#    y -0.021120 1.989610 0.006870 
#    z -0.032610 0.006870 2.082860 
# 
# From -- ./inp_files/223449.got.cif
#   From: 2010.05.17/outbox.cif.g08.bks.cpg/sg2_112_cif.got.tgz:223449.got - 2010.06.03 11:33:40.
