data_PCOD9068670
_publ_section_title
;
Structure prediction by ZEFSAII (Michael W. Deem and Ramdas Pophale) SiO2 
 PCOD9068670
Probable space group: P -1
;
_chemical_formula_sum "Si O2"
_cell_formula_units_Z 14
_cell_length_a 7.393373
_cell_length_b 7.434358
_cell_length_c 17.040302
_cell_angle_alpha 113.228550
_cell_angle_beta 64.267862
_cell_angle_gamma 142.325306
_cell_volume 513.477699
_symmetry_space_group_name_H-M "P -1"
_symmetry_group_IT_number 2
_symmetry_cell_setting 'triclinic'
loop_
_space_group_symop_operation_xyz
x,y,z
-x,-y,-z
loop_
_atom_site_type_symbol
_atom_site_label
_atom_site_fract_x
_atom_site_fract_y
_atom_site_fract_z
Si Si1 0.118644 0.448235 0.685483
Si Si2 0.967259 0.550297 0.119733
Si Si3 0.694888 0.851764 0.573025
Si Si4 0.982927 0.745185 0.685570
Si Si5 0.382878 0.102156 0.943840
Si Si6 0.512331 0.234394 0.565850
Si Si7 0.552473 0.564515 0.874532
O O1 0.024261 0.374579 0.779816
O O2 0.458079 0.605851 0.641219
O O3 0.153942 0.697503 0.691894
O O4 0.847713 0.154031 0.636284
O O5 0.744560 0.533611 0.113754
O O6 0.310984 0.786528 0.067861
O O7 0.849467 0.240523 0.087543
O O8 0.472839 0.674356 0.509127
O O9 0.000000 0.000000 0.500000
O O10 0.770924 0.694006 0.780925
O O11 0.216585 0.048136 0.644510
O O12 0.792299 0.498767 0.611174
O O13 0.463383 0.292178 0.884530
O O14 0.297611 0.195376 0.043355
O O15 0.500000 0.000000 0.500000
#
# Coordination Sequence:
#
# PCOD9068670 Si02
#       7
#     2   2   2   2   2   2   2
#     4  12  24  46  67 102 144 187 234 307 361 421
#     4  12  27  48  77 109 153 194 243 307 370 437
#     4  12  27  43  67  97 142 187 244 293 358 431
#     4  12  25  43  69 103 137 183 242 301 355 429
#     4  11  27  51  76 110 149 196 241 310 365 442
#     4  12  24  43  68  93 133 188 234 287 359 420
#     4  11  28  48  79 111 148 194 252 296 375 448
#
# _framework density 27.265058
#
# number of rings (size 3 to 8) (size 9 to 14) (size 15 to 20)
#    0.000    0.286    4.286    3.429    6.000    5.714 
#    0.000    0.000    0.000    0.000    0.000    0.000 
#    0.000    0.000    0.000    0.000    0.000    0.000 
#
# Total GULP energy -78503.577494 kJ/mol
# GULP energy per Si atom -5607.398392 kJ/mol
# Density = 2.720300 g / cm^3
# Si number density = 27.265058 Si / 1000 Ang^3
#
#
#
# Elastic Constant Matrix: (Units=GPa)
#
#
# Indices 1 2 3 4 5 6 
#
# 1 105.1493 22.7431 32.9023 -3.9690 7.8529 -7.2795
# 2 22.7431 167.8061 46.2316 -17.5101 -1.9192 5.7053
# 3 32.9023 46.2316 173.3581 -23.4883 0.7398 2.2277
# 4 -3.9690 -17.5101 -23.4883 46.4572 3.3282 1.3751
# 5 7.8529 -1.9192 0.7398 3.3282 37.8274 -8.9495
# 6 -7.2795 5.7053 2.2277 1.3751 -8.9495 42.2046
#
#
#
# Elastic Compliance Matrix: (Units=1/GPa)
#
#
# Indices 1 2 3 4 5 6 
#
# 1 0.010530 -0.001049 -0.001776 -0.000316 -0.001778 0.001685
# 2 -0.001049 0.006691 -0.001332 0.001776 0.000182 -0.001034
# 3 -0.001776 -0.001332 0.006856 0.002848 -0.000233 -0.000630
# 4 -0.000316 0.001776 0.002848 0.023831 -0.002406 -0.001732
# 5 -0.001778 0.000182 -0.000233 -0.002406 0.028398 0.005781
# 6 0.001685 -0.001034 -0.000630 -0.001732 0.005781 0.025440
#
#
# Mechanical properties :
#
#
# Convention : Reuss Voigt Hill
#
# Bulk Modulus (GPa) = 63.43629 72.22970 67.83299
# Shear Modulus (GPa) = 43.35983 48.26027 45.81005
#
# Velocity S-wave (km/s) = 3.99219 4.21175 4.10344
# Velocity P-wave (km/s) = 6.67586 7.08526 6.88361
#
# Compressibility (1/GPa) = 0.01576385
#
# Stress axis : x y z
#
# Youngs Moduli (GPa) = 94.96433 149.45456 145.86548
#
# Poissons Ratio (x) = 0.15671 0.25903
# Poissons Ratio (y) = 0.09957 0.19432
# Poissons Ratio (z) = 0.16864 0.19910
#
# Static dielectric constant tensor:
#      x y z
#    x 2.136600 -0.073020 -0.080930 
#    y -0.073020 2.099890 0.039620 
#    z -0.080930 0.039620 2.049350 
# 
# From -- ./inp_files/557442.got.cif
#   From: 2010.05.17/outbox.cif.g08.bks.cpg/sg2_279_cif.got.tgz:557442.got - 2010.06.03 11:33:40.
