data_PCOD9068063
_publ_section_title
;
Structure prediction by ZEFSAII (Michael W. Deem and Ramdas Pophale) SiO2 
 PCOD9068063
Probable space group: P -1
;
_chemical_formula_sum "Si O2"
_cell_formula_units_Z 16
_cell_length_a 8.890828
_cell_length_b 13.263717
_cell_length_c 13.105806
_cell_angle_alpha 33.097412
_cell_angle_beta 117.937122
_cell_angle_gamma 96.055231
_cell_volume 599.306837
_symmetry_space_group_name_H-M "P -1"
_symmetry_group_IT_number 2
_symmetry_cell_setting 'triclinic'
loop_
_space_group_symop_operation_xyz
x,y,z
-x,-y,-z
loop_
_atom_site_type_symbol
_atom_site_label
_atom_site_fract_x
_atom_site_fract_y
_atom_site_fract_z
Si Si1 0.740261 0.593509 0.054051
Si Si2 0.502464 0.274027 0.676763
Si Si3 0.148313 0.838850 0.831295
Si Si4 0.204662 0.396915 0.288682
Si Si5 0.176071 0.527674 0.495993
Si Si6 0.189533 0.109368 0.048056
Si Si7 0.701134 0.034610 0.420164
Si Si8 0.157843 0.808446 0.438759
O O1 0.754695 0.376885 0.285027
O O2 0.958263 0.506799 0.140342
O O3 0.725386 0.744867 0.016605
O O4 0.526420 0.764410 0.778586
O O5 0.500000 0.500000 0.500000
O O6 0.336587 0.309461 0.508510
O O7 0.712549 0.051255 0.884313
O O8 0.392251 0.289193 0.734734
O O9 0.908163 0.950923 0.621343
O O10 0.091168 0.000453 0.773893
O O11 0.270249 0.868344 0.758107
O O12 0.238766 0.580885 0.102230
O O13 0.284372 0.188250 0.415469
O O14 0.000000 0.500000 0.500000
O O15 0.204757 0.655035 0.485289
O O16 0.058017 0.703765 0.213852
O O17 0.228061 0.960979 0.286902
#
# Coordination Sequence:
#
# PCOD9068063 Si02
#       8
#     2   2   2   2   2   2   2   2
#     4  12  25  45  73 101 139 186 234 287 352 418
#     4  12  26  42  71 107 138 184 236 278 344 418
#     4  11  26  47  74 104 140 185 234 299 354 412
#     4  12  24  49  71 102 146 183 231 295 350 420
#     4  12  25  45  68 101 144 180 230 285 343 414
#     4  12  25  45  68 102 141 185 231 286 343 416
#     4  11  27  48  71 107 139 180 241 294 355 419
#     4  12  24  45  71 101 143 186 227 294 349 410
#
# _framework density 26.697510000000001
#
# number of rings (size 3 to 8) (size 9 to 14) (size 15 to 20)
#    0.000    0.250    7.500    0.750    3.500    1.500 
#    0.000    0.000    0.000    0.000    0.000    0.000 
#    0.000    0.000    0.000    0.000    0.000    0.000 
#
# Total GULP energy -89607.508953 kJ/mol
# GULP energy per Si atom -5600.469310 kJ/mol
# Density = 2.663675 g / cm^3
# Si number density = 26.697510 Si / 1000 Ang^3
#
#
#
# Elastic Constant Matrix: (Units=GPa)
#
#
# Indices 1 2 3 4 5 6 
#
# 1 83.7656 24.3706 32.1240 -4.6672 5.4310 -12.0695
# 2 24.3706 66.3297 20.7050 -24.1957 -9.0436 -2.4848
# 3 32.1240 20.7050 103.1188 -26.3374 -2.9195 -3.0008
# 4 -4.6672 -24.1957 -26.3374 40.0105 5.9418 2.8063
# 5 5.4310 -9.0436 -2.9195 5.9418 48.9336 3.9241
# 6 -12.0695 -2.4848 -3.0008 2.8063 3.9241 37.1462
#
#
#
# Elastic Compliance Matrix: (Units=1/GPa)
#
#
# Indices 1 2 3 4 5 6 
#
# 1 0.016491 -0.006652 -0.005108 -0.005363 -0.003133 0.005237
# 2 -0.006652 0.022369 0.000940 0.012986 0.003507 -0.001941
# 3 -0.005108 0.000940 0.013312 0.008737 0.000574 -0.001242
# 4 -0.005363 0.012986 0.008737 0.038314 -0.000898 -0.002968
# 5 -0.003133 0.003507 0.000574 -0.000898 0.021814 -0.002974
# 6 0.005237 -0.001941 -0.001242 -0.002968 -0.002974 0.028930
#
#
# Mechanical properties :
#
#
# Convention : Reuss Voigt Hill
#
# Bulk Modulus (GPa) = 32.75198 45.29037 39.02118
# Shear Modulus (GPa) = 28.89398 36.95235 32.92317
#
# Velocity S-wave (km/s) = 3.29336 3.72440 3.51549
# Velocity P-wave (km/s) = 5.17263 5.95785 5.57907
#
# Compressibility (1/GPa) = 0.03053251
#
# Stress axis : x y z
#
# Youngs Moduli (GPa) = 60.63855 44.70443 75.12215
#
# Poissons Ratio (x) = 0.29738 0.38372
# Poissons Ratio (y) = 0.40338 -0.07064
# Poissons Ratio (z) = 0.30974 -0.04204
#
# Static dielectric constant tensor:
#      x y z
#    x 2.124970 -0.052410 -0.003630 
#    y -0.052410 2.129350 0.045940 
#    z -0.003630 0.045940 2.131770 
# 
# From -- ./inp_files/505076.got.cif
#   From: 2010.05.17/outbox.cif.g08.bks.cpg/sg2_253_cif.got.tgz:505076.got - 2010.06.03 11:33:40.
