data_PCOD9068256
_publ_section_title
;
Structure prediction by ZEFSAII (Michael W. Deem and Ramdas Pophale) SiO2 
 PCOD9068256
Probable space group: P -1
;
_chemical_formula_sum "Si O2"
_cell_formula_units_Z 13
_cell_length_a 8.380741
_cell_length_b 8.020835
_cell_length_c 18.492633
_cell_angle_alpha 33.544747
_cell_angle_beta 135.014798
_cell_angle_gamma 126.583794
_cell_volume 485.528640
_symmetry_space_group_name_H-M "P -1"
_symmetry_group_IT_number 2
_symmetry_cell_setting 'triclinic'
loop_
_space_group_symop_operation_xyz
x,y,z
-x,-y,-z
loop_
_atom_site_type_symbol
_atom_site_label
_atom_site_fract_x
_atom_site_fract_y
_atom_site_fract_z
Si Si1 0.767235 0.045407 0.581039
Si Si2 0.397552 0.756273 0.824822
Si Si3 0.500000 0.500000 0.500000
Si Si4 0.807957 0.851493 0.827367
Si Si5 0.619774 0.635994 0.327169
Si Si6 0.963169 0.691295 0.642604
Si Si7 0.298954 0.785197 0.042985
O O1 0.794364 0.395871 0.437233
O O2 0.500000 0.000000 0.500000
O O3 0.831417 0.977064 0.708739
O O4 0.877675 0.802992 0.652307
O O5 0.577532 0.938745 0.764453
O O6 0.215132 0.587197 0.777112
O O7 0.305126 0.024209 0.749619
O O8 0.500000 0.500000 0.000000
O O9 0.556468 0.487231 0.436708
O O10 0.776661 0.510163 0.604918
O O11 0.749239 0.494583 0.925650
O O12 0.043139 0.905424 0.925243
O O13 0.407898 0.671903 0.193190
O O14 0.000000 0.000000 0.500000
O O15 0.500000 0.000000 0.000000
#
# Coordination Sequence:
#
# PCOD9068256 Si02
#       7
#     2   2   1   2   2   2   2
#     4  12  24  49  81 111 155 203 263 332 386 465
#     4  12  29  51  76 116 162 211 258 327 395 477
#     4  12  24  48  82 116 150 206 260 336 388 458
#     4  11  26  51  78 108 162 210 255 331 390 461
#     4  12  26  49  77 116 153 205 268 313 412 455
#     4  12  27  50  78 116 161 198 268 326 397 467
#     4  11  26  48  77 115 155 206 267 316 395 481
#
# _framework density 26.774939
#
# number of rings (size 3 to 8) (size 9 to 14) (size 15 to 20)
#    0.000    0.308    4.615    2.769    8.615    1.231 
#    8.308    0.000    0.000    0.000    0.000    0.000 
#    0.000    0.000    0.000    0.000    0.000    0.000 
#
# Total GULP energy -72550.152753 kJ/mol
# GULP energy per Si atom -5580.780981 kJ/mol
# Density = 2.671400 g / cm^3
# Si number density = 26.774939 Si / 1000 Ang^3
#
#
#
# Elastic Constant Matrix: (Units=GPa)
#
#
# Indices 1 2 3 4 5 6 
#
# 1 97.0891 37.6213 36.5617 22.3631 -12.7295 15.3327
# 2 37.6213 174.8983 64.0393 36.4836 10.9841 28.3297
# 3 36.5617 64.0393 166.7504 61.1767 -20.5581 20.5725
# 4 22.3631 36.4836 61.1767 68.3253 5.8731 18.0062
# 5 -12.7295 10.9841 -20.5581 5.8731 48.6506 9.7941
# 6 15.3327 28.3297 20.5725 18.0062 9.7941 45.9313
#
#
#
# Elastic Compliance Matrix: (Units=1/GPa)
#
#
# Indices 1 2 3 4 5 6 
#
# 1 0.012797 -0.001962 -0.000154 -0.002623 0.004637 -0.002953
# 2 -0.001962 0.007649 -0.002399 -0.000473 -0.002751 -0.002216
# 3 -0.000154 -0.002399 0.011201 -0.008894 0.006591 -0.001404
# 4 -0.002623 -0.000473 -0.008894 0.025151 -0.006715 -0.003277
# 5 0.004637 -0.002751 0.006591 -0.006715 0.027187 -0.005968
# 6 -0.002953 -0.002216 -0.001404 -0.003277 -0.005968 0.027311
#
#
# Mechanical properties :
#
#
# Convention : Reuss Voigt Hill
#
# Bulk Modulus (GPa) = 44.21632 79.46472 61.84052
# Shear Modulus (GPa) = 39.10418 52.61579 45.85999
#
# Velocity S-wave (km/s) = 3.82576 4.43777 4.14308
# Velocity P-wave (km/s) = 6.00543 7.48342 6.78479
#
# Compressibility (1/GPa) = 0.02261608
#
# Stress axis : x y z
#
# Youngs Moduli (GPa) = 78.14549 130.74375 89.27750
#
# Poissons Ratio (x) = 0.25651 0.01373
# Poissons Ratio (y) = 0.15332 0.21421
# Poissons Ratio (z) = 0.01202 0.31370
#
# Static dielectric constant tensor:
#      x y z
#    x 2.291200 -0.201040 0.276840 
#    y -0.201040 2.382230 -0.456660 
#    z 0.276840 -0.456660 2.491210 
# 
# From -- ./inp_files/555855.got.cif
#   From: 2010.05.17/outbox.cif.g08.bks.cpg/sg2_278_cif.got.tgz:555855.got - 2010.06.03 11:33:40.
