data_PCOD9068458
_publ_section_title
;
Structure prediction by ZEFSAII (Michael W. Deem and Ramdas Pophale) SiO2 
 PCOD9068458
Probable space group: P -1
;
_chemical_formula_sum "Si O2"
_cell_formula_units_Z 14
_cell_length_a 8.794838
_cell_length_b 4.812031
_cell_length_c 14.814616
_cell_angle_alpha 116.859500
_cell_angle_beta 116.242453
_cell_angle_gamma 89.232549
_cell_volume 487.881806
_symmetry_space_group_name_H-M "P -1"
_symmetry_group_IT_number 2
_symmetry_cell_setting 'triclinic'
loop_
_space_group_symop_operation_xyz
x,y,z
-x,-y,-z
loop_
_atom_site_type_symbol
_atom_site_label
_atom_site_fract_x
_atom_site_fract_y
_atom_site_fract_z
Si Si1 0.362129 0.186492 0.610404
Si Si2 0.020211 0.687210 0.180511
Si Si3 0.793334 0.320482 0.235672
Si Si4 0.225863 0.317378 0.057284
Si Si5 0.553760 0.194591 0.925089
Si Si6 0.647871 0.849672 0.595390
Si Si7 0.909474 0.142857 0.414152
O O1 0.289107 0.431323 0.689852
O O2 0.273458 0.139755 0.482268
O O3 0.550806 0.141855 0.626129
O O4 0.289049 0.881404 0.608798
O O5 0.110528 0.415327 0.120507
O O6 0.918547 0.516095 0.220032
O O7 0.180060 0.010379 0.278365
O O8 0.889942 0.116206 0.296877
O O9 0.615590 0.072922 0.129379
O O10 0.882779 0.725119 0.071501
O O11 0.385437 0.633224 0.129889
O O12 0.296337 0.001731 0.048767
O O13 0.500000 0.500000 0.000000
O O14 0.500000 0.500000 0.500000
O O15 0.000000 0.500000 0.500000
O O16 0.000000 0.000000 0.500000
#
# Coordination Sequence:
#
# PCOD9068458 Si02
#       7
#     2   2   2   2   2   2   2
#     4  11  26  50  80 128 176 244 300 375 454 562
#     4  11  29  57  92 142 187 249 312 393 479 554
#     4  12  29  54  94 130 182 249 311 385 470 562
#     4  11  30  62  92 134 193 240 315 399 472 559
#     4  12  31  60  92 134 179 243 322 386 475 560
#     4  11  26  51  84 131 185 245 305 375 473 562
#     4  12  26  49  81 125 174 222 298 375 444 539
#
# _framework density 28.695471999999999
#
# number of rings (size 3 to 8) (size 9 to 14) (size 15 to 20)
#    0.000    0.571    1.429    3.000   10.000    2.286 
#    7.714    1.429    0.000    0.000    0.000    0.000 
#    0.000    0.000    0.000    0.000    0.000    0.000 
#
# Total GULP energy -77994.897785 kJ/mol
# GULP energy per Si atom -5571.064128 kJ/mol
# Density = 2.863016 g / cm^3
# Si number density = 28.695472 Si / 1000 Ang^3
#
#
#
# Elastic Constant Matrix: (Units=GPa)
#
#
# Indices 1 2 3 4 5 6 
#
# 1 173.3845 96.8479 86.6002 14.5569 -31.8688 -6.0629
# 2 96.8479 212.6505 61.0363 -2.0806 -19.6111 -0.3116
# 3 86.6002 61.0363 157.7920 -0.7610 -4.1482 4.8027
# 4 14.5569 -2.0806 -0.7610 41.1356 1.6218 -1.0846
# 5 -31.8688 -19.6111 -4.1482 1.6218 72.3052 -2.2274
# 6 -6.0629 -0.3116 4.8027 -1.0846 -2.2274 76.3042
#
#
#
# Elastic Compliance Matrix: (Units=1/GPa)
#
#
# Indices 1 2 3 4 5 6 
#
# 1 0.011165 -0.003401 -0.004769 -0.004331 0.003860 0.001224
# 2 -0.003401 0.006459 -0.000615 0.001507 0.000178 -0.000179
# 3 -0.004769 -0.000615 0.009184 0.001872 -0.001814 -0.000986
# 4 -0.004331 0.001507 0.001872 0.026028 -0.001981 -0.000144
# 5 0.003860 0.000178 -0.001814 -0.001981 0.015546 0.000847
# 6 0.001224 -0.000179 -0.000986 -0.000144 0.000847 0.013287
#
#
# Mechanical properties :
#
#
# Convention : Reuss Voigt Hill
#
# Bulk Modulus (GPa) = 108.23429 114.75510 111.49469
# Shear Modulus (GPa) = 48.86836 57.90518 53.38677
#
# Velocity S-wave (km/s) = 4.13122 4.49700 4.31798
# Velocity P-wave (km/s) = 7.78178 8.18789 7.98741
#
# Compressibility (1/GPa) = 0.00923922
#
# Stress axis : x y z
#
# Youngs Moduli (GPa) = 89.56707 154.83130 108.88803
#
# Poissons Ratio (x) = 0.52653 0.51926
# Poissons Ratio (y) = 0.30459 0.06692
# Poissons Ratio (z) = 0.42713 0.09515
#
# Static dielectric constant tensor:
#      x y z
#    x 2.345530 -0.042990 0.027600 
#    y -0.042990 2.290750 0.124880 
#    z 0.027600 0.124880 2.618240 
# 
# From -- ./inp_files/585456.got.cif
#   From: 2010.05.17/outbox.cif.g08.bks.cpg/sg2_293_cif.got.tgz:585456.got - 2010.06.03 11:33:40.
