data_PCOD9068045
_publ_section_title
;
Structure prediction by ZEFSAII (Michael W. Deem and Ramdas Pophale) SiO2 
 PCOD9068045
Probable space group: P -1
;
_chemical_formula_sum "Si O2"
_cell_formula_units_Z 16
_cell_length_a 27.775324
_cell_length_b 5.560685
_cell_length_c 8.208187
_cell_angle_alpha 91.732460
_cell_angle_beta 148.791370
_cell_angle_gamma 81.086519
_cell_volume 635.872692
_symmetry_space_group_name_H-M "P -1"
_symmetry_group_IT_number 2
_symmetry_cell_setting 'triclinic'
loop_
_space_group_symop_operation_xyz
x,y,z
-x,-y,-z
loop_
_atom_site_type_symbol
_atom_site_label
_atom_site_fract_x
_atom_site_fract_y
_atom_site_fract_z
Si Si1 0.991036 0.090749 0.657381
Si Si2 0.630574 0.094877 0.145214
Si Si3 0.825792 0.239918 0.704069
Si Si4 0.189067 0.090759 0.802002
Si Si5 0.430221 0.346718 0.586850
Si Si6 0.901683 0.479172 0.632395
Si Si7 0.388026 0.850497 0.287842
Si Si8 0.260750 0.337928 0.319949
O O1 0.917436 0.945220 0.516784
O O2 0.097068 0.013486 0.035179
O O3 0.000000 0.000000 0.500000
O O4 0.936331 0.366870 0.552686
O O5 0.717617 0.223984 0.394514
O O6 0.677853 0.835508 0.365384
O O7 0.535504 0.242369 0.967509
O O8 0.599427 0.101000 0.865801
O O9 0.859899 0.313982 0.632123
O O10 0.823126 0.450811 0.836725
O O11 0.185523 0.288461 0.652616
O O12 0.213681 0.181102 0.052598
O O13 0.276431 0.864465 0.004106
O O14 0.438293 0.577358 0.498090
O O15 0.339458 0.436212 0.445881
O O16 0.409925 0.092371 0.444667
O O17 0.000000 0.500000 0.000000
#
# Coordination Sequence:
#
# PCOD9068045 Si02
#       8
#     2   2   2   2   2   2   2   2
#     4  12  27  44  73 104 148 197 253 316 386 465
#     4  12  27  47  76 110 152 198 256 323 386 464
#     4  12  28  43  75 109 149 194 258 313 388 460
#     4  11  26  47  73 101 153 197 253 315 383 462
#     4  11  28  51  78 112 154 202 260 322 392 464
#     4  12  27  47  72 108 150 199 255 318 386 459
#     4  11  27  48  80 111 150 203 261 317 393 462
#     4  11  28  46  76 110 152 202 255 317 392 458
#
# _framework density 25.162268999999998
#
# number of rings (size 3 to 8) (size 9 to 14) (size 15 to 20)
#    0.000    0.500    1.250    4.500   21.000    1.500 
#    0.000    0.000    0.000    0.000    0.000    0.000 
#    0.000    0.000    0.000    0.000    0.000    0.000 
#
# Total GULP energy -89492.543613 kJ/mol
# GULP energy per Si atom -5593.283976 kJ/mol
# Density = 2.510500 g / cm^3
# Si number density = 25.162269 Si / 1000 Ang^3
#
#
#
# Elastic Constant Matrix: (Units=GPa)
#
#
# Indices 1 2 3 4 5 6 
#
# 1 104.8330 17.8754 11.9362 2.5413 2.1983 -2.3589
# 2 17.8754 68.2859 24.9103 -11.4297 -7.5231 2.3222
# 3 11.9362 24.9103 98.0811 -9.1832 15.5290 4.8957
# 4 2.5413 -11.4297 -9.1832 44.3157 2.8030 -3.4317
# 5 2.1983 -7.5231 15.5290 2.8030 38.8430 -13.0128
# 6 -2.3589 2.3222 4.8957 -3.4317 -13.0128 37.0367
#
#
#
# Elastic Compliance Matrix: (Units=1/GPa)
#
#
# Indices 1 2 3 4 5 6 
#
# 1 0.010131 -0.002739 -0.000599 -0.001331 -0.000578 0.000570
# 2 -0.002739 0.018423 -0.005063 0.003615 0.006095 0.001816
# 3 -0.000599 -0.005063 0.013115 0.001621 -0.007644 -0.003990
# 4 -0.001331 0.003615 0.001621 0.024084 -0.001178 0.001292
# 5 -0.000578 0.006095 -0.007644 -0.001178 0.034297 0.012533
# 6 0.000570 0.001816 -0.003990 0.001292 0.012533 0.031973
#
#
# Mechanical properties :
#
#
# Convention : Reuss Voigt Hill
#
# Bulk Modulus (GPa) = 40.21272 42.29374 41.25323
# Shear Modulus (GPa) = 31.82360 38.47096 35.14728
#
# Velocity S-wave (km/s) = 3.56017 3.91438 3.74147
# Velocity P-wave (km/s) = 5.73723 6.10530 5.92412
#
# Compressibility (1/GPa) = 0.02486775
#
# Stress axis : x y z
#
# Youngs Moduli (GPa) = 98.70225 54.27983 76.24586
#
# Poissons Ratio (x) = 0.14870 0.04566
# Poissons Ratio (y) = 0.27039 0.38602
# Poissons Ratio (z) = 0.05910 0.27481
#
# Static dielectric constant tensor:
#      x y z
#    x 1.998180 0.025340 -0.017350 
#    y 0.025340 2.113870 0.077500 
#    z -0.017350 0.077500 1.951460 
# 
# From -- ./inp_files/358233.got.cif
#   From: 2010.05.17/outbox.cif.g08.bks.cpg/sg2_180_cif.got.tgz:358233.got - 2010.06.03 11:33:40.
