data_PCOD9068211
_publ_section_title
;
Structure prediction by ZEFSAII (Michael W. Deem and Ramdas Pophale) SiO2 
 PCOD9068211
Probable space group: P -1
;
_chemical_formula_sum "Si O2"
_cell_formula_units_Z 10
_cell_length_a 8.021546
_cell_length_b 14.636730
_cell_length_c 14.682161
_cell_angle_alpha 20.926921
_cell_angle_beta 140.958735
_cell_angle_gamma 135.028704
_cell_volume 386.579694
_symmetry_space_group_name_H-M "P -1"
_symmetry_group_IT_number 2
_symmetry_cell_setting 'triclinic'
loop_
_space_group_symop_operation_xyz
x,y,z
-x,-y,-z
loop_
_atom_site_type_symbol
_atom_site_label
_atom_site_fract_x
_atom_site_fract_y
_atom_site_fract_z
Si Si1 0.698802 0.587663 0.577933
Si Si2 0.746344 0.968428 0.984214
Si Si3 0.661394 0.908048 0.519726
Si Si4 0.087026 0.913823 0.353781
Si Si5 0.344930 0.649753 0.040782
O O1 0.500000 0.500000 0.500000
O O2 0.518255 0.830889 0.319549
O O3 0.766249 0.378361 0.878612
O O4 0.972138 0.655813 0.584708
O O5 0.644765 0.701538 0.151981
O O6 0.000000 0.000000 0.000000
O O7 0.847290 0.991710 0.109139
O O8 0.346848 0.917783 0.397712
O O9 0.716433 0.616585 0.782587
O O10 0.809310 0.964806 0.622650
O O11 0.725033 0.126050 0.270601
#
# Coordination Sequence:
#
# PCOD9068211 Si02
#       5
#     2   2   2   2   2
#     4  12  27  43  79 117 147 189 255 319 365 429
#     4  12  25  49  78 107 150 201 251 303 370 451
#     4  11  28  50  74 109 150 208 235 309 373 459
#     4  11  26  48  74 112 151 192 254 305 373 439
#     4  12  25  51  73 109 149 197 254 292 386 434
#
# _framework density 25.867889000000002
#
# number of rings (size 3 to 8) (size 9 to 14) (size 15 to 20)
#    0.000    0.400    6.000    0.600    2.800    8.000 
#    0.000    0.000    0.000    0.000    0.000    0.000 
#    0.000    0.000    0.000    0.000    0.000    0.000 
#
# Total GULP energy -55846.181485 kJ/mol
# GULP energy per Si atom -5584.618148 kJ/mol
# Density = 2.580901 g / cm^3
# Si number density = 25.867889 Si / 1000 Ang^3
#
#
#
# Elastic Constant Matrix: (Units=GPa)
#
#
# Indices 1 2 3 4 5 6 
#
# 1 55.0713 40.1732 110.9677 15.8894 -56.4184 -18.6695
# 2 40.1732 187.9249 54.8476 -7.2673 -7.8879 -16.3614
# 3 110.9677 54.8476 135.2654 -3.7740 -25.2950 16.2259
# 4 15.8894 -7.2673 -3.7740 47.3065 11.7672 -1.0254
# 5 -56.4184 -7.8879 -25.2950 11.7672 31.1780 -10.4854
# 6 -18.6695 -16.3614 16.2259 -1.0254 -10.4854 47.1449
#
#
#
# Elastic Compliance Matrix: (Units=1/GPa)
#
#
# Indices 1 2 3 4 5 6 
#
# 1 -0.006308 -0.000770 0.004103 0.005311 -0.012592 -0.006862
# 2 -0.000770 0.006430 -0.002519 0.001481 -0.001533 0.002485
# 3 0.004103 -0.002519 0.007599 -0.004933 0.015296 0.001430
# 4 0.005311 0.001481 -0.004933 0.019205 0.000353 0.004811
# 5 -0.012592 -0.001533 0.015296 0.000353 0.018971 -0.006556
# 6 -0.006862 0.002485 0.001430 0.004811 -0.006556 0.017510
#
#
# Mechanical properties :
#
#
# Convention : Reuss Voigt Hill
#
# Bulk Modulus (GPa) = 106.94679 87.80430 97.37555
# Shear Modulus (GPa) = 77.04546 36.61076 56.82811
#
# Velocity S-wave (km/s) = 5.46341 3.76613 4.69215
# Velocity P-wave (km/s) = 9.01286 7.27521 8.19025
#
# Compressibility (1/GPa) = 0.00935044
#
# Stress axis : x y z
#
# Youngs Moduli (GPa) = -158.53420 155.51116 131.59032
#
# Poissons Ratio (x) = 0.11972 -0.53997
# Poissons Ratio (y) = -0.12204 0.33153
# Poissons Ratio (z) = 0.65054 0.39179
#
# Static dielectric constant tensor:
#      x y z
#    x 2.079020 -0.019970 0.072400 
#    y -0.019970 1.977430 -0.031130 
#    z 0.072400 -0.031130 2.145210 
# 
# From -- ./inp_files/21390.got.cif
#   From: 2010.05.17/outbox.cif.g08.bks.cpg/sg2_11_cif.got.tgz:21390.got - 2010.06.03 11:33:40.
