data_PCOD9068461
_publ_section_title
;
Structure prediction by ZEFSAII (Michael W. Deem and Ramdas Pophale) SiO2 
 PCOD9068461
Probable space group: P -1
;
_chemical_formula_sum "Si O2"
_cell_formula_units_Z 8
_cell_length_a 16.649499
_cell_length_b 4.781551
_cell_length_c 7.337703
_cell_angle_alpha 65.694290
_cell_angle_beta 39.398868
_cell_angle_gamma 51.245952
_cell_volume 286.058879
_symmetry_space_group_name_H-M "P -1"
_symmetry_group_IT_number 2
_symmetry_cell_setting 'triclinic'
loop_
_space_group_symop_operation_xyz
x,y,z
-x,-y,-z
loop_
_atom_site_type_symbol
_atom_site_label
_atom_site_fract_x
_atom_site_fract_y
_atom_site_fract_z
Si Si1 0.182426 0.567853 0.653565
Si Si2 0.671654 0.174233 0.908268
Si Si3 0.943557 0.630430 0.767969
Si Si4 0.488712 0.799771 0.301976
O O1 0.244943 0.819725 0.421765
O O2 0.063938 0.627750 0.690140
O O3 0.325907 0.158769 0.500932
O O4 0.110670 0.603550 0.966705
O O5 0.798156 0.028711 0.882887
O O6 0.543546 0.583661 0.073623
O O7 0.606106 0.919532 0.104388
O O8 0.000000 0.500000 0.500000
O O9 0.500000 0.500000 0.500000
#
# Coordination Sequence:
#
# PCOD9068461 Si02
#       4
#     2   2   2   2
#     4  11  26  50  82 116 160 212 262 329 405 467
#     4  12  26  51  80 117 160 207 267 332 395 478
#     4  11  26  51  79 117 162 208 269 325 397 479
#     4  12  26  51  81 118 160 207 267 333 399 474
#
# _framework density 27.966270999999999
#
# number of rings (size 3 to 8) (size 9 to 14) (size 15 to 20)
#    0.000    0.500    2.500    4.500    0.000    3.000 
#    0.000    0.000    0.000    0.000    0.000    0.000 
#    0.000    0.000    0.000    0.000    0.000    0.000 
#
# Total GULP energy -44954.004777 kJ/mol
# GULP energy per Si atom -5619.250597 kJ/mol
# Density = 2.790262 g / cm^3
# Si number density = 27.966271 Si / 1000 Ang^3
#
#
#
# Elastic Constant Matrix: (Units=GPa)
#
#
# Indices 1 2 3 4 5 6 
#
# 1 144.3408 51.5292 92.3616 -0.7888 -8.7968 -13.0083
# 2 51.5292 153.9986 66.9993 -18.7132 -21.8423 -15.4081
# 3 92.3616 66.9993 250.2542 -39.3603 11.8962 -8.5969
# 4 -0.7888 -18.7132 -39.3603 53.7607 -2.6608 7.2938
# 5 -8.7968 -21.8423 11.8962 -2.6608 63.4019 6.0686
# 6 -13.0083 -15.4081 -8.5969 7.2938 6.0686 55.0648
#
#
#
# Elastic Compliance Matrix: (Units=1/GPa)
#
#
# Indices 1 2 3 4 5 6 
#
# 1 0.010239 -0.001847 -0.003830 -0.003458 0.001202 0.001630
# 2 -0.001847 0.008470 -0.001386 0.001894 0.002891 0.001148
# 3 -0.003830 -0.001386 0.006518 0.004218 -0.001996 -0.000614
# 4 -0.003458 0.001894 0.004218 0.022693 0.000592 -0.002700
# 5 0.001202 0.002891 -0.001996 0.000592 0.017451 -0.001220
# 6 0.001630 0.001148 -0.000614 -0.002700 -0.001220 0.019263
#
#
# Mechanical properties :
#
#
# Convention : Reuss Voigt Hill
#
# Bulk Modulus (GPa) = 90.07834 107.81931 98.94882
# Shear Modulus (GPa) = 48.80035 56.95905 52.87970
#
# Velocity S-wave (km/s) = 4.18182 4.51788 4.35309
# Velocity P-wave (km/s) = 7.45630 8.11493 7.79257
#
# Compressibility (1/GPa) = 0.01110145
#
# Stress axis : x y z
#
# Youngs Moduli (GPa) = 97.66586 118.06997 153.43146
#
# Poissons Ratio (x) = 0.21803 0.58757
# Poissons Ratio (y) = 0.18035 0.21268
# Poissons Ratio (z) = 0.37402 0.16367
#
# Static dielectric constant tensor:
#      x y z
#    x 2.168200 -0.036280 0.009780 
#    y -0.036280 2.161670 0.035560 
#    z 0.009780 0.035560 2.200330 
# 
# From -- ./inp_files/131072.got.cif
#   From: 2010.05.17/outbox.cif.g08.bks.cpg/sg2_66_cif.got.tgz:131072.got - 2010.06.03 11:33:40.
