data_PCOD9068355
_publ_section_title
;
Structure prediction by ZEFSAII (Michael W. Deem and Ramdas Pophale) SiO2 
 PCOD9068355
Probable space group: P -1
;
_chemical_formula_sum "Si O2"
_cell_formula_units_Z 13
_cell_length_a 8.557529
_cell_length_b 11.593076
_cell_length_c 11.237849
_cell_angle_alpha 41.866653
_cell_angle_beta 65.021726
_cell_angle_gamma 41.784711
_cell_volume 473.104001
_symmetry_space_group_name_H-M "P -1"
_symmetry_group_IT_number 2
_symmetry_cell_setting 'triclinic'
loop_
_space_group_symop_operation_xyz
x,y,z
-x,-y,-z
loop_
_atom_site_type_symbol
_atom_site_label
_atom_site_fract_x
_atom_site_fract_y
_atom_site_fract_z
Si Si1 0.600908 0.095466 0.961014
Si Si2 0.695526 0.703746 0.692535
Si Si3 0.894999 0.343519 0.307201
Si Si4 0.211055 0.948677 0.310543
Si Si5 0.759233 0.553284 0.530816
Si Si6 0.500000 0.500000 0.000000
Si Si7 0.101930 0.020421 0.835631
O O1 0.379963 0.389116 0.825496
O O2 0.788466 0.026038 0.851252
O O3 0.709570 0.989032 0.140237
O O4 0.500000 0.000000 0.000000
O O5 0.684801 0.594657 0.661045
O O6 0.947558 0.624735 0.697087
O O7 0.500000 0.000000 0.500000
O O8 0.650631 0.582530 0.893354
O O9 0.866037 0.180447 0.508134
O O10 0.051331 0.196847 0.249513
O O11 0.502590 0.765753 0.385851
O O12 0.000000 0.500000 0.500000
O O13 0.885726 0.290216 0.646563
O O14 0.747337 0.208000 0.125114
O O15 0.000000 0.000000 0.000000
#
# Coordination Sequence:
#
# PCOD9068355 Si02
#       7
#     2   2   2   2   2   1   2
#     4  12  28  47  75 118 161 201 258 327 408 474
#     4  12  25  48  79 115 158 210 275 326 400 481
#     4  11  26  49  76 112 157 211 264 322 400 486
#     4  11  26  51  80 112 159 209 263 329 401 476
#     4  12  24  49  82 112 158 211 271 331 392 487
#     4  12  30  48  80 114 160 206 274 336 396 474
#     4  12  27  50  76 112 157 206 265 326 398 473
#
# _framework density 27.478100999999999
#
# number of rings (size 3 to 8) (size 9 to 14) (size 15 to 20)
#    0.000    0.308    3.077    5.077    2.154    4.308 
#    0.000    0.000    0.000    0.000    0.000    0.000 
#    0.000    0.000    0.000    0.000    0.000    0.000 
#
# Total GULP energy -72487.322364 kJ/mol
# GULP energy per Si atom -5575.947874 kJ/mol
# Density = 2.741556 g / cm^3
# Si number density = 27.478101 Si / 1000 Ang^3
#
#
#
# Elastic Constant Matrix: (Units=GPa)
#
#
# Indices 1 2 3 4 5 6 
#
# 1 92.0500 15.6563 20.8960 2.4790 -13.2541 -6.3938
# 2 15.6563 202.0120 51.2447 -49.4087 23.0926 6.8960
# 3 20.8960 51.2447 75.0644 -18.9323 -6.6872 2.5813
# 4 2.4790 -49.4087 -18.9323 41.0024 2.4069 -2.0015
# 5 -13.2541 23.0926 -6.6872 2.4069 70.7343 3.7203
# 6 -6.3938 6.8960 2.5813 -2.0015 3.7203 58.7414
#
#
#
# Elastic Compliance Matrix: (Units=1/GPa)
#
#
# Indices 1 2 3 4 5 6 
#
# 1 0.012446 -0.001478 -0.003321 -0.004151 0.002570 0.001370
# 2 -0.001478 0.008599 -0.003494 0.009032 -0.003697 -0.000475
# 3 -0.003321 -0.003494 0.017875 0.004084 0.002108 -0.000731
# 4 -0.004151 0.009032 0.004084 0.037674 -0.004616 -0.000115
# 5 0.002570 -0.003697 0.002108 -0.004616 0.016212 -0.000563
# 6 0.001370 -0.000475 -0.000731 -0.000115 -0.000563 0.017292
#
#
# Mechanical properties :
#
#
# Convention : Reuss Voigt Hill
#
# Bulk Modulus (GPa) = 44.77433 60.52447 52.64940
# Shear Modulus (GPa) = 37.27793 52.85093 45.06443
#
# Velocity S-wave (km/s) = 3.68726 4.39040 4.05410
# Velocity P-wave (km/s) = 5.87007 6.91195 6.41221
#
# Compressibility (1/GPa) = 0.02233422
#
# Stress axis : x y z
#
# Youngs Moduli (GPa) = 80.34830 116.29445 55.94547
#
# Poissons Ratio (x) = 0.17187 0.18578
# Poissons Ratio (y) = 0.11875 0.19547
# Poissons Ratio (z) = 0.26681 0.40632
#
# Static dielectric constant tensor:
#      x y z
#    x 2.697900 0.094040 -0.120770 
#    y 0.094040 2.339510 0.054870 
#    z -0.120770 0.054870 2.194680 
# 
# From -- ./inp_files/263761.got.cif
#   From: 2010.05.17/outbox.cif.g08.bks.cpg/sg2_132_cif.got.tgz:263761.got - 2010.06.03 11:33:40.
