data_PCOD9068445
_publ_section_title
;
Structure prediction by ZEFSAII (Michael W. Deem and Ramdas Pophale) SiO2 
 PCOD9068445
Probable space group: P -1
;
_chemical_formula_sum "Si O2"
_cell_formula_units_Z 13
_cell_length_a 9.339875
_cell_length_b 16.878462
_cell_length_c 5.272697
_cell_angle_alpha 81.979634
_cell_angle_beta 79.397419
_cell_angle_gamma 39.393754
_cell_volume 518.508409
_symmetry_space_group_name_H-M "P -1"
_symmetry_group_IT_number 2
_symmetry_cell_setting 'triclinic'
loop_
_space_group_symop_operation_xyz
x,y,z
-x,-y,-z
loop_
_atom_site_type_symbol
_atom_site_label
_atom_site_fract_x
_atom_site_fract_y
_atom_site_fract_z
Si Si1 0.719586 0.195719 0.351761
Si Si2 0.130375 0.134147 0.203866
Si Si3 0.487984 0.782934 0.079903
Si Si4 0.392304 0.114023 0.730835
Si Si5 0.435226 0.478078 0.278566
Si Si6 0.977246 0.663989 0.577267
Si Si7 0.000000 0.500000 0.000000
O O1 0.662806 0.181639 0.647117
O O2 0.558880 0.341383 0.306381
O O3 0.972894 0.123550 0.274389
O O4 0.652443 0.168266 0.152549
O O5 0.994006 0.267202 0.301407
O O6 0.359586 0.025438 0.342060
O O7 0.218436 0.122841 0.902167
O O8 0.557421 0.845334 0.073855
O O9 0.719897 0.633480 0.071032
O O10 0.266610 0.222713 0.522715
O O11 0.500000 0.500000 0.500000
O O12 0.163805 0.579847 0.332111
O O13 0.500000 0.500000 0.000000
O O14 0.004243 0.574536 0.773503
#
# Coordination Sequence:
#
# PCOD9068445 Si02
#       7
#     2   2   2   2   2   2   1
#     4  12  27  47  74 119 153 203 255 330 394 466
#     4  11  26  50  79 110 155 205 274 323 384 471
#     4  12  28  48  74 113 161 204 258 317 404 467
#     4  11  27  50  77 110 152 218 264 322 386 475
#     4  12  25  43  74 113 155 197 250 328 400 459
#     4  12  25  47  78 114 154 202 266 327 391 474
#     4  12  26  48  74 114 156 204 252 322 398 478
#
# _framework density 25.071916999999999
#
# number of rings (size 3 to 8) (size 9 to 14) (size 15 to 20)
#    0.000    0.308    4.615    3.231    4.308    2.462 
#    0.000    0.000    0.000    0.000    0.000    0.000 
#    0.000    0.000    0.000    0.000    0.000    0.000 
#
# Total GULP energy -72694.266215 kJ/mol
# GULP energy per Si atom -5591.866632 kJ/mol
# Density = 2.501485 g / cm^3
# Si number density = 25.071917 Si / 1000 Ang^3
#
#
#
# Elastic Constant Matrix: (Units=GPa)
#
#
# Indices 1 2 3 4 5 6 
#
# 1 85.3910 8.0440 52.5695 11.8206 -20.4443 -22.0186
# 2 8.0440 131.3321 31.0334 -8.1543 -26.2193 -19.2357
# 3 52.5695 31.0334 155.6458 16.6964 -29.4246 -17.5387
# 4 11.8206 -8.1543 16.6964 35.9096 -4.7508 -6.8655
# 5 -20.4443 -26.2193 -29.4246 -4.7508 43.2236 11.8780
# 6 -22.0186 -19.2357 -17.5387 -6.8655 11.8780 33.7824
#
#
#
# Elastic Compliance Matrix: (Units=1/GPa)
#
#
# Indices 1 2 3 4 5 6 
#
# 1 0.017634 0.001981 -0.004508 -0.001077 0.003974 0.008665
# 2 0.001981 0.009831 -0.001550 0.003933 0.004855 0.005176
# 3 -0.004508 -0.001550 0.009037 -0.002819 0.002975 -0.000748
# 4 -0.001077 0.003933 -0.002819 0.031774 0.001832 0.005887
# 5 0.003974 0.004855 0.002975 0.001832 0.031204 -0.003700
# 6 0.008665 0.005176 -0.000748 0.005887 -0.003700 0.040305
#
#
# Mechanical properties :
#
#
# Convention : Reuss Voigt Hill
#
# Bulk Modulus (GPa) = 35.27547 61.74031 48.50789
# Shear Modulus (GPa) = 31.76860 41.29790 36.53325
#
# Velocity S-wave (km/s) = 3.56349 4.06295 3.82139
# Velocity P-wave (km/s) = 5.57060 6.83292 6.23379
#
# Compressibility (1/GPa) = 0.02834831
#
# Stress axis : x y z
#
# Youngs Moduli (GPa) = 56.70800 101.72132 110.65635
#
# Poissons Ratio (x) = -0.20149 0.49880
# Poissons Ratio (y) = -0.11233 0.17151
# Poissons Ratio (z) = 0.25562 0.15766
#
# Static dielectric constant tensor:
#      x y z
#    x 2.055110 -0.014260 0.112570 
#    y -0.014260 1.956790 0.059720 
#    z 0.112570 0.059720 1.963640 
# 
# From -- ./inp_files/43561.got.cif
#   From: 2010.05.17/outbox.cif.g08.bks.cpg/sg2_22_cif.got.tgz:43561.got - 2010.06.03 11:33:40.
