data_PCOD9068672
_publ_section_title
;
Structure prediction by ZEFSAII (Michael W. Deem and Ramdas Pophale) SiO2 
 PCOD9068672
Probable space group: P -1
;
_chemical_formula_sum "Si O2"
_cell_formula_units_Z 10
_cell_length_a 4.977147
_cell_length_b 9.797868
_cell_length_c 12.012214
_cell_angle_alpha 48.936871
_cell_angle_beta 86.468988
_cell_angle_gamma 107.744001
_cell_volume 391.712136
_symmetry_space_group_name_H-M "P -1"
_symmetry_group_IT_number 2
_symmetry_cell_setting 'triclinic'
loop_
_space_group_symop_operation_xyz
x,y,z
-x,-y,-z
loop_
_atom_site_type_symbol
_atom_site_label
_atom_site_fract_x
_atom_site_fract_y
_atom_site_fract_z
Si Si1 0.669693 0.508285 0.879510
Si Si2 0.425044 0.938836 0.905761
Si Si3 0.381123 0.580246 0.622197
Si Si4 0.097084 0.176995 0.697678
Si Si5 0.150855 0.849826 0.584261
O O1 0.500614 0.545369 0.756953
O O2 0.995196 0.705803 0.770072
O O3 0.500000 0.500000 0.000000
O O4 0.685888 0.299749 0.974064
O O5 0.180339 0.008933 0.836987
O O6 0.733718 0.065213 0.758811
O O7 0.500000 0.000000 0.000000
O O8 0.202275 0.367446 0.677188
O O9 0.676959 0.727112 0.464044
O O10 0.156990 0.681723 0.588218
O O11 0.500000 0.000000 0.500000
O O12 0.000000 0.000000 0.500000
#
# Coordination Sequence:
#
# PCOD9068672 Si02
#       5
#     2   2   2   2   2
#     4  12  30  49  78 117 157 201 258 326 386 458
#     4  12  26  50  79 116 160 195 259 317 400 448
#     4  11  27  51  78 113 157 197 276 303 388 463
#     4  11  28  46  84 114 149 211 248 328 377 468
#     4  12  28  50  77 106 155 209 255 311 382 467
#
# _framework density 25.528952
#
# number of rings (size 3 to 8) (size 9 to 14) (size 15 to 20)
#    0.000    0.400    4.000    1.800   11.200    2.400 
#    0.000    0.000    0.000    0.000    0.000    0.000 
#    0.000    0.000    0.000    0.000    0.000    0.000 
#
# Total GULP energy -56102.232763 kJ/mol
# GULP energy per Si atom -5610.223276 kJ/mol
# Density = 2.547085 g / cm^3
# Si number density = 25.528952 Si / 1000 Ang^3
#
#
#
# Elastic Constant Matrix: (Units=GPa)
#
#
# Indices 1 2 3 4 5 6 
#
# 1 144.8190 40.8705 40.4009 -13.3507 -4.4273 -36.5648
# 2 40.8705 163.5194 76.3395 -29.2765 18.6641 -42.7230
# 3 40.4009 76.3395 170.6402 -14.2503 -17.9077 -19.3834
# 4 -13.3507 -29.2765 -14.2503 58.5878 -1.3770 2.9016
# 5 -4.4273 18.6641 -17.9077 -1.3770 59.7740 -9.7186
# 6 -36.5648 -42.7230 -19.3834 2.9016 -9.7186 48.5847
#
#
#
# Elastic Compliance Matrix: (Units=1/GPa)
#
#
# Indices 1 2 3 4 5 6 
#
# 1 0.009061 0.000145 -0.001177 0.001554 0.001392 0.006663
# 2 0.000145 0.011034 -0.004167 0.004096 -0.003414 0.007222
# 3 -0.001177 -0.004167 0.008308 -0.000220 0.003616 -0.000499
# 4 0.001554 0.004096 -0.000220 0.019237 -0.000219 0.003490
# 5 0.001392 -0.003414 0.003616 -0.000219 0.019531 0.003408
# 6 0.006663 0.007222 -0.000499 0.003490 0.003408 0.032222
#
#
# Mechanical properties :
#
#
# Convention : Reuss Voigt Hill
#
# Bulk Modulus (GPa) = 55.54186 88.24448 71.89317
# Shear Modulus (GPa) = 43.18035 54.81382 48.99708
#
# Velocity S-wave (km/s) = 4.11716 4.63873 4.38571
# Velocity P-wave (km/s) = 6.66370 7.95814 7.33951
#
# Compressibility (1/GPa) = 0.01800444
#
# Stress axis : x y z
#
# Youngs Moduli (GPa) = 110.36670 90.62505 120.37210
#
# Poissons Ratio (x) = -0.01314 0.14173
# Poissons Ratio (y) = -0.01601 0.50156
# Poissons Ratio (z) = 0.12995 0.37761
#
# Static dielectric constant tensor:
#      x y z
#    x 1.973440 -0.005460 -0.078260 
#    y -0.005460 1.944270 -0.020010 
#    z -0.078260 -0.020010 1.942990 
# 
# From -- ./inp_files/37982.got.cif
#   From: 2010.05.17/outbox.cif.g08.bks.cpg/sg2_19_cif.got.tgz:37982.got - 2010.06.03 11:33:40.
