data_PCOD9068124
_publ_section_title
;
Structure prediction by ZEFSAII (Michael W. Deem and Ramdas Pophale) SiO2 
 PCOD9068124
Probable space group: P -1
;
_chemical_formula_sum "Si O2"
_cell_formula_units_Z 13
_cell_length_a 8.992527
_cell_length_b 9.340092
_cell_length_c 9.012376
_cell_angle_alpha 118.717896
_cell_angle_beta 79.496222
_cell_angle_gamma 126.739401
_cell_volume 526.000907
_symmetry_space_group_name_H-M "P -1"
_symmetry_group_IT_number 2
_symmetry_cell_setting 'triclinic'
loop_
_space_group_symop_operation_xyz
x,y,z
-x,-y,-z
loop_
_atom_site_type_symbol
_atom_site_label
_atom_site_fract_x
_atom_site_fract_y
_atom_site_fract_z
Si Si1 0.823483 0.972875 0.599417
Si Si2 0.014390 0.684639 0.010124
Si Si3 0.346848 0.979392 0.911114
Si Si4 0.210288 0.827489 0.561290
Si Si5 0.500000 0.500000 0.500000
Si Si6 0.791098 0.541160 0.573525
Si Si7 0.346441 0.368260 0.088349
O O1 0.665449 0.746524 0.563252
O O2 0.901336 0.130813 0.798325
O O3 0.741691 0.043486 0.527897
O O4 0.000000 0.000000 0.500000
O O5 0.000000 0.500000 0.000000
O O6 0.830780 0.649391 0.955325
O O7 0.158104 0.768920 0.890938
O O8 0.363674 0.957861 0.723432
O O9 0.325286 0.161907 0.014502
O O10 0.500000 0.000000 0.000000
O O11 0.191674 0.623357 0.438957
O O12 0.998733 0.744193 0.613805
O O13 0.666270 0.461961 0.410073
O O14 0.636560 0.546362 0.703727
O O15 0.500000 0.500000 0.000000
#
# Coordination Sequence:
#
# PCOD9068124 Si02
#       7
#     2   2   2   2   1   2   2
#     4  12  27  49  80 116 156 209 262 329 399 477
#     4  12  27  51  79 113 160 206 265 335 410 484
#     4  12  28  49  75 112 155 207 267 330 403 479
#     4  11  26  50  78 111 156 204 266 331 405 468
#     4  12  28  46  80 114 160 204 274 316 402 484
#     4  11  26  47  77 111 153 209 261 333 392 481
#     4  12  27  48  77 112 158 210 265 329 409 484
#
# _framework density 24.714787999999999
#
# number of rings (size 3 to 8) (size 9 to 14) (size 15 to 20)
#    0.000    0.308    3.077    4.154   10.769    0.615 
#    0.000    0.000    0.000    0.000    0.000    0.000 
#    0.000    0.000    0.000    0.000    0.000    0.000 
#
# Total GULP energy -72596.762754 kJ/mol
# GULP energy per Si atom -5584.366366 kJ/mol
# Density = 2.465854 g / cm^3
# Si number density = 24.714788 Si / 1000 Ang^3
#
#
#
# Elastic Constant Matrix: (Units=GPa)
#
#
# Indices 1 2 3 4 5 6 
#
# 1 168.8524 62.1337 16.9137 -1.5801 22.6651 -1.6470
# 2 62.1337 154.3957 13.6702 6.6833 -6.3028 -15.0356
# 3 16.9137 13.6702 86.6879 10.9357 -0.4929 -0.6711
# 4 -1.5801 6.6833 10.9357 39.6112 -3.2937 -0.3452
# 5 22.6651 -6.3028 -0.4929 -3.2937 39.0096 1.8629
# 6 -1.6470 -15.0356 -0.6711 -0.3452 1.8629 50.2425
#
#
#
# Elastic Compliance Matrix: (Units=1/GPa)
#
#
# Indices 1 2 3 4 5 6 
#
# 1 0.007979 -0.003408 -0.001151 0.000781 -0.005107 -0.000579
# 2 -0.003408 0.008283 -0.000464 -0.001127 0.003110 0.002238
# 3 -0.001151 -0.000464 0.012254 -0.003312 0.000472 -0.000053
# 4 0.000781 -0.001127 -0.003312 0.026510 0.001571 -0.000232
# 5 -0.005107 0.003110 0.000472 0.001571 0.029258 -0.000304
# 6 -0.000579 0.002238 -0.000053 -0.000232 -0.000304 0.020563
#
#
# Mechanical properties :
#
#
# Convention : Reuss Voigt Hill
#
# Bulk Modulus (GPa) = 54.14518 66.15236 60.14877
# Shear Modulus (GPa) = 41.30562 46.92055 44.11308
#
# Velocity S-wave (km/s) = 4.09258 4.36188 4.22937
# Velocity P-wave (km/s) = 6.65491 7.22443 6.94551
#
# Compressibility (1/GPa) = 0.01846887
#
# Stress axis : x y z
#
# Youngs Moduli (GPa) = 125.33142 120.72921 81.60907
#
# Poissons Ratio (x) = 0.41141 0.09397
# Poissons Ratio (y) = 0.42709 0.03788
# Poissons Ratio (z) = 0.14432 0.05603
#
# Static dielectric constant tensor:
#      x y z
#    x 2.133040 0.029930 -0.225770 
#    y 0.029930 1.883050 -0.007400 
#    z -0.225770 -0.007400 1.823160 
# 
# From -- ./inp_files/158339.got.cif
#   From: 2010.05.17/outbox.cif.g08.bks.cpg/sg2_80_cif.got.tgz:158339.got - 2010.06.03 11:33:40.
