data_PCOD9068687
_publ_section_title
;
Structure prediction by ZEFSAII (Michael W. Deem and Ramdas Pophale) SiO2 
 PCOD9068687
Probable space group: P -1
;
_chemical_formula_sum "Si O2"
_cell_formula_units_Z 12
_cell_length_a 14.003627
_cell_length_b 6.524856
_cell_length_c 7.665223
_cell_angle_alpha 96.881907
_cell_angle_beta 123.727131
_cell_angle_gamma 119.199928
_cell_volume 428.570871
_symmetry_space_group_name_H-M "P -1"
_symmetry_group_IT_number 2
_symmetry_cell_setting 'triclinic'
loop_
_space_group_symop_operation_xyz
x,y,z
-x,-y,-z
loop_
_atom_site_type_symbol
_atom_site_label
_atom_site_fract_x
_atom_site_fract_y
_atom_site_fract_z
Si Si1 0.866706 0.713260 0.241809
Si Si2 0.972006 0.199262 0.938512
Si Si3 0.602847 0.806113 0.547096
Si Si4 0.649323 0.810258 0.118661
Si Si5 0.497327 0.961522 0.745393
Si Si6 0.172193 0.613641 0.490136
O O1 0.741586 0.748346 0.094070
O O2 0.833730 0.506561 0.340502
O O3 0.921957 0.672073 0.116606
O O4 0.000000 0.000000 0.500000
O O5 0.962489 0.584092 0.810304
O O6 0.783654 0.982855 0.716130
O O7 0.000000 0.000000 0.000000
O O8 0.500000 0.500000 0.500000
O O9 0.597103 0.984381 0.696257
O O10 0.520183 0.818520 0.298849
O O11 0.785422 0.096909 0.392580
O O12 0.500000 0.500000 0.000000
O O13 0.570316 0.921842 0.973049
O O14 0.317420 0.683614 0.545172
#
# Coordination Sequence:
#
# PCOD9068687 Si02
#       6
#     2   2   2   2   2   2
#     4  12  29  56  88 136 182 242 309 375 474 553
#     4  12  27  57  91 130 186 240 303 388 460 557
#     4  11  28  53  88 130 178 234 307 378 458 549
#     4  12  29  56  91 128 185 241 308 383 453 556
#     4  11  27  52  86 129 168 237 306 372 462 541
#     4  12  29  55  88 137 176 241 310 375 477 543
#
# _framework density 28.000039000000001
#
# number of rings (size 3 to 8) (size 9 to 14) (size 15 to 20)
#    0.000    0.333    3.333    2.500    4.667    5.333 
#    0.000    1.667    0.000    1.000    0.000    0.000 
#    0.000    0.000    0.000    0.000    0.000    0.000 
#
# Total GULP energy -66968.456872 kJ/mol
# GULP energy per Si atom -5580.704739 kJ/mol
# Density = 2.793631 g / cm^3
# Si number density = 28.000039 Si / 1000 Ang^3
#
#
#
# Elastic Constant Matrix: (Units=GPa)
#
#
# Indices 1 2 3 4 5 6 
#
# 1 228.8844 112.1748 82.2204 -17.5859 25.1765 -20.2124
# 2 112.1748 224.8103 121.7338 -0.3461 -6.7185 7.0465
# 3 82.2204 121.7338 169.7985 -22.1833 19.1842 -20.3208
# 4 -17.5859 -0.3461 -22.1833 59.6985 -0.4900 -13.6302
# 5 25.1765 -6.7185 19.1842 -0.4900 61.2854 -7.7540
# 6 -20.2124 7.0465 -20.3208 -13.6302 -7.7540 46.6837
#
#
#
# Elastic Compliance Matrix: (Units=1/GPa)
#
#
# Indices 1 2 3 4 5 6 
#
# 1 0.007176 -0.004388 0.001055 0.003537 -0.003131 0.004741
# 2 -0.004388 0.011720 -0.008652 -0.006345 0.004668 -0.008512
# 3 0.001055 -0.008652 0.014230 0.007664 -0.004581 0.009433
# 4 0.003537 -0.006345 0.007664 0.023361 -0.002820 0.012178
# 5 -0.003131 0.004668 -0.004581 -0.002820 0.019315 -0.001670
# 6 0.004741 -0.008512 0.009433 0.012178 -0.001670 0.032143
#
#
# Mechanical properties :
#
#
# Convention : Reuss Voigt Hill
#
# Bulk Modulus (GPa) = 109.25405 139.52791 124.39098
# Shear Modulus (GPa) = 37.04608 54.02447 45.53528
#
# Velocity S-wave (km/s) = 3.64135 4.39731 4.03706
# Velocity P-wave (km/s) = 7.53546 8.70180 8.13955
#
# Compressibility (1/GPa) = 0.00915298
#
# Stress axis : x y z
#
# Youngs Moduli (GPa) = 139.36027 85.32692 70.27600
#
# Poissons Ratio (x) = 0.37444 -0.07412
# Poissons Ratio (y) = 0.61156 0.60805
# Poissons Ratio (z) = -0.14699 0.73828
#
# Static dielectric constant tensor:
#      x y z
#    x 1.978990 -0.105160 -0.189080 
#    y -0.105160 1.928570 -0.576140 
#    z -0.189080 -0.576140 1.489960 
# 
# From -- ./inp_files/287037.got.cif
#   From: 2010.05.17/outbox.cif.g08.bks.cpg/sg2_144_cif.got.tgz:287037.got - 2010.06.03 11:33:40.
