data_PCOD9068333
_publ_section_title
;
Structure prediction by ZEFSAII (Michael W. Deem and Ramdas Pophale) SiO2 
 PCOD9068333
Probable space group: P -1
;
_chemical_formula_sum "Si O2"
_cell_formula_units_Z 16
_cell_length_a 26.688495
_cell_length_b 8.893967
_cell_length_c 15.061559
_cell_angle_alpha 44.729713
_cell_angle_beta 161.380200
_cell_angle_gamma 140.876902
_cell_volume 714.808292
_symmetry_space_group_name_H-M "P -1"
_symmetry_group_IT_number 2
_symmetry_cell_setting 'triclinic'
loop_
_space_group_symop_operation_xyz
x,y,z
-x,-y,-z
loop_
_atom_site_type_symbol
_atom_site_label
_atom_site_fract_x
_atom_site_fract_y
_atom_site_fract_z
Si Si1 0.298170 0.328008 0.239260
Si Si2 0.958299 0.447029 0.349262
Si Si3 0.831376 0.842906 0.723913
Si Si4 0.707352 0.898834 0.855869
Si Si5 0.660073 0.437251 0.310936
Si Si6 0.315282 0.822553 0.714525
Si Si7 0.062147 0.027100 0.492786
Si Si8 0.343152 0.646101 0.450266
O O1 0.500000 0.500000 0.500000
O O2 0.298249 0.252343 0.371925
O O3 0.272579 0.139873 0.198202
O O4 0.164250 0.443023 0.946236
O O5 0.000000 0.500000 0.500000
O O6 0.157430 0.568452 0.590990
O O7 0.853134 0.156268 0.291446
O O8 0.807010 0.614087 0.723303
O O9 0.786028 0.015608 0.516843
O O10 0.000000 0.000000 0.000000
O O11 0.532341 0.707587 0.695097
O O12 0.703511 0.151647 0.751268
O O13 0.882764 0.910343 0.185579
O O14 0.652899 0.248607 0.302110
O O15 0.827544 0.698515 0.467285
O O16 0.648420 0.350569 0.429824
O O17 0.500000 0.500000 0.000000
O O18 0.500000 0.000000 0.000000
O O19 0.000000 0.000000 0.500000
#
# Coordination Sequence:
#
# PCOD9068333 Si02
#       8
#     2   2   2   2   2   2   2   2
#     4  12  26  48  76 108 148 194 247 302 371 437
#     4  12  28  48  74 110 147 196 248 301 372 441
#     4  12  27  46  74 110 150 194 246 305 366 440
#     4  11  26  49  74 108 144 197 243 313 366 442
#     4  12  28  49  75 109 145 197 244 306 371 442
#     4  12  29  50  77 108 151 195 244 308 372 443
#     4  12  27  46  76 102 150 192 248 302 369 441
#     4  11  27  48  75 108 149 189 252 304 373 441
#
# _framework density 22.383623
#
# number of rings (size 3 to 8) (size 9 to 14) (size 15 to 20)
#    0.000    0.250    5.000    2.250   12.250    1.500 
#    0.000    0.000    0.000    0.000    0.000    0.000 
#    0.000    0.000    0.000    0.000    0.000    0.000 
#
# Total GULP energy -89208.601715 kJ/mol
# GULP energy per Si atom -5575.537607 kJ/mol
# Density = 2.233268 g / cm^3
# Si number density = 22.383623 Si / 1000 Ang^3
#
#
#
# Elastic Constant Matrix: (Units=GPa)
#
#
# Indices 1 2 3 4 5 6 
#
# 1 88.2114 5.5315 -19.3242 14.0724 -11.2139 -5.0337
# 2 5.5315 110.0046 25.9199 7.4523 -4.2476 -11.8426
# 3 -19.3242 25.9199 84.0369 13.5992 5.1469 -2.8384
# 4 14.0724 7.4523 13.5992 25.6712 -6.5561 -3.5662
# 5 -11.2139 -4.2476 5.1469 -6.5561 29.4503 6.1405
# 6 -5.0337 -11.8426 -2.8384 -3.5662 6.1405 44.9082
#
#
#
# Elastic Compliance Matrix: (Units=1/GPa)
#
#
# Indices 1 2 3 4 5 6 
#
# 1 0.014364 -0.001126 0.005093 -0.009614 0.002156 0.000577
# 2 -0.001126 0.010232 -0.003427 0.000075 0.001205 0.002197
# 3 0.005093 -0.003427 0.016222 -0.011363 -0.003989 0.000336
# 4 -0.009614 0.000075 -0.011363 0.052897 0.009888 0.001072
# 5 0.002156 0.001205 -0.003989 0.009888 0.038725 -0.004203
# 6 0.000577 0.002197 0.000336 0.001072 -0.004203 0.023593
#
#
# Mechanical properties :
#
#
# Convention : Reuss Voigt Hill
#
# Bulk Modulus (GPa) = 23.86615 34.05635 28.96125
# Shear Modulus (GPa) = 29.60032 38.01431 33.80731
#
# Velocity S-wave (km/s) = 3.64044 4.12553 3.89055
# Velocity P-wave (km/s) = 5.32502 6.15964 5.75748
#
# Compressibility (1/GPa) = 0.04190035
#
# Stress axis : x y z
#
# Youngs Moduli (GPa) = 69.62053 97.72799 61.64422
#
# Poissons Ratio (x) = 0.11001 -0.31398
# Poissons Ratio (y) = 0.07837 0.21123
# Poissons Ratio (z) = -0.35460 0.33487
#
# Static dielectric constant tensor:
#      x y z
#    x 1.854120 0.016130 0.043130 
#    y 0.016130 1.695650 -0.032630 
#    z 0.043130 -0.032630 1.783620 
# 
# From -- ./inp_files/543826.got.cif
#   From: 2010.05.17/outbox.cif.g08.bks.cpg/sg2_272_cif.got.tgz:543826.got - 2010.06.03 11:33:40.
