data_PCOD9068752
_publ_section_title
;
Structure prediction by ZEFSAII (Michael W. Deem and Ramdas Pophale) SiO2 
 PCOD9068752
Probable space group: P -1
;
_chemical_formula_sum "Si O2"
_cell_formula_units_Z 10
_cell_length_a 4.910230
_cell_length_b 13.886938
_cell_length_c 8.659624
_cell_angle_alpha 137.017481
_cell_angle_beta 101.625465
_cell_angle_gamma 70.273153
_cell_volume 378.000345
_symmetry_space_group_name_H-M "P -1"
_symmetry_group_IT_number 2
_symmetry_cell_setting 'triclinic'
loop_
_space_group_symop_operation_xyz
x,y,z
-x,-y,-z
loop_
_atom_site_type_symbol
_atom_site_label
_atom_site_fract_x
_atom_site_fract_y
_atom_site_fract_z
Si Si1 0.804591 0.220457 0.348591
Si Si2 0.813572 0.912827 0.059376
Si Si3 0.585427 0.213739 0.910977
Si Si4 0.157812 0.346562 0.753036
Si Si5 0.290970 0.485292 0.615420
O O1 0.577600 0.371544 0.444455
O O2 0.938802 0.258961 0.567020
O O3 0.040400 0.165284 0.174302
O O4 0.676100 0.084072 0.205334
O O5 0.098207 0.901598 0.184989
O O6 0.609984 0.836429 0.040912
O O7 0.403652 0.245913 0.771326
O O8 0.653574 0.366505 0.140085
O O9 0.263358 0.397281 0.665121
O O10 0.000000 0.500000 0.000000
O O11 0.000000 0.500000 0.500000
#
# Coordination Sequence:
#
# PCOD9068752 Si02
#       5
#     2   2   2   2   2
#     4  11  29  53  83 117 164 213 273 329 404 479
#     4  11  30  53  82 121 163 213 268 332 403 483
#     4  12  28  52  80 123 160 212 269 331 409 474
#     4  12  27  49  80 121 163 207 270 336 404 477
#     4  12  29  53  84 119 159 219 274 333 395 481
#
# _framework density 26.454999999999998
#
# number of rings (size 3 to 8) (size 9 to 14) (size 15 to 20)
#    0.000    0.400    2.000    3.000   14.000    5.600 
#    0.000    0.000    0.000    0.000    0.000    0.000 
#    0.000    0.000    0.000    0.000    0.000    0.000 
#
# Total GULP energy -56144.767408 kJ/mol
# GULP energy per Si atom -5614.476741 kJ/mol
# Density = 2.639479 g / cm^3
# Si number density = 26.455000 Si / 1000 Ang^3
#
#
#
# Elastic Constant Matrix: (Units=GPa)
#
#
# Indices 1 2 3 4 5 6 
#
# 1 143.9973 50.3384 21.3740 9.2984 36.0422 -7.5596
# 2 50.3384 171.3881 47.2676 -4.1604 33.0461 -25.4962
# 3 21.3740 47.2676 115.0287 7.4955 39.3528 -11.2268
# 4 9.2984 -4.1604 7.4955 69.6597 -6.1013 11.9941
# 5 36.0422 33.0461 39.3528 -6.1013 38.6147 4.1384
# 6 -7.5596 -25.4962 -11.2268 11.9941 4.1384 67.8445
#
#
#
# Elastic Compliance Matrix: (Units=1/GPa)
#
#
# Indices 1 2 3 4 5 6 
#
# 1 0.010531 -0.001191 0.003582 -0.003501 -0.013308 0.002749
# 2 -0.001191 0.007854 -0.001014 -0.000209 -0.004930 0.002989
# 3 0.003582 -0.001014 0.016142 -0.004869 -0.020208 0.004783
# 4 -0.003501 -0.000209 -0.004869 0.017223 0.011670 -0.005031
# 5 -0.013308 -0.004930 -0.020208 0.011670 0.066347 -0.012790
# 6 0.002749 0.002989 0.004783 -0.005031 -0.012790 0.018630
#
#
# Mechanical properties :
#
#
# Convention : Reuss Voigt Hill
#
# Bulk Modulus (GPa) = 26.82327 74.26380 50.54353
# Shear Modulus (GPa) = 34.15309 55.98605 45.06957
#
# Velocity S-wave (km/s) = 3.59693 4.60529 4.13198
# Velocity P-wave (km/s) = 5.23562 7.51072 6.47390
#
# Compressibility (1/GPa) = 0.03728106
#
# Stress axis : x y z
#
# Youngs Moduli (GPa) = 94.96086 127.31892 61.94951
#
# Poissons Ratio (x) = 0.15161 -0.22191
# Poissons Ratio (y) = 0.11308 0.06284
# Poissons Ratio (z) = -0.34016 0.12914
#
# Static dielectric constant tensor:
#      x y z
#    x 2.222870 0.057130 -0.043900 
#    y 0.057130 2.093660 -0.008250 
#    z -0.043900 -0.008250 2.029850 
# 
# From -- ./inp_files/132695.got.cif
#   From: 2010.05.17/outbox.cif.g08.bks.cpg/sg2_67_cif.got.tgz:132695.got - 2010.06.03 11:33:40.
