data_PCOD9068059
_publ_section_title
;
Structure prediction by ZEFSAII (Michael W. Deem and Ramdas Pophale) SiO2 
 PCOD9068059
Probable space group: P -1
;
_chemical_formula_sum "Si O2"
_cell_formula_units_Z 15
_cell_length_a 12.307967
_cell_length_b 8.840824
_cell_length_c 16.364355
_cell_angle_alpha 54.014130
_cell_angle_beta 28.142587
_cell_angle_gamma 55.574199
_cell_volume 674.372215
_symmetry_space_group_name_H-M "P -1"
_symmetry_group_IT_number 2
_symmetry_cell_setting 'triclinic'
loop_
_space_group_symop_operation_xyz
x,y,z
-x,-y,-z
loop_
_atom_site_type_symbol
_atom_site_label
_atom_site_fract_x
_atom_site_fract_y
_atom_site_fract_z
Si Si1 0.157009 0.894332 0.046575
Si Si2 0.645981 0.435130 0.225711
Si Si3 0.552460 0.473834 0.093975
Si Si4 0.759047 0.686304 0.381660
Si Si5 0.049881 0.411988 0.404702
Si Si6 0.166725 0.301533 0.858566
Si Si7 0.000000 0.000000 0.500000
Si Si8 0.454664 0.109944 0.078548
O O1 0.261428 0.704876 0.991355
O O2 0.304500 0.901351 0.028566
O O3 0.196712 0.076398 0.911023
O O4 0.889292 0.871335 0.246391
O O5 0.511188 0.481482 0.216128
O O6 0.503284 0.299043 0.416434
O O7 0.666844 0.613193 0.213883
O O8 0.906878 0.361847 0.046473
O O9 0.322543 0.437290 0.209618
O O10 0.629293 0.673080 0.956575
O O11 0.781253 0.631504 0.288481
O O12 0.904535 0.531554 0.392538
O O13 0.000000 0.500000 0.500000
O O14 0.006430 0.196446 0.490338
O O15 0.741604 0.973591 0.713436
O O16 0.500000 0.000000 0.000000
#
# Coordination Sequence:
#
# PCOD9068059 Si02
#       8
#     2   2   2   2   2   2   1   2
#     4  12  25  46  71 101 147 186 239 300 357 435
#     4  11  26  47  74 100 140 191 244 298 353 434
#     4  12  23  48  74 103 149 188 227 307 376 425
#     4  12  25  45  78  99 143 194 235 298 362 437
#     4  12  25  47  76 115 148 189 245 302 380 439
#     4  11  27  50  66 105 142 192 244 296 354 423
#     4  12  28  42  72 112 148 186 246 294 364 458
#     4  12  26  46  71 109 146 191 239 302 374 436
#
# _framework density 22.242910999999999
#
# number of rings (size 3 to 8) (size 9 to 14) (size 15 to 20)
#    0.000    0.267    5.333    3.600    1.867    0.533 
#    0.000    0.000    0.000    0.000    0.000    0.000 
#    0.000    0.000    0.000    0.000    0.000    0.000 
#
# Total GULP energy -83633.907758 kJ/mol
# GULP energy per Si atom -5575.593851 kJ/mol
# Density = 2.219228 g / cm^3
# Si number density = 22.242911 Si / 1000 Ang^3
#
#
#
# Elastic Constant Matrix: (Units=GPa)
#
#
# Indices 1 2 3 4 5 6 
#
# 1 133.7824 56.2226 45.7421 -4.9191 17.8756 40.5330
# 2 56.2226 93.5231 19.9122 -9.1283 8.8706 25.2287
# 3 45.7421 19.9122 119.5100 5.5439 0.6417 19.8294
# 4 -4.9191 -9.1283 5.5439 31.2542 13.7748 -1.0763
# 5 17.8756 8.8706 0.6417 13.7748 39.2285 -2.3078
# 6 40.5330 25.2287 19.8294 -1.0763 -2.3078 38.4753
#
#
#
# Elastic Compliance Matrix: (Units=1/GPa)
#
#
# Indices 1 2 3 4 5 6 
#
# 1 0.015292 -0.003849 -0.003383 0.005255 -0.008606 -0.012212
# 2 -0.003849 0.015680 -0.000362 0.005647 -0.004129 -0.006129
# 3 -0.003383 -0.000362 0.010101 -0.003649 0.002660 -0.001347
# 4 0.005255 0.005647 -0.003649 0.043359 -0.019267 -0.007301
# 5 -0.008606 -0.004129 0.002660 -0.019267 0.037783 0.012130
# 6 -0.012212 -0.006129 -0.001347 -0.007301 0.012130 0.044092
#
#
# Mechanical properties :
#
#
# Convention : Reuss Voigt Hill
#
# Bulk Modulus (GPa) = 38.63300 65.61881 52.12591
# Shear Modulus (GPa) = 26.29849 36.78750 31.54300
#
# Velocity S-wave (km/s) = 3.44224 4.07123 3.76987
# Velocity P-wave (km/s) = 5.76238 7.18783 6.51421
#
# Compressibility (1/GPa) = 0.02588460
#
# Stress axis : x y z
#
# Youngs Moduli (GPa) = 65.39211 63.77567 98.99845
#
# Poissons Ratio (x) = 0.24550 0.33492
# Poissons Ratio (y) = 0.25172 0.03583
# Poissons Ratio (z) = 0.22123 0.02308
#
# Static dielectric constant tensor:
#      x y z
#    x 1.816080 -0.032030 -0.018170 
#    y -0.032030 1.825680 0.024540 
#    z -0.018170 0.024540 1.849790 
# 
# From -- ./inp_files/514986.got.cif
#   From: 2010.05.17/outbox.cif.g08.bks.cpg/sg2_258_cif.got.tgz:514986.got - 2010.06.03 11:33:40.
