data_PCOD9068301
_publ_section_title
;
Structure prediction by ZEFSAII (Michael W. Deem and Ramdas Pophale) SiO2 
 PCOD9068301
Probable space group: P -1
;
_chemical_formula_sum "Si O2"
_cell_formula_units_Z 14
_cell_length_a 12.312817
_cell_length_b 17.458571
_cell_length_c 9.415940
_cell_angle_alpha 68.714673
_cell_angle_beta 131.073877
_cell_angle_gamma 151.612302
_cell_volume 580.423696
_symmetry_space_group_name_H-M "P -1"
_symmetry_group_IT_number 2
_symmetry_cell_setting 'triclinic'
loop_
_space_group_symop_operation_xyz
x,y,z
-x,-y,-z
loop_
_atom_site_type_symbol
_atom_site_label
_atom_site_fract_x
_atom_site_fract_y
_atom_site_fract_z
Si Si1 0.276517 0.575715 0.132839
Si Si2 0.694565 0.894445 0.707252
Si Si3 0.462918 0.558368 0.533762
Si Si4 0.728123 0.197852 0.746010
Si Si5 0.816335 0.700516 0.044487
Si Si6 0.351778 0.878830 0.813780
Si Si7 0.667972 0.867807 0.014402
O O1 0.522889 0.667177 0.406306
O O2 0.494635 0.723757 0.086724
O O3 0.000000 0.500000 0.000000
O O4 0.025008 0.371276 0.000865
O O5 0.395420 0.780126 0.434729
O O6 0.529962 0.780942 0.792796
O O7 0.928122 0.949811 0.787983
O O8 0.975667 0.113170 0.839720
O O9 0.500000 0.500000 0.500000
O O10 0.676102 0.650630 0.799405
O O11 0.054283 0.356182 0.364183
O O12 0.404738 0.978159 0.678226
O O13 0.908672 0.230991 0.769936
O O14 0.500000 0.500000 0.000000
O O15 0.579352 0.916265 0.945186
O O16 0.500000 0.000000 0.000000
#
# Coordination Sequence:
#
# PCOD9068301 Si02
#       7
#     2   2   2   2   2   2   2
#     4  12  25  47  70 108 146 190 242 305 374 435
#     4  11  27  48  73 105 149 197 244 306 365 440
#     4  12  26  46  75 109 146 191 245 305 370 438
#     4  12  25  46  75 105 141 191 254 295 360 436
#     4  12  25  45  75 108 143 191 251 301 359 440
#     4  12  23  48  75 104 143 188 241 307 359 438
#     4  11  26  49  69 107 151 189 245 298 378 433
#
# _framework density 24.120308999999999
#
# number of rings (size 3 to 8) (size 9 to 14) (size 15 to 20)
#    0.000    0.286    5.714    2.143    4.000    2.857 
#    0.000    2.143    0.000    0.000    0.000    0.000 
#    0.000    0.000    0.000    0.000    0.000    0.000 
#
# Total GULP energy -78348.407450 kJ/mol
# GULP energy per Si atom -5596.314818 kJ/mol
# Density = 2.406541 g / cm^3
# Si number density = 24.120309 Si / 1000 Ang^3
#
#
#
# Elastic Constant Matrix: (Units=GPa)
#
#
# Indices 1 2 3 4 5 6 
#
# 1 154.7630 21.4899 43.3321 -4.9149 20.8947 8.4590
# 2 21.4899 111.4451 13.1101 -29.3971 -9.1073 32.1413
# 3 43.3321 13.1101 133.8556 -26.2381 1.3393 7.1533
# 4 -4.9149 -29.3971 -26.2381 40.5461 -9.3431 -7.3198
# 5 20.8947 -9.1073 1.3393 -9.3431 46.2702 0.8255
# 6 8.4590 32.1413 7.1533 -7.3198 0.8255 45.7363
#
#
#
# Elastic Compliance Matrix: (Units=1/GPa)
#
#
# Indices 1 2 3 4 5 6 
#
# 1 0.008287 -0.002872 -0.003205 -0.004251 -0.005080 0.000398
# 2 -0.002872 0.015729 0.002251 0.012504 0.007013 -0.009000
# 3 -0.003205 0.002251 0.009930 0.008192 0.003280 -0.001290
# 4 -0.004251 0.012504 0.008192 0.040847 0.012444 -0.002970
# 5 -0.005080 0.007013 0.003280 0.012444 0.027758 -0.003011
# 6 0.000398 -0.009000 -0.001290 -0.002970 -0.003011 0.027896
#
#
# Mechanical properties :
#
#
# Convention : Reuss Voigt Hill
#
# Bulk Modulus (GPa) = 38.03242 61.76977 49.90109
# Shear Modulus (GPa) = 34.04519 47.98595 41.01557
#
# Velocity S-wave (km/s) = 3.76103 4.46515 4.12813
# Velocity P-wave (km/s) = 5.88749 7.22828 6.59206
#
# Compressibility (1/GPa) = 0.02629336
#
# Stress axis : x y z
#
# Youngs Moduli (GPa) = 120.67412 63.57635 100.70755
#
# Poissons Ratio (x) = 0.18261 0.32276
# Poissons Ratio (y) = 0.34660 -0.22670
# Poissons Ratio (z) = 0.38676 -0.14311
#
# Static dielectric constant tensor:
#      x y z
#    x 1.984340 0.048530 -0.089160 
#    y 0.048530 2.300360 -0.168850 
#    z -0.089160 -0.168850 2.008470 
# 
# From -- ./inp_files/279271.got.cif
#   From: 2010.05.17/outbox.cif.g08.bks.cpg/sg2_140_cif.got.tgz:279271.got - 2010.06.03 11:33:40.
