data_PCOD9068716
_publ_section_title
;
Structure prediction by ZEFSAII (Michael W. Deem and Ramdas Pophale) SiO2 
 PCOD9068716
Probable space group: P -1
;
_chemical_formula_sum "Si O2"
_cell_formula_units_Z 12
_cell_length_a 14.745136
_cell_length_b 10.625928
_cell_length_c 4.752262
_cell_angle_alpha 86.834941
_cell_angle_beta 101.800590
_cell_angle_gamma 141.537948
_cell_volume 446.560836
_symmetry_space_group_name_H-M "P -1"
_symmetry_group_IT_number 2
_symmetry_cell_setting 'triclinic'
loop_
_space_group_symop_operation_xyz
x,y,z
-x,-y,-z
loop_
_atom_site_type_symbol
_atom_site_label
_atom_site_fract_x
_atom_site_fract_y
_atom_site_fract_z
Si Si1 0.987764 0.279338 0.045736
Si Si2 0.281409 0.724719 0.966386
Si Si3 0.691938 0.073230 0.570354
Si Si4 0.058155 0.934900 0.415833
Si Si5 0.638345 0.683897 0.763505
Si Si6 0.527486 0.314562 0.925488
O O1 0.838108 0.171709 0.809856
O O2 0.032528 0.206849 0.896013
O O3 0.128170 0.522153 0.058172
O O4 0.952989 0.188236 0.343211
O O5 0.253021 0.782368 0.674038
O O6 0.373783 0.905912 0.231317
O O7 0.370248 0.695511 0.931919
O O8 0.778090 0.860942 0.632518
O O9 0.000000 0.000000 0.500000
O O10 0.500000 0.500000 0.500000
O O11 0.644465 0.557228 0.944223
O O12 0.570420 0.846480 0.380907
O O13 0.595052 0.751670 0.936669
#
# Coordination Sequence:
#
# PCOD9068716 Si02
#       6
#     2   2   2   2   2   2
#     4  12  27  49  81 115 163 204 271 326 402 477
#     4  12  27  50  83 116 160 211 272 331 392 481
#     4  12  27  50  79 119 162 211 265 332 404 469
#     4  12  28  49  81 117 159 212 266 329 399 479
#     4  11  28  48  83 113 164 208 267 331 408 476
#     4  11  28  50  81 121 158 211 270 332 403 475
#
# _framework density 26.872038
#
# number of rings (size 3 to 8) (size 9 to 14) (size 15 to 20)
#    0.000    0.333    0.000    6.500   16.333    0.000 
#    0.000    0.000    0.000    0.000    0.000    0.000 
#    0.000    0.000    0.000    0.000    0.000    0.000 
#
# Total GULP energy -67249.674458 kJ/mol
# GULP energy per Si atom -5604.139538 kJ/mol
# Density = 2.681088 g / cm^3
# Si number density = 26.872038 Si / 1000 Ang^3
#
#
#
# Elastic Constant Matrix: (Units=GPa)
#
#
# Indices 1 2 3 4 5 6 
#
# 1 156.0699 84.7208 34.5588 -21.3735 -15.1187 -10.8433
# 2 84.7208 182.6865 45.1184 -17.7913 -26.5270 14.0753
# 3 34.5588 45.1184 106.7794 -24.3392 -34.9965 9.7912
# 4 -21.3735 -17.7913 -24.3392 66.1077 -1.3827 -19.2597
# 5 -15.1187 -26.5270 -34.9965 -1.3827 48.1584 8.1698
# 6 -10.8433 14.0753 9.7912 -19.2597 8.1698 67.9572
#
#
#
# Elastic Compliance Matrix: (Units=1/GPa)
#
#
# Indices 1 2 3 4 5 6 
#
# 1 0.009464 -0.004205 -0.001304 0.002406 -0.000791 0.003346
# 2 -0.004205 0.008281 -0.000959 -0.000197 0.002991 -0.002664
# 3 -0.001304 -0.000959 0.014740 0.004340 0.010262 -0.002137
# 4 0.002406 -0.000197 0.004340 0.018902 0.003540 0.004731
# 5 -0.000791 0.002991 0.010262 0.003540 0.030553 -0.004894
# 6 0.003346 -0.002664 -0.002137 0.004731 -0.004894 0.018038
#
#
# Mechanical properties :
#
#
# Convention : Reuss Voigt Hill
#
# Bulk Modulus (GPa) = 51.14976 86.03686 68.59331
# Shear Modulus (GPa) = 41.86526 55.18716 48.52621
#
# Velocity S-wave (km/s) = 3.95137 4.53670 4.25411
# Velocity P-wave (km/s) = 6.31614 7.71550 7.05062
#
# Compressibility (1/GPa) = 0.01955043
#
# Stress axis : x y z
#
# Youngs Moduli (GPa) = 105.65969 120.75616 67.84060
#
# Poissons Ratio (x) = 0.50783 0.08845
# Poissons Ratio (y) = 0.44435 0.06503
# Poissons Ratio (z) = 0.13776 0.11575
#
# Static dielectric constant tensor:
#      x y z
#    x 2.152030 -0.078980 0.046440 
#    y -0.078980 2.300380 -0.120330 
#    z 0.046440 -0.120330 2.161340 
# 
# From -- ./inp_files/33363.got.cif
#   From: 2010.05.17/outbox.cif.g08.bks.cpg/sg2_17_cif.got.tgz:33363.got - 2010.06.03 11:33:40.
