data_PCOD9068451
_publ_section_title
;
Structure prediction by ZEFSAII (Michael W. Deem and Ramdas Pophale) SiO2 
 PCOD9068451
Probable space group: P -1
;
_chemical_formula_sum "Si O2"
_cell_formula_units_Z 16
_cell_length_a 8.287753
_cell_length_b 6.908522
_cell_length_c 12.929370
_cell_angle_alpha 92.804551
_cell_angle_beta 95.279125
_cell_angle_gamma 108.022259
_cell_volume 698.633109
_symmetry_space_group_name_H-M "P -1"
_symmetry_group_IT_number 2
_symmetry_cell_setting 'triclinic'
loop_
_space_group_symop_operation_xyz
x,y,z
-x,-y,-z
loop_
_atom_site_type_symbol
_atom_site_label
_atom_site_fract_x
_atom_site_fract_y
_atom_site_fract_z
Si Si1 0.535160 0.050234 0.708446
Si Si2 0.685957 0.591530 0.059280
Si Si3 0.137171 0.046054 0.357791
Si Si4 0.691966 0.401172 0.279645
Si Si5 0.245256 0.665636 0.119519
Si Si6 0.991699 0.654694 0.764239
Si Si7 0.241272 0.192683 0.598275
Si Si8 0.161685 0.953422 0.962250
O O1 0.716248 0.052337 0.668422
O O2 0.452702 0.817472 0.737002
O O3 0.583739 0.231790 0.801514
O O4 0.385750 0.088675 0.631863
O O5 0.703766 0.503014 0.169563
O O6 0.725271 0.831707 0.068497
O O7 0.500000 0.500000 0.000000
O O8 0.785759 0.513367 0.972830
O O9 0.131664 0.224968 0.282680
O O10 0.188599 0.146338 0.475470
O O11 0.938875 0.897792 0.350751
O O12 0.675148 0.568498 0.364024
O O13 0.874318 0.368807 0.312722
O O14 0.105594 0.559449 0.194164
O O15 0.234125 0.856542 0.057768
O O16 0.108189 0.797374 0.861875
O O17 0.000000 0.000000 0.000000
#
# Coordination Sequence:
#
# PCOD9068451 Si02
#       8
#     2   2   2   2   2   2   2   2
#     4  12  27  48  74 110 147 188 243 304 359 435
#     4  12  26  40  66 102 143 193 236 294 353 425
#     4  11  26  50  80 105 144 191 242 299 374 430
#     4  12  26  45  73 106 149 187 241 301 361 426
#     4  12  26  43  68 103 145 192 241 285 362 425
#     4  12  24  46  70 108 146 194 242 301 359 437
#     4  11  26  53  76 108 143 189 241 307 365 433
#     4  12  23  43  68  97 142 190 242 293 348 427
#
# _framework density 22.901862999999999
#
# number of rings (size 3 to 8) (size 9 to 14) (size 15 to 20)
#    0.000    0.250    3.750    5.250    5.250    2.000 
#    2.250    0.000    0.000    0.000    0.000    0.000 
#    0.000    0.000    0.000    0.000    0.000    0.000 
#
# Total GULP energy -89461.184419 kJ/mol
# GULP energy per Si atom -5591.324026 kJ/mol
# Density = 2.284974 g / cm^3
# Si number density = 22.901863 Si / 1000 Ang^3
#
#
#
# Elastic Constant Matrix: (Units=GPa)
#
#
# Indices 1 2 3 4 5 6 
#
# 1 106.6121 15.3629 10.7002 0.5705 3.1681 -5.1103
# 2 15.3629 135.1178 24.0957 22.5576 5.2307 24.2897
# 3 10.7002 24.0957 70.0308 16.0908 18.3800 8.7459
# 4 0.5705 22.5576 16.0908 20.3954 -3.7079 3.3178
# 5 3.1681 5.2307 18.3800 -3.7079 40.5647 1.7635
# 6 -5.1103 24.2897 8.7459 3.3178 1.7635 35.1821
#
#
#
# Elastic Compliance Matrix: (Units=1/GPa)
#
#
# Indices 1 2 3 4 5 6 
#
# 1 0.009956 -0.001801 -0.002098 0.002997 0.000553 0.002901
# 2 -0.001801 0.010714 0.000727 -0.011725 -0.002354 -0.006616
# 3 -0.002098 0.000727 0.022543 -0.020037 -0.011805 -0.003929
# 4 0.002997 -0.011725 -0.020037 0.080068 0.017454 0.005086
# 5 0.000553 -0.002354 -0.011805 0.017454 0.031796 0.001401
# 6 0.002901 -0.006616 -0.003929 0.005086 0.001401 0.033839
#
#
# Mechanical properties :
#
#
# Convention : Reuss Voigt Hill
#
# Bulk Modulus (GPa) = 27.12296 45.78645 36.45471
# Shear Modulus (GPa) = 24.09059 36.66856 30.37957
#
# Velocity S-wave (km/s) = 3.24683 4.00574 3.64608
# Velocity P-wave (km/s) = 5.09163 6.43665 5.80324
#
# Compressibility (1/GPa) = 0.03686913
#
# Stress axis : x y z
#
# Youngs Moduli (GPa) = 100.43729 93.33631 44.36050
#
# Poissons Ratio (x) = 0.16812 0.09305
# Poissons Ratio (y) = 0.18091 -0.03225
# Poissons Ratio (z) = 0.21067 -0.06785
#
# Static dielectric constant tensor:
#      x y z
#    x 2.309440 -0.083990 -0.344270 
#    y -0.083990 1.769600 0.077330 
#    z -0.344270 0.077330 2.014810 
# 
# From -- ./inp_files/488447.got.cif
#   From: 2010.05.17/outbox.cif.g08.bks.cpg/sg2_245_cif.got.tgz:488447.got - 2010.06.03 11:33:40.
