data_PCOD9068410
_publ_section_title
;
Structure prediction by ZEFSAII (Michael W. Deem and Ramdas Pophale) SiO2 
 PCOD9068410
Probable space group: P -1
;
_chemical_formula_sum "Si O2"
_cell_formula_units_Z 14
_cell_length_a 4.964883
_cell_length_b 17.292814
_cell_length_c 8.325786
_cell_angle_alpha 126.916183
_cell_angle_beta 60.457467
_cell_angle_gamma 124.816534
_cell_volume 456.766101
_symmetry_space_group_name_H-M "P -1"
_symmetry_group_IT_number 2
_symmetry_cell_setting 'triclinic'
loop_
_space_group_symop_operation_xyz
x,y,z
-x,-y,-z
loop_
_atom_site_type_symbol
_atom_site_label
_atom_site_fract_x
_atom_site_fract_y
_atom_site_fract_z
Si Si1 0.903277 0.692636 0.915623
Si Si2 0.500000 0.000000 0.500000
Si Si3 0.660103 0.914993 0.818527
Si Si4 0.305993 0.328507 0.701445
Si Si5 0.260249 0.514920 0.796865
Si Si6 0.762195 0.888481 0.118013
Si Si7 0.717324 0.200956 0.488156
Si Si8 0.000000 0.500000 0.500000
O O1 0.535325 0.630840 0.868752
O O2 0.089494 0.626079 0.692248
O O3 0.897998 0.663625 0.070528
O O4 0.907233 0.810175 0.051526
O O5 0.408873 0.892779 0.273146
O O6 0.512082 0.918022 0.538530
O O7 0.363946 0.821015 0.703641
O O8 0.764920 0.883556 0.919597
O O9 0.030430 0.988361 0.724605
O O10 0.500000 0.000000 0.000000
O O11 0.464400 0.441273 0.703443
O O12 0.559063 0.286677 0.661611
O O13 0.070804 0.248242 0.535735
O O14 0.124324 0.477074 0.614996
O O15 0.000000 0.500000 0.000000
#
# Coordination Sequence:
#
# PCOD9068410 Si02
#       8
#     2   1   2   2   2   2   2   1
#     4  12  28  53  80 119 165 219 282 349 425 502
#     4  12  24  48  78 116 158 202 284 324 410 504
#     4  11  26  50  74 114 169 211 273 344 410 512
#     4  12  28  49  83 117 164 223 275 345 425 498
#     4  12  28  54  82 120 167 217 287 354 420 512
#     4  11  27  49  79 116 164 219 271 346 422 499
#     4  12  28  46  81 120 161 219 272 340 417 499
#     4  12  30  50  84 116 164 218 288 348 428 494
#
# _framework density 30.650261
#
# number of rings (size 3 to 8) (size 9 to 14) (size 15 to 20)
#    0.000    0.286    4.286    2.571    8.000    3.429 
#    0.000    0.000    0.000    0.000    0.000    0.000 
#    0.000    0.000    0.000    0.000    0.000    0.000 
#
# Total GULP energy -77986.194457 kJ/mol
# GULP energy per Si atom -5570.442461 kJ/mol
# Density = 3.058050 g / cm^3
# Si number density = 30.650261 Si / 1000 Ang^3
#
#
#
# Elastic Constant Matrix: (Units=GPa)
#
#
# Indices 1 2 3 4 5 6 
#
# 1 164.6802 22.1090 28.6922 0.8121 9.3728 -39.2765
# 2 22.1090 110.6053 30.2505 19.5101 -14.6316 -48.0601
# 3 28.6922 30.2505 194.0024 5.5971 19.1351 -15.1573
# 4 0.8121 19.5101 5.5971 36.2767 -12.5336 1.1034
# 5 9.3728 -14.6316 19.1351 -12.5336 72.4447 16.3010
# 6 -39.2765 -48.0601 -15.1573 1.1034 16.3010 62.7817
#
#
#
# Elastic Compliance Matrix: (Units=1/GPa)
#
#
# Indices 1 2 3 4 5 6 
#
# 1 0.007636 0.001404 -0.000574 -0.001823 -0.002295 0.006341
# 2 0.001404 0.016654 -0.001326 -0.009631 -0.001239 0.013797
# 3 -0.000574 -0.001326 0.005706 -0.000850 -0.001967 0.000529
# 4 -0.001823 -0.009631 -0.000850 0.035756 0.007227 -0.011223
# 5 -0.002295 -0.001239 -0.001967 0.007227 0.017303 -0.007479
# 6 0.006341 0.013797 0.000529 -0.011223 -0.007479 0.032724
#
#
# Mechanical properties :
#
#
# Convention : Reuss Voigt Hill
#
# Bulk Modulus (GPa) = 34.47911 70.15458 52.31685
# Shear Modulus (GPa) = 39.54496 60.18304 49.86400
#
# Velocity S-wave (km/s) = 3.59583 4.43599 4.03782
# Velocity P-wave (km/s) = 5.33982 7.01255 6.23255
#
# Compressibility (1/GPa) = 0.02900307
#
# Stress axis : x y z
#
# Youngs Moduli (GPa) = 130.96071 60.04744 175.25097
#
# Poissons Ratio (x) = -0.08431 0.10056
# Poissons Ratio (y) = -0.18387 0.23245
# Poissons Ratio (z) = 0.07515 0.07965
#
# Static dielectric constant tensor:
#      x y z
#    x 1.642620 -0.285970 0.188090 
#    y -0.285970 2.436830 -0.191880 
#    z 0.188090 -0.191880 2.563610 
# 
# From -- ./inp_files/139538.got.cif
#   From: 2010.05.17/outbox.cif.g08.bks.cpg/sg2_70_cif.got.tgz:139538.got - 2010.06.03 11:33:40.
