data_PCOD9068163
_publ_section_title
;
Structure prediction by ZEFSAII (Michael W. Deem and Ramdas Pophale) SiO2 
 PCOD9068163
Probable space group: P -1
;
_chemical_formula_sum "Si O2"
_cell_formula_units_Z 16
_cell_length_a 15.114652
_cell_length_b 9.071723
_cell_length_c 8.121823
_cell_angle_alpha 73.633022
_cell_angle_beta 69.903104
_cell_angle_gamma 38.995158
_cell_volume 657.886011
_symmetry_space_group_name_H-M "P -1"
_symmetry_group_IT_number 2
_symmetry_cell_setting 'triclinic'
loop_
_space_group_symop_operation_xyz
x,y,z
-x,-y,-z
loop_
_atom_site_type_symbol
_atom_site_label
_atom_site_fract_x
_atom_site_fract_y
_atom_site_fract_z
Si Si1 0.070461 0.438816 0.705111
Si Si2 0.787184 0.755643 0.969969
Si Si3 0.279750 0.942134 0.594745
Si Si4 0.886955 0.270664 0.432275
Si Si5 0.366467 0.788443 0.220854
Si Si6 0.425233 0.373430 0.314223
Si Si7 0.391434 0.299485 0.015880
Si Si8 0.846758 0.204139 0.115002
O O1 0.052476 0.635365 0.597383
O O2 0.918179 0.559807 0.823262
O O3 0.162434 0.221333 0.592456
O O4 0.162727 0.329675 0.849886
O O5 0.657523 0.803731 0.988061
O O6 0.743479 0.986786 0.897333
O O7 0.301637 0.855073 0.423343
O O8 0.435104 0.807298 0.602569
O O9 0.223665 0.871480 0.766010
O O10 0.728520 0.461849 0.553701
O O11 0.864299 0.276219 0.250536
O O12 0.000000 0.000000 0.500000
O O13 0.416107 0.561776 0.201345
O O14 0.501690 0.736356 0.157030
O O15 0.444175 0.239304 0.188705
O O16 0.249970 0.579729 0.014616
O O17 0.000000 0.000000 0.000000
#
# Coordination Sequence:
#
# PCOD9068163 Si02
#       8
#     2   2   2   2   2   2   2   2
#     4  11  27  47  73 102 145 189 238 296 363 426
#     4  11  26  48  70 103 143 189 244 292 359 429
#     4  12  27  46  73 108 145 187 239 300 361 421
#     4  12  26  49  74 108 143 186 242 300 357 429
#     4  12  25  46  74 104 146 184 241 300 353 429
#     4  12  26  47  75 105 144 189 242 297 361 424
#     4  12  25  46  72 103 144 191 242 291 360 428
#     4  12  25  46  74 105 147 187 239 293 356 432
#
# _framework density 24.320322000000001
#
# number of rings (size 3 to 8) (size 9 to 14) (size 15 to 20)
#    0.000    0.250    3.750    4.875    5.250    1.000 
#    0.000    0.000    0.000    0.000    0.000    0.000 
#    0.000    0.000    0.000    0.000    0.000    0.000 
#
# Total GULP energy -89731.909010 kJ/mol
# GULP energy per Si atom -5608.244313 kJ/mol
# Density = 2.426497 g / cm^3
# Si number density = 24.320322 Si / 1000 Ang^3
#
#
#
# Elastic Constant Matrix: (Units=GPa)
#
#
# Indices 1 2 3 4 5 6 
#
# 1 108.8738 16.3515 32.0388 15.5660 -5.6934 0.6246
# 2 16.3515 102.4278 12.0791 11.3542 -2.6850 4.0866
# 3 32.0388 12.0791 79.9350 23.1516 0.1441 -2.1537
# 4 15.5660 11.3542 23.1516 48.6499 -7.9738 -4.1431
# 5 -5.6934 -2.6850 0.1441 -7.9738 39.3217 4.7190
# 6 0.6246 4.0866 -2.1537 -4.1431 4.7190 40.6199
#
#
#
# Elastic Compliance Matrix: (Units=1/GPa)
#
#
# Indices 1 2 3 4 5 6 
#
# 1 0.010707 -0.001073 -0.003799 -0.001198 0.001312 -0.000533
# 2 -0.001073 0.010269 -0.000634 -0.001805 0.000335 -0.001273
# 3 -0.003799 -0.000634 0.016048 -0.006563 -0.002048 0.000542
# 4 -0.001198 -0.001805 -0.006563 0.025407 0.004651 0.001903
# 5 0.001312 0.000335 -0.002048 0.004651 0.026933 -0.002817
# 6 -0.000533 -0.001273 0.000542 0.001903 -0.002817 0.025305
#
#
# Mechanical properties :
#
#
# Convention : Reuss Voigt Hill
#
# Bulk Modulus (GPa) = 38.44386 45.79726 42.12056
# Shear Modulus (GPa) = 37.21612 41.10278 39.15945
#
# Velocity S-wave (km/s) = 3.91608 4.11549 4.01702
# Velocity P-wave (km/s) = 6.02405 6.43854 6.23474
#
# Compressibility (1/GPa) = 0.02601196
#
# Stress axis : x y z
#
# Youngs Moduli (GPa) = 93.39701 97.38364 62.31391
#
# Poissons Ratio (x) = 0.10447 0.23674
# Poissons Ratio (y) = 0.10020 0.03949
# Poissons Ratio (z) = 0.35483 0.06172
#
# Static dielectric constant tensor:
#      x y z
#    x 1.926450 -0.010820 -0.011890 
#    y -0.010820 1.948820 -0.016170 
#    z -0.011890 -0.016170 1.888180 
# 
# From -- ./inp_files/206861.got.cif
#   From: 2010.05.17/outbox.cif.g08.bks.cpg/sg2_104_cif.got.tgz:206861.got - 2010.06.03 11:33:40.
