data_PCOD9068989
_publ_section_title
;
Structure prediction by ZEFSAII (Michael W. Deem and Ramdas Pophale) SiO2 
 PCOD9068989
Probable space group: P -1
;
_chemical_formula_sum "Si O2"
_cell_formula_units_Z 14
_cell_length_a 23.234079
_cell_length_b 8.024732
_cell_length_c 5.983387
_cell_angle_alpha 67.194634
_cell_angle_beta 124.914175
_cell_angle_gamma 140.579782
_cell_volume 577.700264
_symmetry_space_group_name_H-M "P -1"
_symmetry_group_IT_number 2
_symmetry_cell_setting 'triclinic'
loop_
_space_group_symop_operation_xyz
x,y,z
-x,-y,-z
loop_
_atom_site_type_symbol
_atom_site_label
_atom_site_fract_x
_atom_site_fract_y
_atom_site_fract_z
Si Si1 0.949335 0.880826 0.697842
Si Si2 0.388968 0.342502 0.932588
Si Si3 0.814112 0.915101 0.594291
Si Si4 0.545873 0.230802 0.813081
Si Si5 0.831229 0.342324 0.538904
Si Si6 0.241902 0.495183 0.049332
Si Si7 0.330401 0.924586 0.324524
O O1 0.866492 0.890966 0.531319
O O2 0.908492 0.596370 0.740124
O O3 0.000000 0.000000 0.500000
O O4 0.000000 0.000000 0.000000
O O5 0.307450 0.287813 0.621217
O O6 0.500000 0.500000 0.000000
O O7 0.415753 0.521273 0.104253
O O8 0.326982 0.058205 0.044808
O O9 0.817364 0.801489 0.886906
O O10 0.861550 0.202776 0.586338
O O11 0.645229 0.329390 0.879474
O O12 0.449997 0.104473 0.515135
O O13 0.500000 0.000000 0.000000
O O14 0.723420 0.107148 0.554053
O O15 0.811661 0.455789 0.246030
O O16 0.265526 0.627362 0.272648
#
# Coordination Sequence:
#
# PCOD9068989 Si02
#       7
#     2   2   2   2   2   2   2
#     4  12  30  56  86 121 159 203 271 348 420 499
#     4  12  24  42  68 112 158 205 269 314 386 478
#     4  12  26  50  82 115 155 216 257 332 409 474
#     4  12  22  37  62 100 155 214 262 320 381 451
#     4  12  26  50  79 114 152 199 265 328 408 490
#     4  12  23  46  70 107 160 203 269 323 385 477
#     4  12  23  42  69 103 155 210 263 326 384 466
#
# _framework density 24.234020000000001
#
# number of rings (size 3 to 8) (size 9 to 14) (size 15 to 20)
#    0.000    0.000    4.286    6.857    0.000    2.286 
#    0.000    0.000    0.000    0.000    0.000    0.000 
#    0.000    0.000    0.000    0.000    0.000    0.000 
#
# Total GULP energy -78236.641636 kJ/mol
# GULP energy per Si atom -5588.331545 kJ/mol
# Density = 2.417886 g / cm^3
# Si number density = 24.234020 Si / 1000 Ang^3
#
#
#
# Elastic Constant Matrix: (Units=GPa)
#
#
# Indices 1 2 3 4 5 6 
#
# 1 144.4094 48.8119 31.3901 -14.3539 -4.5314 3.9966
# 2 48.8119 109.3923 37.8785 -7.7100 0.4986 -15.2062
# 3 31.3901 37.8785 118.0128 -12.3829 5.3747 -8.2843
# 4 -14.3539 -7.7100 -12.3829 52.5116 -6.4398 -7.9946
# 5 -4.5314 0.4986 5.3747 -6.4398 24.7923 -6.7376
# 6 3.9966 -15.2062 -8.2843 -7.9946 -6.7376 45.9323
#
#
#
# Elastic Compliance Matrix: (Units=1/GPa)
#
#
# Indices 1 2 3 4 5 6 
#
# 1 0.008647 -0.003569 -0.001190 0.001545 0.001875 -0.001605
# 2 -0.003569 0.012304 -0.002649 0.000984 0.001081 0.004236
# 3 -0.001190 -0.002649 0.009956 0.001597 -0.001619 0.001063
# 4 0.001545 0.000984 0.001597 0.021644 0.006970 0.005269
# 5 0.001875 0.001081 -0.001619 0.006970 0.044911 0.007704
# 6 -0.001605 0.004236 0.001063 0.005269 0.007704 0.025552
#
#
# Mechanical properties :
#
#
# Convention : Reuss Voigt Hill
#
# Bulk Modulus (GPa) = 62.14463 67.55283 64.84873
# Shear Modulus (GPa) = 34.91784 41.56284 38.24034
#
# Velocity S-wave (km/s) = 3.79998 4.14582 3.97667
# Velocity P-wave (km/s) = 6.70465 7.13112 6.92117
#
# Compressibility (1/GPa) = 0.01609150
#
# Stress axis : x y z
#
# Youngs Moduli (GPa) = 115.65301 81.27301 100.43855
#
# Poissons Ratio (x) = 0.29004 0.11956
# Poissons Ratio (y) = 0.41273 0.26603
# Poissons Ratio (z) = 0.13768 0.21527
#
# Static dielectric constant tensor:
#      x y z
#    x 2.056480 0.051650 -0.026890 
#    y 0.051650 1.943270 0.023130 
#    z -0.026890 0.023130 2.333040 
# 
# From -- ./inp_files/116751.got.cif
#   From: 2010.05.17/outbox.cif.g08.bks.cpg/sg2_59_cif.got.tgz:116751.got - 2010.06.03 11:33:40.
