data_PCOD9068078
_publ_section_title
;
Structure prediction by ZEFSAII (Michael W. Deem and Ramdas Pophale) SiO2 
 PCOD9068078
Probable space group: P -1
;
_chemical_formula_sum "Si O2"
_cell_formula_units_Z 14
_cell_length_a 5.049258
_cell_length_b 16.646255
_cell_length_c 16.649049
_cell_angle_alpha 33.024811
_cell_angle_beta 131.015784
_cell_angle_gamma 120.101958
_cell_volume 571.400902
_symmetry_space_group_name_H-M "P -1"
_symmetry_group_IT_number 2
_symmetry_cell_setting 'triclinic'
loop_
_space_group_symop_operation_xyz
x,y,z
-x,-y,-z
loop_
_atom_site_type_symbol
_atom_site_label
_atom_site_fract_x
_atom_site_fract_y
_atom_site_fract_z
Si Si1 0.845718 0.303356 0.055819
Si Si2 0.360625 0.028994 0.357388
Si Si3 0.553622 0.150149 0.766833
Si Si4 0.879632 0.400527 0.158804
Si Si5 0.788335 0.854329 0.451184
Si Si6 0.679959 0.603940 0.386824
Si Si7 0.346471 0.194551 0.928099
O O1 0.899382 0.305445 0.160535
O O2 0.180195 0.198130 0.173654
O O3 0.500615 0.238739 0.007196
O O4 0.849110 0.476020 0.890612
O O5 0.500000 0.000000 0.500000
O O6 0.637840 0.966548 0.397636
O O7 0.037773 0.931239 0.375906
O O8 0.524183 0.178949 0.641829
O O9 0.251431 0.257572 0.660364
O O10 0.923426 0.198783 0.832771
O O11 0.536053 0.977329 0.924949
O O12 0.983549 0.287176 0.345957
O O13 0.500000 0.500000 0.000000
O O14 0.500000 0.500000 0.500000
O O15 0.507154 0.691290 0.201014
O O16 0.000000 0.500000 0.500000
#
# Coordination Sequence:
#
# PCOD9068078 Si02
#       7
#     2   2   2   2   2   2   2
#     4  11  26  47  74 113 151 206 255 322 392 463
#     4  12  25  48  77 110 152 201 261 318 385 455
#     4  11  27  50  79 116 158 210 261 321 394 468
#     4  11  27  47  75 110 158 202 257 323 400 459
#     4  12  28  47  79 115 154 201 260 325 382 469
#     4  12  27  50  76 111 154 205 262 320 383 465
#     4  11  26  50  79 112 161 204 265 320 390 465
#
# _framework density 24.501183999999999
#
# number of rings (size 3 to 8) (size 9 to 14) (size 15 to 20)
#    0.000    0.571    4.286    1.714    8.000    4.571 
#    0.000    0.000    0.000    0.000    0.000    0.000 
#    0.000    0.000    0.000    0.000    0.000    0.000 
#
# Total GULP energy -78296.388768 kJ/mol
# GULP energy per Si atom -5592.599198 kJ/mol
# Density = 2.444542 g / cm^3
# Si number density = 24.501184 Si / 1000 Ang^3
#
#
#
# Elastic Constant Matrix: (Units=GPa)
#
#
# Indices 1 2 3 4 5 6 
#
# 1 93.5663 29.8647 44.1156 -16.0074 9.5924 -8.7830
# 2 29.8647 155.6245 48.7536 -3.0202 16.0593 -2.9038
# 3 44.1156 48.7536 167.5594 -17.6901 0.4564 -9.1264
# 4 -16.0074 -3.0202 -17.6901 35.8564 -4.0502 1.7827
# 5 9.5924 16.0593 0.4564 -4.0502 35.2060 -9.5346
# 6 -8.7830 -2.9038 -9.1264 1.7827 -9.5346 45.9839
#
#
#
# Elastic Compliance Matrix: (Units=1/GPa)
#
#
# Indices 1 2 3 4 5 6 
#
# 1 0.013447 -0.001444 -0.002587 0.004300 -0.002109 0.001360
# 2 -0.001444 0.007652 -0.002026 -0.001348 -0.003459 -0.000860
# 3 -0.002587 -0.002026 0.007573 0.002594 0.002162 0.001229
# 4 0.004300 -0.001348 0.002594 0.031302 0.003200 0.000701
# 5 -0.002109 -0.003459 0.002162 0.003200 0.032644 0.006453
# 6 0.001360 -0.000860 0.001229 0.000701 0.006453 0.023507
#
#
# Mechanical properties :
#
#
# Convention : Reuss Voigt Hill
#
# Bulk Modulus (GPa) = 60.38577 73.57976 66.98276
# Shear Modulus (GPa) = 37.38067 43.01033 40.19550
#
# Velocity S-wave (km/s) = 3.91022 4.19434 4.05477
# Velocity P-wave (km/s) = 6.71461 7.31799 7.02278
#
# Compressibility (1/GPa) = 0.01656019
#
# Stress axis : x y z
#
# Youngs Moduli (GPa) = 74.36329 130.68064 132.03983
#
# Poissons Ratio (x) = 0.18868 0.34154
# Poissons Ratio (y) = 0.10737 0.26752
# Poissons Ratio (z) = 0.19235 0.26476
#
# Static dielectric constant tensor:
#      x y z
#    x 2.027160 0.071020 -0.006460 
#    y 0.071020 2.047050 0.069190 
#    z -0.006460 0.069190 1.984150 
# 
# From -- ./inp_files/550538.got.cif
#   From: 2010.05.17/outbox.cif.g08.bks.cpg/sg2_276_cif.got.tgz:550538.got - 2010.06.03 11:33:40.
