data_PCOD9068349
_publ_section_title
;
Structure prediction by ZEFSAII (Michael W. Deem and Ramdas Pophale) SiO2 
 PCOD9068349
Probable space group: P -1
;
_chemical_formula_sum "Si O2"
_cell_formula_units_Z 14
_cell_length_a 8.952146
_cell_length_b 6.972297
_cell_length_c 19.550786
_cell_angle_alpha 65.645546
_cell_angle_beta 140.778335
_cell_angle_gamma 126.858698
_cell_volume 614.079349
_symmetry_space_group_name_H-M "P -1"
_symmetry_group_IT_number 2
_symmetry_cell_setting 'triclinic'
loop_
_space_group_symop_operation_xyz
x,y,z
-x,-y,-z
loop_
_atom_site_type_symbol
_atom_site_label
_atom_site_fract_x
_atom_site_fract_y
_atom_site_fract_z
Si Si1 0.910773 0.625227 0.326899
Si Si2 0.807649 0.927394 0.721246
Si Si3 0.492795 0.892444 0.739088
Si Si4 0.813077 0.861010 0.389885
Si Si5 0.945938 0.226121 0.942134
Si Si6 0.218615 0.779837 0.960541
Si Si7 0.562717 0.435257 0.458254
O O1 0.621920 0.388926 0.245676
O O2 0.897834 0.760009 0.370908
O O3 0.152217 0.564119 0.436453
O O4 0.988051 0.797711 0.264049
O O5 0.551324 0.899983 0.678057
O O6 0.679944 0.809702 0.620513
O O7 0.971094 0.813811 0.835675
O O8 0.275892 0.946508 0.691018
O O9 0.757059 0.125967 0.824314
O O10 0.583709 0.626067 0.380786
O O11 0.000000 0.000000 0.500000
O O12 0.161717 0.506909 0.965797
O O13 0.799100 0.213073 0.964121
O O14 0.000000 0.000000 0.000000
O O15 0.500000 0.000000 0.000000
O O16 0.500000 0.500000 0.500000
#
# Coordination Sequence:
#
# PCOD9068349 Si02
#       7
#     2   2   2   2   2   2   2
#     4  12  27  44  71 107 145 191 238 295 360 434
#     4  12  26  46  70 105 145 186 242 298 359 433
#     4  12  26  46  73 103 145 192 239 298 362 432
#     4  12  23  43  70 100 144 190 240 290 356 424
#     4  11  26  49  76 106 141 189 245 303 363 427
#     4  11  28  48  76 107 146 186 243 306 365 437
#     4  12  24  45  71 103 147 189 239 293 356 427
#
# _framework density 22.798355999999998
#
# number of rings (size 3 to 8) (size 9 to 14) (size 15 to 20)
#    0.000    0.286    4.286    4.286    4.000    1.714 
#    0.000    0.000    0.000    0.000    0.000    0.000 
#    0.000    0.000    0.000    0.000    0.000    0.000 
#
# Total GULP energy -78037.964814 kJ/mol
# GULP energy per Si atom -5574.140344 kJ/mol
# Density = 2.274647 g / cm^3
# Si number density = 22.798356 Si / 1000 Ang^3
#
#
#
# Elastic Constant Matrix: (Units=GPa)
#
#
# Indices 1 2 3 4 5 6 
#
# 1 112.7301 60.4022 2.9208 6.3331 -3.8492 -6.3891
# 2 60.4022 180.0965 16.5731 16.4879 0.9187 9.8824
# 3 2.9208 16.5731 35.8735 2.2037 -4.1639 -16.6838
# 4 6.3331 16.4879 2.2037 37.3626 -1.3436 -0.4403
# 5 -3.8492 0.9187 -4.1639 -1.3436 23.5615 -3.2420
# 6 -6.3891 9.8824 -16.6838 -0.4403 -3.2420 56.4509
#
#
#
# Elastic Compliance Matrix: (Units=1/GPa)
#
#
# Indices 1 2 3 4 5 6 
#
# 1 0.011341 -0.004232 0.002776 -0.000078 0.002918 0.003012
# 2 -0.004232 0.007882 -0.005069 -0.002594 -0.002527 -0.003522
# 3 0.002776 -0.005069 0.036890 0.000060 0.008910 0.012616
# 4 -0.000078 -0.002594 0.000060 0.027993 0.001803 0.000785
# 5 0.002918 -0.002527 0.008910 0.001803 0.045525 0.006035
# 6 0.003012 -0.003522 0.012616 0.000785 0.006035 0.022753
#
#
# Mechanical properties :
#
#
# Convention : Reuss Voigt Hill
#
# Bulk Modulus (GPa) = 23.22187 54.27691 38.74939
# Shear Modulus (GPa) = 27.81033 40.06194 33.93614
#
# Velocity S-wave (km/s) = 3.49641 4.19648 3.86234
# Velocity P-wave (km/s) = 5.14856 6.88038 6.07649
#
# Compressibility (1/GPa) = 0.04306286
#
# Stress axis : x y z
#
# Youngs Moduli (GPa) = 88.17386 126.86869 27.10796
#
# Poissons Ratio (x) = 0.53693 -0.07526
# Poissons Ratio (y) = 0.37317 0.13741
# Poissons Ratio (z) = -0.24478 0.64309
#
# Static dielectric constant tensor:
#      x y z
#    x 1.167580 0.206140 -1.492510 
#    y 0.206140 2.194000 0.498910 
#    z -1.492510 0.498910 -1.883290 
# 
# From -- ./inp_files/106182.got.cif
#   From: 2010.05.17/outbox.cif.g08.bks.cpg/sg2_54_cif.got.tgz:106182.got - 2010.06.03 11:33:40.
