data_PCOD9068783
_publ_section_title
;
Structure prediction by ZEFSAII (Michael W. Deem and Ramdas Pophale) SiO2 
 PCOD9068783
Probable space group: P -1
;
_chemical_formula_sum "Si O2"
_cell_formula_units_Z 12
_cell_length_a 6.327096
_cell_length_b 15.619808
_cell_length_c 9.695050
_cell_angle_alpha 42.461075
_cell_angle_beta 113.326170
_cell_angle_gamma 124.833158
_cell_volume 530.372611
_symmetry_space_group_name_H-M "P -1"
_symmetry_group_IT_number 2
_symmetry_cell_setting 'triclinic'
loop_
_space_group_symop_operation_xyz
x,y,z
-x,-y,-z
loop_
_atom_site_type_symbol
_atom_site_label
_atom_site_fract_x
_atom_site_fract_y
_atom_site_fract_z
Si Si1 0.404783 0.776283 0.006612
Si Si2 0.617272 0.747877 0.498452
Si Si3 0.111144 0.249317 0.153508
Si Si4 0.654703 0.571571 0.268501
Si Si5 0.956490 0.974517 0.827241
Si Si6 0.818754 0.212021 0.765678
O O1 0.477572 0.646468 0.174510
O O2 0.323409 0.793975 0.118516
O O3 0.158999 0.750767 0.880911
O O4 0.658129 0.912969 0.860260
O O5 0.716208 0.734020 0.690460
O O6 0.490495 0.596097 0.571658
O O7 0.393923 0.799685 0.384696
O O8 0.861592 0.861338 0.342644
O O9 0.045706 0.104263 0.224953
O O10 0.251575 0.371756 0.930310
O O11 0.917344 0.641409 0.342817
O O12 0.084691 0.907848 0.048453
#
# Coordination Sequence:
#
# PCOD9068783 Si02
#       6
#     2   2   2   2   2   2
#     4   8  18  40  52  70 112 148 174 208 268 314
#     4  12  20  32  58  88 104 134 184 220 266 312
#     4   9  20  38  57  75 109 145 173 219 264 314
#     4   9  20  38  57  75 109 145 173 219 264 314
#     4   9  20  38  57  75 109 145 173 219 264 314
#     4   9  20  38  57  75 109 145 173 219 264 314
#
# _framework density 22.625602000000001
#
# number of rings (size 3 to 8) (size 9 to 14) (size 15 to 20)
#    0.000    3.333    0.000    2.000    0.000    2.667 
#    0.000   20.000    0.000    0.000    0.000    0.000 
#    0.000    0.000    0.000    0.000    0.000    0.000 
#
# Total GULP energy -67120.294029 kJ/mol
# GULP energy per Si atom -5593.357836 kJ/mol
# Density = 2.257411 g / cm^3
# Si number density = 22.625602 Si / 1000 Ang^3
#
#
#
# Elastic Constant Matrix: (Units=GPa)
#
#
# Indices 1 2 3 4 5 6 
#
# 1 125.9157 40.9465 37.9506 -2.0004 15.3076 27.5737
# 2 40.9465 91.6351 54.3931 -5.1702 1.3581 24.3920
# 3 37.9506 54.3931 90.1966 -5.2134 -4.5541 23.9750
# 4 -2.0004 -5.1702 -5.2134 69.4843 16.5525 9.7738
# 5 15.3076 1.3581 -4.5541 16.5525 23.8508 4.1707
# 6 27.5737 24.3920 23.9750 9.7738 4.1707 25.8678
#
#
#
# Elastic Compliance Matrix: (Units=1/GPa)
#
#
# Indices 1 2 3 4 5 6 
#
# 1 0.012300 -0.001342 -0.001962 0.003647 -0.008983 -0.009957
# 2 -0.001342 0.019244 -0.008458 0.002567 -0.001964 -0.009529
# 3 -0.001962 -0.008458 0.019992 0.000549 0.006887 -0.009781
# 4 0.003647 0.002567 0.000549 0.019753 -0.013988 -0.012026
# 5 -0.008983 -0.001964 0.006887 -0.013988 0.058675 0.000869
# 6 -0.009957 -0.009529 -0.009781 -0.012026 0.000869 0.071726
#
#
# Mechanical properties :
#
#
# Convention : Reuss Voigt Hill
#
# Bulk Modulus (GPa) = 35.69972 63.81419 49.75696
# Shear Modulus (GPa) = 21.31737 35.47106 28.39421
#
# Velocity S-wave (km/s) = 3.07282 3.96377 3.54638
# Velocity P-wave (km/s) = 5.32939 7.01529 6.22963
#
# Compressibility (1/GPa) = 0.02801142
#
# Stress axis : x y z
#
# Youngs Moduli (GPa) = 81.30063 51.96532 50.01950
#
# Poissons Ratio (x) = 0.06975 0.09813
# Poissons Ratio (y) = 0.10913 0.42307
# Poissons Ratio (z) = 0.15950 0.43952
#
# Static dielectric constant tensor:
#      x y z
#    x 1.858230 -0.028430 0.013370 
#    y -0.028430 1.866290 0.000190 
#    z 0.013370 0.000190 1.847270 
# 
# From -- ./inp_files/61534.got.cif
#   From: 2010.05.17/outbox.cif.g08.bks.cpg/sg2_31_cif.got.tgz:61534.got - 2010.06.03 11:33:40.
