data_PCOD9068969
_publ_section_title
;
Structure prediction by ZEFSAII (Michael W. Deem and Ramdas Pophale) SiO2 
 PCOD9068969
Probable space group: P -1
;
_chemical_formula_sum "Si O2"
_cell_formula_units_Z 16
_cell_length_a 12.612546
_cell_length_b 8.524801
_cell_length_c 15.222307
_cell_angle_alpha 141.722167
_cell_angle_beta 49.596605
_cell_angle_gamma 132.861368
_cell_volume 719.306627
_symmetry_space_group_name_H-M "P -1"
_symmetry_group_IT_number 2
_symmetry_cell_setting 'triclinic'
loop_
_space_group_symop_operation_xyz
x,y,z
-x,-y,-z
loop_
_atom_site_type_symbol
_atom_site_label
_atom_site_fract_x
_atom_site_fract_y
_atom_site_fract_z
Si Si1 0.081884 0.953008 0.647633
Si Si2 0.909275 0.681562 0.886317
Si Si3 0.777243 0.703644 0.780522
Si Si4 0.378255 0.870794 0.934029
Si Si5 0.580409 0.285444 0.353123
Si Si6 0.915849 0.704953 0.370698
Si Si7 0.871340 0.593027 0.065487
Si Si8 0.602500 0.125513 0.583095
O O1 0.076698 0.185557 0.684980
O O2 0.094151 0.091431 0.796958
O O3 0.230981 0.894103 0.519393
O O4 0.915210 0.730141 0.651367
O O5 0.807474 0.659390 0.846881
O O6 0.999552 0.489341 0.729571
O O7 0.846477 0.549040 0.956053
O O8 0.000000 0.000000 0.000000
O O9 0.637661 0.445130 0.711373
O O10 0.736265 0.971260 0.922519
O O11 0.425813 0.851767 0.799835
O O12 0.283941 0.562724 0.873086
O O13 0.500000 0.000000 0.000000
O O14 0.500000 0.500000 0.500000
O O15 0.747618 0.488329 0.376853
O O16 0.493350 0.041116 0.357505
O O17 0.000000 0.000000 0.500000
O O18 0.000000 0.500000 0.000000
O O19 0.500000 0.000000 0.500000
#
# Coordination Sequence:
#
# PCOD9068969 Si02
#       8
#     2   2   2   2   2   2   2   2
#     4  12  24  50  75 105 147 195 260 303 371 466
#     4  12  24  43  75 112 149 185 246 324 377 434
#     4  12  28  48  74 113 150 193 262 315 383 453
#     4  12  28  49  79 109 150 206 252 314 384 465
#     4  12  27  51  75 109 158 195 261 304 383 471
#     4  12  26  44  79 106 140 203 253 304 369 458
#     4  12  21  46  75 106 143 190 249 305 374 453
#     4  12  31  49  72 109 158 204 245 322 394 448
#
# _framework density 22.243642999999999
#
# number of rings (size 3 to 8) (size 9 to 14) (size 15 to 20)
#    0.000    0.000    6.250    1.875    8.750    1.500 
#    0.000    0.000    0.000    0.000    0.000    0.000 
#    0.000    0.000    0.000    0.000    0.000    0.000 
#
# Total GULP energy -89219.784545 kJ/mol
# GULP energy per Si atom -5576.236534 kJ/mol
# Density = 2.219302 g / cm^3
# Si number density = 22.243643 Si / 1000 Ang^3
#
#
#
# Elastic Constant Matrix: (Units=GPa)
#
#
# Indices 1 2 3 4 5 6 
#
# 1 89.1725 29.4960 24.5480 -9.3238 8.0781 9.5189
# 2 29.4960 149.3086 35.2079 -8.1315 17.4519 14.4927
# 3 24.5480 35.2079 91.5615 4.1719 10.1962 16.7184
# 4 -9.3238 -8.1315 4.1719 51.4144 -4.3787 9.5668
# 5 8.0781 17.4519 10.1962 -4.3787 27.7656 14.8906
# 6 9.5189 14.4927 16.7184 9.5668 14.8906 27.8071
#
#
#
# Elastic Compliance Matrix: (Units=1/GPa)
#
#
# Indices 1 2 3 4 5 6 
#
# 1 0.013045 -0.001548 -0.002457 0.002988 0.000382 -0.003414
# 2 -0.001548 0.008042 -0.002189 0.001116 -0.003031 -0.001107
# 3 -0.002457 -0.002189 0.013529 -0.000750 0.000232 -0.006018
# 4 0.002988 0.001116 -0.000750 0.023922 0.010535 -0.015025
# 5 0.000382 -0.003031 0.000232 0.010535 0.056996 -0.032836
# 6 -0.003414 -0.001107 -0.006018 -0.015025 -0.032836 0.064078
#
#
# Mechanical properties :
#
#
# Convention : Reuss Voigt Hill
#
# Bulk Modulus (GPa) = 44.98850 56.50515 50.74683
# Shear Modulus (GPa) = 25.07394 37.45014 31.26204
#
# Velocity S-wave (km/s) = 3.36108 4.10766 3.75298
# Velocity P-wave (km/s) = 5.94405 6.92497 6.45317
#
# Compressibility (1/GPa) = 0.02222790
#
# Stress axis : x y z
#
# Youngs Moduli (GPa) = 76.65750 124.34785 73.91350
#
# Poissons Ratio (x) = 0.19251 0.18164
# Poissons Ratio (y) = 0.11868 0.16177
# Poissons Ratio (z) = 0.18838 0.27215
#
# Static dielectric constant tensor:
#      x y z
#    x 1.960350 0.138370 -0.102690 
#    y 0.138370 2.095050 -0.349900 
#    z -0.102690 -0.349900 2.266750 
# 
# From -- ./inp_files/516358.got.cif
#   From: 2010.05.17/outbox.cif.g08.bks.cpg/sg2_259_cif.got.tgz:516358.got - 2010.06.03 11:33:40.
