data_PCOD9068739
_publ_section_title
;
Structure prediction by ZEFSAII (Michael W. Deem and Ramdas Pophale) SiO2 
 PCOD9068739
Probable space group: P -1
;
_chemical_formula_sum "Si O2"
_cell_formula_units_Z 14
_cell_length_a 5.816649
_cell_length_b 14.108508
_cell_length_c 8.929092
_cell_angle_alpha 103.398383
_cell_angle_beta 99.459561
_cell_angle_gamma 52.135759
_cell_volume 562.510765
_symmetry_space_group_name_H-M "P -1"
_symmetry_group_IT_number 2
_symmetry_cell_setting 'triclinic'
loop_
_space_group_symop_operation_xyz
x,y,z
-x,-y,-z
loop_
_atom_site_type_symbol
_atom_site_label
_atom_site_fract_x
_atom_site_fract_y
_atom_site_fract_z
Si Si1 0.280917 0.434017 0.107946
Si Si2 0.916814 0.609120 0.642769
Si Si3 0.773417 0.183314 0.945664
Si Si4 0.620213 0.861833 0.542190
Si Si5 0.670915 0.989562 0.869954
Si Si6 0.871602 0.167176 0.610901
Si Si7 0.534577 0.446128 0.649238
O O1 0.293533 0.363410 0.233413
O O2 0.250907 0.547083 0.222648
O O3 0.554456 0.327175 0.002958
O O4 0.000000 0.500000 0.000000
O O5 0.812800 0.724888 0.577191
O O6 0.000000 0.500000 0.500000
O O7 0.227643 0.546330 0.730864
O O8 0.617331 0.117500 0.887704
O O9 0.926071 0.156191 0.790736
O O10 0.992366 0.114507 0.083712
O O11 0.413835 0.056480 0.293366
O O12 0.312948 0.886145 0.469404
O O13 0.838216 0.867202 0.456551
O O14 0.500000 0.000000 0.000000
O O15 0.633101 0.311129 0.602518
O O16 0.500000 0.500000 0.500000
#
# Coordination Sequence:
#
# PCOD9068739 Si02
#       7
#     2   2   2   2   2   2   2
#     4  12  27  45  76 113 156 199 253 319 397 458
#     4  12  22  41  71 105 150 202 255 308 380 466
#     4  11  29  50  75 113 154 203 260 326 384 464
#     4  12  27  47  80 110 150 208 256 320 388 463
#     4  11  28  52  81 106 152 207 266 321 388 458
#     4  12  28  47  77 115 155 198 261 321 389 461
#     4  12  23  42  69 107 153 203 251 308 380 469
#
# _framework density 24.888415999999999
#
# number of rings (size 3 to 8) (size 9 to 14) (size 15 to 20)
#    0.000    0.286    4.286    2.571   10.000    4.571 
#    0.000    0.000    0.000    0.000    0.000    0.000 
#    0.000    0.000    0.000    0.000    0.000    0.000 
#
# Total GULP energy -78302.054863 kJ/mol
# GULP energy per Si atom -5593.003919 kJ/mol
# Density = 2.483177 g / cm^3
# Si number density = 24.888416 Si / 1000 Ang^3
#
#
#
# Elastic Constant Matrix: (Units=GPa)
#
#
# Indices 1 2 3 4 5 6 
#
# 1 134.9324 38.9942 74.0290 16.2765 0.2779 14.3858
# 2 38.9942 110.7426 34.0028 3.0582 14.2098 20.3148
# 3 74.0290 34.0028 157.1412 18.7829 -1.6223 11.5527
# 4 16.2765 3.0582 18.7829 39.3885 -1.0215 -2.6214
# 5 0.2779 14.2098 -1.6223 -1.0215 65.6378 -1.3983
# 6 14.3858 20.3148 11.5527 -2.6214 -1.3983 45.3698
#
#
#
# Elastic Compliance Matrix: (Units=1/GPa)
#
#
# Indices 1 2 3 4 5 6 
#
# 1 0.010808 -0.002204 -0.004218 -0.002376 0.000258 -0.001495
# 2 -0.002204 0.011228 -0.001146 0.000246 -0.002533 -0.004101
# 3 -0.004218 -0.001146 0.008937 -0.002456 0.000437 -0.000554
# 4 -0.002376 0.000246 -0.002456 0.027724 0.000389 0.002882
# 5 0.000258 -0.002533 0.000437 0.000389 0.015830 0.001452
# 6 -0.001495 -0.004101 -0.000554 0.002882 0.001452 0.024704
#
#
# Mechanical properties :
#
#
# Convention : Reuss Voigt Hill
#
# Bulk Modulus (GPa) = 63.13599 77.42981 70.28290
# Shear Modulus (GPa) = 41.79026 47.13188 44.46107
#
# Velocity S-wave (km/s) = 4.10213 4.35642 4.23119
# Velocity P-wave (km/s) = 6.91805 7.51551 7.22296
#
# Compressibility (1/GPa) = 0.01583883
#
# Stress axis : x y z
#
# Youngs Moduli (GPa) = 92.52695 89.06177 111.88922
#
# Poissons Ratio (x) = 0.19626 0.47195
# Poissons Ratio (y) = 0.20389 0.12818
# Poissons Ratio (z) = 0.39028 0.10203
#
# Static dielectric constant tensor:
#      x y z
#    x 2.328080 -0.056820 0.013890 
#    y -0.056820 1.965680 -0.028780 
#    z 0.013890 -0.028780 1.908890 
# 
# From -- ./inp_files/123628.got.cif
#   From: 2010.05.17/outbox.cif.g08.bks.cpg/sg2_62_cif.got.tgz:123628.got - 2010.06.03 11:33:40.
