data_PCOD9068190
_publ_section_title
;
Structure prediction by ZEFSAII (Michael W. Deem and Ramdas Pophale) SiO2 
 PCOD9068190
Probable space group: P -1
;
_chemical_formula_sum "Si O2"
_cell_formula_units_Z 16
_cell_length_a 18.011107
_cell_length_b 11.842103
_cell_length_c 7.858338
_cell_angle_alpha 52.764829
_cell_angle_beta 56.550956
_cell_angle_gamma 30.974210
_cell_volume 684.623719
_symmetry_space_group_name_H-M "P -1"
_symmetry_group_IT_number 2
_symmetry_cell_setting 'triclinic'
loop_
_space_group_symop_operation_xyz
x,y,z
-x,-y,-z
loop_
_atom_site_type_symbol
_atom_site_label
_atom_site_fract_x
_atom_site_fract_y
_atom_site_fract_z
Si Si1 0.956379 0.896448 0.606964
Si Si2 0.452644 0.930210 0.000122
Si Si3 0.093535 0.505110 0.304069
Si Si4 0.140673 0.416539 0.942654
Si Si5 0.369551 0.746052 0.177853
Si Si6 0.604344 0.226942 0.279395
Si Si7 0.908949 0.977348 0.192535
Si Si8 0.373747 0.136281 0.405390
O O1 0.939516 0.904308 0.417795
O O2 0.086656 0.636235 0.749714
O O3 0.799778 0.058984 0.741230
O O4 0.000000 0.000000 0.500000
O O5 0.295817 0.172065 0.899792
O O6 0.587063 0.781787 0.842547
O O7 0.500000 0.000000 0.000000
O O8 0.432011 0.789000 0.187900
O O9 0.208809 0.380756 0.421855
O O10 0.000000 0.500000 0.500000
O O11 0.984711 0.766994 0.169029
O O12 0.164900 0.376642 0.152049
O O13 0.000000 0.500000 0.000000
O O14 0.460135 0.485258 0.297558
O O15 0.392909 0.776233 0.928170
O O16 0.738019 0.163961 0.215900
O O17 0.622035 0.039022 0.486590
O O18 0.000000 0.000000 0.000000
O O19 0.500000 0.000000 0.500000
#
# Coordination Sequence:
#
# PCOD9068190 Si02
#       8
#     2   2   2   2   2   2   2   2
#     4  12  28  47  73 106 143 194 243 301 369 435
#     4  12  27  47  72 106 148 191 244 298 363 432
#     4  12  26  46  74 105 145 189 246 301 361 433
#     4  12  26  46  74 105 144 190 243 305 361 428
#     4  11  26  48  73 105 147 190 243 303 368 436
#     4  11  26  48  73 105 146 190 243 305 366 436
#     4  12  28  47  74 104 145 191 245 302 368 438
#     4  12  27  45  73 109 144 194 243 297 364 433
#
# _framework density 23.370502999999999
#
# number of rings (size 3 to 8) (size 9 to 14) (size 15 to 20)
#    0.000    0.250    5.000    3.000    8.750    1.500 
#    0.000    0.000    0.000    0.000    0.000    0.000 
#    0.000    0.000    0.000    0.000    0.000    0.000 
#
# Total GULP energy -89206.908735 kJ/mol
# GULP energy per Si atom -5575.431796 kJ/mol
# Density = 2.331731 g / cm^3
# Si number density = 23.370503 Si / 1000 Ang^3
#
#
#
# Elastic Constant Matrix: (Units=GPa)
#
#
# Indices 1 2 3 4 5 6 
#
# 1 97.6723 13.9973 15.9493 7.8684 -16.9836 -17.5713
# 2 13.9973 122.5754 18.7236 3.8607 -16.4365 -15.3154
# 3 15.9493 18.7236 75.4551 -1.8857 -20.9744 1.8080
# 4 7.8684 3.8607 -1.8857 34.3537 -0.3785 -7.9267
# 5 -16.9836 -16.4365 -20.9744 -0.3785 53.5916 0.3153
# 6 -17.5713 -15.3154 1.8080 -7.9267 0.3153 40.4444
#
#
#
# Elastic Compliance Matrix: (Units=1/GPa)
#
#
# Indices 1 2 3 4 5 6 
#
# 1 0.012110 -0.000011 -0.001868 -0.001691 0.003062 0.004986
# 2 -0.000011 0.009153 -0.001780 -0.000301 0.002085 0.003466
# 3 -0.001868 -0.001780 0.015545 0.001072 0.004965 -0.002009
# 4 -0.001691 -0.000301 0.001072 0.030773 -0.000021 0.005135
# 5 0.003062 0.002085 0.004965 -0.000021 0.022202 0.001721
# 6 0.004986 0.003466 -0.002009 0.005135 0.001721 0.029287
#
#
# Mechanical properties :
#
#
# Convention : Reuss Voigt Hill
#
# Bulk Modulus (GPa) = 33.90835 43.67148 38.78991
# Shear Modulus (GPa) = 36.70569 42.14678 39.42624
#
# Velocity S-wave (km/s) = 3.96738 4.25127 4.11178
# Velocity P-wave (km/s) = 5.96048 6.54408 6.25908
#
# Compressibility (1/GPa) = 0.02949126
#
# Stress axis : x y z
#
# Youngs Moduli (GPa) = 82.57327 109.24808 64.33117
#
# Poissons Ratio (x) = 0.00118 0.12015
# Poissons Ratio (y) = 0.00089 0.11452
# Poissons Ratio (z) = 0.15422 0.19448
#
# Static dielectric constant tensor:
#      x y z
#    x 1.945370 0.141360 0.107620 
#    y 0.141360 1.834910 0.226570 
#    z 0.107620 0.226570 1.887400 
# 
# From -- ./inp_files/271456.got.cif
#   From: 2010.05.17/outbox.cif.g08.bks.cpg/sg2_136_cif.got.tgz:271456.got - 2010.06.03 11:33:40.
