data_PCOD9068074
_publ_section_title
;
Structure prediction by ZEFSAII (Michael W. Deem and Ramdas Pophale) SiO2 
 PCOD9068074
Probable space group: P -1
;
_chemical_formula_sum "Si O2"
_cell_formula_units_Z 16
_cell_length_a 21.275075
_cell_length_b 5.568452
_cell_length_c 11.604180
_cell_angle_alpha 75.714335
_cell_angle_beta 31.530630
_cell_angle_gamma 81.700341
_cell_volume 690.765341
_symmetry_space_group_name_H-M "P -1"
_symmetry_group_IT_number 2
_symmetry_cell_setting 'triclinic'
loop_
_space_group_symop_operation_xyz
x,y,z
-x,-y,-z
loop_
_atom_site_type_symbol
_atom_site_label
_atom_site_fract_x
_atom_site_fract_y
_atom_site_fract_z
Si Si1 0.341307 0.442054 0.464427
Si Si2 0.557129 0.863013 0.031122
Si Si3 0.890951 0.276681 0.186367
Si Si4 0.505352 0.713780 0.564633
Si Si5 0.744979 0.648260 0.631920
Si Si6 0.666394 0.234524 0.976010
Si Si7 0.998121 0.869422 0.198609
Si Si8 0.935119 0.208612 0.643115
O O1 0.465015 0.612548 0.217538
O O2 0.235572 0.615509 0.626430
O O3 0.374247 0.298714 0.543725
O O4 0.300065 0.288351 0.431907
O O5 0.693212 0.828344 0.783659
O O6 0.500000 0.000000 0.000000
O O7 0.570857 0.999965 0.115556
O O8 0.918724 0.091150 0.266712
O O9 0.000000 0.500000 0.000000
O O10 0.912856 0.146951 0.045509
O O11 0.500000 0.500000 0.500000
O O12 0.500000 0.000000 0.500000
O O13 0.390849 0.647603 0.837684
O O14 0.682117 0.388240 0.813310
O O15 0.887984 0.643033 0.404336
O O16 0.799758 0.190872 0.808859
O O17 0.064722 0.874190 0.214030
O O18 0.000000 0.500000 0.500000
O O19 0.000000 0.000000 0.500000
#
# Coordination Sequence:
#
# PCOD9068074 Si02
#       8
#     2   2   2   2   2   2   2   2
#     4  12  25  47  78 111 152 199 266 318 396 457
#     4  12  23  41  74 111 150 191 248 322 398 438
#     4  11  26  48  75 108 149 206 260 327 382 471
#     4  12  30  52  74 108 159 211 258 310 381 480
#     4  12  23  44  75 112 146 185 258 332 381 452
#     4  12  27  49  75 111 154 203 258 320 392 462
#     4  11  26  47  74 110 154 201 264 319 397 459
#     4  12  29  48  80 113 157 208 254 320 400 466
#
# _framework density 23.162711999999999
#
# number of rings (size 3 to 8) (size 9 to 14) (size 15 to 20)
#    0.000    0.250    5.000    3.375    5.250    2.000 
#    0.000    0.000    0.000    0.000    0.000    0.000 
#    0.000    0.000    0.000    0.000    0.000    0.000 
#
# Total GULP energy -89440.760282 kJ/mol
# GULP energy per Si atom -5590.047518 kJ/mol
# Density = 2.310999 g / cm^3
# Si number density = 23.162712 Si / 1000 Ang^3
#
#
#
# Elastic Constant Matrix: (Units=GPa)
#
#
# Indices 1 2 3 4 5 6 
#
# 1 174.3388 45.4262 22.0486 14.9104 2.3742 -12.4396
# 2 45.4262 89.3258 17.2952 16.8541 6.3856 -13.1729
# 3 22.0486 17.2952 97.1472 24.3388 -4.3053 -8.0733
# 4 14.9104 16.8541 24.3388 41.0980 -0.3509 0.4834
# 5 2.3742 6.3856 -4.3053 -0.3509 36.7993 2.6422
# 6 -12.4396 -13.1729 -8.0733 0.4834 2.6422 47.6035
#
#
#
# Elastic Compliance Matrix: (Units=1/GPa)
#
#
# Indices 1 2 3 4 5 6 
#
# 1 0.006740 -0.003013 -0.000731 -0.000787 -0.000064 0.000815
# 2 -0.003013 0.014365 -0.000588 -0.004511 -0.002646 0.003281
# 3 -0.000731 -0.000588 0.012504 -0.006907 0.001420 0.001758
# 4 -0.000787 -0.004511 -0.006907 0.030597 0.000530 -0.002965
# 5 -0.000064 -0.002646 0.001420 0.000530 0.027957 -0.002065
# 6 0.000815 0.003281 0.001758 -0.002965 -0.002065 0.022571
#
#
# Mechanical properties :
#
#
# Convention : Reuss Voigt Hill
#
# Bulk Modulus (GPa) = 40.08924 58.92798 49.50861
# Shear Modulus (GPa) = 37.96148 43.50293 40.73221
#
# Velocity S-wave (km/s) = 4.05273 4.33846 4.19803
# Velocity P-wave (km/s) = 6.26456 7.11283 6.70213
#
# Compressibility (1/GPa) = 0.02494435
#
# Stress axis : x y z
#
# Youngs Moduli (GPa) = 148.37348 69.61359 79.97565
#
# Poissons Ratio (x) = 0.20972 0.05848
# Poissons Ratio (y) = 0.44700 0.04704
# Poissons Ratio (z) = 0.10850 0.04094
#
# Static dielectric constant tensor:
#      x y z
#    x 1.840300 -0.001050 0.024850 
#    y -0.001050 2.096410 -0.032410 
#    z 0.024850 -0.032410 1.870330 
# 
# From -- ./inp_files/468340.got.cif
#   From: 2010.05.17/outbox.cif.g08.bks.cpg/sg2_235_cif.got.tgz:468340.got - 2010.06.03 11:33:40.
