data_PCOD9068828
_publ_section_title
;
Structure prediction by ZEFSAII (Michael W. Deem and Ramdas Pophale) SiO2 
 PCOD9068828
Probable space group: P -1
;
_chemical_formula_sum "Si O2"
_cell_formula_units_Z 16
_cell_length_a 5.480745
_cell_length_b 20.452910
_cell_length_c 19.574655
_cell_angle_alpha 20.883445
_cell_angle_beta 78.575008
_cell_angle_gamma 69.734374
_cell_volume 680.100190
_symmetry_space_group_name_H-M "P -1"
_symmetry_group_IT_number 2
_symmetry_cell_setting 'triclinic'
loop_
_space_group_symop_operation_xyz
x,y,z
-x,-y,-z
loop_
_atom_site_type_symbol
_atom_site_label
_atom_site_fract_x
_atom_site_fract_y
_atom_site_fract_z
Si Si1 0.516054 0.616968 0.116977
Si Si2 0.794238 0.477885 0.977877
Si Si3 0.874796 0.728328 0.616882
Si Si4 0.339772 0.050362 0.148804
Si Si5 0.238097 0.351189 0.449647
Si Si6 0.156473 0.296761 0.796764
Si Si7 0.934785 0.116891 0.228320
Si Si8 0.269824 0.740090 0.240086
O O1 0.387309 0.492896 0.287411
O O2 0.812499 0.456069 0.227317
O O3 0.552085 0.787397 0.992908
O O4 0.320716 0.727312 0.956077
O O5 0.721487 0.650432 0.754634
O O6 0.500000 0.500000 0.000000
O O7 0.968378 0.254644 0.150422
O O8 0.000000 0.500000 0.000000
O O9 0.770495 0.748782 0.524855
O O10 0.877432 0.936287 0.436275
O O11 0.182248 0.024854 0.248786
O O12 0.587729 0.831144 0.331130
O O13 0.143563 0.139288 0.007934
O O14 0.938004 0.492062 0.360722
O O15 0.476518 0.212824 0.840388
O O16 0.917057 0.340381 0.712832
O O17 0.500000 0.500000 0.500000
O O18 0.000000 0.000000 0.000000
#
# Coordination Sequence:
#
# PCOD9068828 Si02
#       8
#     2   2   2   2   2   2   2   2
#     4  12  20  44  64 105 150 188 236 292 408 470
#     4  12  28  48  71  98 138 196 264 316 364 464
#     4  12  25  43  71 100 148 191 237 318 401 471
#     4  12  25  40  76 116 149 195 246 326 410 481
#     4  12  25  40  76 116 149 195 246 326 410 481
#     4  12  27  50  82 115 162 203 270 334 386 477
#     4  12  25  43  71 100 148 191 237 318 401 471
#     4  12  31  56  81 114 164 231 280 330 392 465
#
# _framework density 23.525946999999999
#
# number of rings (size 3 to 8) (size 9 to 14) (size 15 to 20)
#    0.000    0.000    7.500    2.250    3.500    1.000 
#    0.000    0.000    0.000    0.000    0.000    0.000 
#    0.000    0.000    0.000    0.000    0.000    0.000 
#
# Total GULP energy -89158.325978 kJ/mol
# GULP energy per Si atom -5572.395374 kJ/mol
# Density = 2.347240 g / cm^3
# Si number density = 23.525947 Si / 1000 Ang^3
#
#
#
# Elastic Constant Matrix: (Units=GPa)
#
#
# Indices 1 2 3 4 5 6 
#
# 1 133.1371 51.8713 35.2961 1.0762 12.3817 -1.0967
# 2 51.8713 51.8707 32.0622 7.9785 6.1814 -2.8931
# 3 35.2961 32.0622 147.7630 -15.7643 5.4933 3.0918
# 4 1.0762 7.9785 -15.7643 -28.9192 3.1583 19.4267
# 5 12.3817 6.1814 5.4933 3.1583 60.1339 -1.9148
# 6 -1.0967 -2.8931 3.0918 19.4267 -1.9148 40.9229
#
#
#
# Elastic Compliance Matrix: (Units=1/GPa)
#
#
# Indices 1 2 3 4 5 6 
#
# 1 0.012231 -0.011337 -0.000653 -0.002097 -0.001167 0.000517
# 2 -0.011337 0.031246 -0.003087 0.008464 -0.001102 -0.001931
# 3 -0.000653 -0.003087 0.007141 -0.004006 0.000046 0.001128
# 4 -0.002097 0.008464 -0.004006 -0.022265 0.001463 0.011483
# 5 -0.001167 -0.001102 0.000046 0.001463 0.016902 -0.000016
# 6 0.000517 -0.001931 0.001128 0.011483 -0.000016 0.018776
#
#
# Mechanical properties :
#
#
# Convention : Reuss Voigt Hill
#
# Bulk Modulus (GPa) = 48.86860 63.46999 56.16930
# Shear Modulus (GPa) = 49.50196 28.66359 39.08278
#
# Velocity S-wave (km/s) = 4.59207 3.49432 4.08028
# Velocity P-wave (km/s) = 6.99525 6.58161 6.79158
#
# Compressibility (1/GPa) = 0.02046304
#
# Stress axis : x y z
#
# Youngs Moduli (GPa) = 81.76052 32.00412 140.04039
#
# Poissons Ratio (x) = 0.36283 0.09142
# Poissons Ratio (y) = 0.92692 0.43237
# Poissons Ratio (z) = 0.05337 0.09881
#
# Static dielectric constant tensor:
#      x y z
#    x 1.975590 -0.009700 0.112630 
#    y -0.009700 1.958460 -0.010800 
#    z 0.112630 -0.010800 2.098360 
# 
# From -- ./inp_files/584268.got.cif
#   From: 2010.05.17/outbox.cif.g08.bks.cpg/sg2_293_cif.got.tgz:584268.got - 2010.06.03 11:33:40.
