data_PCOD9068381
_publ_section_title
;
Structure prediction by ZEFSAII (Michael W. Deem and Ramdas Pophale) SiO2 
 PCOD9068381
Probable space group: P -1
;
_chemical_formula_sum "Si O2"
_cell_formula_units_Z 12
_cell_length_a 14.409172
_cell_length_b 9.838867
_cell_length_c 8.700313
_cell_angle_alpha 60.350266
_cell_angle_beta 49.976184
_cell_angle_gamma 29.658594
_cell_volume 460.641051
_symmetry_space_group_name_H-M "P -1"
_symmetry_group_IT_number 2
_symmetry_cell_setting 'triclinic'
loop_
_space_group_symop_operation_xyz
x,y,z
-x,-y,-z
loop_
_atom_site_type_symbol
_atom_site_label
_atom_site_fract_x
_atom_site_fract_y
_atom_site_fract_z
Si Si1 0.564410 0.129694 0.255510
Si Si2 0.948735 0.551890 0.344456
Si Si3 0.120206 0.953209 0.068564
Si Si4 0.369101 0.273963 0.066581
Si Si5 0.334916 0.604181 0.737544
Si Si6 0.133143 0.712426 0.450072
O O1 0.275674 0.148613 0.659139
O O2 0.425689 0.197914 0.229492
O O3 0.384709 0.412602 0.390754
O O4 0.717182 0.088568 0.025293
O O5 0.978045 0.338078 0.386745
O O6 0.000000 0.500000 0.500000
O O7 0.127124 0.490957 0.145887
O O8 0.155802 0.748502 0.227862
O O9 0.199585 0.858581 0.858514
O O10 0.872057 0.253637 0.202924
O O11 0.440244 0.362399 0.868639
O O12 0.500000 0.000000 0.000000
O O13 0.500000 0.500000 0.500000
O O14 0.000000 0.000000 0.500000
#
# Coordination Sequence:
#
# PCOD9068381 Si02
#       6
#     2   2   2   2   2   2
#     4  12  27  54  83 116 179 224 282 364 429 511
#     4  12  27  55  85 120 174 228 284 352 442 517
#     4  11  26  49  79 119 169 212 282 356 418 514
#     4  12  29  50  80 121 165 224 291 356 428 518
#     4  11  26  50  79 120 168 221 281 350 431 505
#     4  12  29  49  85 130 167 229 290 352 438 521
#
# _framework density 26.050653000000001
#
# number of rings (size 3 to 8) (size 9 to 14) (size 15 to 20)
#    0.000    0.333    5.000    1.000    9.333    2.000 
#    0.000    0.833    0.000    0.000    0.000    0.000 
#    0.000    0.000    0.000    0.000    0.000    0.000 
#
# Total GULP energy -67014.463181 kJ/mol
# GULP energy per Si atom -5584.538598 kJ/mol
# Density = 2.599136 g / cm^3
# Si number density = 26.050653 Si / 1000 Ang^3
#
#
#
# Elastic Constant Matrix: (Units=GPa)
#
#
# Indices 1 2 3 4 5 6 
#
# 1 133.8192 89.4604 63.9823 8.9520 -13.0953 -20.1244
# 2 89.4604 197.9039 80.2553 -0.5554 8.2969 -13.6919
# 3 63.9823 80.2553 199.2900 -1.1051 -7.6662 -9.4140
# 4 8.9520 -0.5554 -1.1051 57.5455 -7.4083 3.3662
# 5 -13.0953 8.2969 -7.6662 -7.4083 44.6021 3.2360
# 6 -20.1244 -13.6919 -9.4140 3.3662 3.2360 45.8552
#
#
#
# Elastic Compliance Matrix: (Units=1/GPa)
#
#
# Indices 1 2 3 4 5 6 
#
# 1 0.012622 -0.004901 -0.001775 -0.001770 0.003759 0.003576
# 2 -0.004901 0.008152 -0.001826 0.000386 -0.003213 0.000107
# 3 -0.001775 -0.001826 0.006358 0.000518 0.001007 -0.000128
# 4 -0.001770 0.000386 0.000518 0.018130 0.002659 -0.002074
# 5 0.003759 -0.003213 0.001007 0.002659 0.024813 -0.001049
# 6 0.003576 0.000107 -0.000128 -0.002074 -0.001049 0.023609
#
#
# Mechanical properties :
#
#
# Convention : Reuss Voigt Hill
#
# Bulk Modulus (GPa) = 98.72662 110.93434 104.83048
# Shear Modulus (GPa) = 43.83512 49.42158 46.62835
#
# Velocity S-wave (km/s) = 4.10651 4.36034 4.23532
# Velocity P-wave (km/s) = 7.77591 8.24782 8.01534
#
# Compressibility (1/GPa) = 0.01012898
#
# Stress axis : x y z
#
# Youngs Moduli (GPa) = 79.22791 122.67022 157.27070
#
# Poissons Ratio (x) = 0.60120 0.27914
# Poissons Ratio (y) = 0.38829 0.28714
# Poissons Ratio (z) = 0.14062 0.22397
#
# Static dielectric constant tensor:
#      x y z
#    x 2.054270 0.120700 0.007180 
#    y 0.120700 1.987490 -0.008600 
#    z 0.007180 -0.008600 2.180830 
# 
# From -- ./inp_files/201369.got.cif
#   From: 2010.05.17/outbox.cif.g08.bks.cpg/sg2_101_cif.got.tgz:201369.got - 2010.06.03 11:33:40.
