data_PCOD9068464
_publ_section_title
;
Structure prediction by ZEFSAII (Michael W. Deem and Ramdas Pophale) SiO2 
 PCOD9068464
Probable space group: P -1
;
_chemical_formula_sum "Si O2"
_cell_formula_units_Z 14
_cell_length_a 23.358655
_cell_length_b 5.398890
_cell_length_c 25.878095
_cell_angle_alpha 111.263131
_cell_angle_beta 10.773025
_cell_angle_gamma 111.329189
_cell_volume 567.962007
_symmetry_space_group_name_H-M "P -1"
_symmetry_group_IT_number 2
_symmetry_cell_setting 'triclinic'
loop_
_space_group_symop_operation_xyz
x,y,z
-x,-y,-z
loop_
_atom_site_type_symbol
_atom_site_label
_atom_site_fract_x
_atom_site_fract_y
_atom_site_fract_z
Si Si1 0.602864 0.259451 0.129882
Si Si2 0.239738 0.823695 0.244699
Si Si3 0.797697 0.336463 0.212314
Si Si4 0.329010 0.228149 0.480697
Si Si5 0.370880 0.183431 0.738276
Si Si6 0.553517 0.801854 0.067145
Si Si7 0.826900 0.423410 0.517611
O O1 0.441161 0.161061 0.318190
O O2 0.429620 0.528706 0.293843
O O3 0.517427 0.103832 0.140484
O O4 0.964180 0.240570 0.812697
O O5 0.412116 0.697333 0.130951
O O6 0.059679 0.662670 0.347997
O O7 0.000000 0.000000 0.500000
O O8 0.500000 0.000000 0.000000
O O9 0.500000 0.500000 0.500000
O O10 0.675781 0.039106 0.281999
O O11 0.000000 0.500000 0.000000
O O12 0.024290 0.291851 0.056610
O O13 0.444344 0.536022 0.412330
O O14 0.480452 0.005440 0.365099
O O15 0.361905 0.653103 0.270017
O O16 0.915865 0.770772 0.744026
#
# Coordination Sequence:
#
# PCOD9068464 Si02
#       7
#     2   2   2   2   2   2   2
#     4  12  30  49  72 107 148 198 258 308 368 452
#     4  12  24  44  72 103 141 180 242 313 396 455
#     4  11  26  50  83 121 155 202 250 318 377 443
#     4  12  30  49  80 109 160 210 254 314 372 454
#     4  11  28  54  78 118 160 201 258 312 378 445
#     4  12  26  47  73 101 140 191 245 314 384 456
#     4  12  26  47  73 101 140 191 245 314 384 456
#
# _framework density 24.649536999999999
#
# number of rings (size 3 to 8) (size 9 to 14) (size 15 to 20)
#    0.000    0.286    2.857    4.286   10.000    4.571 
#    0.000    0.000    0.000    0.000    0.000    0.000 
#    0.000    0.000    0.000    0.000    0.000    0.000 
#
# Total GULP energy -78193.175637 kJ/mol
# GULP energy per Si atom -5585.226831 kJ/mol
# Density = 2.459343 g / cm^3
# Si number density = 24.649537 Si / 1000 Ang^3
#
#
#
# Elastic Constant Matrix: (Units=GPa)
#
#
# Indices 1 2 3 4 5 6 
#
# 1 107.0477 22.3816 80.1996 4.0144 -30.7509 -34.7391
# 2 22.3816 138.0575 62.9627 3.4842 -7.9154 3.2825
# 3 80.1996 62.9627 243.7454 23.7021 -4.5291 -24.8120
# 4 4.0144 3.4842 23.7021 47.1200 -7.3898 -4.1370
# 5 -30.7509 -7.9154 -4.5291 -7.3898 57.6002 17.9147
# 6 -34.7391 3.2825 -24.8120 -4.1370 17.9147 55.2121
#
#
#
# Elastic Compliance Matrix: (Units=1/GPa)
#
#
# Indices 1 2 3 4 5 6 
#
# 1 0.017253 -0.000298 -0.005078 0.002792 0.007109 0.006494
# 2 -0.000298 0.008494 -0.002354 0.000637 0.001595 -0.002220
# 3 -0.005078 -0.002354 0.006709 -0.003197 -0.003148 0.000742
# 4 0.002792 0.000637 -0.003197 0.023249 0.004093 0.000696
# 5 0.007109 0.001595 -0.003148 0.004093 0.022952 -0.004177
# 6 0.006494 -0.002220 0.000742 0.000696 -0.004177 0.024071
#
#
# Mechanical properties :
#
#
# Convention : Reuss Voigt Hill
#
# Bulk Modulus (GPa) = 58.84032 91.10426 74.97229
# Shear Modulus (GPa) = 40.36997 53.54025 46.95511
#
# Velocity S-wave (km/s) = 4.05131 4.66559 4.36926
# Velocity P-wave (km/s) = 6.76807 8.12796 7.47899
#
# Compressibility (1/GPa) = 0.01699515
#
# Stress axis : x y z
#
# Youngs Moduli (GPa) = 57.95943 117.73656 149.04241
#
# Poissons Ratio (x) = 0.03513 0.75686
# Poissons Ratio (y) = 0.01729 0.35086
# Poissons Ratio (z) = 0.29433 0.27717
#
# Static dielectric constant tensor:
#      x y z
#    x 2.122950 0.049200 -0.102520 
#    y 0.049200 2.066570 0.006370 
#    z -0.102520 0.006370 1.921150 
# 
# From -- ./inp_files/616069.got.cif
#   From: 2010.05.17/outbox.cif.g08.bks.cpg/sg2_309_cif.got.tgz:616069.got - 2010.06.03 11:33:40.
