data_PCOD9068284
_publ_section_title
;
Structure prediction by ZEFSAII (Michael W. Deem and Ramdas Pophale) SiO2 
 PCOD9068284
Probable space group: P -1
;
_chemical_formula_sum "Si O2"
_cell_formula_units_Z 12
_cell_length_a 5.062266
_cell_length_b 10.190954
_cell_length_c 11.675031
_cell_angle_alpha 128.978032
_cell_angle_beta 65.602062
_cell_angle_gamma 116.250828
_cell_volume 412.005903
_symmetry_space_group_name_H-M "P -1"
_symmetry_group_IT_number 2
_symmetry_cell_setting 'triclinic'
loop_
_space_group_symop_operation_xyz
x,y,z
-x,-y,-z
loop_
_atom_site_type_symbol
_atom_site_label
_atom_site_fract_x
_atom_site_fract_y
_atom_site_fract_z
Si Si1 0.075966 0.025006 0.846603
Si Si2 0.768611 0.389459 0.642059
Si Si3 0.787804 0.673745 0.626716
Si Si4 0.640318 0.341931 0.934133
Si Si5 0.808554 0.294899 0.138507
Si Si6 0.907669 0.844143 0.340339
O O1 0.390484 0.159406 0.887997
O O2 0.023058 0.067912 0.747698
O O3 0.023382 0.819704 0.738859
O O4 0.852759 0.102524 0.005343
O O5 0.719796 0.475865 0.575155
O O6 0.446818 0.256966 0.650874
O O7 0.055122 0.314880 0.518947
O O8 0.900297 0.566571 0.787303
O O9 0.477757 0.716835 0.737484
O O10 0.236167 0.632631 0.943448
O O11 0.878784 0.290057 0.774928
O O12 0.500000 0.500000 0.000000
O O13 0.000000 0.000000 0.500000
#
# Coordination Sequence:
#
# PCOD9068284 Si02
#       6
#     2   2   2   2   2   2
#     4  11  27  48  76 116 160 203 267 321 404 465
#     4  11  27  49  81 118 157 210 267 322 402 476
#     4  11  26  49  75 117 161 210 261 323 400 477
#     4  11  28  50  80 120 157 211 272 327 401 473
#     4  11  26  48  80 112 162 209 262 330 392 476
#     4  11  28  53  82 114 161 209 265 339 398 476
#
# _framework density 29.125795
#
# number of rings (size 3 to 8) (size 9 to 14) (size 15 to 20)
#    0.000    1.000    0.000    3.000    7.000   15.333 
#    3.000    0.000    0.000    0.000    0.000    0.000 
#    0.000    0.000    0.000    0.000    0.000    0.000 
#
# Total GULP energy -67272.270671 kJ/mol
# GULP energy per Si atom -5606.022556 kJ/mol
# Density = 2.905950 g / cm^3
# Si number density = 29.125795 Si / 1000 Ang^3
#
#
#
# Elastic Constant Matrix: (Units=GPa)
#
#
# Indices 1 2 3 4 5 6 
#
# 1 130.1492 45.1393 78.9638 13.9876 2.9694 34.2576
# 2 45.1393 160.0607 86.3859 16.7943 -15.9787 19.8499
# 3 78.9638 86.3859 235.5710 -8.5984 4.5061 39.3316
# 4 13.9876 16.7943 -8.5984 67.2644 15.4915 -8.6385
# 5 2.9694 -15.9787 4.5061 15.4915 58.7111 6.4554
# 6 34.2576 19.8499 39.3316 -8.6385 6.4554 58.2285
#
#
#
# Elastic Compliance Matrix: (Units=1/GPa)
#
#
# Indices 1 2 3 4 5 6 
#
# 1 0.011330 -0.000533 -0.002887 -0.003483 0.000990 -0.005160
# 2 -0.000533 0.009021 -0.003058 -0.003635 0.003859 -0.001663
# 3 -0.002887 -0.003058 0.006657 0.002455 -0.001713 -0.001202
# 4 -0.003483 -0.003635 0.002455 0.018993 -0.006582 0.005177
# 5 0.000990 0.003859 -0.001713 -0.006582 0.020338 -0.003972
# 6 -0.005160 -0.001663 -0.001202 0.005177 -0.003972 0.022797
#
#
# Mechanical properties :
#
#
# Convention : Reuss Voigt Hill
#
# Bulk Modulus (GPa) = 71.16324 105.19542 88.17933
# Shear Modulus (GPa) = 46.82677 57.86027 52.34352
#
# Velocity S-wave (km/s) = 4.01402 4.46192 4.24388
# Velocity P-wave (km/s) = 6.78006 7.92092 7.37259
#
# Compressibility (1/GPa) = 0.01405220
#
# Stress axis : x y z
#
# Youngs Moduli (GPa) = 88.26249 110.84711 150.21288
#
# Poissons Ratio (x) = 0.05907 0.43363
# Poissons Ratio (y) = 0.04704 0.45941
# Poissons Ratio (z) = 0.25480 0.33902
#
# Static dielectric constant tensor:
#      x y z
#    x 2.513060 -0.196500 0.011950 
#    y -0.196500 2.268330 -0.099700 
#    z 0.011950 -0.099700 2.257660 
# 
# From -- ./inp_files/95584.got.cif
#   From: 2010.05.17/outbox.cif.g08.bks.cpg/sg2_48_cif.got.tgz:95584.got - 2010.06.03 11:33:40.
