data_PCOD9068911
_publ_section_title
;
Structure prediction by ZEFSAII (Michael W. Deem and Ramdas Pophale) SiO2 
 PCOD9068911
Probable space group: P -1
;
_chemical_formula_sum "Si O2"
_cell_formula_units_Z 14
_cell_length_a 11.923717
_cell_length_b 9.371715
_cell_length_c 12.109858
_cell_angle_alpha 144.489503
_cell_angle_beta 47.339788
_cell_angle_gamma 125.915306
_cell_volume 576.088891
_symmetry_space_group_name_H-M "P -1"
_symmetry_group_IT_number 2
_symmetry_cell_setting 'triclinic'
loop_
_space_group_symop_operation_xyz
x,y,z
-x,-y,-z
loop_
_atom_site_type_symbol
_atom_site_label
_atom_site_fract_x
_atom_site_fract_y
_atom_site_fract_z
Si Si1 0.078383 0.887261 0.981396
Si Si2 0.615813 0.683149 0.468387
Si Si3 0.101697 0.356924 0.596300
Si Si4 0.615390 0.748289 0.285244
Si Si5 0.401741 0.117180 0.869557
Si Si6 0.889917 0.130573 0.431326
Si Si7 0.702430 0.475531 0.646831
O O1 0.030604 0.600678 0.842564
O O2 0.257761 0.923373 0.864422
O O3 0.000000 0.000000 0.000000
O O4 0.032233 0.045271 0.213982
O O5 0.500000 0.500000 0.500000
O O6 0.777886 0.719570 0.443044
O O7 0.630172 0.558395 0.258726
O O8 0.546233 0.952811 0.675050
O O9 0.207958 0.441270 0.471293
O O10 0.961240 0.176371 0.532841
O O11 0.624272 0.746771 0.145243
O O12 0.429066 0.751690 0.426170
O O13 0.754070 0.935409 0.356872
O O14 0.389083 0.318749 0.101191
O O15 0.827924 0.384516 0.590125
#
# Coordination Sequence:
#
# PCOD9068911 Si02
#       7
#     2   2   2   2   2   2   2
#     4  12  21  41  73 105 140 185 232 290 357 411
#     4  12  25  48  72  98 148 190 232 294 353 425
#     4  12  25  44  72 105 142 189 238 286 355 424
#     4  12  26  47  73 105 141 188 240 295 351 415
#     4  12  24  43  76 108 137 186 244 291 348 424
#     4  12  25  43  73 107 146 180 239 297 347 420
#     4  12  23  43  75 108 138 184 242 296 347 419
#
# _framework density 24.301805999999999
#
# number of rings (size 3 to 8) (size 9 to 14) (size 15 to 20)
#    0.000    0.000    7.143    4.286    0.000    1.143 
#    2.571    0.714    0.000    0.000    0.000    0.000 
#    0.000    0.000    0.000    0.000    0.000    0.000 
#
# Total GULP energy -78086.589079 kJ/mol
# GULP energy per Si atom -5577.613506 kJ/mol
# Density = 2.424649 g / cm^3
# Si number density = 24.301806 Si / 1000 Ang^3
#
#
#
# Elastic Constant Matrix: (Units=GPa)
#
#
# Indices 1 2 3 4 5 6 
#
# 1 188.4071 11.5250 34.5905 20.7374 -9.4367 -1.3331
# 2 11.5250 74.9623 -1.5596 3.4792 5.6753 6.0005
# 3 34.5905 -1.5596 116.8330 13.6707 0.9728 -7.9433
# 4 20.7374 3.4792 13.6707 15.3610 5.8720 1.8114
# 5 -9.4367 5.6753 0.9728 5.8720 35.3117 -1.3317
# 6 -1.3331 6.0005 -7.9433 1.8114 -1.3317 43.4060
#
#
#
# Elastic Compliance Matrix: (Units=1/GPa)
#
#
# Indices 1 2 3 4 5 6 
#
# 1 0.006769 -0.000941 -0.000876 -0.009606 0.003608 0.000689
# 2 -0.000941 0.013880 0.000495 -0.001185 -0.002370 -0.001880
# 3 -0.000876 0.000495 0.009939 -0.008359 0.000882 0.002099
# 4 -0.009606 -0.001185 -0.008359 0.093338 -0.017898 -0.006105
# 5 0.003608 -0.002370 0.000882 -0.017898 0.032705 0.002350
# 6 0.000689 -0.001880 0.002099 -0.006105 0.002350 0.024030
#
#
# Mechanical properties :
#
#
# Convention : Reuss Voigt Hill
#
# Bulk Modulus (GPa) = 35.78796 52.14603 43.96700
# Shear Modulus (GPa) = 25.95789 41.19216 33.57502
#
# Velocity S-wave (km/s) = 3.27180 4.12153 3.72100
# Velocity P-wave (km/s) = 5.38807 6.64482 6.04917
#
# Compressibility (1/GPa) = 0.02794236
#
# Stress axis : x y z
#
# Youngs Moduli (GPa) = 147.73480 72.04602 100.61719
#
# Poissons Ratio (x) = 0.06782 0.08812
# Poissons Ratio (y) = 0.13907 -0.04976
# Poissons Ratio (z) = 0.12939 -0.03563
#
# Static dielectric constant tensor:
#      x y z
#    x 1.948850 0.015700 0.049740 
#    y 0.015700 2.084210 0.016800 
#    z 0.049740 0.016800 1.993590 
# 
# From -- ./inp_files/519328.got.cif
#   From: 2010.05.17/outbox.cif.g08.bks.cpg/sg2_260_cif.got.tgz:519328.got - 2010.06.03 11:33:40.
