data_PCOD9068126
_publ_section_title
;
Structure prediction by ZEFSAII (Michael W. Deem and Ramdas Pophale) SiO2 
 PCOD9068126
Probable space group: P -1
;
_chemical_formula_sum "Si O2"
_cell_formula_units_Z 13
_cell_length_a 5.442927
_cell_length_b 9.094271
_cell_length_c 17.392519
_cell_angle_alpha 47.803547
_cell_angle_beta 125.725537
_cell_angle_gamma 124.631980
_cell_volume 495.093303
_symmetry_space_group_name_H-M "P -1"
_symmetry_group_IT_number 2
_symmetry_cell_setting 'triclinic'
loop_
_space_group_symop_operation_xyz
x,y,z
-x,-y,-z
loop_
_atom_site_type_symbol
_atom_site_label
_atom_site_fract_x
_atom_site_fract_y
_atom_site_fract_z
Si Si1 0.847051 0.978373 0.064930
Si Si2 0.000000 0.000000 0.500000
Si Si3 0.707855 0.614495 0.708486
Si Si4 0.179832 0.334448 0.117233
Si Si5 0.670090 0.110429 0.297384
Si Si6 0.011767 0.607295 0.547304
Si Si7 0.259157 0.731758 0.266027
O O1 0.919369 0.774198 0.181752
O O2 0.030770 0.150961 0.096890
O O3 0.500000 0.000000 0.000000
O O4 0.000000 0.000000 0.000000
O O5 0.397832 0.007625 0.592494
O O6 0.969661 0.829939 0.478251
O O7 0.879605 0.682154 0.797097
O O8 0.359943 0.622551 0.636253
O O9 0.697496 0.383263 0.763510
O O10 0.953606 0.790825 0.639370
O O11 0.540795 0.311941 0.190744
O O12 0.000000 0.500000 0.000000
O O13 0.520728 0.947729 0.259349
O O14 0.000000 0.500000 0.500000
O O15 0.762514 0.438091 0.613698
#
# Coordination Sequence:
#
# PCOD9068126 Si02
#       7
#     2   1   2   2   2   2   2
#     4  11  28  48  80 118 161 219 277 350 427 506
#     4  12  24  50  74 112 158 196 278 328 418 498
#     4  12  25  50  79 113 157 210 273 340 415 500
#     4  11  26  47  77 111 158 209 268 334 420 497
#     4  11  27  46  76 112 151 210 268 333 413 492
#     4  12  29  51  82 116 163 223 272 353 428 506
#     4  11  27  51  75 113 165 205 282 339 420 510
#
# _framework density 26.257677000000001
#
# number of rings (size 3 to 8) (size 9 to 14) (size 15 to 20)
#    0.000    0.615    3.077    1.846   12.923    6.154 
#    0.000    0.000    0.000    0.000    0.000    0.000 
#    0.000    0.000    0.000    0.000    0.000    0.000 
#
# Total GULP energy -72369.812021 kJ/mol
# GULP energy per Si atom -5566.908617 kJ/mol
# Density = 2.619791 g / cm^3
# Si number density = 26.257677 Si / 1000 Ang^3
#
#
#
# Elastic Constant Matrix: (Units=GPa)
#
#
# Indices 1 2 3 4 5 6 
#
# 1 96.9707 59.7817 33.3199 8.2263 20.1894 -22.1155
# 2 59.7817 202.2717 53.8837 7.4041 12.6414 -47.1147
# 3 33.3199 53.8837 142.1887 12.8269 35.5967 -9.9098
# 4 8.2263 7.4041 12.8269 56.2483 -17.8365 4.0062
# 5 20.1894 12.6414 35.5967 -17.8365 63.0824 5.0226
# 6 -22.1155 -47.1147 -9.9098 4.0062 5.0226 54.9627
#
#
#
# Elastic Compliance Matrix: (Units=1/GPa)
#
#
# Indices 1 2 3 4 5 6 
#
# 1 0.014482 -0.002745 -0.000446 -0.003591 -0.005177 0.004129
# 2 -0.002745 0.007411 -0.001708 -0.000609 -0.000213 0.005005
# 3 -0.000446 -0.001708 0.009773 -0.003985 -0.006235 0.000979
# 4 -0.003591 -0.000609 -0.003985 0.022982 0.010442 -0.005315
# 5 -0.005177 -0.000213 -0.006235 0.010442 0.024532 -0.006393
# 6 0.004129 0.005005 0.000979 -0.005315 -0.006393 0.025294
#
#
# Mechanical properties :
#
#
# Convention : Reuss Voigt Hill
#
# Bulk Modulus (GPa) = 45.72600 81.71129 63.71865
# Shear Modulus (GPa) = 41.13159 54.48840 47.81000
#
# Velocity S-wave (km/s) = 3.96215 4.56031 4.27171
# Velocity P-wave (km/s) = 6.19545 7.67562 6.97491
#
# Compressibility (1/GPa) = 0.02186939
#
# Stress axis : x y z
#
# Youngs Moduli (GPa) = 69.05220 134.92595 102.31903
#
# Poissons Ratio (x) = 0.37033 0.04559
# Poissons Ratio (y) = 0.18953 0.17479
# Poissons Ratio (z) = 0.03077 0.23050
#
# Static dielectric constant tensor:
#      x y z
#    x 2.475730 -0.026630 0.066210 
#    y -0.026630 1.893140 -0.054890 
#    z 0.066210 -0.054890 2.291900 
# 
# From -- ./inp_files/546944.got.cif
#   From: 2010.05.17/outbox.cif.g08.bks.cpg/sg2_274_cif.got.tgz:546944.got - 2010.06.03 11:33:40.
