data_PCOD9068779
_publ_section_title
;
Structure prediction by ZEFSAII (Michael W. Deem and Ramdas Pophale) SiO2 
 PCOD9068779
Probable space group: P -1
;
_chemical_formula_sum "Si O2"
_cell_formula_units_Z 16
_cell_length_a 24.979432
_cell_length_b 8.885425
_cell_length_c 21.156811
_cell_angle_alpha 153.371828
_cell_angle_beta 161.789955
_cell_angle_gamma 33.748413
_cell_volume 652.448784
_symmetry_space_group_name_H-M "P -1"
_symmetry_group_IT_number 2
_symmetry_cell_setting 'triclinic'
loop_
_space_group_symop_operation_xyz
x,y,z
-x,-y,-z
loop_
_atom_site_type_symbol
_atom_site_label
_atom_site_fract_x
_atom_site_fract_y
_atom_site_fract_z
Si Si1 0.052484 0.800841 0.047371
Si Si2 0.210405 0.790642 0.473955
Si Si3 0.219636 0.100971 0.834054
Si Si4 0.548805 0.989544 0.395849
Si Si5 0.071412 0.353364 0.587570
Si Si6 0.345194 0.707338 0.719071
Si Si7 0.785122 0.179254 0.965969
Si Si8 0.490472 0.093514 0.820970
O O1 0.257479 0.834286 0.303710
O O2 0.979081 0.405517 0.817088
O O3 0.000000 0.000000 0.000000
O O4 0.925805 0.954496 0.013203
O O5 0.296031 0.581797 0.545908
O O6 0.221974 0.146662 0.656652
O O7 0.302473 0.890859 0.549828
O O8 0.210148 0.867475 0.672261
O O9 0.224916 0.494215 0.968698
O O10 0.066662 0.919625 0.636592
O O11 0.387806 0.046545 0.042598
O O12 0.590416 0.605643 0.292237
O O13 0.403949 0.004961 0.293872
O O14 0.473470 0.032013 0.256742
O O15 0.000000 0.500000 0.500000
O O16 0.136615 0.648545 0.818136
O O17 0.500000 0.000000 0.000000
O O18 0.500000 0.500000 0.000000
#
# Coordination Sequence:
#
# PCOD9068779 Si02
#       8
#     2   2   2   2   2   2   2   2
#     4  12  29  50  76 109 152 203 252 307 376 454
#     4  12  25  47  72 107 151 196 248 301 380 449
#     4  12  23  40  73 110 147 187 249 314 377 440
#     4  12  25  47  73 106 154 197 249 310 377 448
#     4  12  26  44  73 115 150 188 252 319 375 442
#     4  12  19  40  72 107 136 188 250 310 367 430
#     4  12  26  49  79 110 149 197 256 314 368 446
#     4  12  24  43  74 112 148 196 245 313 386 439
#
# _framework density 24.522998000000001
#
# number of rings (size 3 to 8) (size 9 to 14) (size 15 to 20)
#    0.000    0.000    6.250    4.125    1.750    1.000 
#    2.250    0.625    0.000    0.000    0.000    0.000 
#    0.000    0.000    0.000    0.000    0.000    0.000 
#
# Total GULP energy -89417.535787 kJ/mol
# GULP energy per Si atom -5588.595987 kJ/mol
# Density = 2.446718 g / cm^3
# Si number density = 24.522998 Si / 1000 Ang^3
#
#
#
# Elastic Constant Matrix: (Units=GPa)
#
#
# Indices 1 2 3 4 5 6 
#
# 1 115.3275 28.7482 40.3441 -4.4398 25.0075 5.8762
# 2 28.7482 51.6393 17.0166 -13.5875 -0.7422 5.5007
# 3 40.3441 17.0166 162.8886 -7.7300 21.0207 10.8848
# 4 -4.4398 -13.5875 -7.7300 22.5151 2.4881 -4.2882
# 5 25.0075 -0.7422 21.0207 2.4881 39.6216 -5.6590
# 6 5.8762 5.5007 10.8848 -4.2882 -5.6590 46.6504
#
#
#
# Elastic Compliance Matrix: (Units=1/GPa)
#
#
# Indices 1 2 3 4 5 6 
#
# 1 0.012484 -0.006865 -0.001402 -0.001630 -0.007373 -0.001480
# 2 -0.006865 0.027376 -0.001041 0.014266 0.004464 -0.000268
# 3 -0.001402 -0.001041 0.007206 0.001623 -0.003293 -0.001632
# 4 -0.001630 0.014266 0.001623 0.054077 -0.002560 0.002805
# 5 -0.007373 0.004464 -0.003293 -0.002560 0.032582 0.004888
# 6 -0.001480 -0.000268 -0.001632 0.002805 0.004888 0.022886
#
#
# Mechanical properties :
#
#
# Convention : Reuss Voigt Hill
#
# Bulk Modulus (GPa) = 35.14802 55.78591 45.46696
# Shear Modulus (GPa) = 27.06939 38.00718 32.53829
#
# Velocity S-wave (km/s) = 3.32601 3.94110 3.64654
# Velocity P-wave (km/s) = 5.39570 6.59602 6.02582
#
# Compressibility (1/GPa) = 0.02845111
#
# Stress axis : x y z
#
# Youngs Moduli (GPa) = 80.10120 36.52783 138.77122
#
# Poissons Ratio (x) = 0.25077 0.19452
# Poissons Ratio (y) = 0.54992 0.14443
# Poissons Ratio (z) = 0.11228 0.03802
#
# Static dielectric constant tensor:
#      x y z
#    x -1.330100 -1.082050 -0.198150 
#    y -1.082050 1.612610 -0.121050 
#    z -0.198150 -0.121050 1.967100 
# 
# From -- ./inp_files/601980.got.cif
#   From: 2010.05.17/outbox.cif.g08.bks.cpg/sg2_301_cif.got.tgz:601980.got - 2010.06.03 11:33:40.
