data_PCOD9068097
_publ_section_title
;
Structure prediction by ZEFSAII (Michael W. Deem and Ramdas Pophale) SiO2 
 PCOD9068097
Probable space group: P -1
;
_chemical_formula_sum "Si O2"
_cell_formula_units_Z 16
_cell_length_a 16.249262
_cell_length_b 5.106505
_cell_length_c 8.613745
_cell_angle_alpha 89.917036
_cell_angle_beta 69.703656
_cell_angle_gamma 101.175139
_cell_volume 655.819704
_symmetry_space_group_name_H-M "P -1"
_symmetry_group_IT_number 2
_symmetry_cell_setting 'triclinic'
loop_
_space_group_symop_operation_xyz
x,y,z
-x,-y,-z
loop_
_atom_site_type_symbol
_atom_site_label
_atom_site_fract_x
_atom_site_fract_y
_atom_site_fract_z
Si Si1 0.808372 0.464918 0.288862
Si Si2 0.998963 0.750916 0.112784
Si Si3 0.739145 0.913987 0.186460
Si Si4 0.908599 0.061202 0.635250
Si Si5 0.656285 0.165479 0.969813
Si Si6 0.792356 0.486026 0.638328
Si Si7 0.558954 0.783279 0.502174
Si Si8 0.518191 0.739062 0.864807
O O1 0.905996 0.640649 0.263043
O O2 0.774976 0.642044 0.176734
O O3 0.755639 0.460012 0.485524
O O4 0.804041 0.168805 0.225658
O O5 0.071489 0.849019 0.198818
O O6 0.000000 0.500000 0.000000
O O7 0.000000 0.000000 0.000000
O O8 0.649130 0.860391 0.346247
O O9 0.714283 0.002761 0.033368
O O10 0.867606 0.300887 0.589394
O O11 0.836414 0.787534 0.656831
O O12 0.000000 0.000000 0.500000
O O13 0.718776 0.369252 0.815721
O O14 0.581723 0.979659 0.913794
O O15 0.584416 0.269534 0.126568
O O16 0.500000 0.500000 0.500000
O O17 0.575645 0.746183 0.672548
O O18 0.500000 0.000000 0.500000
O O19 0.500000 0.500000 0.000000
#
# Coordination Sequence:
#
# PCOD9068097 Si02
#       8
#     2   2   2   2   2   2   2   2
#     4  12  28  48  73 107 150 193 242 306 374 438
#     4  12  28  48  76 112 149 196 247 307 377 448
#     4  12  27  46  73 106 149 194 245 306 367 443
#     4  12  27  51  81 108 151 201 253 305 375 451
#     4  11  28  47  72 112 147 192 252 304 373 437
#     4  12  28  48  80 111 149 197 252 311 368 448
#     4  12  25  47  73 104 141 194 243 299 367 440
#     4  11  26  47  76 104 149 197 245 312 365 443
#
# _framework density 24.396951000000001
#
# number of rings (size 3 to 8) (size 9 to 14) (size 15 to 20)
#    0.000    0.250    2.500    4.875   14.000    0.000 
#    0.000    0.000    0.000    0.000    0.000    0.000 
#    0.000    0.000    0.000    0.000    0.000    0.000 
#
# Total GULP energy -89547.823032 kJ/mol
# GULP energy per Si atom -5596.738940 kJ/mol
# Density = 2.434142 g / cm^3
# Si number density = 24.396951 Si / 1000 Ang^3
#
#
#
# Elastic Constant Matrix: (Units=GPa)
#
#
# Indices 1 2 3 4 5 6 
#
# 1 54.0448 16.1525 7.0998 -2.2772 7.2335 0.1857
# 2 16.1525 136.2116 25.9057 -9.1298 10.9635 -6.2009
# 3 7.0998 25.9057 124.2879 -12.4057 11.8427 9.1550
# 4 -2.2772 -9.1298 -12.4057 41.4092 4.6658 2.4122
# 5 7.2335 10.9635 11.8427 4.6658 44.6093 -4.6263
# 6 0.1857 -6.2009 9.1550 2.4122 -4.6263 41.3493
#
#
#
# Elastic Compliance Matrix: (Units=1/GPa)
#
#
# Indices 1 2 3 4 5 6 
#
# 1 0.019553 -0.002011 -0.000295 0.000895 -0.002763 -0.000686
# 2 -0.002011 0.008102 -0.001416 0.001320 -0.001291 0.001316
# 3 -0.000295 -0.001416 0.009086 0.002842 -0.002591 -0.002678
# 4 0.000895 0.001320 0.002842 0.025954 -0.004189 -0.002418
# 5 -0.002763 -0.001291 -0.002591 -0.004189 0.024660 0.003396
# 6 -0.000686 0.001316 -0.002678 -0.002418 0.003396 0.025499
#
#
# Mechanical properties :
#
#
# Convention : Reuss Voigt Hill
#
# Bulk Modulus (GPa) = 34.13440 45.87338 40.00389
# Shear Modulus (GPa) = 38.44317 43.16598 40.80458
#
# Velocity S-wave (km/s) = 3.97386 4.21089 4.09409
# Velocity P-wave (km/s) = 5.92259 6.51812 6.22748
#
# Compressibility (1/GPa) = 0.02929596
#
# Stress axis : x y z
#
# Youngs Moduli (GPa) = 51.14343 123.43205 110.06423
#
# Poissons Ratio (x) = 0.24828 0.03243
# Poissons Ratio (y) = 0.10287 0.15584
# Poissons Ratio (z) = 0.01507 0.17477
#
# Static dielectric constant tensor:
#      x y z
#    x 1.940610 0.030300 0.071680 
#    y 0.030300 1.537740 -0.373890 
#    z 0.071680 -0.373890 1.463820 
# 
# From -- ./inp_files/288631.got.cif
#   From: 2010.05.17/outbox.cif.g08.bks.cpg/sg2_145_cif.got.tgz:288631.got - 2010.06.03 11:33:40.
