data_PCOD9068102
_publ_section_title
;
Structure prediction by ZEFSAII (Michael W. Deem and Ramdas Pophale) SiO2 
 PCOD9068102
Probable space group: P -1
;
_chemical_formula_sum "Si O2"
_cell_formula_units_Z 15
_cell_length_a 11.498330
_cell_length_b 4.985439
_cell_length_c 12.007846
_cell_angle_alpha 109.829832
_cell_angle_beta 110.495394
_cell_angle_gamma 94.173849
_cell_volume 592.030867
_symmetry_space_group_name_H-M "P -1"
_symmetry_group_IT_number 2
_symmetry_cell_setting 'triclinic'
loop_
_space_group_symop_operation_xyz
x,y,z
-x,-y,-z
loop_
_atom_site_type_symbol
_atom_site_label
_atom_site_fract_x
_atom_site_fract_y
_atom_site_fract_z
Si Si1 0.871789 0.591894 0.010442
Si Si2 0.989719 0.710186 0.299420
Si Si3 0.263038 0.046891 0.140462
Si Si4 0.469552 0.766786 0.859083
Si Si5 0.500000 0.000000 0.500000
Si Si6 0.242254 0.505106 0.368923
Si Si7 0.140233 0.293043 0.533233
Si Si8 0.631554 0.884977 0.296377
O O1 0.894885 0.672565 0.158924
O O2 0.836353 0.849649 0.962378
O O3 0.000000 0.500000 0.000000
O O4 0.762702 0.300815 0.916745
O O5 0.114970 0.591831 0.293797
O O6 0.927689 0.563045 0.372242
O O7 0.040778 0.044602 0.399238
O O8 0.401746 0.186909 0.162103
O O9 0.248899 0.192510 0.275245
O O10 0.422161 0.429039 0.824332
O O11 0.367659 0.867920 0.759392
O O12 0.500000 0.000000 0.000000
O O13 0.628785 0.267561 0.583753
O O14 0.458532 0.083457 0.624848
O O15 0.223102 0.476359 0.490491
O O16 0.233611 0.129703 0.608773
#
# Coordination Sequence:
#
# PCOD9068102 Si02
#       8
#     2   2   2   2   1   2   2   2
#     4  12  26  48  74 115 145 204 252 320 371 461
#     4  11  26  47  76 109 160 196 262 307 391 461
#     4  12  28  47  79 107 154 197 260 318 387 447
#     4  12  29  50  76 109 153 202 256 317 392 461
#     4  12  26  48  78 114 152 192 264 318 390 456
#     4  12  25  49  76 111 154 201 255 324 386 466
#     4  11  27  47  74 112 154 205 248 320 387 466
#     4  12  27  49  78 114 147 203 256 321 389 459
#
# _framework density 25.336513
#
# number of rings (size 3 to 8) (size 9 to 14) (size 15 to 20)
#    0.000    0.267    4.000    3.600    7.467    1.067 
#    0.000    0.000    0.000    0.000    0.000    0.000 
#    0.000    0.000    0.000    0.000    0.000    0.000 
#
# Total GULP energy -83913.484230 kJ/mol
# GULP energy per Si atom -5594.232282 kJ/mol
# Density = 2.527885 g / cm^3
# Si number density = 25.336513 Si / 1000 Ang^3
#
#
#
# Elastic Constant Matrix: (Units=GPa)
#
#
# Indices 1 2 3 4 5 6 
#
# 1 78.3345 14.4536 17.8497 -1.6608 -5.1630 15.4414
# 2 14.4536 55.3780 25.5204 -5.3415 1.0021 -0.6634
# 3 17.8497 25.5204 165.7176 21.0461 -16.5804 3.4486
# 4 -1.6608 -5.3415 21.0461 28.3677 -4.1209 2.2299
# 5 -5.1630 1.0021 -16.5804 -4.1209 41.2140 1.8374
# 6 15.4414 -0.6634 3.4486 2.2299 1.8374 36.0646
#
#
#
# Elastic Compliance Matrix: (Units=1/GPa)
#
#
# Indices 1 2 3 4 5 6 
#
# 1 0.015108 -0.003436 -0.000981 0.001787 0.002057 -0.006653
# 2 -0.003436 0.021462 -0.003983 0.006350 -0.002007 0.001956
# 3 -0.000981 -0.003983 0.007796 -0.006217 0.002495 -0.000141
# 4 0.001787 0.006350 -0.006217 0.041648 0.001854 -0.002723
# 5 0.002057 -0.002007 0.002495 0.001854 0.025874 -0.002589
# 6 -0.006653 0.001956 -0.000141 -0.002723 -0.002589 0.030927
#
#
# Mechanical properties :
#
#
# Convention : Reuss Voigt Hill
#
# Bulk Modulus (GPa) = 36.27577 46.11973 41.19775
# Shear Modulus (GPa) = 29.62031 37.23635 33.42833
#
# Velocity S-wave (km/s) = 3.42288 3.83779 3.63626
# Velocity P-wave (km/s) = 5.47450 6.15472 5.82455
#
# Compressibility (1/GPa) = 0.02756661
#
# Stress axis : x y z
#
# Youngs Moduli (GPa) = 66.18921 46.59352 128.27802
#
# Poissons Ratio (x) = 0.16008 0.12583
# Poissons Ratio (y) = 0.22741 0.51094
# Poissons Ratio (z) = 0.06493 0.18558
#
# Static dielectric constant tensor:
#      x y z
#    x 1.987980 -0.022380 0.010540 
#    y -0.022380 2.012110 -0.003230 
#    z 0.010540 -0.003230 1.987590 
# 
# From -- ./inp_files/409594.got.cif
#   From: 2010.05.17/outbox.cif.g08.bks.cpg/sg2_205_cif.got.tgz:409594.got - 2010.06.03 11:33:40.
