data_PCOD9068923
_publ_section_title
;
Structure prediction by ZEFSAII (Michael W. Deem and Ramdas Pophale) SiO2 
 PCOD9068923
Probable space group: P -1
;
_chemical_formula_sum "Si O2"
_cell_formula_units_Z 15
_cell_length_a 9.079276
_cell_length_b 11.628251
_cell_length_c 9.558391
_cell_angle_alpha 101.632708
_cell_angle_beta 133.156278
_cell_angle_gamma 69.095634
_cell_volume 686.367352
_symmetry_space_group_name_H-M "P -1"
_symmetry_group_IT_number 2
_symmetry_cell_setting 'triclinic'
loop_
_space_group_symop_operation_xyz
x,y,z
-x,-y,-z
loop_
_atom_site_type_symbol
_atom_site_label
_atom_site_fract_x
_atom_site_fract_y
_atom_site_fract_z
Si Si1 0.777482 0.283989 0.098129
Si Si2 0.050878 0.005759 0.875489
Si Si3 0.500000 0.500000 0.500000
Si Si4 0.139821 0.631675 0.521342
Si Si5 0.170483 0.560461 0.059787
Si Si6 0.404674 0.118728 0.062309
Si Si7 0.308999 0.358797 0.868766
Si Si8 0.823617 0.109880 0.491952
O O1 0.845233 0.137522 0.137911
O O2 0.811715 0.352381 0.279514
O O3 0.900233 0.317332 0.052846
O O4 0.525123 0.329230 0.914389
O O5 0.855261 0.070254 0.663663
O O6 0.205354 0.089385 0.989704
O O7 0.000000 0.000000 0.000000
O O8 0.323601 0.536806 0.527509
O O9 0.314240 0.569868 0.285586
O O10 0.125804 0.764612 0.477301
O O11 0.911124 0.611331 0.349512
O O12 0.295246 0.463207 0.000178
O O13 0.000000 0.500000 0.000000
O O14 0.587308 0.127026 0.288663
O O15 0.335315 0.237733 0.949832
O O16 0.500000 0.000000 0.000000
O O17 0.000000 0.000000 0.500000
#
# Coordination Sequence:
#
# PCOD9068923 Si02
#       8
#     2   2   1   2   2   2   2   2
#     4  12  27  47  70 108 143 184 246 298 348 436
#     4  12  28  43  69 109 148 184 234 299 357 420
#     4  12  26  46  72 104 142 188 234 296 358 422
#     4  12  24  43  76 108 141 190 238 294 360 426
#     4  12  28  48  70 102 145 190 234 297 359 415
#     4  12  21  42  74 103 137 184 233 286 354 424
#     4  12  23  44  75 102 137 189 240 289 351 424
#     4  12  21  43  74 105 138 187 236 283 355 425
#
# _framework density 21.854185999999999
#
# number of rings (size 3 to 8) (size 9 to 14) (size 15 to 20)
#    0.000    0.000    9.333    0.400    3.733    2.133 
#    0.000    0.000    0.000    0.000    0.000    0.000 
#    0.000    0.000    0.000    0.000    0.000    0.000 
#
# Total GULP energy -83617.413126 kJ/mol
# GULP energy per Si atom -5574.494208 kJ/mol
# Density = 2.180445 g / cm^3
# Si number density = 21.854186 Si / 1000 Ang^3
#
#
#
# Elastic Constant Matrix: (Units=GPa)
#
#
# Indices 1 2 3 4 5 6 
#
# 1 92.5444 18.7124 51.2954 -5.9024 -3.5274 15.8988
# 2 18.7124 77.7111 11.1435 -6.6150 4.5855 21.6525
# 3 51.2954 11.1435 166.6176 -4.7356 -4.2878 11.0577
# 4 -5.9024 -6.6150 -4.7356 29.4256 3.4510 -6.5907
# 5 -3.5274 4.5855 -4.2878 3.4510 41.1376 -3.3909
# 6 15.8988 21.6525 11.0577 -6.5907 -3.3909 38.7024
#
#
#
# Elastic Compliance Matrix: (Units=1/GPa)
#
#
# Indices 1 2 3 4 5 6 
#
# 1 0.014018 -0.001823 -0.003925 0.000934 0.000637 -0.003403
# 2 -0.001823 0.015863 0.000015 0.001714 -0.002733 -0.008078
# 3 -0.003925 0.000015 0.007252 0.000252 0.000364 -0.000393
# 4 0.000934 0.001714 0.000252 0.035917 -0.002730 0.004463
# 5 0.000637 -0.002733 0.000364 -0.002730 0.025174 0.002904
# 6 -0.003403 -0.008078 -0.000393 0.004463 0.002904 0.032882
#
#
# Mechanical properties :
#
#
# Convention : Reuss Voigt Hill
#
# Bulk Modulus (GPa) = 38.96118 55.46398 47.21258
# Shear Modulus (GPa) = 33.08478 38.90125 35.99302
#
# Velocity S-wave (km/s) = 3.89509 4.22363 4.06268
# Velocity P-wave (km/s) = 6.17215 7.01566 6.60738
#
# Compressibility (1/GPa) = 0.02566657
#
# Stress axis : x y z
#
# Youngs Moduli (GPa) = 71.33630 63.04078 137.89751
#
# Poissons Ratio (x) = 0.11491 0.54125
# Poissons Ratio (y) = 0.13003 -0.00203
# Poissons Ratio (z) = 0.28000 -0.00093
#
# Static dielectric constant tensor:
#      x y z
#    x 1.819670 0.045920 -0.006090 
#    y 0.045920 1.900160 -0.005800 
#    z -0.006090 -0.005800 1.792140 
# 
# From -- ./inp_files/181042.got.cif
#   From: 2010.05.17/outbox.cif.g08.bks.cpg/sg2_91_cif.got.tgz:181042.got - 2010.06.03 11:33:40.
