data_PCOD9068468
_publ_section_title
;
Structure prediction by ZEFSAII (Michael W. Deem and Ramdas Pophale) SiO2 
 PCOD9068468
Probable space group: P -1
;
_chemical_formula_sum "Si O2"
_cell_formula_units_Z 16
_cell_length_a 14.464613
_cell_length_b 8.661608
_cell_length_c 8.113318
_cell_angle_alpha 100.773604
_cell_angle_beta 62.166491
_cell_angle_gamma 60.982553
_cell_volume 664.296618
_symmetry_space_group_name_H-M "P -1"
_symmetry_group_IT_number 2
_symmetry_cell_setting 'triclinic'
loop_
_space_group_symop_operation_xyz
x,y,z
-x,-y,-z
loop_
_atom_site_type_symbol
_atom_site_label
_atom_site_fract_x
_atom_site_fract_y
_atom_site_fract_z
Si Si1 0.616964 0.452305 0.506749
Si Si2 0.229576 0.985699 0.545435
Si Si3 0.638678 0.720454 0.696079
Si Si4 0.278597 0.513690 0.885974
Si Si5 0.512226 0.141813 0.819202
Si Si6 0.979591 0.028704 0.814941
Si Si7 0.032100 0.622805 0.612407
Si Si8 0.859082 0.679821 0.058825
O O1 0.500000 0.500000 0.500000
O O2 0.707756 0.227526 0.460505
O O3 0.570495 0.615986 0.717193
O O4 0.701374 0.486555 0.325559
O O5 0.334010 0.931658 0.301074
O O6 0.229785 0.125795 0.705782
O O7 0.072325 0.081733 0.675475
O O8 0.805282 0.563725 0.515274
O O9 0.560257 0.919350 0.680812
O O10 0.594625 0.797199 0.935610
O O11 0.427441 0.345768 0.815207
O O12 0.208243 0.416351 0.956778
O O13 0.177526 0.760495 0.055550
O O14 0.022919 0.824302 0.644489
O O15 0.000000 0.000000 0.000000
O O16 0.000000 0.500000 0.500000
O O17 0.912711 0.723882 0.869029
O O18 0.000000 0.500000 0.000000
#
# Coordination Sequence:
#
# PCOD9068468 Si02
#       8
#     2   2   2   2   2   2   2   2
#     4  12  24  43  71 106 143 188 243 302 363 433
#     4  12  23  43  74 106 141 189 243 298 365 429
#     4  11  26  51  70  96 155 198 237 302 375 437
#     4  12  24  43  71 113 140 184 254 302 352 442
#     4  11  27  48  69 103 145 195 242 299 371 438
#     4  12  22  46  75 110 148 190 244 310 367 430
#     4  12  25  48  74 107 144 193 244 303 369 434
#     4  12  23  40  72 104 140 186 242 296 360 426
#
# _framework density 24.085625
#
# number of rings (size 3 to 8) (size 9 to 14) (size 15 to 20)
#    0.000    0.250    6.250    3.000    1.750    1.500 
#    4.500    3.750    0.000    0.000    0.000    0.000 
#    0.000    0.000    0.000    0.000    0.000    0.000 
#
# Total GULP energy -89136.037242 kJ/mol
# GULP energy per Si atom -5571.002328 kJ/mol
# Density = 2.403080 g / cm^3
# Si number density = 24.085625 Si / 1000 Ang^3
#
#
#
# Elastic Constant Matrix: (Units=GPa)
#
#
# Indices 1 2 3 4 5 6 
#
# 1 101.3944 13.3136 23.4482 24.3644 2.1128 11.1172
# 2 13.3136 108.8815 14.9610 40.4187 10.5058 9.8198
# 3 23.4482 14.9610 72.6333 10.7415 -20.8411 10.1421
# 4 24.3644 40.4187 10.7415 49.0558 18.8251 -0.4340
# 5 2.1128 10.5058 -20.8411 18.8251 29.1700 -0.5174
# 6 11.1172 9.8198 10.1421 -0.4340 -0.5174 24.8269
#
#
#
# Elastic Compliance Matrix: (Units=1/GPa)
#
#
# Indices 1 2 3 4 5 6 
#
# 1 0.012684 0.002258 -0.001602 -0.008930 0.002780 -0.006017
# 2 0.002258 0.014690 0.001063 -0.015513 0.005186 -0.007419
# 3 -0.001602 0.001063 0.026655 -0.017470 0.029870 -0.010275
# 4 -0.008930 -0.015513 -0.017470 0.058299 -0.043563 0.017383
# 5 0.002780 0.005186 0.029870 -0.043563 0.081409 -0.014563
# 6 -0.006017 -0.007419 -0.010275 0.017383 -0.014563 0.050106
#
#
# Mechanical properties :
#
#
# Convention : Reuss Voigt Hill
#
# Bulk Modulus (GPa) = 17.40077 42.92834 30.16455
# Shear Modulus (GPa) = 19.26352 36.02297 27.64324
#
# Velocity S-wave (km/s) = 2.83113 3.87152 3.39146
# Velocity P-wave (km/s) = 4.23406 6.15198 5.28082
#
# Compressibility (1/GPa) = 0.05746872
#
# Stress axis : x y z
#
# Youngs Moduli (GPa) = 78.84040 68.07518 37.51653
#
# Poissons Ratio (x) = -0.15374 0.06008
# Poissons Ratio (y) = -0.17806 -0.03989
# Poissons Ratio (z) = 0.12627 -0.07238
#
# Static dielectric constant tensor:
#      x y z
#    x 1.987030 0.003470 0.079150 
#    y 0.003470 1.932790 0.025210 
#    z 0.079150 0.025210 1.995290 
# 
# From -- ./inp_files/298741.got.cif
#   From: 2010.05.17/outbox.cif.g08.bks.cpg/sg2_150_cif.got.tgz:298741.got - 2010.06.03 11:33:40.
