data_PCOD9068039
_publ_section_title
;
Structure prediction by ZEFSAII (Michael W. Deem and Ramdas Pophale) SiO2 
 PCOD9068039
Probable space group: P -1
;
_chemical_formula_sum "Si O2"
_cell_formula_units_Z 14
_cell_length_a 10.339122
_cell_length_b 14.971993
_cell_length_c 9.087030
_cell_angle_alpha 114.816087
_cell_angle_beta 101.945352
_cell_angle_gamma 132.391656
_cell_volume 643.580937
_symmetry_space_group_name_H-M "P -1"
_symmetry_group_IT_number 2
_symmetry_cell_setting 'triclinic'
loop_
_space_group_symop_operation_xyz
x,y,z
-x,-y,-z
loop_
_atom_site_type_symbol
_atom_site_label
_atom_site_fract_x
_atom_site_fract_y
_atom_site_fract_z
Si Si1 0.942025 0.732455 0.635858
Si Si2 0.717624 0.408510 0.465387
Si Si3 0.218731 0.209850 0.139609
Si Si4 0.481571 0.884667 0.003011
Si Si5 0.243248 0.430321 0.821282
Si Si6 0.063006 0.536800 0.869381
Si Si7 0.173629 0.188027 0.761831
O O1 0.949957 0.623327 0.608435
O O2 0.847465 0.730150 0.754956
O O3 0.747475 0.611297 0.368985
O O4 0.215047 0.944824 0.787664
O O5 0.479602 0.331356 0.351824
O O6 0.636012 0.271685 0.240749
O O7 0.817743 0.423340 0.646929
O O8 0.191238 0.187692 0.941736
O O9 0.000000 0.000000 0.000000
O O10 0.309615 0.757835 0.021631
O O11 0.500000 0.000000 0.000000
O O12 0.113130 0.453355 0.790700
O O13 0.100641 0.255388 0.759800
O O14 0.527182 0.629330 0.089405
O O15 0.000000 0.500000 0.000000
O O16 0.000000 0.000000 0.500000
#
# Coordination Sequence:
#
# PCOD9068039 Si02
#       7
#     2   2   2   2   2   2   2
#     4  12  24  45  79 106 147 194 254 312 368 455
#     4  12  25  49  75 107 153 197 253 314 376 448
#     4  12  25  45  77 114 142 195 259 309 370 447
#     4  12  24  46  77 107 146 204 255 304 376 455
#     4  11  26  47  72 107 148 197 239 306 391 437
#     4  12  28  48  76 109 156 199 246 317 384 450
#     4  11  26  47  75 107 153 194 242 310 379 448
#
# _framework density 21.753285000000002
#
# number of rings (size 3 to 8) (size 9 to 14) (size 15 to 20)
#    0.000    0.286    5.714    2.571    4.000    2.286 
#    0.000    1.429    0.000    0.000    0.000    0.000 
#    0.000    0.000    0.000    0.000    0.000    0.000 
#
# Total GULP energy -78160.011052 kJ/mol
# GULP energy per Si atom -5582.857932 kJ/mol
# Density = 2.170377 g / cm^3
# Si number density = 21.753285 Si / 1000 Ang^3
#
#
#
# Elastic Constant Matrix: (Units=GPa)
#
#
# Indices 1 2 3 4 5 6 
#
# 1 70.3234 53.7569 56.8523 7.4310 -4.5779 -10.2355
# 2 53.7569 161.5670 78.0752 4.7347 -0.8972 -12.7265
# 3 56.8523 78.0752 166.5886 6.1995 -2.4183 0.2339
# 4 7.4310 4.7347 6.1995 45.3140 -8.1725 -0.3976
# 5 -4.5779 -0.8972 -2.4183 -8.1725 36.6716 1.3535
# 6 -10.2355 -12.7265 0.2339 -0.3976 1.3535 39.5919
#
#
#
# Elastic Compliance Matrix: (Units=1/GPa)
#
#
# Indices 1 2 3 4 5 6 
#
# 1 0.023349 -0.004572 -0.005724 -0.002210 0.001766 0.004518
# 2 -0.004572 0.009179 -0.002755 0.000079 -0.000577 0.001805
# 3 -0.005724 -0.002755 0.009252 -0.000079 -0.000100 -0.002417
# 4 -0.002210 0.000079 -0.000079 0.023319 0.004935 -0.000480
# 5 0.001766 -0.000577 -0.000100 0.004935 0.028593 -0.000656
# 6 0.004518 0.001805 -0.002417 -0.000480 -0.000656 0.027038
#
#
# Mechanical properties :
#
#
# Convention : Reuss Voigt Hill
#
# Bulk Modulus (GPa) = 63.78765 86.20532 74.99649
# Shear Modulus (GPa) = 32.88223 38.30181 35.59202
#
# Velocity S-wave (km/s) = 3.89215 4.20067 4.04935
# Velocity P-wave (km/s) = 7.04168 7.95249 7.51091
#
# Compressibility (1/GPa) = 0.01567702
#
# Stress axis : x y z
#
# Youngs Moduli (GPa) = 42.82925 108.94690 108.07968
#
# Poissons Ratio (x) = 0.49812 0.61863
# Poissons Ratio (y) = 0.19582 0.29780
# Poissons Ratio (z) = 0.24515 0.30019
#
# Static dielectric constant tensor:
#      x y z
#    x 1.907710 0.015680 0.043520 
#    y 0.015680 1.860640 0.020150 
#    z 0.043520 0.020150 1.851530 
# 
# From -- ./inp_files/270723.got.cif
#   From: 2010.05.17/outbox.cif.g08.bks.cpg/sg2_136_cif.got.tgz:270723.got - 2010.06.03 11:33:40.
