data_PCOD9068220
_publ_section_title
;
Structure prediction by ZEFSAII (Michael W. Deem and Ramdas Pophale) SiO2 
 PCOD9068220
Probable space group: P -1
;
_chemical_formula_sum "Si O2"
_cell_formula_units_Z 12
_cell_length_a 8.811183
_cell_length_b 14.834357
_cell_length_c 9.178936
_cell_angle_alpha 142.471231
_cell_angle_beta 132.902804
_cell_angle_gamma 65.831365
_cell_volume 511.964439
_symmetry_space_group_name_H-M "P -1"
_symmetry_group_IT_number 2
_symmetry_cell_setting 'triclinic'
loop_
_space_group_symop_operation_xyz
x,y,z
-x,-y,-z
loop_
_atom_site_type_symbol
_atom_site_label
_atom_site_fract_x
_atom_site_fract_y
_atom_site_fract_z
Si Si1 0.180776 0.712447 0.791063
Si Si2 0.196298 0.657404 0.310761
Si Si3 0.385956 0.103197 0.656683
Si Si4 0.002224 0.370094 0.127048
Si Si5 0.655765 0.802030 0.924179
Si Si6 0.097717 0.923905 0.761814
O O1 0.087066 0.553967 0.439505
O O2 0.048487 0.700359 0.836654
O O3 0.164713 0.856489 0.868014
O O4 0.430108 0.731665 0.018971
O O5 0.423011 0.686214 0.578718
O O6 0.113878 0.796086 0.492324
O O7 0.000000 0.500000 0.000000
O O8 0.212655 0.672216 0.166005
O O9 0.151154 0.079811 0.406494
O O10 0.500000 0.000000 0.500000
O O11 0.351994 0.097628 0.805385
O O12 0.177892 0.298454 0.078362
O O13 0.742990 0.918483 0.995345
#
# Coordination Sequence:
#
# PCOD9068220 Si02
#       6
#     2   2   2   2   2   2
#     4  11  27  48  71 112 149 186 245 298 362 425
#     4  12  25  46  78 107 143 193 245 293 359 436
#     4  12  27  44  73 107 150 189 240 302 361 425
#     4  11  26  48  75 107 149 192 237 302 360 435
#     4  12  27  46  77 109 145 192 244 298 363 428
#     4  12  26  47  72 108 146 189 242 297 359 430
#
# _framework density 23.439126000000002
#
# number of rings (size 3 to 8) (size 9 to 14) (size 15 to 20)
#    0.000    0.333    5.000    2.000    4.667    5.333 
#    0.000    3.333    0.000    0.000    0.000    0.000 
#    0.000    0.000    0.000    0.000    0.000    0.000 
#
# Total GULP energy -67047.592238 kJ/mol
# GULP energy per Si atom -5587.299353 kJ/mol
# Density = 2.338578 g / cm^3
# Si number density = 23.439126 Si / 1000 Ang^3
#
#
#
# Elastic Constant Matrix: (Units=GPa)
#
#
# Indices 1 2 3 4 5 6 
#
# 1 98.6584 29.9982 24.7524 -26.7181 3.7666 7.8161
# 2 29.9982 82.0715 30.0145 -18.0351 3.8002 17.3723
# 3 24.7524 30.0145 104.9098 -17.7846 -0.4386 17.8141
# 4 -26.7181 -18.0351 -17.7846 24.1489 5.4675 0.4554
# 5 3.7666 3.8002 -0.4386 5.4675 46.2057 -10.1421
# 6 7.8161 17.3723 17.8141 0.4554 -10.1421 26.2880
#
#
#
# Elastic Compliance Matrix: (Units=1/GPa)
#
#
# Indices 1 2 3 4 5 6 
#
# 1 0.016107 0.000076 0.000856 0.019875 -0.005384 -0.007841
# 2 0.000076 0.019486 -0.000162 0.016403 -0.007015 -0.015781
# 3 0.000856 -0.000162 0.013118 0.011510 -0.003629 -0.010637
# 4 0.019875 0.016403 0.011510 0.089516 -0.020956 -0.034185
# 5 -0.005384 -0.007015 -0.003629 -0.020956 0.029598 0.020478
# 6 -0.007841 -0.015781 -0.010637 -0.034185 0.020478 0.066501
#
#
# Mechanical properties :
#
#
# Convention : Reuss Voigt Hill
#
# Bulk Modulus (GPa) = 19.89959 50.57444 35.23701
# Shear Modulus (GPa) = 20.03717 32.72014 26.37865
#
# Velocity S-wave (km/s) = 2.92697 3.74031 3.35835
# Velocity P-wave (km/s) = 4.46444 6.34642 5.48672
#
# Compressibility (1/GPa) = 0.05025230
#
# Stress axis : x y z
#
# Youngs Moduli (GPa) = 62.08369 51.31982 76.22871
#
# Poissons Ratio (x) = -0.00390 -0.06526
# Poissons Ratio (y) = -0.00472 0.01233
# Poissons Ratio (z) = -0.05315 0.00830
#
# Static dielectric constant tensor:
#      x y z
#    x 1.937930 0.070920 -0.016730 
#    y 0.070920 1.952120 -0.025960 
#    z -0.016730 -0.025960 1.883320 
# 
# From -- ./inp_files/204901.got.cif
#   From: 2010.05.17/outbox.cif.g08.bks.cpg/sg2_103_cif.got.tgz:204901.got - 2010.06.03 11:33:40.
