data_PCOD9068145
_publ_section_title
;
Structure prediction by ZEFSAII (Michael W. Deem and Ramdas Pophale) SiO2 
 PCOD9068145
Probable space group: P -1
;
_chemical_formula_sum "Si O2"
_cell_formula_units_Z 14
_cell_length_a 5.220215
_cell_length_b 19.316829
_cell_length_c 9.761685
_cell_angle_alpha 36.365910
_cell_angle_beta 80.061949
_cell_angle_gamma 81.914513
_cell_volume 574.899432
_symmetry_space_group_name_H-M "P -1"
_symmetry_group_IT_number 2
_symmetry_cell_setting 'triclinic'
loop_
_space_group_symop_operation_xyz
x,y,z
-x,-y,-z
loop_
_atom_site_type_symbol
_atom_site_label
_atom_site_fract_x
_atom_site_fract_y
_atom_site_fract_z
Si Si1 0.843562 0.532849 0.826264
Si Si2 0.354547 0.267015 0.835933
Si Si3 0.976023 0.108416 0.629426
Si Si4 0.358785 0.122910 0.341665
Si Si5 0.416891 0.700011 0.734563
Si Si6 0.293867 0.100087 0.883875
Si Si7 0.873634 0.398279 0.582467
O O1 0.624974 0.627735 0.737952
O O2 0.035837 0.576063 0.621791
O O3 0.719472 0.407388 0.000372
O O4 0.000000 0.500000 0.000000
O O5 0.435018 0.197065 0.804830
O O6 0.568794 0.369431 0.668510
O O7 0.053929 0.293533 0.786817
O O8 0.356468 0.189919 0.093094
O O9 0.086119 0.101595 0.476464
O O10 0.167968 0.137236 0.692943
O O11 0.770495 0.215298 0.471755
O O12 0.904336 0.974773 0.885756
O O13 0.479298 0.211684 0.300909
O O14 0.500000 0.000000 0.500000
O O15 0.500000 0.000000 0.000000
O O16 0.000000 0.500000 0.500000
#
# Coordination Sequence:
#
# PCOD9068145 Si02
#       7
#     2   2   2   2   2   2   2
#     4  11  28  47  80 112 152 204 266 328 397 471
#     4  12  31  49  82 112 159 210 260 325 406 469
#     4  11  26  47  80 108 168 203 268 328 394 476
#     4  12  28  49  76 114 156 215 260 326 395 486
#     4  11  26  47  79 116 153 205 269 329 393 477
#     4  11  27  47  74 120 154 204 260 328 398 478
#     4  12  31  54  78 115 158 206 266 332 400 475
#
# _framework density 24.352083
#
# number of rings (size 3 to 8) (size 9 to 14) (size 15 to 20)
#    0.000    0.571    0.000    4.714   22.000    1.143 
#    0.000    0.000    0.000    0.000    0.000    0.000 
#    0.000    0.000    0.000    0.000    0.000    0.000 
#
# Total GULP energy -78296.754122 kJ/mol
# GULP energy per Si atom -5592.625294 kJ/mol
# Density = 2.429666 g / cm^3
# Si number density = 24.352083 Si / 1000 Ang^3
#
#
#
# Elastic Constant Matrix: (Units=GPa)
#
#
# Indices 1 2 3 4 5 6 
#
# 1 61.7869 15.8090 30.5745 9.4538 19.0970 0.7108
# 2 15.8090 123.0832 43.2081 -2.8014 15.2396 6.2005
# 3 30.5745 43.2081 160.1605 21.1389 16.0235 -2.9421
# 4 9.4538 -2.8014 21.1389 56.4954 1.2397 -2.8288
# 5 19.0970 15.2396 16.0235 1.2397 54.4044 -6.8494
# 6 0.7108 6.2005 -2.9421 -2.8288 -6.8494 40.6797
#
#
#
# Elastic Compliance Matrix: (Units=1/GPa)
#
#
# Indices 1 2 3 4 5 6 
#
# 1 0.020009 -0.000832 -0.002703 -0.002324 -0.006145 -0.001615
# 2 -0.000832 0.009443 -0.002425 0.001466 -0.001901 -0.001818
# 3 -0.002703 -0.002425 0.007816 -0.002545 -0.000525 0.000717
# 4 -0.002324 0.001466 -0.002545 0.019151 0.000858 0.001109
# 5 -0.006145 -0.001901 -0.000525 0.000858 0.021719 0.004076
# 6 -0.001615 -0.001818 0.000717 0.001109 0.004076 0.025703
#
#
# Mechanical properties :
#
#
# Convention : Reuss Voigt Hill
#
# Bulk Modulus (GPa) = 39.45338 58.24598 48.84968
# Shear Modulus (GPa) = 40.25444 47.34518 43.79981
#
# Velocity S-wave (km/s) = 4.07014 4.41409 4.24560
# Velocity P-wave (km/s) = 6.19068 7.06746 6.64355
#
# Compressibility (1/GPa) = 0.02534637
#
# Stress axis : x y z
#
# Youngs Moduli (GPa) = 49.97875 105.89603 127.94626
#
# Poissons Ratio (x) = 0.08807 0.34590
# Poissons Ratio (y) = 0.04157 0.31033
# Poissons Ratio (z) = 0.13512 0.25685
#
# Static dielectric constant tensor:
#      x y z
#    x 1.771390 0.034490 0.102480 
#    y 0.034490 1.953870 -0.100590 
#    z 0.102480 -0.100590 1.787270 
# 
# From -- ./inp_files/138381.got.cif
#   From: 2010.05.17/outbox.cif.g08.bks.cpg/sg2_70_cif.got.tgz:138381.got - 2010.06.03 11:33:40.
