data_PCOD9068549
_publ_section_title
;
Structure prediction by ZEFSAII (Michael W. Deem and Ramdas Pophale) SiO2 
 PCOD9068549
Probable space group: P -1
;
_chemical_formula_sum "Si O2"
_cell_formula_units_Z 16
_cell_length_a 9.787904
_cell_length_b 5.162969
_cell_length_c 17.962857
_cell_angle_alpha 91.824756
_cell_angle_beta 49.871157
_cell_angle_gamma 89.540642
_cell_volume 693.224479
_symmetry_space_group_name_H-M "P -1"
_symmetry_group_IT_number 2
_symmetry_cell_setting 'triclinic'
loop_
_space_group_symop_operation_xyz
x,y,z
-x,-y,-z
loop_
_atom_site_type_symbol
_atom_site_label
_atom_site_fract_x
_atom_site_fract_y
_atom_site_fract_z
Si Si1 0.941036 0.247328 0.282682
Si Si2 0.473548 0.753836 0.560731
Si Si3 0.563049 0.249312 0.022004
Si Si4 0.179653 0.400684 0.894492
Si Si5 0.960178 0.293674 0.448598
Si Si6 0.959379 0.267370 0.836256
Si Si7 0.308364 0.035470 0.386499
Si Si8 0.398920 0.906781 0.835637
O O1 0.730045 0.239848 0.339068
O O2 0.957378 0.345126 0.362617
O O3 0.038172 0.452934 0.199963
O O4 0.019709 0.960523 0.233763
O O5 0.500000 0.500000 0.500000
O O6 0.614474 0.763893 0.579026
O O7 0.500000 0.000000 0.500000
O O8 0.501603 0.217285 0.128276
O O9 0.500000 0.500000 0.000000
O O10 0.778151 0.242658 0.945683
O O11 0.500000 0.000000 0.000000
O O12 0.288670 0.660220 0.844937
O O13 0.123122 0.264197 0.836430
O O14 0.281788 0.166520 0.900971
O O15 0.000000 0.500000 0.000000
O O16 0.132790 0.102541 0.399605
O O17 0.000000 0.500000 0.500000
O O18 0.769011 0.184343 0.536001
O O19 0.467966 0.990656 0.272460
#
# Coordination Sequence:
#
# PCOD9068549 Si02
#       8
#     2   2   2   2   2   2   2   2
#     4  12  27  47  75 107 145 199 242 306 374 445
#     4  12  24  45  74 104 145 187 242 304 373 434
#     4  12  28  48  72 108 149 196 246 303 361 446
#     4  12  25  49  78 111 149 191 247 311 380 437
#     4  11  27  48  73 104 152 195 253 307 371 444
#     4  12  27  46  76 105 148 189 248 302 370 442
#     4  11  27  46  72 109 144 196 248 311 369 447
#     4  12  28  47  79 108 149 196 248 308 377 444
#
# _framework density 23.080545000000001
#
# number of rings (size 3 to 8) (size 9 to 14) (size 15 to 20)
#    0.000    0.250    2.500    5.625   10.500    0.000 
#    0.000    0.000    0.000    0.000    0.000    0.000 
#    0.000    0.000    0.000    0.000    0.000    0.000 
#
# Total GULP energy -89483.818819 kJ/mol
# GULP energy per Si atom -5592.738676 kJ/mol
# Density = 2.302801 g / cm^3
# Si number density = 23.080545 Si / 1000 Ang^3
#
#
#
# Elastic Constant Matrix: (Units=GPa)
#
#
# Indices 1 2 3 4 5 6 
#
# 1 87.5271 17.9343 15.7522 -3.5005 11.0631 12.0413
# 2 17.9343 116.9360 12.1710 4.5089 -10.2781 -0.9493
# 3 15.7522 12.1710 84.7901 -3.5637 -2.9466 4.8404
# 4 -3.5005 4.5089 -3.5637 29.6825 5.9600 3.5990
# 5 11.0631 -10.2781 -2.9466 5.9600 38.0122 0.5240
# 6 12.0413 -0.9493 4.8404 3.5990 0.5240 44.1428
#
#
#
# Elastic Compliance Matrix: (Units=1/GPa)
#
#
# Indices 1 2 3 4 5 6 
#
# 1 0.013606 -0.002495 -0.002001 0.003252 -0.005248 -0.003748
# 2 -0.002495 0.009466 -0.000950 -0.002715 0.003622 0.001167
# 3 -0.002001 -0.000950 0.012449 0.001298 0.001100 -0.000959
# 4 0.003252 -0.002715 0.001298 0.036583 -0.007261 -0.003984
# 5 -0.005248 0.003622 0.001100 -0.007261 0.030015 0.001624
# 6 -0.003748 0.001167 -0.000959 -0.003984 0.001624 0.024112
#
#
# Mechanical properties :
#
#
# Convention : Reuss Voigt Hill
#
# Bulk Modulus (GPa) = 40.60480 42.32978 41.46729
# Shear Modulus (GPa) = 34.40377 38.59387 36.49882
#
# Velocity S-wave (km/s) = 3.86501 4.09362 3.98096
# Velocity P-wave (km/s) = 6.12769 6.38149 6.25588
#
# Compressibility (1/GPa) = 0.02462763
#
# Stress axis : x y z
#
# Youngs Moduli (GPa) = 73.49968 105.64388 80.32455
#
# Poissons Ratio (x) = 0.26363 0.16074
# Poissons Ratio (y) = 0.18341 0.07631
# Poissons Ratio (z) = 0.14708 0.10036
#
# Static dielectric constant tensor:
#      x y z
#    x 1.984170 -0.048420 -0.045060 
#    y -0.048420 1.871310 0.038020 
#    z -0.045060 0.038020 1.863280 
# 
# From -- ./inp_files/553519.got.cif
#   From: 2010.05.17/outbox.cif.g08.bks.cpg/sg2_277_cif.got.tgz:553519.got - 2010.06.03 11:33:40.
