data_PCOD9068280
_publ_section_title
;
Structure prediction by ZEFSAII (Michael W. Deem and Ramdas Pophale) SiO2 
 PCOD9068280
Probable space group: P -1
;
_chemical_formula_sum "Si O2"
_cell_formula_units_Z 11
_cell_length_a 5.148935
_cell_length_b 8.822916
_cell_length_c 17.288337
_cell_angle_alpha 142.030704
_cell_angle_beta 65.346274
_cell_angle_gamma 122.852115
_cell_volume 405.839229
_symmetry_space_group_name_H-M "P -1"
_symmetry_group_IT_number 2
_symmetry_cell_setting 'triclinic'
loop_
_space_group_symop_operation_xyz
x,y,z
-x,-y,-z
loop_
_atom_site_type_symbol
_atom_site_label
_atom_site_fract_x
_atom_site_fract_y
_atom_site_fract_z
Si Si1 0.784540 0.138524 0.743920
Si Si2 0.866800 0.628485 0.502845
Si Si3 0.398360 0.248645 0.097501
Si Si4 0.232514 0.095304 0.893445
Si Si5 0.000000 0.500000 0.000000
Si Si6 0.655708 0.267182 0.638801
O O1 0.468687 0.010383 0.781406
O O2 0.703684 0.193287 0.689996
O O3 0.959090 0.406511 0.876546
O O4 0.955236 0.937373 0.636507
O O5 0.500000 0.500000 0.500000
O O6 0.000000 0.500000 0.500000
O O7 0.015765 0.603076 0.393210
O O8 0.501219 0.513713 0.244465
O O9 0.447171 0.292579 0.015052
O O10 0.033154 0.128359 0.116148
O O11 0.500000 0.000000 0.000000
O O12 0.074306 0.232576 0.909813
O O13 0.500000 0.000000 0.500000
#
# Coordination Sequence:
#
# PCOD9068280 Si02
#       6
#     2   2   2   2   1   2
#     4  12  28  51  79 119 164 216 282 346 432 503
#     4  12  30  56  85 120 171 227 288 356 432 526
#     4  11  26  50  81 118 164 217 281 352 420 500
#     4  11  26  48  79 119 161 216 281 349 422 505
#     4  12  26  46  84 114 162 210 278 346 416 504
#     4  12  29  54  84 123 172 225 283 353 436 521
#
# _framework density 27.104330000000001
#
# number of rings (size 3 to 8) (size 9 to 14) (size 15 to 20)
#    0.000    0.364    1.818    4.364   12.727    0.000 
#    6.545    0.000    0.000    0.000    0.000    0.000 
#    0.000    0.000    0.000    0.000    0.000    0.000 
#
# Total GULP energy -61517.755545 kJ/mol
# GULP energy per Si atom -5592.523231 kJ/mol
# Density = 2.704264 g / cm^3
# Si number density = 27.104330 Si / 1000 Ang^3
#
#
#
# Elastic Constant Matrix: (Units=GPa)
#
#
# Indices 1 2 3 4 5 6 
#
# 1 120.3817 27.5163 71.9818 -7.4285 -2.7402 -20.3400
# 2 27.5163 98.0837 75.6265 -30.4503 -5.2089 -2.3728
# 3 71.9818 75.6265 288.2513 -11.9296 -15.5606 -9.4203
# 4 -7.4285 -30.4503 -11.9296 72.4811 2.2709 -8.7734
# 5 -2.7402 -5.2089 -15.5606 2.2709 69.8923 -4.9549
# 6 -20.3400 -2.3728 -9.4203 -8.7734 -4.9549 57.9219
#
#
#
# Elastic Compliance Matrix: (Units=1/GPa)
#
#
# Indices 1 2 3 4 5 6 
#
# 1 0.010468 -0.000901 -0.002233 0.000735 0.000063 0.003393
# 2 -0.000901 0.014857 -0.003410 0.005656 0.000172 0.000609
# 3 -0.002233 -0.003410 0.004919 -0.000899 0.000769 -0.000194
# 4 0.000735 0.005656 -0.000899 0.016445 -0.000084 0.002828
# 5 0.000063 0.000172 0.000769 -0.000084 0.014595 0.001390
# 6 0.003393 0.000609 -0.000194 0.002828 0.001390 0.018997
#
#
# Mechanical properties :
#
#
# Convention : Reuss Voigt Hill
#
# Bulk Modulus (GPa) = 58.28568 95.21843 76.75205
# Shear Modulus (GPa) = 50.45993 62.16521 56.31257
#
# Velocity S-wave (km/s) = 4.31941 4.79430 4.56304
# Velocity P-wave (km/s) = 6.81376 8.11503 7.49270
#
# Compressibility (1/GPa) = 0.01715687
#
# Stress axis : x y z
#
# Youngs Moduli (GPa) = 95.52790 67.30793 203.28106
#
# Poissons Ratio (x) = 0.06067 0.45391
# Poissons Ratio (y) = 0.08610 0.69310
# Poissons Ratio (z) = 0.21331 0.22949
#
# Static dielectric constant tensor:
#      x y z
#    x 1.997420 0.052980 0.047380 
#    y 0.052980 2.171430 0.154550 
#    z 0.047380 0.154550 2.075710 
# 
# From -- ./inp_files/361656.got.cif
#   From: 2010.05.17/outbox.cif.g08.bks.cpg/sg2_181_cif.got.tgz:361656.got - 2010.06.03 11:33:40.
