data_PCOD9068979
_publ_section_title
;
Structure prediction by ZEFSAII (Michael W. Deem and Ramdas Pophale) SiO2 
 PCOD9068979
Probable space group: P -1
;
_chemical_formula_sum "Si O2"
_cell_formula_units_Z 16
_cell_length_a 11.854341
_cell_length_b 14.007952
_cell_length_c 8.314034
_cell_angle_alpha 101.249201
_cell_angle_beta 118.944784
_cell_angle_gamma 129.569546
_cell_volume 619.962765
_symmetry_space_group_name_H-M "P -1"
_symmetry_group_IT_number 2
_symmetry_cell_setting 'triclinic'
loop_
_space_group_symop_operation_xyz
x,y,z
-x,-y,-z
loop_
_atom_site_type_symbol
_atom_site_label
_atom_site_fract_x
_atom_site_fract_y
_atom_site_fract_z
Si Si1 0.262450 0.317878 0.378984
Si Si2 0.745312 0.222535 0.207793
Si Si3 0.796948 0.067138 0.753763
Si Si4 0.482931 0.274543 0.435357
Si Si5 0.772226 0.580043 0.289416
Si Si6 0.037115 0.911251 0.452961
Si Si7 0.949271 0.370539 0.030306
Si Si8 0.543424 0.783281 0.948640
O O1 0.500000 0.500000 0.500000
O O2 0.319771 0.240799 0.421115
O O3 0.257313 0.379161 0.553369
O O4 0.013271 0.174154 0.060790
O O5 0.678857 0.285011 0.255740
O O6 0.979146 0.323626 0.487630
O O7 0.813380 0.285653 0.084941
O O8 0.500000 0.000000 0.000000
O O9 0.834581 0.035408 0.604135
O O10 0.813388 0.193416 0.789092
O O11 0.552683 0.861307 0.588910
O O12 0.385411 0.221983 0.169076
O O13 0.769306 0.483984 0.701041
O O14 0.555578 0.363027 0.047316
O O15 0.807848 0.689574 0.224033
O O16 0.000000 0.000000 0.500000
O O17 0.230857 0.010793 0.759992
O O18 0.000000 0.500000 0.000000
#
# Coordination Sequence:
#
# PCOD9068979 Si02
#       8
#     2   2   2   2   2   2   2   2
#     4  12  21  48  78 107 142 190 255 306 361 450
#     4  12  24  49  79 106 146 194 256 307 364 454
#     4  12  26  47  73 109 150 193 242 309 378 436
#     4  12  25  46  82 108 143 196 251 306 371 445
#     4  12  25  47  77 106 142 198 248 303 366 445
#     4  12  29  46  68 112 154 191 240 305 378 442
#     4  12  29  49  75 114 152 192 254 316 382 434
#     4  12  25  45  75 105 145 193 250 296 368 441
#
# _framework density 25.808
#
# number of rings (size 3 to 8) (size 9 to 14) (size 15 to 20)
#    0.000    0.000    6.250    3.750    3.500    1.000 
#    0.000    0.000    0.000    0.000    0.000    0.000 
#    0.000    0.000    0.000    0.000    0.000    0.000 
#
# Total GULP energy -89550.907783 kJ/mol
# GULP energy per Si atom -5596.931736 kJ/mol
# Density = 2.574926 g / cm^3
# Si number density = 25.808000 Si / 1000 Ang^3
#
#
#
# Elastic Constant Matrix: (Units=GPa)
#
#
# Indices 1 2 3 4 5 6 
#
# 1 103.7090 12.0220 9.4407 4.9564 3.7048 -20.2761
# 2 12.0220 130.1021 0.6534 43.5928 2.3894 -25.7290
# 3 9.4407 0.6534 60.9548 25.1009 1.1355 -5.0592
# 4 4.9564 43.5928 25.1009 48.5015 -2.6109 -8.2169
# 5 3.7048 2.3894 1.1355 -2.6109 37.2135 5.2877
# 6 -20.2761 -25.7290 -5.0592 -8.2169 5.2877 47.4200
#
#
#
# Elastic Compliance Matrix: (Units=1/GPa)
#
#
# Indices 1 2 3 4 5 6 
#
# 1 0.010731 -0.000244 -0.001489 0.000582 -0.001617 0.004578
# 2 -0.000244 0.013970 0.006669 -0.015144 -0.002976 0.005895
# 3 -0.001489 0.006669 0.024293 -0.018095 -0.002680 0.002737
# 4 0.000582 -0.015144 -0.018095 0.043301 0.004923 -0.002944
# 5 -0.001617 -0.002976 -0.002680 0.004923 0.028347 -0.004900
# 6 0.004578 0.005895 0.002737 -0.002944 -0.004900 0.026572
#
#
# Mechanical properties :
#
#
# Convention : Reuss Voigt Hill
#
# Bulk Modulus (GPa) = 16.98748 37.66645 27.32697
# Shear Modulus (GPa) = 31.85425 44.80366 38.32896
#
# Velocity S-wave (km/s) = 3.51704 4.17110 3.85796
# Velocity P-wave (km/s) = 4.80513 6.15012 5.51875
#
# Compressibility (1/GPa) = 0.05886688
#
# Stress axis : x y z
#
# Youngs Moduli (GPa) = 93.18569 71.58187 41.16380
#
# Poissons Ratio (x) = 0.01746 0.06129
# Poissons Ratio (y) = 0.02273 -0.27452
# Poissons Ratio (z) = 0.13874 -0.47738
#
# Static dielectric constant tensor:
#      x y z
#    x 1.944430 -0.230670 0.033430 
#    y -0.230670 1.878210 -0.039660 
#    z 0.033430 -0.039660 1.969500 
# 
# From -- ./inp_files/273866.got.cif
#   From: 2010.05.17/outbox.cif.g08.bks.cpg/sg2_137_cif.got.tgz:273866.got - 2010.06.03 11:33:40.
