data_PCOD9068116
_publ_section_title
;
Structure prediction by ZEFSAII (Michael W. Deem and Ramdas Pophale) SiO2 
 PCOD9068116
Probable space group: P -1
;
_chemical_formula_sum "Si O2"
_cell_formula_units_Z 14
_cell_length_a 5.455796
_cell_length_b 14.168755
_cell_length_c 14.885991
_cell_angle_alpha 29.835394
_cell_angle_beta 115.017882
_cell_angle_gamma 109.257892
_cell_volume 517.025510
_symmetry_space_group_name_H-M "P -1"
_symmetry_group_IT_number 2
_symmetry_cell_setting 'triclinic'
loop_
_space_group_symop_operation_xyz
x,y,z
-x,-y,-z
loop_
_atom_site_type_symbol
_atom_site_label
_atom_site_fract_x
_atom_site_fract_y
_atom_site_fract_z
Si Si1 0.233361 0.601181 0.174536
Si Si2 0.460763 0.772848 0.502763
Si Si3 0.042622 0.718930 0.225085
Si Si4 0.930025 0.742061 0.385169
Si Si5 0.807347 0.572148 0.995135
Si Si6 0.504957 0.066556 0.116313
Si Si7 0.779566 0.889518 0.610837
O O1 0.218294 0.735845 0.149058
O O2 0.440171 0.419102 0.377642
O O3 0.946522 0.542992 0.138695
O O4 0.346458 0.741223 0.004035
O O5 0.142307 0.774001 0.471107
O O6 0.666974 0.747908 0.636988
O O7 0.486277 0.965422 0.293260
O O8 0.082837 0.485878 0.429458
O O9 0.078779 0.783160 0.279749
O O10 0.761537 0.836737 0.055313
O O11 0.671215 0.891780 0.232627
O O12 0.829856 0.792856 0.794067
O O13 0.500000 0.500000 0.000000
O O14 0.000000 0.500000 0.000000
O O15 0.500000 0.000000 0.500000
O O16 0.000000 0.000000 0.500000
#
# Coordination Sequence:
#
# PCOD9068116 Si02
#       7
#     2   2   2   2   2   2   2
#     4  12  27  48  76 110 152 202 260 324 394 471
#     4  12  27  48  78 108 157 199 260 322 394 470
#     4  11  26  47  77 108 153 200 258 316 397 466
#     4  11  26  48  74 112 150 202 254 324 387 471
#     4  12  28  49  78 111 156 205 263 324 399 468
#     4  12  26  47  77 110 151 202 258 316 395 470
#     4  12  29  50  78 116 159 207 264 327 398 477
#
# _framework density 27.077966
#
# number of rings (size 3 to 8) (size 9 to 14) (size 15 to 20)
#    0.000    0.286    4.286    3.000   10.000    4.000 
#    0.000    0.000    0.000    0.000    0.000    0.000 
#    0.000    0.000    0.000    0.000    0.000    0.000 
#
# Total GULP energy -78065.455614 kJ/mol
# GULP energy per Si atom -5576.103972 kJ/mol
# Density = 2.701633 g / cm^3
# Si number density = 27.077966 Si / 1000 Ang^3
#
#
#
# Elastic Constant Matrix: (Units=GPa)
#
#
# Indices 1 2 3 4 5 6 
#
# 1 118.0822 16.3430 55.4971 -10.2907 6.0320 -12.2043
# 2 16.3430 53.0062 19.8120 1.3191 5.7187 -4.1705
# 3 55.4971 19.8120 184.5503 -3.6825 13.3741 3.2265
# 4 -10.2907 1.3191 -3.6825 44.8772 -4.1924 9.9976
# 5 6.0320 5.7187 13.3741 -4.1924 54.6045 -4.4340
# 6 -12.2043 -4.1705 3.2265 9.9976 -4.4340 42.6891
#
#
#
# Elastic Compliance Matrix: (Units=1/GPa)
#
#
# Indices 1 2 3 4 5 6 
#
# 1 0.010561 -0.001983 -0.002985 0.001650 0.000116 0.002677
# 2 -0.001983 0.020404 -0.001549 -0.001723 -0.001525 0.001788
# 3 -0.002985 -0.001549 0.006605 0.000159 -0.001249 -0.001671
# 4 0.001650 -0.001723 0.000159 0.024010 0.001381 -0.005188
# 5 0.000116 -0.001525 -0.001249 0.001381 0.019005 0.001629
# 6 0.002677 0.001788 -0.001671 -0.005188 0.001629 0.025876
#
#
# Mechanical properties :
#
#
# Convention : Reuss Voigt Hill
#
# Bulk Modulus (GPa) = 40.75761 59.88255 50.32008
# Shear Modulus (GPa) = 39.16211 46.03327 42.59769
#
# Velocity S-wave (km/s) = 3.80711 4.12761 3.97060
# Velocity P-wave (km/s) = 5.86601 6.69919 6.29640
#
# Compressibility (1/GPa) = 0.02453530
#
# Stress axis : x y z
#
# Youngs Moduli (GPa) = 94.69145 49.00901 151.38961
#
# Poissons Ratio (x) = 0.09720 0.45192
# Poissons Ratio (y) = 0.18780 0.23453
# Poissons Ratio (z) = 0.28267 0.07592
#
# Static dielectric constant tensor:
#      x y z
#    x 2.201000 -0.066430 -0.065280 
#    y -0.066430 1.685780 -0.470390 
#    z -0.065280 -0.470390 1.784970 
# 
# From -- ./inp_files/98169.got.cif
#   From: 2010.05.17/outbox.cif.g08.bks.cpg/sg2_50_cif.got.tgz:98169.got - 2010.06.03 11:33:40.
