data_PCOD9068668
_publ_section_title
;
Structure prediction by ZEFSAII (Michael W. Deem and Ramdas Pophale) SiO2 
 PCOD9068668
Probable space group: P -1
;
_chemical_formula_sum "Si O2"
_cell_formula_units_Z 16
_cell_length_a 5.991910
_cell_length_b 12.304926
_cell_length_c 11.796231
_cell_angle_alpha 55.355076
_cell_angle_beta 76.205257
_cell_angle_gamma 69.104759
_cell_volume 667.746010
_symmetry_space_group_name_H-M "P -1"
_symmetry_group_IT_number 2
_symmetry_cell_setting 'triclinic'
loop_
_space_group_symop_operation_xyz
x,y,z
-x,-y,-z
loop_
_atom_site_type_symbol
_atom_site_label
_atom_site_fract_x
_atom_site_fract_y
_atom_site_fract_z
Si Si1 0.653471 0.766992 0.553400
Si Si2 0.787221 0.450343 0.000373
Si Si3 0.226359 0.037488 0.396028
Si Si4 0.670902 0.463015 0.758666
Si Si5 0.009374 0.833398 0.867724
Si Si6 0.360710 0.271735 0.872240
Si Si7 0.122512 0.281903 0.681439
Si Si8 0.250110 0.971275 0.925702
O O1 0.739863 0.827359 0.622488
O O2 0.575311 0.625855 0.652225
O O3 0.847599 0.723917 0.453414
O O4 0.448261 0.902831 0.460727
O O5 0.827497 0.456310 0.856492
O O6 0.500000 0.500000 0.000000
O O7 0.000000 0.500000 0.000000
O O8 0.842263 0.299333 0.137351
O O9 0.170078 0.066759 0.253378
O O10 0.000000 0.000000 0.500000
O O11 0.465407 0.386413 0.850815
O O12 0.854044 0.366768 0.701683
O O13 0.211297 0.890398 0.866500
O O14 0.850551 0.776716 0.010857
O O15 0.289292 0.336138 0.717606
O O16 0.568262 0.128893 0.951996
O O17 0.240578 0.122844 0.798390
O O18 0.000000 0.000000 0.000000
#
# Coordination Sequence:
#
# PCOD9068668 Si02
#       8
#     2   2   2   2   2   2   2   2
#     4  11  28  49  72 104 144 200 249 313 369 469
#     4  12  26  45  76 113 153 202 252 322 393 463
#     4  11  27  51  75 102 144 195 254 304 380 454
#     4  12  26  47  71 109 152 192 251 311 385 458
#     4  12  25  45  74 108 143 194 249 318 383 455
#     4  12  23  42  71 108 150 187 246 315 389 453
#     4  12  25  45  73 104 147 194 251 308 385 454
#     4  12  22  40  68 107 144 182 241 310 380 454
#
# _framework density 23.961207000000002
#
# number of rings (size 3 to 8) (size 9 to 14) (size 15 to 20)
#    0.000    0.250    5.000    3.750    3.500    3.500 
#    0.000    0.000    0.000    0.000    0.000    0.000 
#    0.000    0.000    0.000    0.000    0.000    0.000 
#
# Total GULP energy -89118.044145 kJ/mol
# GULP energy per Si atom -5569.877759 kJ/mol
# Density = 2.390667 g / cm^3
# Si number density = 23.961207 Si / 1000 Ang^3
#
#
#
# Elastic Constant Matrix: (Units=GPa)
#
#
# Indices 1 2 3 4 5 6 
#
# 1 81.8220 35.6302 -12.5193 -0.0393 2.7421 -6.8569
# 2 35.6302 107.9201 19.0512 -14.2705 -12.8383 8.6303
# 3 -12.5193 19.0512 42.1406 1.4851 1.1921 -5.1565
# 4 -0.0393 -14.2705 1.4851 46.6254 -4.2183 -0.3843
# 5 2.7421 -12.8383 1.1921 -4.2183 29.2520 0.4184
# 6 -6.8569 8.6303 -5.1565 -0.3843 0.4184 49.7879
#
#
#
# Elastic Compliance Matrix: (Units=1/GPa)
#
#
# Indices 1 2 3 4 5 6 
#
# 1 0.019089 -0.010161 0.011301 -0.004075 -0.007377 0.005591
# 2 -0.010161 0.017253 -0.012026 0.006516 0.010035 -0.005670
# 3 0.011301 -0.012026 0.033838 -0.005469 -0.008607 0.007176
# 4 -0.004075 0.006516 -0.005469 0.024227 0.006989 -0.002129
# 5 -0.007377 0.010035 -0.008607 0.006989 0.040696 -0.003935
# 6 0.005591 -0.005670 0.007176 -0.002129 -0.003935 0.022598
#
#
# Mechanical properties :
#
#
# Convention : Reuss Voigt Hill
#
# Bulk Modulus (GPa) = 20.65704 35.13411 27.89557
# Shear Modulus (GPa) = 25.56116 37.78111 31.67113
#
# Velocity S-wave (km/s) = 3.26969 3.97515 3.63956
# Velocity P-wave (km/s) = 4.78479 5.98029 5.41563
#
# Compressibility (1/GPa) = 0.04840965
#
# Stress axis : x y z
#
# Youngs Moduli (GPa) = 52.38502 57.96243 29.55223
#
# Poissons Ratio (x) = 0.58896 -0.33398
# Poissons Ratio (y) = 0.53229 0.35538
# Poissons Ratio (z) = -0.59202 0.69703
#
# Static dielectric constant tensor:
#      x y z
#    x 2.121480 0.164550 0.138760 
#    y 0.164550 2.443360 0.053560 
#    z 0.138760 0.053560 2.200150 
# 
# From -- ./inp_files/363839.got.cif
#   From: 2010.05.17/outbox.cif.g08.bks.cpg/sg2_182_cif.got.tgz:363839.got - 2010.06.03 11:33:40.
