data_PCOD9068357
_publ_section_title
;
Structure prediction by ZEFSAII (Michael W. Deem and Ramdas Pophale) SiO2 
 PCOD9068357
Probable space group: P -1
;
_chemical_formula_sum "Si O2"
_cell_formula_units_Z 12
_cell_length_a 11.446197
_cell_length_b 9.013106
_cell_length_c 10.079987
_cell_angle_alpha 134.688676
_cell_angle_beta 47.544709
_cell_angle_gamma 140.923561
_cell_volume 446.281904
_symmetry_space_group_name_H-M "P -1"
_symmetry_group_IT_number 2
_symmetry_cell_setting 'triclinic'
loop_
_space_group_symop_operation_xyz
x,y,z
-x,-y,-z
loop_
_atom_site_type_symbol
_atom_site_label
_atom_site_fract_x
_atom_site_fract_y
_atom_site_fract_z
Si Si1 0.000000 0.000000 0.500000
Si Si2 0.546255 0.771349 0.390479
Si Si3 0.184350 0.788082 0.056431
Si Si4 0.094446 0.361671 0.406460
Si Si5 0.563840 0.908034 0.189312
Si Si6 0.000000 0.000000 0.000000
Si Si7 0.294087 0.502286 0.951701
O O1 0.869441 0.037549 0.724601
O O2 0.004861 0.206878 0.516024
O O3 0.321564 0.578054 0.402185
O O4 0.664403 0.897515 0.240188
O O5 0.629836 0.619212 0.284309
O O6 0.561778 0.988859 0.601754
O O7 0.312029 0.739706 0.022527
O O8 0.000000 0.500000 0.000000
O O9 0.288176 0.896553 0.906659
O O10 0.000000 0.500000 0.500000
O O11 0.070861 0.167174 0.190736
O O12 0.440136 0.634725 0.045440
O O13 0.908462 0.728809 0.984860
#
# Coordination Sequence:
#
# PCOD9068357 Si02
#       7
#     1   2   2   2   2   1   2
#     4  12  28  48  78 114 158 208 270 336 404 486
#     4  11  27  48  79 115 157 212 266 333 410 488
#     4  12  28  50  78 115 160 207 269 338 408 487
#     4  12  28  51  80 119 163 212 275 338 411 494
#     4  11  26  49  76 114 158 207 264 333 408 485
#     4  12  28  44  78 114 156 216 270 332 406 482
#     4  12  27  46  78 115 158 212 269 335 403 489
#
# _framework density 26.888835
#
# number of rings (size 3 to 8) (size 9 to 14) (size 15 to 20)
#    0.000    0.333    1.667    5.000    9.333    2.000 
#    0.000    0.000    0.000    0.000    0.000    0.000 
#    0.000    0.000    0.000    0.000    0.000    0.000 
#
# Total GULP energy -66853.791749 kJ/mol
# GULP energy per Si atom -5571.149312 kJ/mol
# Density = 2.682763 g / cm^3
# Si number density = 26.888835 Si / 1000 Ang^3
#
#
#
# Elastic Constant Matrix: (Units=GPa)
#
#
# Indices 1 2 3 4 5 6 
#
# 1 107.4021 42.2651 7.8851 -10.4242 -17.9902 -34.0934
# 2 42.2651 174.8951 28.0765 -17.9231 14.6619 -18.3260
# 3 7.8851 28.0765 118.3783 -8.3357 -5.4239 -45.2531
# 4 -10.4242 -17.9231 -8.3357 53.2464 -21.0321 10.0752
# 5 -17.9902 14.6619 -5.4239 -21.0321 34.1231 16.6319
# 6 -34.0934 -18.3260 -45.2531 10.0752 16.6319 50.3621
#
#
#
# Elastic Compliance Matrix: (Units=1/GPa)
#
#
# Indices 1 2 3 4 5 6 
#
# 1 0.015001 -0.003605 0.003899 0.003859 0.008121 0.008893
# 2 -0.003605 0.007416 -0.001278 -0.001552 -0.007108 0.001768
# 3 0.003899 -0.001278 0.014920 -0.002979 -0.005655 0.018044
# 4 0.003859 -0.001552 -0.002979 0.034994 0.032794 -0.018460
# 5 0.008121 -0.007108 -0.005655 0.032794 0.071762 -0.032429
# 6 0.008893 0.001768 0.018044 -0.018460 -0.032429 0.057136
#
#
# Mechanical properties :
#
#
# Convention : Reuss Voigt Hill
#
# Bulk Modulus (GPa) = 28.27238 61.90318 45.08778
# Shear Modulus (GPa) = 23.25741 49.04293 36.15017
#
# Velocity S-wave (km/s) = 2.94419 4.27536 3.67063
# Velocity P-wave (km/s) = 4.70053 6.88793 5.89655
#
# Compressibility (1/GPa) = 0.03537021
#
# Stress axis : x y z
#
# Youngs Moduli (GPa) = 66.66290 134.84227 67.02443
#
# Poissons Ratio (x) = 0.48605 -0.26134
# Poissons Ratio (y) = 0.24029 0.08565
# Poissons Ratio (z) = -0.25993 0.17231
#
# Static dielectric constant tensor:
#      x y z
#    x 2.494690 -0.029560 0.012930 
#    y -0.029560 2.009500 0.007340 
#    z 0.012930 0.007340 1.912900 
# 
# From -- ./inp_files/241213.got.cif
#   From: 2010.05.17/outbox.cif.g08.bks.cpg/sg2_121_cif.got.tgz:241213.got - 2010.06.03 11:33:40.
