data_PCOD9068514
_publ_section_title
;
Structure prediction by ZEFSAII (Michael W. Deem and Ramdas Pophale) SiO2 
 PCOD9068514
Probable space group: P -1
;
_chemical_formula_sum "Si O2"
_cell_formula_units_Z 13
_cell_length_a 9.324529
_cell_length_b 9.236107
_cell_length_c 8.962539
_cell_angle_alpha 72.859535
_cell_angle_beta 131.962206
_cell_angle_gamma 119.690472
_cell_volume 497.807663
_symmetry_space_group_name_H-M "P -1"
_symmetry_group_IT_number 2
_symmetry_cell_setting 'triclinic'
loop_
_space_group_symop_operation_xyz
x,y,z
-x,-y,-z
loop_
_atom_site_type_symbol
_atom_site_label
_atom_site_fract_x
_atom_site_fract_y
_atom_site_fract_z
Si Si1 0.257365 0.917972 0.015597
Si Si2 0.274323 0.403290 0.451807
Si Si3 0.103390 0.020380 0.352785
Si Si4 0.500000 0.000000 0.500000
Si Si5 0.721086 0.524482 0.219717
Si Si6 0.293503 0.834459 0.731988
Si Si7 0.121441 0.673887 0.249997
O O1 0.310390 0.852354 0.916790
O O2 0.134045 0.029915 0.854919
O O3 0.130220 0.904667 0.536486
O O4 0.114201 0.767533 0.065484
O O5 0.500000 0.500000 0.500000
O O6 0.181935 0.210646 0.402657
O O7 0.285942 0.420239 0.633391
O O8 0.127841 0.497248 0.276139
O O9 0.271024 0.019636 0.348144
O O10 0.648319 0.206045 0.559760
O O11 0.741814 0.348336 0.282453
O O12 0.925326 0.644970 0.230433
O O13 0.518325 0.972239 0.778038
O O14 0.500000 0.500000 0.000000
#
# Coordination Sequence:
#
# PCOD9068514 Si02
#       7
#     2   2   2   1   2   2   2
#     4  11  27  47  88 116 157 224 265 341 400 492
#     4  12  27  51  83 118 163 215 268 339 408 479
#     4  12  27  49  82 114 164 212 273 328 413 476
#     4  12  26  48  78 112 156 208 268 334 392 484
#     4  12  32  52  83 120 166 215 271 339 408 487
#     4  11  26  53  79 123 166 207 281 328 406 492
#     4  12  28  53  79 119 166 209 281 331 412 478
#
# _framework density 26.114505999999999
#
# number of rings (size 3 to 8) (size 9 to 14) (size 15 to 20)
#    0.000    0.308    3.077    2.769   10.769    3.077 
#    0.000    0.000    0.000    0.000    0.000    0.000 
#    0.000    0.000    0.000    0.000    0.000    0.000 
#
# Total GULP energy -72799.283474 kJ/mol
# GULP energy per Si atom -5599.944883 kJ/mol
# Density = 2.605507 g / cm^3
# Si number density = 26.114506 Si / 1000 Ang^3
#
#
#
# Elastic Constant Matrix: (Units=GPa)
#
#
# Indices 1 2 3 4 5 6 
#
# 1 193.4227 39.8917 15.7499 -2.9612 3.0401 23.2783
# 2 39.8917 131.2565 34.8277 -13.5304 -1.6480 -8.2823
# 3 15.7499 34.8277 127.3097 -7.5336 5.0241 1.1977
# 4 -2.9612 -13.5304 -7.5336 43.0171 8.6748 15.9525
# 5 3.0401 -1.6480 5.0241 8.6748 50.3540 -2.6653
# 6 23.2783 -8.2823 1.1977 15.9525 -2.6653 62.9230
#
#
#
# Elastic Compliance Matrix: (Units=1/GPa)
#
#
# Indices 1 2 3 4 5 6 
#
# 1 0.005911 -0.001847 -0.000116 0.000950 -0.000712 -0.002699
# 2 -0.001847 0.009031 -0.002172 0.001693 0.000412 0.001501
# 3 -0.000116 -0.002172 0.008598 0.001353 -0.001197 -0.000800
# 4 0.000950 0.001693 0.001353 0.027925 -0.005343 -0.007460
# 5 -0.000712 0.000412 -0.001197 -0.005343 0.021093 0.002588
# 6 -0.002699 0.001501 -0.000800 -0.007460 0.002588 0.019105
#
#
# Mechanical properties :
#
#
# Convention : Reuss Voigt Hill
#
# Bulk Modulus (GPa) = 65.49122 70.32530 67.90826
# Shear Modulus (GPa) = 47.60837 55.36013 51.48425
#
# Velocity S-wave (km/s) = 4.27437 4.60923 4.44495
# Velocity P-wave (km/s) = 7.03514 7.43739 7.23906
#
# Compressibility (1/GPa) = 0.01526922
#
# Stress axis : x y z
#
# Youngs Moduli (GPa) = 169.17855 110.73207 116.30165
#
# Poissons Ratio (x) = 0.20451 0.01353
# Poissons Ratio (y) = 0.31245 0.25263
# Poissons Ratio (z) = 0.01968 0.24053
#
# Static dielectric constant tensor:
#      x y z
#    x 1.840790 -0.004280 0.081580 
#    y -0.004280 2.073160 0.034640 
#    z 0.081580 0.034640 1.969040 
# 
# From -- ./inp_files/231526.got.cif
#   From: 2010.05.17/outbox.cif.g08.bks.cpg/sg2_116_cif.got.tgz:231526.got - 2010.06.03 11:33:40.
