data_PCOD9068255
_publ_section_title
;
Structure prediction by ZEFSAII (Michael W. Deem and Ramdas Pophale) SiO2 
 PCOD9068255
Probable space group: P -1
;
_chemical_formula_sum "Si O2"
_cell_formula_units_Z 10
_cell_length_a 14.450274
_cell_length_b 10.053664
_cell_length_c 15.431450
_cell_angle_alpha 39.445023
_cell_angle_beta 18.734654
_cell_angle_gamma 32.430007
_cell_volume 381.334783
_symmetry_space_group_name_H-M "P -1"
_symmetry_group_IT_number 2
_symmetry_cell_setting 'triclinic'
loop_
_space_group_symop_operation_xyz
x,y,z
-x,-y,-z
loop_
_atom_site_type_symbol
_atom_site_label
_atom_site_fract_x
_atom_site_fract_y
_atom_site_fract_z
Si Si1 0.188448 0.772684 0.671764
Si Si2 0.433977 0.932351 0.225326
Si Si3 0.387961 0.400227 0.228890
Si Si4 0.646867 0.605517 0.035386
Si Si5 0.403378 0.110571 0.626695
O O1 0.500000 0.500000 0.500000
O O2 0.176280 0.951873 0.516457
O O3 0.316340 0.839184 0.610146
O O4 0.821637 0.806287 0.983267
O O5 0.467885 0.749980 0.210106
O O6 0.583389 0.103201 0.218957
O O7 0.332424 0.194399 0.142585
O O8 0.000000 0.500000 0.500000
O O9 0.500000 0.500000 0.000000
O O10 0.449483 0.505601 0.208533
O O11 0.031760 0.367467 0.830255
O O12 0.500000 0.000000 0.500000
#
# Coordination Sequence:
#
# PCOD9068255 Si02
#       5
#     2   2   2   2   2
#     4  12  26  50  77 110 155 200 257 306 382 451
#     4  11  27  49  79 111 153 201 254 315 377 455
#     4  12  27  49  73 106 155 198 247 307 385 452
#     4  11  26  48  77 114 152 199 259 314 378 450
#     4  12  28  48  81 116 156 201 258 320 381 458
#
# _framework density 26.223678
#
# number of rings (size 3 to 8) (size 9 to 14) (size 15 to 20)
#    0.000    0.400    2.000    4.800    2.800    8.000 
#    0.000    0.000    0.000    0.000    0.000    0.000 
#    0.000    0.000    0.000    0.000    0.000    0.000 
#
# Total GULP energy -56270.461076 kJ/mol
# GULP energy per Si atom -5627.046108 kJ/mol
# Density = 2.616399 g / cm^3
# Si number density = 26.223678 Si / 1000 Ang^3
#
#
#
# Elastic Constant Matrix: (Units=GPa)
#
#
# Indices 1 2 3 4 5 6 
#
# 1 133.5999 41.8124 50.6791 -9.6887 -36.1841 17.6298
# 2 41.8124 168.6275 30.0178 -4.9786 -22.7896 -24.7789
# 3 50.6791 30.0178 145.0994 -5.3821 -21.6821 1.7893
# 4 -9.6887 -4.9786 -5.3821 36.8718 5.4305 -12.1760
# 5 -36.1841 -22.7896 -21.6821 5.4305 57.0389 -17.7408
# 6 17.6298 -24.7789 1.7893 -12.1760 -17.7408 64.6707
#
#
#
# Elastic Compliance Matrix: (Units=1/GPa)
#
#
# Indices 1 2 3 4 5 6 
#
# 1 0.010551 -0.001893 -0.002613 0.000782 0.004173 -0.002237
# 2 -0.001893 0.007587 -0.000473 0.001522 0.002912 0.004521
# 3 -0.002613 -0.000473 0.008126 0.000485 0.001443 0.000794
# 4 0.000782 0.001522 0.000485 0.029537 0.000347 0.006013
# 5 0.004173 0.002912 0.001443 0.000347 0.023899 0.006560
# 6 -0.002237 0.004521 0.000794 0.006013 0.006560 0.020715
#
#
# Mechanical properties :
#
#
# Convention : Reuss Voigt Hill
#
# Bulk Modulus (GPa) = 61.32464 76.92725 69.12595
# Shear Modulus (GPa) = 43.17519 53.37077 48.27298
#
# Velocity S-wave (km/s) = 4.06201 4.51623 4.29513
# Velocity P-wave (km/s) = 6.74062 7.52289 7.14247
#
# Compressibility (1/GPa) = 0.01630666
#
# Stress axis : x y z
#
# Youngs Moduli (GPa) = 94.77832 131.81218 123.05857
#
# Poissons Ratio (x) = 0.24946 0.32160
# Poissons Ratio (y) = 0.17937 0.05815
# Poissons Ratio (z) = 0.24769 0.06229
#
# Static dielectric constant tensor:
#      x y z
#    x 2.061770 -0.027980 0.023090 
#    y -0.027980 2.046950 -0.010690 
#    z 0.023090 -0.010690 1.958400 
# 
# From -- ./inp_files/572800.got.cif
#   From: 2010.05.17/outbox.cif.g08.bks.cpg/sg2_287_cif.got.tgz:572800.got - 2010.06.03 11:33:40.
