data_PCOD9068641
_publ_section_title
;
Structure prediction by ZEFSAII (Michael W. Deem and Ramdas Pophale) SiO2 
 PCOD9068641
Probable space group: P -1
;
_chemical_formula_sum "Si O2"
_cell_formula_units_Z 10
_cell_length_a 9.793319
_cell_length_b 15.489561
_cell_length_c 9.336185
_cell_angle_alpha 143.455227
_cell_angle_beta 113.270068
_cell_angle_gamma 38.408423
_cell_volume 405.232596
_symmetry_space_group_name_H-M "P -1"
_symmetry_group_IT_number 2
_symmetry_cell_setting 'triclinic'
loop_
_space_group_symop_operation_xyz
x,y,z
-x,-y,-z
loop_
_atom_site_type_symbol
_atom_site_label
_atom_site_fract_x
_atom_site_fract_y
_atom_site_fract_z
Si Si1 0.544701 0.484823 0.168054
Si Si2 0.194055 0.755766 0.641517
Si Si3 0.807685 0.571835 0.403831
Si Si4 0.289523 0.980117 0.310192
Si Si5 0.708908 0.846303 0.164950
O O1 0.263948 0.751993 0.503486
O O2 0.754941 0.444045 0.234470
O O3 0.500000 0.500000 0.000000
O O4 0.642625 0.245124 0.940295
O O5 0.500000 0.500000 0.500000
O O6 0.013215 0.760710 0.548807
O O7 0.000000 0.000000 0.000000
O O8 0.000000 0.500000 0.500000
O O9 0.497010 0.901002 0.696355
O O10 0.982075 0.438158 0.149676
O O11 0.532871 0.853197 0.150372
O O12 0.268294 0.072734 0.578064
#
# Coordination Sequence:
#
# PCOD9068641 Si02
#       5
#     2   2   2   2   2
#     4  12  27  51  82 115 154 208 262 322 385 468
#     4  12  28  47  77 115 155 201 258 324 386 460
#     4  12  29  48  75 113 161 193 255 321 401 444
#     4  11  27  49  81 107 155 201 272 305 390 468
#     4  11  28  49  76 110 152 208 248 322 381 473
#
# _framework density 24.677185000000001
#
# number of rings (size 3 to 8) (size 9 to 14) (size 15 to 20)
#    0.000    0.400    4.000    1.800   11.200    3.200 
#    0.000    0.000    0.000    0.000    0.000    0.000 
#    0.000    0.000    0.000    0.000    0.000    0.000 
#
# Total GULP energy -55977.143719 kJ/mol
# GULP energy per Si atom -5597.714372 kJ/mol
# Density = 2.462102 g / cm^3
# Si number density = 24.677185 Si / 1000 Ang^3
#
#
#
# Elastic Constant Matrix: (Units=GPa)
#
#
# Indices 1 2 3 4 5 6 
#
# 1 168.1285 30.4379 65.1246 -30.5292 19.6133 -30.9549
# 2 30.4379 95.7857 36.3696 -8.1034 15.9109 -29.5889
# 3 65.1246 36.3696 135.6211 -5.8877 -24.8526 -7.8339
# 4 -30.5292 -8.1034 -5.8877 27.2792 7.4373 -3.0569
# 5 19.6133 15.9109 -24.8526 7.4373 52.6867 -1.7296
# 6 -30.9549 -29.5889 -7.8339 -3.0569 -1.7296 47.5993
#
#
#
# Elastic Compliance Matrix: (Units=1/GPa)
#
#
# Indices 1 2 3 4 5 6 
#
# 1 0.022962 0.012288 -0.015979 0.034834 -0.024014 0.021306
# 2 0.012288 0.024354 -0.013979 0.026272 -0.021518 0.021735
# 3 -0.015979 -0.013979 0.020973 -0.025661 0.023146 -0.016436
# 4 0.034834 0.026272 -0.025661 0.094588 -0.045071 0.039198
# 5 -0.024014 -0.021518 0.023146 -0.045071 0.050837 -0.026231
# 6 0.021306 0.021735 -0.016436 0.039198 -0.026231 0.047235
#
#
# Mechanical properties :
#
#
# Convention : Reuss Voigt Hill
#
# Bulk Modulus (GPa) = 30.34958 73.71105 52.03031
# Shear Modulus (GPa) = 16.27222 43.35325 29.81273
#
# Velocity S-wave (km/s) = 2.57067 4.19598 3.47956
# Velocity P-wave (km/s) = 4.59744 7.30822 6.10518
#
# Compressibility (1/GPa) = 0.03294939
#
# Stress axis : x y z
#
# Youngs Moduli (GPa) = 43.54993 41.06129 47.67942
#
# Poissons Ratio (x) = -0.50456 0.76188
# Poissons Ratio (y) = -0.53514 0.66650
# Poissons Ratio (z) = 0.69589 0.57399
#
# Static dielectric constant tensor:
#      x y z
#    x 2.002030 -0.014490 0.061260 
#    y -0.014490 2.061150 0.016830 
#    z 0.061260 0.016830 2.016250 
# 
# From -- ./inp_files/16106.got.cif
#   From: 2010.05.17/outbox.cif.g08.bks.cpg/sg2_9_cif.got.tgz:16106.got - 2010.06.03 11:33:40.
