data_PCOD9068179
_publ_section_title
;
Structure prediction by ZEFSAII (Michael W. Deem and Ramdas Pophale) SiO2 
 PCOD9068179
Probable space group: P -1
;
_chemical_formula_sum "Si O2"
_cell_formula_units_Z 14
_cell_length_a 12.959429
_cell_length_b 9.158842
_cell_length_c 14.837536
_cell_angle_alpha 52.077351
_cell_angle_beta 150.983668
_cell_angle_gamma 120.709836
_cell_volume 672.213671
_symmetry_space_group_name_H-M "P -1"
_symmetry_group_IT_number 2
_symmetry_cell_setting 'triclinic'
loop_
_space_group_symop_operation_xyz
x,y,z
-x,-y,-z
loop_
_atom_site_type_symbol
_atom_site_label
_atom_site_fract_x
_atom_site_fract_y
_atom_site_fract_z
Si Si1 0.458478 0.584318 0.720916
Si Si2 0.418634 0.195066 0.093930
Si Si3 0.458049 0.222100 0.620147
Si Si4 0.743735 0.544313 0.785441
Si Si5 0.978110 0.796003 0.600980
Si Si6 0.416249 0.808906 0.976181
Si Si7 0.001170 0.438337 0.628894
O O1 0.502510 0.679856 0.812778
O O2 0.644802 0.604503 0.783860
O O3 0.221866 0.646774 0.484358
O O4 0.448371 0.365239 0.814270
O O5 0.562515 0.199303 0.112534
O O6 0.429655 0.984306 0.217180
O O7 0.191643 0.287106 0.853783
O O8 0.625210 0.363117 0.731021
O O9 0.348122 0.298942 0.414827
O O10 0.255573 0.216892 0.533487
O O11 0.000000 0.500000 0.000000
O O12 0.021785 0.623322 0.633030
O O13 0.171712 0.783898 0.825249
O O14 0.000000 0.000000 0.500000
O O15 0.500000 0.000000 0.000000
O O16 0.000000 0.500000 0.500000
#
# Coordination Sequence:
#
# PCOD9068179 Si02
#       7
#     2   2   2   2   2   2   2
#     4  12  24  44  69 101 144 190 235 293 363 419
#     4  12  26  42  68 108 147 178 234 297 362 430
#     4  11  26  48  72 106 140 186 247 298 348 427
#     4  11  26  50  78  98 137 193 252 295 347 426
#     4  12  23  42  70 104 143 183 233 292 353 427
#     4  12  23  39  67 104 146 187 234 285 352 428
#     4  12  25  42  68 105 149 190 223 285 369 428
#
# _framework density 20.826711
#
# number of rings (size 3 to 8) (size 9 to 14) (size 15 to 20)
#    0.000    0.286    5.714    3.857    0.000    1.714 
#    0.000    1.429    0.000    0.000    0.000    0.000 
#    0.000    0.000    0.000    0.000    0.000    0.000 
#
# Total GULP energy -78291.764924 kJ/mol
# GULP energy per Si atom -5592.268923 kJ/mol
# Density = 2.077931 g / cm^3
# Si number density = 20.826711 Si / 1000 Ang^3
#
#
#
# Elastic Constant Matrix: (Units=GPa)
#
#
# Indices 1 2 3 4 5 6 
#
# 1 114.0843 58.5962 44.4268 2.5276 7.2565 -4.8820
# 2 58.5962 107.3894 77.1692 -3.2748 2.9751 -4.8566
# 3 44.4268 77.1692 177.3730 1.4682 20.6479 4.0448
# 4 2.5276 -3.2748 1.4682 49.4081 8.9576 0.7362
# 5 7.2565 2.9751 20.6479 8.9576 36.7102 3.0145
# 6 -4.8820 -4.8566 4.0448 0.7362 3.0145 32.1975
#
#
#
# Elastic Compliance Matrix: (Units=1/GPa)
#
#
# Indices 1 2 3 4 5 6 
#
# 1 0.012371 -0.006674 -0.000003 -0.000764 -0.001803 0.001056
# 2 -0.006674 0.017596 -0.006396 0.001114 0.003043 0.002135
# 3 -0.000003 -0.006396 0.008973 0.000137 -0.004423 -0.001681
# 4 -0.000764 0.001114 0.000137 0.021293 -0.005215 0.000036
# 5 -0.001803 0.003043 -0.004423 -0.005215 0.031280 -0.002068
# 6 0.001056 0.002135 -0.001681 0.000036 -0.002068 0.031944
#
#
# Mechanical properties :
#
#
# Convention : Reuss Voigt Hill
#
# Bulk Modulus (GPa) = 78.15530 84.35900 81.25715
# Shear Modulus (GPa) = 32.49524 38.24012 35.36768
#
# Velocity S-wave (km/s) = 3.95431 4.28963 4.12538
# Velocity P-wave (km/s) = 7.64570 8.07018 7.86080
#
# Compressibility (1/GPa) = 0.01279504
#
# Stress axis : x y z
#
# Youngs Moduli (GPa) = 80.83314 56.83224 111.44068
#
# Poissons Ratio (x) = 0.37928 0.00033
# Poissons Ratio (y) = 0.53946 0.71277
# Poissons Ratio (z) = 0.00024 0.36349
#
# Static dielectric constant tensor:
#      x y z
#    x 1.777080 0.010710 0.006550 
#    y 0.010710 1.718360 0.000420 
#    z 0.006550 0.000420 1.884170 
# 
# From -- ./inp_files/236716.got.cif
#   From: 2010.05.17/outbox.cif.g08.bks.cpg/sg2_119_cif.got.tgz:236716.got - 2010.06.03 11:33:40.
