data_PCOD9068807
_publ_section_title
;
Structure prediction by ZEFSAII (Michael W. Deem and Ramdas Pophale) SiO2 
 PCOD9068807
Probable space group: P -1
;
_chemical_formula_sum "Si O2"
_cell_formula_units_Z 16
_cell_length_a 9.739252
_cell_length_b 11.584361
_cell_length_c 17.908408
_cell_angle_alpha 38.695305
_cell_angle_beta 97.810738
_cell_angle_gamma 129.451920
_cell_volume 649.720653
_symmetry_space_group_name_H-M "P -1"
_symmetry_group_IT_number 2
_symmetry_cell_setting 'triclinic'
loop_
_space_group_symop_operation_xyz
x,y,z
-x,-y,-z
loop_
_atom_site_type_symbol
_atom_site_label
_atom_site_fract_x
_atom_site_fract_y
_atom_site_fract_z
Si Si1 0.464805 0.717575 0.510288
Si Si2 0.952864 0.078051 0.885972
Si Si3 0.988665 0.299694 0.050889
Si Si4 0.219979 0.638333 0.398129
Si Si5 0.439517 0.651356 0.004371
Si Si6 0.877367 0.407705 0.255499
Si Si7 0.621662 0.506130 0.609044
Si Si8 0.298596 0.597434 0.183074
O O1 0.188908 0.321353 0.721346
O O2 0.413298 0.781535 0.402788
O O3 0.646969 0.753839 0.479886
O O4 0.576831 0.993081 0.438266
O O5 0.008776 0.337532 0.799252
O O6 0.665471 0.751388 0.987814
O O7 0.000000 0.000000 0.000000
O O8 0.204410 0.401654 0.051210
O O9 0.053582 0.422448 0.906463
O O10 0.680881 0.886128 0.240077
O O11 0.000000 0.500000 0.000000
O O12 0.173739 0.399539 0.466045
O O13 0.000000 0.500000 0.500000
O O14 0.374375 0.960308 0.196477
O O15 0.306348 0.525649 0.137905
O O16 0.021752 0.376895 0.289797
O O17 0.633872 0.472999 0.714097
O O18 0.500000 0.000000 0.000000
#
# Coordination Sequence:
#
# PCOD9068807 Si02
#       8
#     2   2   2   2   2   2   2   2
#     4  12  27  44  70 102 146 188 234 300 360 420
#     4  12  26  47  71 101 146 188 238 301 355 426
#     4  12  20  39  73 104 132 182 240 295 344 422
#     4  12  23  43  70 102 142 191 230 287 365 430
#     4  12  22  41  72 105 135 187 243 285 357 428
#     4  12  23  42  71 104 137 190 240 288 360 425
#     4  12  25  46  71 107 143 186 242 295 356 423
#     4  12  20  40  74 100 136 188 238 294 349 420
#
# _framework density 24.625968
#
# number of rings (size 3 to 8) (size 9 to 14) (size 15 to 20)
#    0.000    0.000    8.750    2.250    0.000    0.500 
#    0.000    3.750    0.000    0.000    0.000    0.000 
#    0.000    0.000    0.000    0.000    0.000    0.000 
#
# Total GULP energy -89431.037752 kJ/mol
# GULP energy per Si atom -5589.439859 kJ/mol
# Density = 2.456992 g / cm^3
# Si number density = 24.625968 Si / 1000 Ang^3
#
#
#
# Elastic Constant Matrix: (Units=GPa)
#
#
# Indices 1 2 3 4 5 6 
#
# 1 138.5863 55.1424 32.0758 16.3088 -6.2406 -0.5003
# 2 55.1424 131.1575 28.1125 15.6726 2.2636 22.7358
# 3 32.0758 28.1125 35.1444 -0.7386 -9.2284 11.0963
# 4 16.3088 15.6726 -0.7386 27.3607 -2.2701 7.4657
# 5 -6.2406 2.2636 -9.2284 -2.2701 30.6178 10.7562
# 6 -0.5003 22.7358 11.0963 7.4657 10.7562 58.5641
#
#
#
# Elastic Compliance Matrix: (Units=1/GPa)
#
#
# Indices 1 2 3 4 5 6 
#
# 1 0.011396 -0.002329 -0.010881 -0.007227 -0.002908 0.004518
# 2 -0.002329 0.011080 -0.007125 -0.004937 -0.003190 -0.001756
# 3 -0.010881 -0.007125 0.054197 0.017469 0.020728 -0.013630
# 4 -0.007227 -0.004937 0.017469 0.047682 0.011052 -0.009564
# 5 -0.002908 -0.003190 0.020728 0.011052 0.043635 -0.012137
# 6 0.004518 -0.001756 -0.013630 -0.009564 -0.012137 0.023826
#
#
# Mechanical properties :
#
#
# Convention : Reuss Voigt Hill
#
# Bulk Modulus (GPa) = 27.77346 59.50550 43.63948
# Shear Modulus (GPa) = 20.45102 35.94568 28.19835
#
# Velocity S-wave (km/s) = 2.88491 3.82470 3.38755
# Velocity P-wave (km/s) = 4.73281 6.61216 5.74979
#
# Compressibility (1/GPa) = 0.03600560
#
# Stress axis : x y z
#
# Youngs Moduli (GPa) = 87.74662 90.25310 18.45123
#
# Poissons Ratio (x) = 0.21017 0.20076
# Poissons Ratio (y) = 0.20434 0.13146
# Poissons Ratio (z) = 0.95473 0.64302
#
# Static dielectric constant tensor:
#      x y z
#    x 2.004730 0.014470 -0.031740 
#    y 0.014470 1.956250 -0.005600 
#    z -0.031740 -0.005600 1.867890 
# 
# From -- ./inp_files/559681.got.cif
#   From: 2010.05.17/outbox.cif.g08.bks.cpg/sg2_280_cif.got.tgz:559681.got - 2010.06.03 11:33:40.
