data_PCOD9068504
_publ_section_title
;
Structure prediction by ZEFSAII (Michael W. Deem and Ramdas Pophale) SiO2 
 PCOD9068504
Probable space group: P -1
;
_chemical_formula_sum "Si O2"
_cell_formula_units_Z 15
_cell_length_a 8.163460
_cell_length_b 11.161098
_cell_length_c 9.015008
_cell_angle_alpha 48.097112
_cell_angle_beta 69.080399
_cell_angle_gamma 65.187599
_cell_volume 551.308587
_symmetry_space_group_name_H-M "P -1"
_symmetry_group_IT_number 2
_symmetry_cell_setting 'triclinic'
loop_
_space_group_symop_operation_xyz
x,y,z
-x,-y,-z
loop_
_atom_site_type_symbol
_atom_site_label
_atom_site_fract_x
_atom_site_fract_y
_atom_site_fract_z
Si Si1 0.291978 0.314190 0.543719
Si Si2 0.397181 0.006610 0.317492
Si Si3 0.718113 0.320766 0.689993
Si Si4 0.824836 0.417468 0.079531
Si Si5 0.981808 0.661411 0.647550
Si Si6 0.000000 0.000000 0.000000
Si Si7 0.679977 0.717118 0.112729
Si Si8 0.265597 0.891141 0.734449
O O1 0.299904 0.502884 0.369691
O O2 0.162949 0.276203 0.488535
O O3 0.219189 0.289171 0.754436
O O4 0.484497 0.182120 0.580872
O O5 0.548849 0.093526 0.260202
O O6 0.254213 0.996123 0.498733
O O7 0.328547 0.106774 0.108083
O O8 0.842505 0.161119 0.860363
O O9 0.518628 0.296222 0.762181
O O10 0.825621 0.346358 0.485768
O O11 0.734218 0.573177 0.087668
O O12 0.706266 0.303682 0.148044
O O13 0.975166 0.290593 0.238421
O O14 0.920793 0.494543 0.854858
O O15 0.909504 0.038392 0.166637
#
# Coordination Sequence:
#
# PCOD9068504 Si02
#       8
#     2   2   2   2   2   1   2   2
#     4  12  26  51  84 119 161 223 272 336 396 500
#     4  11  27  49  81 122 164 216 271 337 406 478
#     4  12  26  48  81 117 159 212 270 338 401 484
#     4  11  27  53  82 123 158 217 274 342 411 488
#     4  11  27  48  82 117 163 212 275 330 418 471
#     4  12  26  50  78 124 160 208 272 338 414 486
#     4  12  27  50  84 121 168 210 284 326 406 485
#     4  11  26  52  81 118 165 213 271 337 413 482
#
# _framework density 27.207992999999998
#
# number of rings (size 3 to 8) (size 9 to 14) (size 15 to 20)
#    0.000    0.533    2.667    3.600    7.467    1.600 
#    0.000    2.667    0.000    0.000    0.000    0.000 
#    0.000    0.000    0.000    0.000    0.000    0.000 
#
# Total GULP energy -83711.897524 kJ/mol
# GULP energy per Si atom -5580.793168 kJ/mol
# Density = 2.714607 g / cm^3
# Si number density = 27.207993 Si / 1000 Ang^3
#
#
#
# Elastic Constant Matrix: (Units=GPa)
#
#
# Indices 1 2 3 4 5 6 
#
# 1 69.1757 45.9112 54.3001 9.2181 -2.5972 -5.8846
# 2 45.9112 145.0876 58.6893 19.9940 8.4229 -16.2508
# 3 54.3001 58.6893 151.8677 30.2501 13.8686 -11.1904
# 4 9.2181 19.9940 30.2501 41.2675 -12.8900 -5.8723
# 5 -2.5972 8.4229 13.8686 -12.8900 48.4287 0.7029
# 6 -5.8846 -16.2508 -11.1904 -5.8723 0.7029 32.7805
#
#
#
# Elastic Compliance Matrix: (Units=1/GPa)
#
#
# Indices 1 2 3 4 5 6 
#
# 1 0.023803 -0.005358 -0.007967 0.004878 0.005793 -0.000353
# 2 -0.005358 0.009869 -0.000724 -0.003475 -0.002767 0.003121
# 3 -0.007967 -0.000724 0.012003 -0.008407 -0.005990 0.000931
# 4 0.004878 -0.003475 -0.008407 0.035263 0.012625 0.002330
# 5 0.005793 -0.002767 -0.005990 0.012625 0.026526 -0.000683
# 6 -0.000353 0.003121 0.000931 0.002330 -0.000683 0.032740
#
#
# Mechanical properties :
#
#
# Convention : Reuss Voigt Hill
#
# Bulk Modulus (GPa) = 56.88663 75.99247 66.43955
# Shear Modulus (GPa) = 28.70909 38.31069 33.50989
#
# Velocity S-wave (km/s) = 3.25186 3.75649 3.51325
# Velocity P-wave (km/s) = 5.92055 6.84148 6.39761
#
# Compressibility (1/GPa) = 0.01757882
#
# Stress axis : x y z
#
# Youngs Moduli (GPa) = 42.01170 101.32254 83.31200
#
# Poissons Ratio (x) = 0.54284 0.66375
# Poissons Ratio (y) = 0.22508 0.06030
# Poissons Ratio (z) = 0.33471 0.07334
#
# Static dielectric constant tensor:
#      x y z
#    x 2.134510 -0.017240 0.024450 
#    y -0.017240 2.284320 -0.047410 
#    z 0.024450 -0.047410 2.141790 
# 
# From -- ./inp_files/184021.got.cif
#   From: 2010.05.17/outbox.cif.g08.bks.cpg/sg2_93_cif.got.tgz:184021.got - 2010.06.03 11:33:40.
