data_PCOD9068546
_publ_section_title
;
Structure prediction by ZEFSAII (Michael W. Deem and Ramdas Pophale) SiO2 
 PCOD9068546
Probable space group: P -1
;
_chemical_formula_sum "Si O2"
_cell_formula_units_Z 16
_cell_length_a 10.783459
_cell_length_b 8.020499
_cell_length_c 9.926914
_cell_angle_alpha 135.587547
_cell_angle_beta 89.143050
_cell_angle_gamma 102.571235
_cell_volume 573.892214
_symmetry_space_group_name_H-M "P -1"
_symmetry_group_IT_number 2
_symmetry_cell_setting 'triclinic'
loop_
_space_group_symop_operation_xyz
x,y,z
-x,-y,-z
loop_
_atom_site_type_symbol
_atom_site_label
_atom_site_fract_x
_atom_site_fract_y
_atom_site_fract_z
Si Si1 0.905839 0.941877 0.756988
Si Si2 0.477630 0.019949 0.823526
Si Si3 0.723664 0.414245 0.967337
Si Si4 0.331708 0.150612 0.637265
Si Si5 0.700604 0.473978 0.466671
Si Si6 0.916615 0.304923 0.216058
Si Si7 0.415750 0.462217 0.221817
Si Si8 0.083202 0.746723 0.294386
O O1 0.975599 0.087908 0.708293
O O2 0.774165 0.757127 0.590225
O O3 0.989999 0.785480 0.736711
O O4 0.883359 0.115445 0.979990
O O5 0.437450 0.724166 0.680139
O O6 0.629487 0.155593 0.876204
O O7 0.399773 0.059756 0.712377
O O8 0.435193 0.192491 0.034689
O O9 0.643707 0.479305 0.883085
O O10 0.859233 0.408940 0.904498
O O11 0.730195 0.630287 0.196961
O O12 0.451997 0.307331 0.632910
O O13 0.217027 0.918233 0.455941
O O14 0.795749 0.328144 0.318202
O O15 0.684020 0.521150 0.652138
O O16 0.993294 0.567887 0.299815
#
# Coordination Sequence:
#
# PCOD9068546 Si02
#       8
#     2   2   2   2   2   2   2   2
#     4  11  27  46  66  97 131 171 228 279 329 394
#     4   9  18  36  65 100 136 176 218 267 330 395
#     4   9  19  36  63 100 139 175 215 270 331 391
#     4   9  19  36  64 101 135 172 222 272 324 396
#     4  12  22  39  67  93 128 176 220 271 330 391
#     4  11  27  48  67  95 133 173 222 280 336 392
#     4   9  18  36  64 100 137 175 220 266 325 400
#     4  12  24  43  71  98 131 175 221 275 334 393
#
# _framework density 27.879798999999998
#
# number of rings (size 3 to 8) (size 9 to 14) (size 15 to 20)
#    0.000    1.750    0.000    6.000    0.000    7.500 
#    0.000    2.500    0.000    6.000    0.000    0.875 
#    0.000    0.000    0.000    0.000    0.000    0.000 
#
# Total GULP energy -89718.671702 kJ/mol
# GULP energy per Si atom -5607.416981 kJ/mol
# Density = 2.781634 g / cm^3
# Si number density = 27.879799 Si / 1000 Ang^3
#
#
#
# Elastic Constant Matrix: (Units=GPa)
#
#
# Indices 1 2 3 4 5 6 
#
# 1 115.6836 41.9417 46.4566 -1.4068 -11.3500 29.0980
# 2 41.9417 141.7724 61.7429 -2.8547 15.1831 17.5491
# 3 46.4566 61.7429 153.7520 19.7787 3.9409 6.3280
# 4 -1.4068 -2.8547 19.7787 48.8168 6.6195 7.3997
# 5 -11.3500 15.1831 3.9409 6.6195 53.7596 -4.5126
# 6 29.0980 17.5491 6.3280 7.3997 -4.5126 51.0888
#
#
#
# Elastic Compliance Matrix: (Units=1/GPa)
#
#
# Indices 1 2 3 4 5 6 
#
# 1 0.012349 -0.001780 -0.003099 0.002086 0.002567 -0.006114
# 2 -0.001780 0.009916 -0.003614 0.002870 -0.003489 -0.002669
# 3 -0.003099 -0.003614 0.009359 -0.004540 0.000453 0.002545
# 4 0.002086 0.002870 -0.004540 0.023829 -0.003422 -0.005366
# 5 0.002567 -0.003489 0.000453 -0.003422 0.020685 0.002003
# 6 -0.006114 -0.002669 0.002545 -0.005366 0.002003 0.024611
#
#
# Mechanical properties :
#
#
# Convention : Reuss Voigt Hill
#
# Bulk Modulus (GPa) = 68.31450 79.05448 73.68449
# Shear Modulus (GPa) = 40.77779 48.13748 44.45763
#
# Velocity S-wave (km/s) = 3.82858 4.15975 3.99760
# Velocity P-wave (km/s) = 6.64082 7.17554 6.91335
#
# Compressibility (1/GPa) = 0.01463818
#
# Stress axis : x y z
#
# Youngs Moduli (GPa) = 80.97760 100.84855 106.84418
#
# Poissons Ratio (x) = 0.17949 0.33112
# Poissons Ratio (y) = 0.14412 0.38616
# Poissons Ratio (z) = 0.25096 0.36449
#
# Static dielectric constant tensor:
#      x y z
#    x 2.108320 -0.070720 -0.003450 
#    y -0.070720 2.203280 0.025410 
#    z -0.003450 0.025410 2.173600 
# 
# From -- ./inp_files/448377.got.cif
#   From: 2010.05.17/outbox.cif.g08.bks.cpg/sg2_225_cif.got.tgz:448377.got - 2010.06.03 11:33:40.
