data_PCOD9068117
_publ_section_title
;
Structure prediction by ZEFSAII (Michael W. Deem and Ramdas Pophale) SiO2 
 PCOD9068117
Probable space group: P -1
;
_chemical_formula_sum "Si O2"
_cell_formula_units_Z 14
_cell_length_a 7.453719
_cell_length_b 13.523512
_cell_length_c 9.324985
_cell_angle_alpha 57.461264
_cell_angle_beta 97.041417
_cell_angle_gamma 132.814941
_cell_volume 534.534205
_symmetry_space_group_name_H-M "P -1"
_symmetry_group_IT_number 2
_symmetry_cell_setting 'triclinic'
loop_
_space_group_symop_operation_xyz
x,y,z
-x,-y,-z
loop_
_atom_site_type_symbol
_atom_site_label
_atom_site_fract_x
_atom_site_fract_y
_atom_site_fract_z
Si Si1 0.932469 0.696252 0.652032
Si Si2 0.692558 0.910917 0.797550
Si Si3 0.039475 0.842969 0.856199
Si Si4 0.466546 0.821183 0.524674
Si Si5 0.372474 0.675044 0.184804
Si Si6 0.811380 0.745927 0.332189
Si Si7 0.119205 0.429521 0.714037
O O1 0.944532 0.738284 0.782167
O O2 0.220823 0.793405 0.546526
O O3 0.748494 0.498385 0.761677
O O4 0.810126 0.741340 0.508171
O O5 0.623928 0.894849 0.635555
O O6 0.853443 0.865442 0.853370
O O7 0.428259 0.779175 0.968697
O O8 0.876234 0.079593 0.785830
O O9 0.332585 0.033421 0.691324
O O10 0.971797 0.714790 0.070471
O O11 0.320797 0.626061 0.636087
O O12 0.632734 0.757271 0.230517
O O13 0.156366 0.634071 0.295770
O O14 0.762077 0.591803 0.386693
#
# Coordination Sequence:
#
# PCOD9068117 Si02
#       7
#     2   2   2   2   2   2   2
#     4  11  26  47  77 109 145 200 247 308 375 427
#     4  12  26  47  74 114 148 193 256 302 367 449
#     4  12  25  47  79 111 147 200 244 310 373 431
#     4  11  26  49  76 112 146 191 264 299 360 459
#     4  11  26  48  74 110 152 191 253 300 367 461
#     4  12  27  49  71 114 153 192 244 309 375 440
#     4  11  28  50  80 107 149 201 241 312 377 420
#
# _framework density 26.191023999999999
#
# number of rings (size 3 to 8) (size 9 to 14) (size 15 to 20)
#    0.000    0.571    2.857    3.429    4.000    8.571 
#    0.000    0.000    0.000    0.000    0.000    0.000 
#    0.000    0.000    0.000    0.000    0.000    0.000 
#
# Total GULP energy -78406.675158 kJ/mol
# GULP energy per Si atom -5600.476797 kJ/mol
# Density = 2.613141 g / cm^3
# Si number density = 26.191024 Si / 1000 Ang^3
#
#
#
# Elastic Constant Matrix: (Units=GPa)
#
#
# Indices 1 2 3 4 5 6 
#
# 1 94.1755 45.3073 17.2955 16.9300 -2.3684 1.1085
# 2 45.3073 163.3298 47.7614 3.2609 16.1200 -0.3422
# 3 17.2955 47.7614 134.2795 -9.1949 -2.3506 -0.3342
# 4 16.9300 3.2609 -9.1949 33.8322 -7.8797 -4.9330
# 5 -2.3684 16.1200 -2.3506 -7.8797 42.0833 -1.4835
# 6 1.1085 -0.3422 -0.3342 -4.9330 -1.4835 38.5216
#
#
#
# Elastic Compliance Matrix: (Units=1/GPa)
#
#
# Indices 1 2 3 4 5 6 
#
# 1 0.013722 -0.003452 -0.000998 -0.006825 0.000716 -0.001281
# 2 -0.003452 0.008201 -0.002577 -0.000611 -0.003596 -0.000067
# 3 -0.000998 -0.002577 0.008787 0.003728 0.002143 0.000642
# 4 -0.006825 -0.000611 0.003728 0.036443 0.007064 0.005162
# 5 0.000716 -0.003596 0.002143 0.007064 0.026689 0.001898
# 6 -0.001281 -0.000067 0.000642 0.005162 0.001898 0.026735
#
#
# Mechanical properties :
#
#
# Convention : Reuss Voigt Hill
#
# Bulk Modulus (GPa) = 60.03737 68.05703 64.04720
# Shear Modulus (GPa) = 35.66748 41.64881 38.65815
#
# Velocity S-wave (km/s) = 3.69429 3.99205 3.84605
# Velocity P-wave (km/s) = 6.41636 6.87676 6.65055
#
# Compressibility (1/GPa) = 0.01665629
#
# Stress axis : x y z
#
# Youngs Moduli (GPa) = 72.87327 121.94004 113.80758
#
# Poissons Ratio (x) = 0.42092 0.11355
# Poissons Ratio (y) = 0.25155 0.29331
# Poissons Ratio (z) = 0.07271 0.31427
#
# Static dielectric constant tensor:
#      x y z
#    x 2.021380 0.019430 0.004650 
#    y 0.019430 2.019330 -0.101010 
#    z 0.004650 -0.101010 2.171400 
# 
# From -- ./inp_files/206007.got.cif
#   From: 2010.05.17/outbox.cif.g08.bks.cpg/sg2_104_cif.got.tgz:206007.got - 2010.06.03 11:33:40.
