data_PCOD9068704
_publ_section_title
;
Structure prediction by ZEFSAII (Michael W. Deem and Ramdas Pophale) SiO2 
 PCOD9068704
Probable space group: P -1
;
_chemical_formula_sum "Si O2"
_cell_formula_units_Z 14
_cell_length_a 21.822729
_cell_length_b 5.066208
_cell_length_c 16.339849
_cell_angle_alpha 59.542775
_cell_angle_beta 155.974171
_cell_angle_gamma 109.857806
_cell_volume 593.612649
_symmetry_space_group_name_H-M "P -1"
_symmetry_group_IT_number 2
_symmetry_cell_setting 'triclinic'
loop_
_space_group_symop_operation_xyz
x,y,z
-x,-y,-z
loop_
_atom_site_type_symbol
_atom_site_label
_atom_site_fract_x
_atom_site_fract_y
_atom_site_fract_z
Si Si1 0.040541 0.245024 0.949195
Si Si2 0.687779 0.441729 0.474437
Si Si3 0.780114 0.892909 0.081655
Si Si4 0.396904 0.366538 0.833921
Si Si5 0.898098 0.751580 0.420773
Si Si6 0.427143 0.116746 0.576333
Si Si7 0.778699 0.301198 0.866371
O O1 0.864716 0.431153 0.669431
O O2 0.092986 0.517925 0.013632
O O3 0.163419 0.029363 0.064878
O O4 0.000000 0.000000 0.000000
O O5 0.606823 0.466375 0.284089
O O6 0.619150 0.714170 0.417529
O O7 0.674275 0.102982 0.542371
O O8 0.773671 0.910924 0.168829
O O9 0.947648 0.587329 0.330658
O O10 0.613301 0.882144 0.843805
O O11 0.786049 0.197167 0.986783
O O12 0.226067 0.347499 0.657109
O O13 0.500000 0.500000 0.000000
O O14 0.500000 0.000000 0.000000
O O15 0.000000 0.000000 0.500000
O O16 0.378687 0.425986 0.406855
#
# Coordination Sequence:
#
# PCOD9068704 Si02
#       7
#     2   2   2   2   2   2   2
#     4  12  23  45  69 105 147 188 236 303 361 441
#     4  12  25  43  74 105 147 189 242 301 372 424
#     4  11  28  46  75 100 149 195 248 296 376 441
#     4  12  28  49  78 111 146 190 255 312 370 436
#     4  11  28  52  75 107 148 201 255 311 375 443
#     4  12  25  46  70 112 146 192 236 304 365 448
#     4  12  25  44  73 108 146 191 245 296 371 440
#
# _framework density 23.584402000000001
#
# number of rings (size 3 to 8) (size 9 to 14) (size 15 to 20)
#    0.000    0.286    2.857    5.143   12.000    0.000 
#    0.000    2.857    0.000    0.000    0.000    0.000 
#    0.000    0.000    0.000    0.000    0.000    0.000 
#
# Total GULP energy -77952.256918 kJ/mol
# GULP energy per Si atom -5568.018351 kJ/mol
# Density = 2.353072 g / cm^3
# Si number density = 23.584402 Si / 1000 Ang^3
#
#
#
# Elastic Constant Matrix: (Units=GPa)
#
#
# Indices 1 2 3 4 5 6 
#
# 1 71.6304 28.3924 17.9879 -3.3273 -14.5383 15.9824
# 2 28.3924 95.9966 12.7586 16.7133 9.4251 -3.5646
# 3 17.9879 12.7586 131.8624 7.9144 -13.0399 2.4727
# 4 -3.3273 16.7133 7.9144 38.1938 14.6951 -2.8021
# 5 -14.5383 9.4251 -13.0399 14.6951 42.1441 -1.4775
# 6 15.9824 -3.5646 2.4727 -2.8021 -1.4775 38.5057
#
#
#
# Elastic Compliance Matrix: (Units=1/GPa)
#
#
# Indices 1 2 3 4 5 6 
#
# 1 0.020759 -0.007332 -0.001326 0.001775 0.007463 -0.008795
# 2 -0.007332 0.014038 -0.000536 -0.004843 -0.004010 0.003871
# 3 -0.001326 -0.000536 0.008309 -0.002851 0.003223 -0.000117
# 4 0.001775 -0.004843 -0.002851 0.033256 -0.010747 0.001006
# 5 0.007463 -0.004010 0.003223 -0.010747 0.031831 -0.003237
# 6 -0.008795 0.003871 -0.000117 0.001006 -0.003237 0.029935
#
#
# Mechanical properties :
#
#
# Convention : Reuss Voigt Hill
#
# Bulk Modulus (GPa) = 40.45882 46.41858 43.43870
# Shear Modulus (GPa) = 30.34802 39.79209 35.07005
#
# Velocity S-wave (km/s) = 3.59107 4.11204 3.86035
# Velocity P-wave (km/s) = 5.86400 6.50152 6.19097
#
# Compressibility (1/GPa) = 0.02471649
#
# Stress axis : x y z
#
# Youngs Moduli (GPa) = 48.17134 71.23736 120.35812
#
# Poissons Ratio (x) = 0.52231 0.15959
# Poissons Ratio (y) = 0.35319 0.06457
# Poissons Ratio (z) = 0.06387 0.03822
#
# Static dielectric constant tensor:
#      x y z
#    x 1.942060 -0.059250 -0.010640 
#    y -0.059250 1.808120 0.006930 
#    z -0.010640 0.006930 1.991820 
# 
# From -- ./inp_files/578667.got.cif
#   From: 2010.05.17/outbox.cif.g08.bks.cpg/sg2_290_cif.got.tgz:578667.got - 2010.06.03 11:33:40.
