data_PCOD9068281
_publ_section_title
;
Structure prediction by ZEFSAII (Michael W. Deem and Ramdas Pophale) SiO2 
 PCOD9068281
Probable space group: P -1
;
_chemical_formula_sum "Si O2"
_cell_formula_units_Z 14
_cell_length_a 10.634084
_cell_length_b 8.460104
_cell_length_c 11.538802
_cell_angle_alpha 89.948666
_cell_angle_beta 141.158189
_cell_angle_gamma 113.810106
_cell_volume 498.856334
_symmetry_space_group_name_H-M "P -1"
_symmetry_group_IT_number 2
_symmetry_cell_setting 'triclinic'
loop_
_space_group_symop_operation_xyz
x,y,z
-x,-y,-z
loop_
_atom_site_type_symbol
_atom_site_label
_atom_site_fract_x
_atom_site_fract_y
_atom_site_fract_z
Si Si1 0.001426 0.224700 0.570763
Si Si2 0.815485 0.445380 0.759477
Si Si3 0.748130 0.395333 0.095606
Si Si4 0.827579 0.887643 0.990835
Si Si5 0.242462 0.004457 0.821983
Si Si6 0.696250 0.951420 0.536242
Si Si7 0.507747 0.461055 0.701323
O O1 0.177123 0.453236 0.745289
O O2 0.150025 0.136716 0.710769
O O3 0.934568 0.195377 0.388083
O O4 0.727622 0.075573 0.446175
O O5 0.575722 0.198229 0.589857
O O6 0.694742 0.545691 0.720992
O O7 0.984641 0.536614 0.767132
O O8 0.000000 0.500000 0.000000
O O9 0.541724 0.163055 0.990609
O O10 0.618572 0.426791 0.895160
O O11 0.777788 0.994599 0.052919
O O12 0.550319 0.663908 0.764846
O O13 0.039870 0.878504 0.205595
O O14 0.000000 0.000000 0.000000
O O15 0.706129 0.773422 0.496027
#
# Coordination Sequence:
#
# PCOD9068281 Si02
#       7
#     2   2   2   2   2   2   2
#     4  10  18  28  50  79 108 134 161 207 264 313
#     4   8  17  31  51  78 112 133 162 201 266 317
#     4  11  17  31  52  83 106 138 153 205 275 316
#     4  11  23  37  55  73  98 144 183 211 252 295
#     4  10  20  31  48  77 109 127 171 213 258 309
#     4   9  18  34  50  80 107 131 172 209 252 302
#     4   9  18  34  51  79 108 133 164 219 251 302
#
# _framework density 28.064195000000002
#
# number of rings (size 3 to 8) (size 9 to 14) (size 15 to 20)
#    0.857    1.429    4.286    0.429    0.000    1.143 
#    2.571    0.000    0.000    1.714    0.000    0.000 
#    0.000    0.000    0.000    0.000    0.000    0.000 
#
# Total GULP energy -78135.898581 kJ/mol
# GULP energy per Si atom -5581.135613 kJ/mol
# Density = 2.800032 g / cm^3
# Si number density = 28.064195 Si / 1000 Ang^3
#
#
#
# Elastic Constant Matrix: (Units=GPa)
#
#
# Indices 1 2 3 4 5 6 
#
# 1 78.3954 22.8218 -0.7859 -2.2110 -11.9384 49.0802
# 2 22.8218 101.2137 31.5213 11.6968 -4.9375 32.4375
# 3 -0.7859 31.5213 100.5132 14.6668 -14.8260 -11.1986
# 4 -2.2110 11.6968 14.6668 57.3044 -1.5273 -3.0310
# 5 -11.9384 -4.9375 -14.8260 -1.5273 42.9702 9.1123
# 6 49.0802 32.4375 -11.1986 -3.0310 9.1123 49.3871
#
#
#
# Elastic Compliance Matrix: (Units=1/GPa)
#
#
# Indices 1 2 3 4 5 6 
#
# 1 0.069052 0.018139 -0.009330 -0.002406 0.036970 -0.089621
# 2 0.018139 0.020797 -0.008154 -0.003037 0.012134 -0.035960
# 3 -0.009330 -0.008154 0.014308 -0.001460 -0.002513 0.018245
# 4 -0.002406 -0.003037 -0.001460 0.018592 -0.002042 0.005572
# 5 0.036970 0.012134 -0.002513 -0.002042 0.045403 -0.053782
# 6 -0.089621 -0.035960 0.018245 0.005572 -0.053782 0.147333
#
#
# Mechanical properties :
#
#
# Convention : Reuss Voigt Hill
#
# Bulk Modulus (GPa) = 9.48144 43.02630 26.25387
# Shear Modulus (GPa) = 14.31314 45.03669 29.67492
#
# Velocity S-wave (km/s) = 2.26080 4.01031 3.25529
# Velocity P-wave (km/s) = 3.19386 6.06697 4.84814
#
# Compressibility (1/GPa) = 0.10546925
#
# Stress axis : x y z
#
# Youngs Moduli (GPa) = 14.48183 48.08406 69.89042
#
# Poissons Ratio (x) = -0.87222 0.65205
# Poissons Ratio (y) = -0.26269 0.56987
# Poissons Ratio (z) = 0.13511 0.39206
#
# Static dielectric constant tensor:
#      x y z
#    x 2.524120 -0.040740 0.180940 
#    y -0.040740 2.236070 -0.083040 
#    z 0.180940 -0.083040 2.231990 
# 
# From -- ./inp_files/429609.got.cif
#   From: 2010.05.17/outbox.cif.g08.bks.cpg/sg2_215_cif.got.tgz:429609.got - 2010.06.03 11:33:40.
