data_PCOD9068004
_publ_section_title
;
Structure prediction by ZEFSAII (Michael W. Deem and Ramdas Pophale) SiO2 
 PCOD9068004
Probable space group: P -1
;
_chemical_formula_sum "Si O2"
_cell_formula_units_Z 13
_cell_length_a 12.618658
_cell_length_b 9.564487
_cell_length_c 5.366604
_cell_angle_alpha 125.257354
_cell_angle_beta 104.634953
_cell_angle_gamma 86.678227
_cell_volume 508.554374
_symmetry_space_group_name_H-M "P -1"
_symmetry_group_IT_number 2
_symmetry_cell_setting 'triclinic'
loop_
_space_group_symop_operation_xyz
x,y,z
-x,-y,-z
loop_
_atom_site_type_symbol
_atom_site_label
_atom_site_fract_x
_atom_site_fract_y
_atom_site_fract_z
Si Si1 0.000000 0.000000 0.000000
Si Si2 0.428296 0.873434 0.140434
Si Si3 0.915802 0.569408 0.326720
Si Si4 0.336917 0.499033 0.804360
Si Si5 0.613033 0.681157 0.846986
Si Si6 0.934074 0.226258 0.721369
Si Si7 0.228178 0.026551 0.921986
O O1 0.133992 0.028944 0.072830
O O2 0.012687 0.864872 0.112873
O O3 0.500000 0.000000 0.500000
O O4 0.362674 0.703912 0.051359
O O5 0.513850 0.798874 0.925690
O O6 0.336029 0.969818 0.055203
O O7 0.793573 0.565386 0.354436
O O8 0.000000 0.500000 0.500000
O O9 0.978289 0.747614 0.433591
O O10 0.904605 0.417544 0.957673
O O11 0.391293 0.436841 0.520529
O O12 0.383684 0.415414 0.989055
O O13 0.730054 0.798756 0.013887
O O14 0.826068 0.114040 0.447492
#
# Coordination Sequence:
#
# PCOD9068004 Si02
#       7
#     1   2   2   2   2   2   2
#     4  12  26  48  74 120 160 204 270 338 426 484
#     4  12  29  57  86 120 164 222 285 346 419 496
#     4  11  26  48  77 117 162 219 274 339 428 499
#     4  12  29  53  84 120 167 217 281 349 419 498
#     4  12  30  51  84 120 167 222 278 341 417 494
#     4  11  26  46  79 117 164 216 273 339 415 514
#     4  12  29  49  82 118 166 212 277 344 418 499
#
# _framework density 25.562656
#
# number of rings (size 3 to 8) (size 9 to 14) (size 15 to 20)
#    0.000    0.308    0.000    6.462   17.231    1.231 
#    0.000    0.000    0.000    0.000    0.000    0.000 
#    0.000    0.000    0.000    0.000    0.000    0.000 
#
# Total GULP energy -72773.872075 kJ/mol
# GULP energy per Si atom -5597.990160 kJ/mol
# Density = 2.550447 g / cm^3
# Si number density = 25.562656 Si / 1000 Ang^3
#
#
#
# Elastic Constant Matrix: (Units=GPa)
#
#
# Indices 1 2 3 4 5 6 
#
# 1 167.1043 39.3205 38.9198 -22.7337 10.4695 4.7660
# 2 39.3205 139.9398 41.7030 -15.0198 14.9256 28.1309
# 3 38.9198 41.7030 148.1214 -1.1376 20.4531 0.4208
# 4 -22.7337 -15.0198 -1.1376 52.6098 7.3640 12.5471
# 5 10.4695 14.9256 20.4531 7.3640 53.0433 1.1102
# 6 4.7660 28.1309 0.4208 12.5471 1.1102 47.1777
#
#
#
# Elastic Compliance Matrix: (Units=1/GPa)
#
#
# Indices 1 2 3 4 5 6 
#
# 1 0.007048 -0.000922 -0.001428 0.003118 -0.000994 -0.000956
# 2 -0.000922 0.010245 -0.002270 0.004502 -0.002301 -0.007139
# 3 -0.001428 -0.002270 0.008033 -0.001235 -0.002043 0.001803
# 4 0.003118 0.004502 -0.001235 0.024500 -0.004611 -0.009396
# 5 -0.000994 -0.002301 -0.002043 -0.004611 0.021078 0.002221
# 6 -0.000956 -0.007139 0.001803 -0.009396 0.002221 0.027980
#
#
# Mechanical properties :
#
#
# Convention : Reuss Voigt Hill
#
# Bulk Modulus (GPa) = 62.16551 77.22800 69.69676
# Shear Modulus (GPa) = 44.05854 52.91430 48.48642
#
# Velocity S-wave (km/s) = 4.15607 4.55464 4.35991
# Velocity P-wave (km/s) = 6.88493 7.61161 7.25737
#
# Compressibility (1/GPa) = 0.01608609
#
# Stress axis : x y z
#
# Youngs Moduli (GPa) = 141.89172 97.60855 124.48572
#
# Poissons Ratio (x) = 0.08998 0.17781
# Poissons Ratio (y) = 0.13080 0.28253
# Poissons Ratio (z) = 0.20268 0.22153
#
# Static dielectric constant tensor:
#      x y z
#    x 2.077490 0.028960 -0.343510 
#    y 0.028960 3.881790 1.429470 
#    z -0.343510 1.429470 4.142370 
# 
# From -- ./inp_files/61325.got.cif
#   From: 2010.05.17/outbox.cif.g08.bks.cpg/sg2_31_cif.got.tgz:61325.got - 2010.06.03 11:33:40.
