data_PCOD9068093
_publ_section_title
;
Structure prediction by ZEFSAII (Michael W. Deem and Ramdas Pophale) SiO2 
 PCOD9068093
Probable space group: P -1
;
_chemical_formula_sum "Si O2"
_cell_formula_units_Z 11
_cell_length_a 10.617728
_cell_length_b 5.080953
_cell_length_c 8.014807
_cell_angle_alpha 93.032367
_cell_angle_beta 98.050722
_cell_angle_gamma 60.227427
_cell_volume 371.542347
_symmetry_space_group_name_H-M "P -1"
_symmetry_group_IT_number 2
_symmetry_cell_setting 'triclinic'
loop_
_space_group_symop_operation_xyz
x,y,z
-x,-y,-z
loop_
_atom_site_type_symbol
_atom_site_label
_atom_site_fract_x
_atom_site_fract_y
_atom_site_fract_z
Si Si1 0.199819 0.919772 0.551418
Si Si2 0.274099 0.435861 0.274121
Si Si3 0.014222 0.798233 0.764001
Si Si4 0.000000 0.500000 0.000000
Si Si5 0.420212 0.789476 0.156748
Si Si6 0.695558 0.808747 0.179800
O O1 0.251099 0.610760 0.450134
O O2 0.111866 0.914525 0.698125
O O3 0.310661 0.013943 0.648955
O O4 0.089600 0.169853 0.408664
O O5 0.367551 0.555627 0.189873
O O6 0.359771 0.073433 0.282245
O O7 0.119463 0.546149 0.156874
O O8 0.133589 0.446984 0.833275
O O9 0.928457 0.853540 0.920789
O O10 0.594777 0.656167 0.177531
O O11 0.363192 0.960923 0.975994
#
# Coordination Sequence:
#
# PCOD9068093 Si02
#       6
#     2   2   2   1   2   2
#     4  11  28  45  79 114 166 192 268 321 406 445
#     4  12  28  50  76 118 152 209 255 326 389 469
#     4  11  26  47  75 116 147 213 251 328 386 463
#     4  12  26  48  82 104 164 190 274 310 392 458
#     4  11  28  51  80 113 159 208 268 307 398 468
#     4  11  26  49  79 110 159 208 258 326 380 478
#
# _framework density 29.606317000000001
#
# number of rings (size 3 to 8) (size 9 to 14) (size 15 to 20)
#    0.000    0.727    1.818    2.727   12.727    5.818 
#    0.000    0.000    0.000    0.000    0.000    0.000 
#    0.000    0.000    0.000    0.000    0.000    0.000 
#
# Total GULP energy -61554.129447 kJ/mol
# GULP energy per Si atom -5595.829950 kJ/mol
# Density = 2.953893 g / cm^3
# Si number density = 29.606317 Si / 1000 Ang^3
#
#
#
# Elastic Constant Matrix: (Units=GPa)
#
#
# Indices 1 2 3 4 5 6 
#
# 1 220.7296 26.7550 34.8048 -8.5247 7.5561 15.2559
# 2 26.7550 96.3980 18.2704 12.9657 -9.5030 -7.3669
# 3 34.8048 18.2704 150.2776 -13.1668 -19.7454 1.8462
# 4 -8.5247 12.9657 -13.1668 68.4751 8.4409 -12.5360
# 5 7.5561 -9.5030 -19.7454 8.4409 57.2574 -10.7644
# 6 15.2559 -7.3669 1.8462 -12.5360 -10.7644 62.5264
#
#
#
# Elastic Compliance Matrix: (Units=1/GPa)
#
#
# Indices 1 2 3 4 5 6 
#
# 1 0.005091 -0.001571 -0.001138 0.000638 -0.001713 -0.001561
# 2 -0.001571 0.011724 -0.000979 -0.002602 0.002520 0.001706
# 3 -0.001138 -0.000979 0.007470 0.001288 0.002492 0.000629
# 4 0.000638 -0.002602 0.001288 0.016107 -0.001998 0.002385
# 5 -0.001713 0.002520 0.002492 -0.001998 0.019954 0.003676
# 6 -0.001561 0.001706 0.000629 0.002385 0.003676 0.017667
#
#
# Mechanical properties :
#
#
# Convention : Reuss Voigt Hill
#
# Bulk Modulus (GPa) = 59.14501 69.67397 64.40949
# Shear Modulus (GPa) = 54.92881 63.49012 59.20946
#
# Velocity S-wave (km/s) = 4.31200 4.63588 4.47687
# Velocity P-wave (km/s) = 6.69415 7.22770 6.96604
#
# Compressibility (1/GPa) = 0.01690760
#
# Stress axis : x y z
#
# Youngs Moduli (GPa) = 196.40608 85.29396 133.87676
#
# Poissons Ratio (x) = 0.13403 0.15237
# Poissons Ratio (y) = 0.30862 0.13111
# Poissons Ratio (z) = 0.22354 0.08353
#
# Static dielectric constant tensor:
#      x y z
#    x 2.920200 0.067420 -0.325610 
#    y 0.067420 2.505190 0.093960 
#    z -0.325610 0.093960 2.499420 
# 
# From -- ./inp_files/228659.got.cif
#   From: 2010.05.17/outbox.cif.g08.bks.cpg/sg2_115_cif.got.tgz:228659.got - 2010.06.03 11:33:40.
