data_PCOD9068706
_publ_section_title
;
Structure prediction by ZEFSAII (Michael W. Deem and Ramdas Pophale) SiO2 
 PCOD9068706
Probable space group: P -1
;
_chemical_formula_sum "Si O2"
_cell_formula_units_Z 11
_cell_length_a 9.429169
_cell_length_b 12.535401
_cell_length_c 9.436570
_cell_angle_alpha 134.301147
_cell_angle_beta 119.925670
_cell_angle_gamma 34.644394
_cell_volume 445.867097
_symmetry_space_group_name_H-M "P -1"
_symmetry_group_IT_number 2
_symmetry_cell_setting 'triclinic'
loop_
_space_group_symop_operation_xyz
x,y,z
-x,-y,-z
loop_
_atom_site_type_symbol
_atom_site_label
_atom_site_fract_x
_atom_site_fract_y
_atom_site_fract_z
Si Si1 0.253985 0.281430 0.131161
Si Si2 0.039158 0.815406 0.770110
Si Si3 0.000000 0.500000 0.500000
Si Si4 0.914824 0.362250 0.833303
Si Si5 0.326145 0.999200 0.485386
Si Si6 0.466590 0.590850 0.226401
O O1 0.271727 0.400429 0.129963
O O2 0.163066 0.419159 0.359775
O O3 0.001692 0.371360 0.033015
O O4 0.500000 0.000000 0.000000
O O5 0.339777 0.597550 0.732861
O O6 0.942331 0.724218 0.700480
O O7 0.887010 0.925915 0.650749
O O8 0.000000 0.000000 0.000000
O O9 0.801013 0.280758 0.732013
O O10 0.175852 0.170083 0.699309
O O11 0.507706 0.738117 0.374509
O O12 0.500000 0.000000 0.500000
O O13 0.500000 0.500000 0.000000
#
# Coordination Sequence:
#
# PCOD9068706 Si02
#       6
#     2   2   1   2   2   2
#     4  11  28  46  81 115 161 215 273 334 413 493
#     4  12  27  47  82 115 158 215 274 328 415 488
#     4  12  26  54  78 120 160 218 274 332 418 490
#     4  11  28  50  73 120 160 204 279 336 403 497
#     4  12  28  50  80 114 160 216 270 339 413 490
#     4  12  27  47  77 113 158 208 266 336 406 482
#
# _framework density 24.671028
#
# number of rings (size 3 to 8) (size 9 to 14) (size 15 to 20)
#    0.000    0.364    3.636    2.727   12.727    0.727 
#    0.000    0.909    0.000    0.000    0.000    0.000 
#    0.000    0.000    0.000    0.000    0.000    0.000 
#
# Total GULP energy -61251.568890 kJ/mol
# GULP energy per Si atom -5568.324445 kJ/mol
# Density = 2.461488 g / cm^3
# Si number density = 24.671028 Si / 1000 Ang^3
#
#
#
# Elastic Constant Matrix: (Units=GPa)
#
#
# Indices 1 2 3 4 5 6 
#
# 1 126.3459 9.9466 41.7986 14.9564 8.6699 8.6011
# 2 9.9466 128.2174 51.8989 -3.4777 -9.5605 14.7378
# 3 41.7986 51.8989 147.0898 -0.7386 4.1009 8.1198
# 4 14.9564 -3.4777 -0.7386 52.0064 3.9360 13.2402
# 5 8.6699 -9.5605 4.1009 3.9360 46.1141 10.1410
# 6 8.6011 14.7378 8.1198 13.2402 10.1410 32.0467
#
#
#
# Elastic Compliance Matrix: (Units=1/GPa)
#
#
# Indices 1 2 3 4 5 6 
#
# 1 0.009173 0.000281 -0.002656 -0.002430 -0.001098 -0.000567
# 2 0.000281 0.010119 -0.003425 0.001729 0.003448 -0.005667
# 3 -0.002656 -0.003425 0.008789 0.000714 -0.001077 0.000107
# 4 -0.002430 0.001729 0.000714 0.022508 0.001018 -0.009945
# 5 -0.001098 0.003448 -0.001077 0.001018 0.024647 -0.009238
# 6 -0.000567 -0.005667 0.000107 -0.009945 -0.009238 0.040968
#
#
# Mechanical properties :
#
#
# Convention : Reuss Voigt Hill
#
# Bulk Modulus (GPa) = 60.67437 67.66014 64.16726
# Shear Modulus (GPa) = 37.50987 45.90071 41.70529
#
# Velocity S-wave (km/s) = 3.90346 4.31804 4.11598
# Velocity P-wave (km/s) = 6.70543 7.23499 6.97524
#
# Compressibility (1/GPa) = 0.01648142
#
# Stress axis : x y z
#
# Youngs Moduli (GPa) = 109.01668 98.82270 113.77222
#
# Poissons Ratio (x) = -0.02776 0.30219
# Poissons Ratio (y) = -0.03062 0.38966
# Poissons Ratio (z) = 0.28956 0.33846
#
# Static dielectric constant tensor:
#      x y z
#    x 1.930530 0.027000 -0.004220 
#    y 0.027000 2.133860 -0.058930 
#    z -0.004220 -0.058930 2.012460 
# 
# From -- ./inp_files/183355.got.cif
#   From: 2010.05.17/outbox.cif.g08.bks.cpg/sg2_92_cif.got.tgz:183355.got - 2010.06.03 11:33:40.
