data_PCOD9068624
_publ_section_title
;
Structure prediction by ZEFSAII (Michael W. Deem and Ramdas Pophale) SiO2 
 PCOD9068624
Probable space group: P -1
;
_chemical_formula_sum "Si O2"
_cell_formula_units_Z 16
_cell_length_a 17.160118
_cell_length_b 5.273830
_cell_length_c 11.721114
_cell_angle_alpha 80.977027
_cell_angle_beta 43.838236
_cell_angle_gamma 61.866488
_cell_volume 618.043351
_symmetry_space_group_name_H-M "P -1"
_symmetry_group_IT_number 2
_symmetry_cell_setting 'triclinic'
loop_
_space_group_symop_operation_xyz
x,y,z
-x,-y,-z
loop_
_atom_site_type_symbol
_atom_site_label
_atom_site_fract_x
_atom_site_fract_y
_atom_site_fract_z
Si Si1 0.981197 0.813929 0.889047
Si Si2 0.351570 0.770739 0.128333
Si Si3 0.171695 0.195825 0.747974
Si Si4 0.139922 0.510103 0.109500
Si Si5 0.276698 0.109647 0.406065
Si Si6 0.571684 0.956368 0.159896
Si Si7 0.560563 0.198600 0.384016
Si Si8 0.126706 0.672062 0.358111
O O1 0.913979 0.671981 0.890059
O O2 0.133587 0.541539 0.749366
O O3 0.934048 0.139684 0.869758
O O4 0.939941 0.817032 0.063504
O O5 0.246685 0.711348 0.184872
O O6 0.294276 0.882384 0.305197
O O7 0.500000 0.500000 0.000000
O O8 0.373248 0.003871 0.019981
O O9 0.208287 0.074497 0.591025
O O10 0.291171 0.002536 0.718539
O O11 0.104038 0.519802 0.281785
O O12 0.296226 0.356803 0.920952
O O13 0.189256 0.437312 0.414390
O O14 0.426451 0.013888 0.290048
O O15 0.551842 0.208212 0.255674
O O16 0.500000 0.500000 0.500000
O O17 0.500000 0.000000 0.500000
O O18 0.000000 0.000000 0.500000
#
# Coordination Sequence:
#
# PCOD9068624 Si02
#       8
#     2   2   2   2   2   2   2   2
#     4  11  28  51  78 112 153 208 253 321 395 468
#     4  12  26  47  76 109 151 210 255 319 391 464
#     4  11  27  49  75 111 154 201 257 320 392 466
#     4  12  26  50  80 110 153 202 261 319 386 468
#     4  12  26  48  73 111 151 197 258 321 388 461
#     4  12  25  50  77 113 152 202 264 319 393 465
#     4  12  29  48  76 112 149 198 254 324 378 453
#     4  12  28  47  75 111 152 203 260 320 387 462
#
# _framework density 25.888148999999999
#
# number of rings (size 3 to 8) (size 9 to 14) (size 15 to 20)
#    0.000    0.250    5.000    2.625    5.250    3.500 
#    2.250    0.000    0.000    0.000    0.000    0.000 
#    0.000    0.000    0.000    0.000    0.000    0.000 
#
# Total GULP energy -89599.161105 kJ/mol
# GULP energy per Si atom -5599.947569 kJ/mol
# Density = 2.582923 g / cm^3
# Si number density = 25.888149 Si / 1000 Ang^3
#
#
#
# Elastic Constant Matrix: (Units=GPa)
#
#
# Indices 1 2 3 4 5 6 
#
# 1 131.5644 40.4843 36.4441 13.3575 9.6000 1.8927
# 2 40.4843 94.4876 4.4741 21.1378 -8.0888 1.8482
# 3 36.4441 4.4741 105.0041 7.1625 23.0655 8.1464
# 4 13.3575 21.1378 7.1625 45.6940 -14.1649 1.1244
# 5 9.6000 -8.0888 23.0655 -14.1649 62.4382 3.4470
# 6 1.8927 1.8482 8.1464 1.1244 3.4470 39.1578
#
#
#
# Elastic Compliance Matrix: (Units=1/GPa)
#
#
# Indices 1 2 3 4 5 6 
#
# 1 0.009812 -0.003962 -0.002950 -0.000948 -0.001172 0.000457
# 2 -0.003962 0.013422 0.000985 -0.004911 0.000902 -0.000585
# 3 -0.002950 0.000985 0.011779 -0.002721 -0.004282 -0.001899
# 4 -0.000948 -0.004911 -0.002721 0.026935 0.006654 -0.000516
# 5 -0.001172 0.000902 -0.004282 0.006654 0.019460 -0.000999
# 6 0.000457 -0.000585 -0.001899 -0.000516 -0.000999 0.026041
#
#
# Mechanical properties :
#
#
# Convention : Reuss Voigt Hill
#
# Bulk Modulus (GPa) = 43.17786 54.87347 49.02566
# Shear Modulus (GPa) = 39.36336 46.10156 42.73246
#
# Velocity S-wave (km/s) = 3.90361 4.22453 4.06724
# Velocity P-wave (km/s) = 6.08542 6.71103 6.40587
#
# Compressibility (1/GPa) = 0.02316002
#
# Stress axis : x y z
#
# Youngs Moduli (GPa) = 101.91259 74.50724 84.89722
#
# Poissons Ratio (x) = 0.29518 0.25045
# Poissons Ratio (y) = 0.40375 -0.08366
# Poissons Ratio (z) = 0.30065 -0.07342
#
# Static dielectric constant tensor:
#      x y z
#    x 2.065490 0.025370 -0.053770 
#    y 0.025370 1.953240 0.078600 
#    z -0.053770 0.078600 2.033520 
# 
# From -- ./inp_files/459506.got.cif
#   From: 2010.05.17/outbox.cif.g08.bks.cpg/sg2_230_cif.got.tgz:459506.got - 2010.06.03 11:33:40.
