data_PCOD9068616
_publ_section_title
;
Structure prediction by ZEFSAII (Michael W. Deem and Ramdas Pophale) SiO2 
 PCOD9068616
Probable space group: P -1
;
_chemical_formula_sum "Si O2"
_cell_formula_units_Z 10
_cell_length_a 11.574483
_cell_length_b 4.968557
_cell_length_c 8.385339
_cell_angle_alpha 84.387085
_cell_angle_beta 115.411545
_cell_angle_gamma 115.541086
_cell_volume 390.749657
_symmetry_space_group_name_H-M "P -1"
_symmetry_group_IT_number 2
_symmetry_cell_setting 'triclinic'
loop_
_space_group_symop_operation_xyz
x,y,z
-x,-y,-z
loop_
_atom_site_type_symbol
_atom_site_label
_atom_site_fract_x
_atom_site_fract_y
_atom_site_fract_z
Si Si1 0.733334 0.637959 0.203406
Si Si2 0.975746 0.528684 0.175365
Si Si3 0.127806 0.164195 0.388978
Si Si4 0.408027 0.676797 0.389559
Si Si5 0.440894 0.101753 0.107209
O O1 0.830355 0.515970 0.167804
O O2 0.822468 0.817918 0.400100
O O3 0.586538 0.398581 0.217204
O O4 0.678613 0.802968 0.030351
O O5 0.002156 0.263124 0.285301
O O6 0.910191 0.147361 0.706566
O O7 0.000000 0.500000 0.000000
O O8 0.254505 0.440570 0.363152
O O9 0.500000 0.500000 0.500000
O O10 0.500000 0.000000 0.500000
O O11 0.389375 0.810029 0.202830
O O12 0.500000 0.000000 0.000000
#
# Coordination Sequence:
#
# PCOD9068616 Si02
#       5
#     2   2   2   2   2
#     4  11  27  52  82 125 165 219 280 337 418 490
#     4  12  30  52  81 122 169 220 277 346 411 495
#     4  12  27  52  85 118 165 221 280 338 413 497
#     4  12  26  49  79 118 162 207 273 335 409 486
#     4  11  27  48  84 120 167 213 273 350 411 494
#
# _framework density 25.591833000000001
#
# number of rings (size 3 to 8) (size 9 to 14) (size 15 to 20)
#    0.000    0.400    2.000    4.200   11.200    1.600 
#    0.000    0.000    0.000    0.000    0.000    0.000 
#    0.000    0.000    0.000    0.000    0.000    0.000 
#
# Total GULP energy -55878.643298 kJ/mol
# GULP energy per Si atom -5587.864330 kJ/mol
# Density = 2.553359 g / cm^3
# Si number density = 25.591833 Si / 1000 Ang^3
#
#
#
# Elastic Constant Matrix: (Units=GPa)
#
#
# Indices 1 2 3 4 5 6 
#
# 1 148.6950 57.8028 84.8932 -17.6739 -5.5202 13.8263
# 2 57.8028 183.8195 93.5690 -12.6916 -27.2433 2.5806
# 3 84.8932 93.5690 190.0140 -4.0931 -15.5975 9.6085
# 4 -17.6739 -12.6916 -4.0931 69.7017 -4.8277 -17.0601
# 5 -5.5202 -27.2433 -15.5975 -4.8277 48.4941 -9.5831
# 6 13.8263 2.5806 9.6085 -17.0601 -9.5831 64.0259
#
#
#
# Elastic Compliance Matrix: (Units=1/GPa)
#
#
# Indices 1 2 3 4 5 6 
#
# 1 0.009534 -0.001107 -0.003685 0.001668 -0.000780 -0.001133
# 2 -0.001107 0.008077 -0.003205 0.001607 0.003816 0.001394
# 3 -0.003685 -0.003205 0.008517 -0.001149 0.000283 -0.000617
# 4 0.001668 0.001607 -0.001149 0.016344 0.003257 0.004590
# 5 -0.000780 0.003816 0.000283 0.003257 0.023966 0.004427
# 6 -0.001133 0.001394 -0.000617 0.004590 0.004427 0.017786
#
#
# Mechanical properties :
#
#
# Convention : Reuss Voigt Hill
#
# Bulk Modulus (GPa) = 98.68369 110.56207 104.62288
# Shear Modulus (GPa) = 48.26403 55.52858 51.89630
#
# Velocity S-wave (km/s) = 4.34742 4.66314 4.50805
# Velocity P-wave (km/s) = 7.99027 8.50230 8.25026
#
# Compressibility (1/GPa) = 0.01013339
#
# Stress axis : x y z
#
# Youngs Moduli (GPa) = 104.88601 123.81308 117.40541
#
# Poissons Ratio (x) = 0.13700 0.43270
# Poissons Ratio (y) = 0.11606 0.37634
# Poissons Ratio (z) = 0.38656 0.39688
#
# Static dielectric constant tensor:
#      x y z
#    x 2.024210 -0.002580 -0.011510 
#    y -0.002580 1.553180 0.274390 
#    z -0.011510 0.274390 2.106460 
# 
# From -- ./inp_files/26563.got.cif
#   From: 2010.05.17/outbox.cif.g08.bks.cpg/sg2_14_cif.got.tgz:26563.got - 2010.06.03 11:33:40.
