data_PCOD9068971
_publ_section_title
;
Structure prediction by ZEFSAII (Michael W. Deem and Ramdas Pophale) SiO2 
 PCOD9068971
Probable space group: P -1
;
_chemical_formula_sum "Si O2"
_cell_formula_units_Z 16
_cell_length_a 10.045508
_cell_length_b 9.031735
_cell_length_c 21.530416
_cell_angle_alpha 119.879117
_cell_angle_beta 152.405306
_cell_angle_gamma 60.789038
_cell_volume 779.295621
_symmetry_space_group_name_H-M "P -1"
_symmetry_group_IT_number 2
_symmetry_cell_setting 'triclinic'
loop_
_space_group_symop_operation_xyz
x,y,z
-x,-y,-z
loop_
_atom_site_type_symbol
_atom_site_label
_atom_site_fract_x
_atom_site_fract_y
_atom_site_fract_z
Si Si1 0.302969 0.884687 0.595287
Si Si2 0.204591 0.527528 0.421263
Si Si3 0.653428 0.414626 0.105773
Si Si4 0.611664 0.179916 0.242691
Si Si5 0.348895 0.836790 0.258539
Si Si6 0.669449 0.500916 0.883725
Si Si7 0.839930 0.662248 0.508254
Si Si8 0.291908 0.983775 0.968709
O O1 0.214203 0.713675 0.492791
O O2 0.442249 0.841022 0.711296
O O3 0.511822 0.991664 0.664837
O O4 0.000000 0.000000 0.500000
O O5 0.500000 0.500000 0.500000
O O6 0.187358 0.400283 0.445944
O O7 0.929236 0.505687 0.260293
O O8 0.430455 0.433470 0.075823
O O9 0.756395 0.215583 0.091716
O O10 0.500000 0.500000 0.000000
O O11 0.494496 0.365074 0.204329
O O12 0.955619 0.184452 0.378423
O O13 0.460171 0.043725 0.111166
O O14 0.398117 0.694635 0.194285
O O15 0.529473 0.736612 0.367758
O O16 0.008691 0.893611 0.138398
O O17 0.000000 0.500000 0.000000
O O18 0.000000 0.500000 0.500000
O O19 0.500000 0.000000 0.000000
#
# Coordination Sequence:
#
# PCOD9068971 Si02
#       8
#     2   2   2   2   2   2   2   2
#     4  12  25  43  71 109 137 179 244 303 352 416
#     4  12  26  48  69 104 145 186 237 296 361 427
#     4  12  28  47  71 100 149 191 232 297 367 426
#     4  12  24  44  77  98 145 187 239 293 358 423
#     4  12  25  42  77 110 139 185 246 299 355 430
#     4  12  23  46  73 105 135 192 242 285 361 435
#     4  12  21  46  76 103 139 193 240 293 360 436
#     4  12  26  49  67 107 147 186 241 298 357 428
#
# _framework density 20.531362999999999
#
# number of rings (size 3 to 8) (size 9 to 14) (size 15 to 20)
#    0.000    0.000    7.500    1.500    3.500    4.500 
#    0.000    1.875    0.000    0.000    0.000    0.000 
#    0.000    0.000    0.000    0.000    0.000    0.000 
#
# Total GULP energy -89450.411883 kJ/mol
# GULP energy per Si atom -5590.650743 kJ/mol
# Density = 2.048463 g / cm^3
# Si number density = 20.531363 Si / 1000 Ang^3
#
#
#
# Elastic Constant Matrix: (Units=GPa)
#
#
# Indices 1 2 3 4 5 6 
#
# 1 93.3699 36.2596 65.5795 -20.3045 -10.4154 4.3333
# 2 36.2596 99.4752 47.3331 -1.5219 -26.4277 -8.8111
# 3 65.5795 47.3331 151.4054 6.3024 -23.4732 -13.4915
# 4 -20.3045 -1.5219 6.3024 43.8024 1.7380 2.1010
# 5 -10.4154 -26.4277 -23.4732 1.7380 36.6358 -3.9410
# 6 4.3333 -8.8111 -13.4915 2.1010 -3.9410 35.3467
#
#
#
# Elastic Compliance Matrix: (Units=1/GPa)
#
#
# Indices 1 2 3 4 5 6 
#
# 1 0.022608 -0.005509 -0.010328 0.012458 -0.005774 -0.009471
# 2 -0.005509 0.015304 -0.000219 -0.002663 0.010071 0.005688
# 3 -0.010328 -0.000219 0.013105 -0.007289 0.006440 0.007365
# 4 0.012458 -0.002663 -0.007289 0.030123 -0.005269 -0.007351
# 5 -0.005774 0.010071 0.006440 -0.005269 0.038401 0.010271
# 6 -0.009471 0.005688 0.007365 -0.007351 0.010271 0.035263
#
#
# Mechanical properties :
#
#
# Convention : Reuss Voigt Hill
#
# Bulk Modulus (GPa) = 52.89618 71.39944 62.14781
# Shear Modulus (GPa) = 25.87775 36.16220 31.01997
#
# Velocity S-wave (km/s) = 3.55406 4.20136 3.89119
# Velocity P-wave (km/s) = 6.53157 7.64110 7.10802
#
# Compressibility (1/GPa) = 0.01890496
#
# Stress axis : x y z
#
# Youngs Moduli (GPa) = 44.23237 65.34364 76.30739
#
# Poissons Ratio (x) = 0.35996 0.78809
# Poissons Ratio (y) = 0.24366 0.01673
# Poissons Ratio (z) = 0.45682 0.01433
#
# Static dielectric constant tensor:
#      x y z
#    x 1.710120 -0.005990 0.013290 
#    y -0.005990 1.714420 0.013930 
#    z 0.013290 0.013930 1.780980 
# 
# From -- ./inp_files/588089.got.cif
#   From: 2010.05.17/outbox.cif.g08.bks.cpg/sg2_295_cif.got.tgz:588089.got - 2010.06.03 11:33:40.
