data_PCOD9068993
_publ_section_title
;
Structure prediction by ZEFSAII (Michael W. Deem and Ramdas Pophale) SiO2 
 PCOD9068993
Probable space group: P -1
;
_chemical_formula_sum "Si O2"
_cell_formula_units_Z 10
_cell_length_a 19.392484
_cell_length_b 5.091864
_cell_length_c 9.232418
_cell_angle_alpha 79.812126
_cell_angle_beta 143.845813
_cell_angle_gamma 83.582730
_cell_volume 475.762497
_symmetry_space_group_name_H-M "P -1"
_symmetry_group_IT_number 2
_symmetry_cell_setting 'triclinic'
loop_
_space_group_symop_operation_xyz
x,y,z
-x,-y,-z
loop_
_atom_site_type_symbol
_atom_site_label
_atom_site_fract_x
_atom_site_fract_y
_atom_site_fract_z
Si Si1 0.342364 0.124373 0.729377
Si Si2 0.430325 0.683243 0.507142
Si Si3 0.311181 0.584251 0.858205
Si Si4 0.913599 0.348668 0.308014
Si Si5 0.730084 0.685651 0.723828
O O1 0.289233 0.436676 0.691025
O O2 0.277644 0.159971 0.458465
O O3 0.308101 0.900400 0.788511
O O4 0.500000 0.000000 0.000000
O O5 0.500000 0.500000 0.500000
O O6 0.650734 0.961611 0.671846
O O7 0.338765 0.527090 0.405689
O O8 0.542898 0.619341 0.820230
O O9 0.212600 0.588291 0.814130
O O10 0.000000 0.500000 0.500000
O O11 0.862831 0.479523 0.049778
O O12 0.000000 0.000000 0.500000
#
# Coordination Sequence:
#
# PCOD9068993 Si02
#       5
#     2   2   2   2   2
#     4  12  23  41  66 110 142 164 204 273 362 416
#     4  12  22  37  68 107 134 164 216 282 348 396
#     4  12  24  42  69 100 140 172 216 276 338 403
#     4  12  28  49  67  92 131 189 242 272 308 381
#     4  12  25  41  69 100 139 170 217 279 337 401
#
# _framework density 21.018888
#
# number of rings (size 3 to 8) (size 9 to 14) (size 15 to 20)
#    0.000    0.000    6.000    4.800    2.800    0.000 
#    0.000    6.000    0.000    0.000    0.000    0.000 
#    0.000    0.000    0.000    0.000    0.000    0.000 
#
# Total GULP energy -55925.758058 kJ/mol
# GULP energy per Si atom -5592.575806 kJ/mol
# Density = 2.097105 g / cm^3
# Si number density = 21.018888 Si / 1000 Ang^3
#
#
#
# Elastic Constant Matrix: (Units=GPa)
#
#
# Indices 1 2 3 4 5 6 
#
# 1 29.0587 8.7245 13.9840 9.9868 -14.4857 13.0612
# 2 8.7245 135.1948 29.8500 -4.0722 10.9477 5.6402
# 3 13.9840 29.8500 120.9459 -14.9477 -15.7971 6.9821
# 4 9.9868 -4.0722 -14.9477 28.6268 1.7484 2.5873
# 5 -14.4857 10.9477 -15.7971 1.7484 28.1180 8.2308
# 6 13.0612 5.6402 6.9821 2.5873 8.2308 46.7584
#
#
#
# Elastic Compliance Matrix: (Units=1/GPa)
#
#
# Indices 1 2 3 4 5 6 
#
# 1 0.105990 -0.011591 -0.002990 -0.041095 0.071117 -0.038007
# 2 -0.011591 0.009648 -0.002384 0.004545 -0.012639 0.004403
# 3 -0.002990 -0.002384 0.010801 0.006166 0.005605 -0.001818
# 4 -0.041095 0.004545 0.006166 0.053683 -0.026227 0.011656
# 5 0.071117 -0.012639 0.005605 -0.026227 0.091823 -0.033890
# 6 -0.038007 0.004403 -0.001818 0.011656 -0.033890 0.037064
#
#
# Mechanical properties :
#
#
# Convention : Reuss Voigt Hill
#
# Bulk Modulus (GPa) = 10.80975 43.36849 27.08912
# Shear Modulus (GPa) = 13.37702 36.21004 24.79353
#
# Velocity S-wave (km/s) = 2.52549 4.15509 3.43823
# Velocity P-wave (km/s) = 3.69570 6.61042 5.35517
#
# Compressibility (1/GPa) = 0.09250909
#
# Stress axis : x y z
#
# Youngs Moduli (GPa) = 9.43485 103.65095 92.58075
#
# Poissons Ratio (x) = 1.20139 0.27683
# Poissons Ratio (y) = 0.10936 0.22073
# Poissons Ratio (z) = 0.02821 0.24713
#
# Static dielectric constant tensor:
#      x y z
#    x 1.809590 -0.009190 -0.033190 
#    y -0.009190 1.755530 -0.024870 
#    z -0.033190 -0.024870 1.755390 
# 
# From -- ./inp_files/29059.got.cif
#   From: 2010.05.17/outbox.cif.g08.bks.cpg/sg2_15_cif.got.tgz:29059.got - 2010.06.03 11:33:40.
