data_PCOD9068279
_publ_section_title
;
Structure prediction by ZEFSAII (Michael W. Deem and Ramdas Pophale) SiO2 
 PCOD9068279
Probable space group: P -1
;
_chemical_formula_sum "Si O2"
_cell_formula_units_Z 14
_cell_length_a 5.636839
_cell_length_b 9.487924
_cell_length_c 11.076388
_cell_angle_alpha 97.918338
_cell_angle_beta 81.924852
_cell_angle_gamma 105.450661
_cell_volume 562.182635
_symmetry_space_group_name_H-M "P -1"
_symmetry_group_IT_number 2
_symmetry_cell_setting 'triclinic'
loop_
_space_group_symop_operation_xyz
x,y,z
-x,-y,-z
loop_
_atom_site_type_symbol
_atom_site_label
_atom_site_fract_x
_atom_site_fract_y
_atom_site_fract_z
Si Si1 0.234528 0.549863 0.405985
Si Si2 0.013265 0.120026 0.118667
Si Si3 0.211547 0.628220 0.941940
Si Si4 0.560250 0.696466 0.733083
Si Si5 0.427032 0.146914 0.482281
Si Si6 0.653777 0.276979 0.802808
Si Si7 0.890245 0.872390 0.283434
O O1 0.350430 0.411496 0.377402
O O2 0.384967 0.706853 0.462804
O O3 0.208609 0.582999 0.270560
O O4 0.000000 0.500000 0.500000
O O5 0.267503 0.225382 0.161006
O O6 0.868665 0.230584 0.086495
O O7 0.917287 0.029587 0.236686
O O8 0.000000 0.000000 0.000000
O O9 0.338166 0.587228 0.808119
O O10 0.379316 0.682245 0.052693
O O11 0.000000 0.500000 0.000000
O O12 0.548203 0.829389 0.660020
O O13 0.167774 0.137473 0.570152
O O14 0.500000 0.000000 0.500000
O O15 0.373747 0.217451 0.765652
O O16 0.857263 0.178054 0.769308
#
# Coordination Sequence:
#
# PCOD9068279 Si02
#       7
#     2   2   2   2   2   2   2
#     4  11  27  49  80 114 161 215 271 337 412 493
#     4  12  27  48  79 115 160 211 273 336 407 485
#     4  12  29  46  76 111 161 208 276 333 413 485
#     4  12  29  49  79 115 162 214 274 337 415 493
#     4  11  27  48  81 117 161 210 279 337 413 489
#     4  11  26  49  79 113 159 209 271 329 413 479
#     4  11  26  48  79 116 157 207 265 343 406 484
#
# _framework density 24.902940000000001
#
# number of rings (size 3 to 8) (size 9 to 14) (size 15 to 20)
#    0.000    0.571    1.429    3.857   16.000    2.857 
#    0.000    0.000    0.000    0.000    0.000    0.000 
#    0.000    0.000    0.000    0.000    0.000    0.000 
#
# Total GULP energy -78211.314329 kJ/mol
# GULP energy per Si atom -5586.522452 kJ/mol
# Density = 2.484626 g / cm^3
# Si number density = 24.902940 Si / 1000 Ang^3
#
#
#
# Elastic Constant Matrix: (Units=GPa)
#
#
# Indices 1 2 3 4 5 6 
#
# 1 68.5546 30.2272 33.2205 9.9925 -1.3676 7.3668
# 2 30.2272 127.4159 27.5784 -18.7578 -10.7289 3.9042
# 3 33.2205 27.5784 127.0760 -27.9830 -17.1070 10.4489
# 4 9.9925 -18.7578 -27.9830 63.9919 1.4530 1.5782
# 5 -1.3676 -10.7289 -17.1070 1.4530 56.3556 -1.7902
# 6 7.3668 3.9042 10.4489 1.5782 -1.7902 44.9374
#
#
#
# Elastic Compliance Matrix: (Units=1/GPa)
#
#
# Indices 1 2 3 4 5 6 
#
# 1 0.020890 -0.004828 -0.006196 -0.007304 -0.002149 -0.001393
# 2 -0.004828 0.009629 0.000212 0.003635 0.001682 -0.000155
# 3 -0.006196 0.000212 0.011314 0.005949 0.003116 -0.001718
# 4 -0.007304 0.003635 0.005949 0.020423 0.001757 -0.001149
# 5 -0.002149 0.001682 0.003116 0.001757 0.018919 0.000174
# 6 -0.001393 -0.000155 -0.001718 -0.001149 0.000174 0.022942
#
#
# Mechanical properties :
#
#
# Convention : Reuss Voigt Hill
#
# Bulk Modulus (GPa) = 49.48496 56.12208 52.80352
# Shear Modulus (GPa) = 37.74240 48.52501 43.13371
#
# Velocity S-wave (km/s) = 3.89727 4.41904 4.16633
# Velocity P-wave (km/s) = 6.33766 6.97299 6.66290
#
# Compressibility (1/GPa) = 0.02020816
#
# Stress axis : x y z
#
# Youngs Moduli (GPa) = 47.87038 103.84991 88.38672
#
# Poissons Ratio (x) = 0.50139 0.54767
# Poissons Ratio (y) = 0.23112 -0.01873
# Poissons Ratio (z) = 0.29662 -0.02201
#
# Static dielectric constant tensor:
#      x y z
#    x 2.121920 -0.085320 -0.016050 
#    y -0.085320 1.789640 0.045530 
#    z -0.016050 0.045530 2.121670 
# 
# From -- ./inp_files/360828.got.cif
#   From: 2010.05.17/outbox.cif.g08.bks.cpg/sg2_181_cif.got.tgz:360828.got - 2010.06.03 11:33:40.
