data_PCOD9068991
_publ_section_title
;
Structure prediction by ZEFSAII (Michael W. Deem and Ramdas Pophale) SiO2 
 PCOD9068991
Probable space group: P -1
;
_chemical_formula_sum "Si O2"
_cell_formula_units_Z 16
_cell_length_a 8.430094
_cell_length_b 15.167635
_cell_length_c 17.740934
_cell_angle_alpha 141.214280
_cell_angle_beta 146.865526
_cell_angle_gamma 40.474996
_cell_volume 737.099882
_symmetry_space_group_name_H-M "P -1"
_symmetry_group_IT_number 2
_symmetry_cell_setting 'triclinic'
loop_
_space_group_symop_operation_xyz
x,y,z
-x,-y,-z
loop_
_atom_site_type_symbol
_atom_site_label
_atom_site_fract_x
_atom_site_fract_y
_atom_site_fract_z
Si Si1 0.405412 0.369648 0.192886
Si Si2 0.427032 0.331299 0.572965
Si Si3 0.080259 0.386139 0.626131
Si Si4 0.675727 0.203787 0.327889
Si Si5 0.480821 0.226097 0.970002
Si Si6 0.238662 0.432758 0.872106
Si Si7 0.961931 0.939541 0.361183
Si Si8 0.889168 0.728314 0.745188
O O1 0.554444 0.501672 0.323039
O O2 0.606185 0.231146 0.230431
O O3 0.345547 0.298719 0.044017
O O4 0.095482 0.450747 0.169076
O O5 0.254278 0.323165 0.576545
O O6 0.260294 0.283908 0.403811
O O7 0.764231 0.214726 0.637993
O O8 0.229831 0.329977 0.728639
O O9 0.764766 0.350635 0.480211
O O10 0.041378 0.558993 0.719965
O O11 0.377725 0.206212 0.257477
O O12 0.946795 0.063599 0.373931
O O13 0.845224 0.195749 0.100486
O O14 0.343368 0.349184 0.934950
O O15 0.350002 0.098169 0.804507
O O16 0.500000 0.500000 0.000000
O O17 0.000000 0.000000 0.500000
#
# Coordination Sequence:
#
# PCOD9068991 Si02
#       8
#     2   2   2   2   2   2   2   2
#     4  12  23  43  74 106 138 183 238 306 349 405
#     4  12  24  45  78 105 141 184 239 294 352 423
#     4  12  23  40  73 108 136 183 241 295 350 412
#     4  12  25  44  70 101 149 191 230 285 354 429
#     4  12  26  43  74 105 142 184 241 294 353 419
#     4  12  22  37  65 108 141 171 228 299 361 397
#     4  12  28  50  70 100 147 197 232 280 360 434
#     4  12  22  44  72 110 135 184 239 297 351 406
#
# _framework density 21.706690999999999
#
# number of rings (size 3 to 8) (size 9 to 14) (size 15 to 20)
#    0.000    0.000    7.500    3.375    1.750    1.500 
#    0.000    0.000    0.000    0.000    0.000    0.000 
#    0.000    0.000    0.000    0.000    0.000    0.000 
#
# Total GULP energy -89379.117943 kJ/mol
# GULP energy per Si atom -5586.194871 kJ/mol
# Density = 2.165729 g / cm^3
# Si number density = 21.706691 Si / 1000 Ang^3
#
#
#
# Elastic Constant Matrix: (Units=GPa)
#
#
# Indices 1 2 3 4 5 6 
#
# 1 107.1605 36.2916 56.9945 -12.8569 -12.0414 16.1694
# 2 36.2916 90.0609 26.7198 -9.3415 -10.0353 21.0100
# 3 56.9945 26.7198 143.5774 -7.4524 -2.7616 17.0613
# 4 -12.8569 -9.3415 -7.4524 29.1303 12.2339 -5.1296
# 5 -12.0414 -10.0353 -2.7616 12.2339 49.4189 -21.0195
# 6 16.1694 21.0100 17.0613 -5.1296 -21.0195 25.9608
#
#
#
# Elastic Compliance Matrix: (Units=1/GPa)
#
#
# Indices 1 2 3 4 5 6 
#
# 1 0.013502 -0.003392 -0.004389 0.003083 0.001021 -0.001345
# 2 -0.003392 0.015320 0.000108 0.002806 -0.003925 -0.012981
# 3 -0.004389 0.000108 0.009381 0.000817 -0.003285 -0.006017
# 4 0.003083 0.002806 0.000817 0.040444 -0.011070 -0.005700
# 5 0.001021 -0.003925 -0.003285 -0.011070 0.035557 0.031302
# 6 -0.001345 -0.012981 -0.006017 -0.005700 0.031302 0.078035
#
#
# Mechanical properties :
#
#
# Convention : Reuss Voigt Hill
#
# Bulk Modulus (GPa) = 43.74802 64.53452 54.14127
# Shear Modulus (GPa) = 23.23365 35.62152 29.42758
#
# Velocity S-wave (km/s) = 3.27516 4.05537 3.68597
# Velocity P-wave (km/s) = 5.87368 7.19186 6.56593
#
# Compressibility (1/GPa) = 0.02285818
#
# Stress axis : x y z
#
# Youngs Moduli (GPa) = 74.06077 65.27338 106.59344
#
# Poissons Ratio (x) = 0.22137 0.46787
# Poissons Ratio (y) = 0.25118 -0.01150
# Poissons Ratio (z) = 0.32507 -0.00704
#
# Static dielectric constant tensor:
#      x y z
#    x 1.783720 0.021160 0.007920 
#    y 0.021160 1.822060 -0.017480 
#    z 0.007920 -0.017480 1.917830 
# 
# From -- ./inp_files/561398.got.cif
#   From: 2010.05.17/outbox.cif.g08.bks.cpg/sg2_281_cif.got.tgz:561398.got - 2010.06.03 11:33:40.
