data_PCOD9068081
_publ_section_title
;
Structure prediction by ZEFSAII (Michael W. Deem and Ramdas Pophale) SiO2 
 PCOD9068081
Probable space group: P -1
;
_chemical_formula_sum "Si O2"
_cell_formula_units_Z 16
_cell_length_a 9.420940
_cell_length_b 15.828411
_cell_length_c 8.555213
_cell_angle_alpha 92.157803
_cell_angle_beta 129.537968
_cell_angle_gamma 121.333838
_cell_volume 696.398979
_symmetry_space_group_name_H-M "P -1"
_symmetry_group_IT_number 2
_symmetry_cell_setting 'triclinic'
loop_
_space_group_symop_operation_xyz
x,y,z
-x,-y,-z
loop_
_atom_site_type_symbol
_atom_site_label
_atom_site_fract_x
_atom_site_fract_y
_atom_site_fract_z
Si Si1 0.547397 0.645011 0.712463
Si Si2 0.499519 0.988546 0.685643
Si Si3 0.044947 0.102080 0.625974
Si Si4 0.731714 0.885043 0.887403
Si Si5 0.035770 0.463579 0.183705
Si Si6 0.740306 0.663284 0.352162
Si Si7 0.978146 0.260757 0.116654
Si Si8 0.249703 0.500063 0.809143
O O1 0.592715 0.758092 0.708377
O O2 0.335027 0.539771 0.436488
O O3 0.827675 0.693225 0.888624
O O4 0.426359 0.591632 0.795692
O O5 0.500000 0.000000 0.500000
O O6 0.230513 0.940716 0.549367
O O7 0.547216 0.906655 0.758426
O O8 0.740841 0.119473 0.932725
O O9 0.214467 0.227373 0.667161
O O10 0.000000 0.000000 0.500000
O O11 0.180248 0.120461 0.883340
O O12 0.000000 0.000000 0.000000
O O13 0.883363 0.326293 0.058105
O O14 0.947071 0.493585 0.267403
O O15 0.000000 0.500000 0.000000
O O16 0.851353 0.696566 0.605355
O O17 0.869993 0.627414 0.343094
O O18 0.439642 0.546719 0.094039
#
# Coordination Sequence:
#
# PCOD9068081 Si02
#       8
#     2   2   2   2   2   2   2   2
#     4  12  25  48  77 103 147 195 247 302 381 444
#     4  12  28  48  77 108 148 200 253 304 376 452
#     4  12  28  47  77 110 147 197 247 312 379 435
#     4  12  25  49  75 108 146 196 251 306 372 449
#     4  12  29  43  73 112 147 191 249 307 372 443
#     4  11  26  47  75 101 152 189 248 302 382 439
#     4  12  27  47  73 106 148 193 249 309 373 450
#     4  11  26  48  74 108 146 194 244 305 372 450
#
# _framework density 22.975335999999999
#
# number of rings (size 3 to 8) (size 9 to 14) (size 15 to 20)
#    0.000    0.250    5.000    2.250    8.750    2.000 
#    0.000    0.000    0.000    0.000    0.000    0.000 
#    0.000    0.000    0.000    0.000    0.000    0.000 
#
# Total GULP energy -89576.419897 kJ/mol
# GULP energy per Si atom -5598.526244 kJ/mol
# Density = 2.292304 g / cm^3
# Si number density = 22.975336 Si / 1000 Ang^3
#
#
#
# Elastic Constant Matrix: (Units=GPa)
#
#
# Indices 1 2 3 4 5 6 
#
# 1 78.1138 23.4553 6.5811 -10.1532 4.7799 -30.6052
# 2 23.4553 159.8544 17.9439 -4.3795 -14.9442 -27.8125
# 3 6.5811 17.9439 95.8961 -7.4249 -8.3220 2.0039
# 4 -10.1532 -4.3795 -7.4249 44.7970 -7.4015 -8.7699
# 5 4.7799 -14.9442 -8.3220 -7.4015 34.8740 -7.9396
# 6 -30.6052 -27.8125 2.0039 -8.7699 -7.9396 41.3262
#
#
#
# Elastic Compliance Matrix: (Units=1/GPa)
#
#
# Indices 1 2 3 4 5 6 
#
# 1 0.020858 0.000843 -0.001001 0.008840 0.003371 0.018586
# 2 0.000843 0.008276 -0.001017 0.003357 0.005735 0.008058
# 3 -0.001001 -0.001017 0.011053 0.001686 0.002438 -0.001135
# 4 0.008840 0.003357 0.001686 0.030112 0.010939 0.017215
# 5 0.003371 0.005735 0.002438 0.010939 0.037147 0.015696
# 6 0.018586 0.008058 -0.001135 0.017215 0.015696 0.050109
#
#
# Mechanical properties :
#
#
# Convention : Reuss Voigt Hill
#
# Bulk Modulus (GPa) = 26.42914 47.75832 37.09373
# Shear Modulus (GPa) = 28.98270 43.25838 36.12054
#
# Velocity S-wave (km/s) = 3.55557 4.34385 3.96933
# Velocity P-wave (km/s) = 5.32770 6.78164 6.09816
#
# Compressibility (1/GPa) = 0.03783702
#
# Stress axis : x y z
#
# Youngs Moduli (GPa) = 47.94383 120.82797 90.47444
#
# Poissons Ratio (x) = -0.10185 0.09052
# Poissons Ratio (y) = -0.04041 0.09204
# Poissons Ratio (z) = 0.04797 0.12291
#
# Static dielectric constant tensor:
#      x y z
#    x 1.907990 -0.015830 0.010900 
#    y -0.015830 1.922280 0.075150 
#    z 0.010900 0.075150 1.930360 
# 
# From -- ./inp_files/208053.got.cif
#   From: 2010.05.17/outbox.cif.g08.bks.cpg/sg2_105_cif.got.tgz:208053.got - 2010.06.03 11:33:40.
