data_PCOD9068839
_publ_section_title
;
Structure prediction by ZEFSAII (Michael W. Deem and Ramdas Pophale) SiO2 
 PCOD9068839
Probable space group: P -1
;
_chemical_formula_sum "Si O2"
_cell_formula_units_Z 12
_cell_length_a 22.107614
_cell_length_b 13.824304
_cell_length_c 13.064700
_cell_angle_alpha 22.818945
_cell_angle_beta 153.905392
_cell_angle_gamma 161.296492
_cell_volume 486.418439
_symmetry_space_group_name_H-M "P -1"
_symmetry_group_IT_number 2
_symmetry_cell_setting 'triclinic'
loop_
_space_group_symop_operation_xyz
x,y,z
-x,-y,-z
loop_
_atom_site_type_symbol
_atom_site_label
_atom_site_fract_x
_atom_site_fract_y
_atom_site_fract_z
Si Si1 0.513612 0.256079 0.198324
Si Si2 0.948761 0.811381 0.308419
Si Si3 0.234853 0.289660 0.422852
Si Si4 0.187860 0.782541 0.578578
Si Si5 0.707276 0.577554 0.851034
Si Si6 0.773831 0.205239 0.972313
O O1 0.731950 0.514560 0.238672
O O2 0.500000 0.000000 0.500000
O O3 0.353064 0.023656 0.095448
O O4 0.500000 0.500000 0.000000
O O5 0.080875 0.731188 0.572275
O O6 0.006999 0.985268 0.338664
O O7 0.056494 0.130447 0.082163
O O8 0.338248 0.462381 0.300444
O O9 0.266028 0.568174 0.267678
O O10 0.273757 0.073903 0.745274
O O11 0.000000 0.500000 0.500000
O O12 0.316881 0.192672 0.351799
O O13 0.330250 0.731926 0.854069
O O14 0.000000 0.500000 0.000000
#
# Coordination Sequence:
#
# PCOD9068839 Si02
#       6
#     2   2   2   2   2   2
#     4  12  25  36  51  76 107 140 174 214 259 300
#     4   8  21  33  55  72 110 134 170 213 264 290
#     4   9  19  35  50  70  98 134 170 209 252 303
#     4   9  16  29  52  84 104 126 166 215 262 307
#     4   8  18  29  54  71 107 130 167 207 263 293
#     4  12  21  33  52  72  97 135 182 214 247 300
#
# _framework density 24.670117000000001
#
# number of rings (size 3 to 8) (size 9 to 14) (size 15 to 20)
#    2.000    0.000    0.000    6.000    2.333    0.000 
#    0.000    0.000    0.000    0.000    0.000   16.333 
#    0.000    0.000    0.000    0.000    0.000    0.000 
#
# Total GULP energy -66911.210615 kJ/mol
# GULP energy per Si atom -5575.934218 kJ/mol
# Density = 2.461397 g / cm^3
# Si number density = 24.670117 Si / 1000 Ang^3
#
#
#
# Elastic Constant Matrix: (Units=GPa)
#
#
# Indices 1 2 3 4 5 6 
#
# 1 49.9499 48.5298 39.8872 0.1282 8.9058 -22.8461
# 2 48.5298 171.1127 53.2065 6.8015 10.3599 -30.9174
# 3 39.8872 53.2065 190.4395 -25.3599 5.1144 -33.1211
# 4 0.1282 6.8015 -25.3599 45.3144 -10.1131 8.4993
# 5 8.9058 10.3599 5.1144 -10.1131 38.2417 4.2919
# 6 -22.8461 -30.9174 -33.1211 8.4993 4.2919 58.1803
#
#
#
# Elastic Compliance Matrix: (Units=1/GPa)
#
#
# Indices 1 2 3 4 5 6 
#
# 1 0.035567 -0.006234 -0.004549 -0.005378 -0.008471 0.009475
# 2 -0.006234 0.008484 -0.001019 -0.002554 -0.001607 0.001972
# 3 -0.004549 -0.001019 0.007207 0.004315 0.001396 0.001042
# 4 -0.005378 -0.002554 0.004315 0.028080 0.009445 -0.005812
# 5 -0.008471 -0.001607 0.001396 0.009445 0.031666 -0.007102
# 6 0.009475 0.001972 0.001042 -0.005812 -0.007102 0.023923
#
#
# Mechanical properties :
#
#
# Convention : Reuss Voigt Hill
#
# Bulk Modulus (GPa) = 36.15990 77.19434 56.67712
# Shear Modulus (GPa) = 29.80676 46.33917 38.07296
#
# Velocity S-wave (km/s) = 3.47971 4.33870 3.93273
# Velocity P-wave (km/s) = 5.55281 7.51383 6.60649
#
# Compressibility (1/GPa) = 0.02765495
#
# Stress axis : x y z
#
# Youngs Moduli (GPa) = 28.11585 117.86634 138.76178
#
# Poissons Ratio (x) = 0.73483 0.63116
# Poissons Ratio (y) = 0.17529 0.14134
# Poissons Ratio (z) = 0.12789 0.12006
#
# Static dielectric constant tensor:
#      x y z
#    x 2.016030 0.008920 0.049490 
#    y 0.008920 2.035340 -0.036180 
#    z 0.049490 -0.036180 2.130250 
# 
# From -- ./inp_files/339497.got.cif
#   From: 2010.05.17/outbox.cif.g08.bks.cpg/sg2_170_cif.got.tgz:339497.got - 2010.06.03 11:33:40.
