data_PCOD9068656
_publ_section_title
;
Structure prediction by ZEFSAII (Michael W. Deem and Ramdas Pophale) SiO2 
 PCOD9068656
Probable space group: P -1
;
_chemical_formula_sum "Si O2"
_cell_formula_units_Z 13
_cell_length_a 12.498903
_cell_length_b 18.108599
_cell_length_c 21.582155
_cell_angle_alpha 162.312393
_cell_angle_beta 19.829707
_cell_angle_gamma 152.414101
_cell_volume 501.125624
_symmetry_space_group_name_H-M "P -1"
_symmetry_group_IT_number 2
_symmetry_cell_setting 'triclinic'
loop_
_space_group_symop_operation_xyz
x,y,z
-x,-y,-z
loop_
_atom_site_type_symbol
_atom_site_label
_atom_site_fract_x
_atom_site_fract_y
_atom_site_fract_z
Si Si1 0.942966 0.906858 0.365521
Si Si2 0.766593 0.477902 0.474668
Si Si3 0.721931 0.777956 0.172362
Si Si4 0.000000 0.500000 0.500000
Si Si5 0.233936 0.032156 0.826753
Si Si6 0.939745 0.618878 0.250837
Si Si7 0.131036 0.028096 0.224799
O O1 0.563716 0.957892 0.622919
O O2 0.105048 0.132214 0.486438
O O3 0.003784 0.904381 0.256971
O O4 0.051812 0.680110 0.169382
O O5 0.789765 0.556812 0.596424
O O6 0.410169 0.472039 0.638627
O O7 0.954273 0.680482 0.498388
O O8 0.963409 0.212626 0.150897
O O9 0.660810 0.789793 0.143449
O O10 0.500000 0.000000 0.500000
O O11 0.052813 0.884994 0.091284
O O12 0.774712 0.537836 0.993264
O O13 0.892677 0.213696 0.327539
O O14 0.500000 0.000000 0.000000
#
# Coordination Sequence:
#
# PCOD9068656 Si02
#       7
#     2   2   2   1   2   2   2
#     4  11  27  50  76 114 157 205 262 327 392 463
#     4  12  27  49  81 116 157 210 262 322 396 471
#     4  12  26  48  75 113 156 208 264 320 389 463
#     4  12  26  48  78 116 160 200 258 332 386 470
#     4  12  27  49  81 116 157 210 262 322 396 471
#     4  11  27  50  76 114 157 205 262 327 392 463
#     4  12  26  48  75 113 156 208 264 320 389 463
#
# _framework density 25.941599
#
# number of rings (size 3 to 8) (size 9 to 14) (size 15 to 20)
#    0.000    0.308    6.154    1.385    4.308    3.077 
#    8.308    0.000    0.000    0.000    0.000    0.000 
#    0.000    0.000    0.000    0.000    0.000    0.000 
#
# Total GULP energy -72403.903103 kJ/mol
# GULP energy per Si atom -5569.531008 kJ/mol
# Density = 2.588255 g / cm^3
# Si number density = 25.941599 Si / 1000 Ang^3
#
#
#
# Elastic Constant Matrix: (Units=GPa)
#
#
# Indices 1 2 3 4 5 6 
#
# 1 114.7874 21.8432 5.4140 6.1309 -22.7433 -10.4093
# 2 21.8432 88.2985 16.7966 29.8682 -6.5565 -9.8440
# 3 5.4140 16.7966 80.7428 9.1234 -19.3049 -14.7735
# 4 6.1309 29.8682 9.1234 49.2495 -8.5137 -12.2531
# 5 -22.7433 -6.5565 -19.3049 -8.5137 38.6736 11.2877
# 6 -10.4093 -9.8440 -14.7735 -12.2531 11.2877 68.1117
#
#
#
# Elastic Compliance Matrix: (Units=1/GPa)
#
#
# Indices 1 2 3 4 5 6 
#
# 1 0.010443 -0.002768 0.001389 0.001410 0.006478 0.000677
# 2 -0.002768 0.015326 -0.002536 -0.008865 -0.002253 0.000021
# 3 0.001389 -0.002536 0.014885 0.000354 0.007334 0.001923
# 4 0.001410 -0.008865 0.000354 0.026999 0.004537 0.003116
# 5 0.006478 -0.002253 0.007334 0.004537 0.034728 -0.002684
# 6 0.000677 0.000021 0.001923 0.003116 -0.002684 0.016211
#
#
# Mechanical properties :
#
#
# Convention : Reuss Voigt Hill
#
# Bulk Modulus (GPa) = 30.46563 41.32625 35.89594
# Shear Modulus (GPa) = 36.40024 47.19194 41.79609
#
# Velocity S-wave (km/s) = 3.74994 4.26979 4.01828
# Velocity P-wave (km/s) = 5.52439 6.34612 5.94946
#
# Compressibility (1/GPa) = 0.03282388
#
# Stress axis : x y z
#
# Youngs Moduli (GPa) = 95.76201 65.24897 67.18345
#
# Poissons Ratio (x) = 0.18060 -0.09332
# Poissons Ratio (y) = 0.26505 0.17036
# Poissons Ratio (z) = -0.13302 0.16546
#
# Static dielectric constant tensor:
#      x y z
#    x 1.484950 -0.187880 0.205820 
#    y -0.187880 2.197880 0.128680 
#    z 0.205820 0.128680 2.036210 
# 
# From -- ./inp_files/384240.got.cif
#   From: 2010.05.17/outbox.cif.g08.bks.cpg/sg2_193_cif.got.tgz:384240.got - 2010.06.03 11:33:40.
