data_PCOD9068068
_publ_section_title
;
Structure prediction by ZEFSAII (Michael W. Deem and Ramdas Pophale) SiO2 
 PCOD9068068
Probable space group: P -1
;
_chemical_formula_sum "Si O2"
_cell_formula_units_Z 16
_cell_length_a 8.267682
_cell_length_b 12.762888
_cell_length_c 9.146169
_cell_angle_alpha 48.251108
_cell_angle_beta 75.404427
_cell_angle_gamma 78.583881
_cell_volume 696.188042
_symmetry_space_group_name_H-M "P -1"
_symmetry_group_IT_number 2
_symmetry_cell_setting 'triclinic'
loop_
_space_group_symop_operation_xyz
x,y,z
-x,-y,-z
loop_
_atom_site_type_symbol
_atom_site_label
_atom_site_fract_x
_atom_site_fract_y
_atom_site_fract_z
Si Si1 0.986936 0.506786 0.823732
Si Si2 0.359503 0.945923 0.191674
Si Si3 0.372823 0.688259 0.252116
Si Si4 0.509770 0.851832 0.550463
Si Si5 0.016071 0.046030 0.281483
Si Si6 0.739036 0.287450 0.062833
Si Si7 0.870527 0.773345 0.449400
Si Si8 0.745299 0.613760 0.345258
O O1 0.986280 0.662393 0.615024
O O2 0.130794 0.418343 0.787524
O O3 0.809109 0.441139 0.892569
O O4 0.000000 0.500000 0.000000
O O5 0.285884 0.811058 0.254169
O O6 0.452135 0.888337 0.367281
O O7 0.209166 0.051243 0.182361
O O8 0.500000 0.000000 0.000000
O O9 0.565340 0.672601 0.275121
O O10 0.291560 0.538121 0.433457
O O11 0.353445 0.738709 0.043586
O O12 0.387116 0.743448 0.750672
O O13 0.695122 0.786790 0.562658
O O14 0.500000 0.000000 0.500000
O O15 0.900509 0.184341 0.151711
O O16 0.000000 0.000000 0.500000
O O17 0.939740 0.927167 0.306042
O O18 0.830751 0.712422 0.354360
#
# Coordination Sequence:
#
# PCOD9068068 Si02
#       8
#     2   2   2   2   2   2   2   2
#     4  12  29  46  74 110 146 194 250 309 373 454
#     4  12  27  46  75 108 148 202 251 305 377 449
#     4  11  26  47  74 108 146 196 252 311 370 451
#     4  12  25  49  72 108 152 192 249 310 374 439
#     4  12  26  48  78 109 155 198 247 312 380 444
#     4  12  27  45  76 112 144 194 255 310 367 450
#     4  12  25  49  79 105 149 207 237 311 381 445
#     4  11  26  50  73 105 155 195 247 312 380 448
#
# _framework density 22.982295000000001
#
# number of rings (size 3 to 8) (size 9 to 14) (size 15 to 20)
#    0.000    0.250    5.000    2.625    7.000    1.000 
#    0.000    0.000    0.000    0.000    0.000    0.000 
#    0.000    0.000    0.000    0.000    0.000    0.000 
#
# Total GULP energy -89613.264380 kJ/mol
# GULP energy per Si atom -5600.829024 kJ/mol
# Density = 2.292999 g / cm^3
# Si number density = 22.982295 Si / 1000 Ang^3
#
#
#
# Elastic Constant Matrix: (Units=GPa)
#
#
# Indices 1 2 3 4 5 6 
#
# 1 72.2957 14.2992 30.6404 21.5715 -11.5837 -18.4951
# 2 14.2992 97.5929 19.6527 26.2933 -1.2770 -1.0446
# 3 30.6404 19.6527 109.1350 28.4534 -1.7351 -1.2293
# 4 21.5715 26.2933 28.4534 46.4829 3.7814 -0.1115
# 5 -11.5837 -1.2770 -1.7351 3.7814 47.6250 8.1987
# 6 -18.4951 -1.0446 -1.2293 -0.1115 8.1987 53.8627
#
#
#
# Elastic Compliance Matrix: (Units=1/GPa)
#
#
# Indices 1 2 3 4 5 6 
#
# 1 0.019722 -0.000105 -0.003483 -0.007289 0.004207 0.006035
# 2 -0.000105 0.012143 -0.000415 -0.006631 0.000802 0.000054
# 3 -0.003483 -0.000415 0.011575 -0.005249 0.000148 -0.000973
# 4 -0.007289 -0.006631 -0.005249 0.032209 -0.004351 -0.002022
# 5 0.004207 0.000802 0.000148 -0.004351 0.022738 -0.002007
# 6 0.006035 0.000054 -0.000973 -0.002022 -0.002007 0.020918
#
#
# Mechanical properties :
#
#
# Convention : Reuss Voigt Hill
#
# Bulk Modulus (GPa) = 28.22091 45.35648 36.78869
# Shear Modulus (GPa) = 35.93942 43.88956 39.91449
#
# Velocity S-wave (km/s) = 3.95876 4.37477 4.17195
# Velocity P-wave (km/s) = 5.76210 6.73026 6.26491
#
# Compressibility (1/GPa) = 0.03543472
#
# Stress axis : x y z
#
# Youngs Moduli (GPa) = 50.70549 82.35032 86.38990
#
# Poissons Ratio (x) = 0.00864 0.30089
# Poissons Ratio (y) = 0.00532 0.03585
# Poissons Ratio (z) = 0.17661 0.03418
#
# Static dielectric constant tensor:
#      x y z
#    x 1.870250 0.026450 -0.016960 
#    y 0.026450 1.894300 0.000320 
#    z -0.016960 0.000320 1.819090 
# 
# From -- ./inp_files/184096.got.cif
#   From: 2010.05.17/outbox.cif.g08.bks.cpg/sg2_93_cif.got.tgz:184096.got - 2010.06.03 11:33:40.
