data_PCOD9068342
_publ_section_title
;
Structure prediction by ZEFSAII (Michael W. Deem and Ramdas Pophale) SiO2 
 PCOD9068342
Probable space group: P -1
;
_chemical_formula_sum "Si O2"
_cell_formula_units_Z 13
_cell_length_a 9.608212
_cell_length_b 14.420054
_cell_length_c 12.253461
_cell_angle_alpha 30.243948
_cell_angle_beta 37.799491
_cell_angle_gamma 41.758009
_cell_volume 512.945660
_symmetry_space_group_name_H-M "P -1"
_symmetry_group_IT_number 2
_symmetry_cell_setting 'triclinic'
loop_
_space_group_symop_operation_xyz
x,y,z
-x,-y,-z
loop_
_atom_site_type_symbol
_atom_site_label
_atom_site_fract_x
_atom_site_fract_y
_atom_site_fract_z
Si Si1 0.008850 0.035976 0.585900
Si Si2 0.227323 0.355622 0.044974
Si Si3 0.254395 0.941233 0.721855
Si Si4 0.689850 0.627740 0.262814
Si Si5 0.038856 0.365700 0.452437
Si Si6 0.332033 0.572527 0.190117
Si Si7 0.500000 0.000000 0.000000
O O1 0.156666 0.200020 0.323363
O O2 0.163216 0.879001 0.725668
O O3 0.749263 0.073231 0.754571
O O4 0.000000 0.000000 0.500000
O O5 0.326681 0.268981 0.952583
O O6 0.414370 0.450500 0.891827
O O7 0.000000 0.500000 0.000000
O O8 0.080066 0.140376 0.651661
O O9 0.500000 0.000000 0.500000
O O10 0.268337 0.778685 0.965980
O O11 0.500000 0.500000 0.500000
O O12 0.925158 0.492625 0.291718
O O13 0.631493 0.814846 0.180073
O O14 0.273577 0.426311 0.286059
O O15 0.839711 0.431669 0.598496
#
# Coordination Sequence:
#
# PCOD9068342 Si02
#       7
#     2   2   2   2   2   2   1
#     4  12  27  49  75 115 147 200 256 319 386 454
#     4  12  25  47  73 111 153 198 257 317 383 457
#     4  12  26  49  75 107 154 198 253 316 384 458
#     4  12  24  46  78 110 154 197 252 320 377 449
#     4  11  26  49  76 112 151 204 258 313 387 456
#     4  11  26  49  75 110 152 205 254 317 384 462
#     4  12  26  48  78 112 152 190 256 316 388 454
#
# _framework density 25.343816
#
# number of rings (size 3 to 8) (size 9 to 14) (size 15 to 20)
#    0.000    0.308    4.615    4.154    0.000    1.846 
#   11.077    0.000    0.000    0.000    0.000    0.000 
#    0.000    0.000    0.000    0.000    0.000    0.000 
#
# Total GULP energy -72485.460115 kJ/mol
# GULP energy per Si atom -5575.804624 kJ/mol
# Density = 2.528613 g / cm^3
# Si number density = 25.343816 Si / 1000 Ang^3
#
#
#
# Elastic Constant Matrix: (Units=GPa)
#
#
# Indices 1 2 3 4 5 6 
#
# 1 178.2202 27.1158 33.5893 6.1227 -11.2124 -24.5065
# 2 27.1158 35.0053 9.5819 -16.5009 -4.2319 -17.4645
# 3 33.5893 9.5819 141.1691 6.9078 -8.1355 -6.5391
# 4 6.1227 -16.5009 6.9078 51.4327 -8.7345 -3.6555
# 5 -11.2124 -4.2319 -8.1355 -8.7345 54.1085 1.0077
# 6 -24.5065 -17.4645 -6.5391 -3.6555 1.0077 31.1611
#
#
#
# Elastic Compliance Matrix: (Units=1/GPa)
#
#
# Indices 1 2 3 4 5 6 
#
# 1 0.006968 -0.004810 -0.001097 -0.001969 0.000542 0.002306
# 2 -0.004810 0.061425 -0.002296 0.024060 0.006736 0.032766
# 3 -0.001097 -0.002296 0.007571 -0.001594 0.000488 -0.000764
# 4 -0.001969 0.024060 -0.001594 0.029644 0.005742 0.014893
# 5 0.000542 0.006736 0.000488 0.005742 0.020040 0.004329
# 6 0.002306 0.032766 -0.000764 0.014893 0.004329 0.053715
#
#
# Mechanical properties :
#
#
# Convention : Reuss Voigt Hill
#
# Bulk Modulus (GPa) = 16.79043 54.99652 35.89348
# Shear Modulus (GPa) = 23.18856 46.28098 34.73477
#
# Velocity S-wave (km/s) = 3.02811 4.27795 3.70610
# Velocity P-wave (km/s) = 4.34343 6.79327 5.70148
#
# Compressibility (1/GPa) = 0.05955772
#
# Stress axis : x y z
#
# Youngs Moduli (GPa) = 143.50356 16.28009 132.07625
#
# Poissons Ratio (x) = 0.07831 0.14491
# Poissons Ratio (y) = 0.69027 0.30326
# Poissons Ratio (z) = 0.15745 0.03738
#
# Static dielectric constant tensor:
#      x y z
#    x 2.028390 0.051550 -0.023700 
#    y 0.051550 2.245830 0.043150 
#    z -0.023700 0.043150 1.960220 
# 
# From -- ./inp_files/239664.got.cif
#   From: 2010.05.17/outbox.cif.g08.bks.cpg/sg2_120_cif.got.tgz:239664.got - 2010.06.03 11:33:40.
