data_PCOD9068227
_publ_section_title
;
Structure prediction by ZEFSAII (Michael W. Deem and Ramdas Pophale) SiO2 
 PCOD9068227
Probable space group: P -1
;
_chemical_formula_sum "Si O2"
_cell_formula_units_Z 11
_cell_length_a 7.609726
_cell_length_b 5.148843
_cell_length_c 11.719600
_cell_angle_alpha 95.259919
_cell_angle_beta 122.981184
_cell_angle_gamma 85.759896
_cell_volume 383.409607
_symmetry_space_group_name_H-M "P -1"
_symmetry_group_IT_number 2
_symmetry_cell_setting 'triclinic'
loop_
_space_group_symop_operation_xyz
x,y,z
-x,-y,-z
loop_
_atom_site_type_symbol
_atom_site_label
_atom_site_fract_x
_atom_site_fract_y
_atom_site_fract_z
Si Si1 0.214116 0.778640 0.645749
Si Si2 0.773459 0.057353 0.815901
Si Si3 0.820644 0.524903 0.583137
Si Si4 0.846116 0.790839 0.178489
Si Si5 0.500000 0.000000 0.500000
Si Si6 0.618573 0.576878 0.887123
O O1 0.254837 0.735441 0.522912
O O2 0.376782 0.586104 0.761310
O O3 0.973511 0.700419 0.567025
O O4 0.228683 0.045204 0.730964
O O5 0.737584 0.303476 0.897167
O O6 0.005381 0.037864 0.843344
O O7 0.608088 0.120055 0.659275
O O8 0.716191 0.794304 0.848260
O O9 0.642928 0.728603 0.558960
O O10 0.981204 0.425838 0.731292
O O11 0.660604 0.684353 0.032843
#
# Coordination Sequence:
#
# PCOD9068227 Si02
#       6
#     2   2   2   2   1   2
#     4  11  26  48  75 118 152 206 255 322 388 465
#     4  12  28  48  78 115 153 208 264 315 382 466
#     4  11  26  48  79 113 155 201 267 321 380 467
#     4  12  27  48  78 112 157 205 256 321 392 460
#     4  12  24  50  78 110 148 206 256 322 378 448
#     4  12  29  49  80 114 163 201 258 320 392 466
#
# _framework density 28.689943
#
# number of rings (size 3 to 8) (size 9 to 14) (size 15 to 20)
#    0.000    0.364    3.636    3.273    7.636    2.182 
#    0.000    0.000    0.000    0.000    0.000    0.000 
#    0.000    0.000    0.000    0.000    0.000    0.000 
#
# Total GULP energy -61586.843560 kJ/mol
# GULP energy per Si atom -5598.803960 kJ/mol
# Density = 2.862464 g / cm^3
# Si number density = 28.689943 Si / 1000 Ang^3
#
#
#
# Elastic Constant Matrix: (Units=GPa)
#
#
# Indices 1 2 3 4 5 6 
#
# 1 127.5804 41.6920 11.3371 7.9215 14.9522 -12.1383
# 2 41.6920 194.2694 34.2735 11.2697 -8.5004 -32.0298
# 3 11.3371 34.2735 185.4417 7.5837 -0.5997 -24.0366
# 4 7.9215 11.2697 7.5837 62.5882 -4.7855 0.9864
# 5 14.9522 -8.5004 -0.5997 -4.7855 37.2668 8.2454
# 6 -12.1383 -32.0298 -24.0366 0.9864 8.2454 35.4688
#
#
#
# Elastic Compliance Matrix: (Units=1/GPa)
#
#
# Indices 1 2 3 4 5 6 
#
# 1 0.009316 -0.001678 0.000164 -0.001322 -0.004945 0.002970
# 2 -0.001678 0.006465 -0.000434 -0.000900 0.000970 0.004769
# 3 0.000164 -0.000434 0.006012 -0.000815 -0.001059 0.004007
# 4 -0.001322 -0.000900 -0.000815 0.016692 0.003121 -0.003007
# 5 -0.004945 0.000970 -0.001059 0.003121 0.031396 -0.008919
# 6 0.002970 0.004769 0.004007 -0.003007 -0.008919 0.038390
#
#
# Mechanical properties :
#
#
# Convention : Reuss Voigt Hill
#
# Bulk Modulus (GPa) = 55.87856 75.76630 65.82243
# Shear Modulus (GPa) = 42.32494 55.06403 48.69449
#
# Velocity S-wave (km/s) = 3.84507 4.38571 4.12426
# Velocity P-wave (km/s) = 6.26352 7.21886 6.75809
#
# Compressibility (1/GPa) = 0.01789595
#
# Stress axis : x y z
#
# Youngs Moduli (GPa) = 107.33945 154.67284 166.33193
#
# Poissons Ratio (x) = 0.25958 -0.02722
# Poissons Ratio (y) = 0.18014 0.07222
# Poissons Ratio (z) = -0.01756 0.06716
#
# Static dielectric constant tensor:
#      x y z
#    x 2.405430 0.224700 -0.017900 
#    y 0.224700 2.209990 0.088060 
#    z -0.017900 0.088060 2.196090 
# 
# From -- ./inp_files/17427.got.cif
#   From: 2010.05.17/outbox.cif.g08.bks.cpg/sg2_9_cif.got.tgz:17427.got - 2010.06.03 11:33:40.
