data_PCOD9068551
_publ_section_title
;
Structure prediction by ZEFSAII (Michael W. Deem and Ramdas Pophale) SiO2 
 PCOD9068551
Probable space group: P -1
;
_chemical_formula_sum "Si O2"
_cell_formula_units_Z 12
_cell_length_a 4.769927
_cell_length_b 21.148292
_cell_length_c 8.838878
_cell_angle_alpha 36.837741
_cell_angle_beta 82.711814
_cell_angle_gamma 67.306427
_cell_volume 465.756341
_symmetry_space_group_name_H-M "P -1"
_symmetry_group_IT_number 2
_symmetry_cell_setting 'triclinic'
loop_
_space_group_symop_operation_xyz
x,y,z
-x,-y,-z
loop_
_atom_site_type_symbol
_atom_site_label
_atom_site_fract_x
_atom_site_fract_y
_atom_site_fract_z
Si Si1 0.116514 0.267797 0.496135
Si Si2 0.217493 0.955623 0.221753
Si Si3 0.495537 0.616789 0.846124
Si Si4 0.410798 0.962350 0.737375
Si Si5 0.744407 0.690377 0.270679
Si Si6 0.275732 0.547548 0.279971
O O1 0.439900 0.150551 0.652055
O O2 0.193225 0.367816 0.224223
O O3 0.071228 0.293311 0.628526
O O4 0.800648 0.275999 0.427845
O O5 0.346744 0.032501 0.163158
O O6 0.961009 0.947774 0.368672
O O7 0.000000 0.000000 0.000000
O O8 0.500000 0.500000 0.000000
O O9 0.403972 0.611480 0.034621
O O10 0.500000 0.000000 0.500000
O O11 0.463348 0.825494 0.000806
O O12 0.936328 0.642443 0.192481
O O13 0.706758 0.575385 0.547155
O O14 0.500000 0.500000 0.500000
#
# Coordination Sequence:
#
# PCOD9068551 Si02
#       6
#     2   2   2   2   2   2
#     4  12  27  46  77 107 151 192 250 309 371 441
#     4  12  27  50  77 111 148 202 258 309 381 451
#     4  12  26  46  75 108 146 194 250 304 367 443
#     4  12  29  50  77 112 152 198 256 316 382 453
#     4  11  27  46  73 103 150 193 246 303 381 440
#     4  11  27  46  73 106 151 195 245 304 384 448
#
# _framework density 25.764544999999998
#
# number of rings (size 3 to 8) (size 9 to 14) (size 15 to 20)
#    0.000    0.333    3.333    3.500   14.000    0.000 
#    0.000    0.000    0.000    0.000    0.000    0.000 
#    0.000    0.000    0.000    0.000    0.000    0.000 
#
# Total GULP energy -67136.128822 kJ/mol
# GULP energy per Si atom -5594.677402 kJ/mol
# Density = 2.570590 g / cm^3
# Si number density = 25.764545 Si / 1000 Ang^3
#
#
#
# Elastic Constant Matrix: (Units=GPa)
#
#
# Indices 1 2 3 4 5 6 
#
# 1 119.4314 36.2111 8.7085 -5.3043 7.1242 -1.0209
# 2 36.2111 128.8161 48.7063 -4.7402 -1.7014 -4.6579
# 3 8.7085 48.7063 86.4092 -0.8831 -0.6110 4.0351
# 4 -5.3043 -4.7402 -0.8831 51.8794 -15.1431 -5.2050
# 5 7.1242 -1.7014 -0.6110 -15.1431 46.1922 3.5454
# 6 -1.0209 -4.6579 4.0351 -5.2050 3.5454 43.6622
#
#
#
# Elastic Compliance Matrix: (Units=1/GPa)
#
#
# Indices 1 2 3 4 5 6 
#
# 1 0.009294 -0.002878 0.000678 0.000279 -0.001439 -0.000002
# 2 -0.002878 0.010928 -0.005931 0.001061 0.000986 0.001693
# 3 0.000678 -0.005931 0.014937 -0.000458 -0.000119 -0.002042
# 4 0.000279 0.001061 -0.000458 0.021630 0.006914 0.002179
# 5 -0.001439 0.000986 -0.000119 0.006914 0.024253 -0.001063
# 6 -0.000002 0.001693 -0.002042 0.002179 -0.001063 0.023618
#
#
# Mechanical properties :
#
#
# Convention : Reuss Voigt Hill
#
# Bulk Modulus (GPa) = 52.91454 57.98985 55.45220
# Shear Modulus (GPa) = 39.30145 44.41547 41.85846
#
# Velocity S-wave (km/s) = 3.90988 4.15649 4.03507
# Velocity P-wave (km/s) = 6.40041 6.75216 6.57864
#
# Compressibility (1/GPa) = 0.01889840
#
# Stress axis : x y z
#
# Youngs Moduli (GPa) = 107.59235 91.50954 66.94614
#
# Poissons Ratio (x) = 0.26337 -0.04541
# Poissons Ratio (y) = 0.30965 0.39705
# Poissons Ratio (z) = -0.07298 0.54273
#
# Static dielectric constant tensor:
#      x y z
#    x 1.995400 0.001400 -0.033520 
#    y 0.001400 2.054750 -0.075800 
#    z -0.033520 -0.075800 2.151480 
# 
# From -- ./inp_files/140434.got.cif
#   From: 2010.05.17/outbox.cif.g08.bks.cpg/sg2_71_cif.got.tgz:140434.got - 2010.06.03 11:33:40.
