data_PCOD9068225
_publ_section_title
;
Structure prediction by ZEFSAII (Michael W. Deem and Ramdas Pophale) SiO2 
 PCOD9068225
Probable space group: P -1
;
_chemical_formula_sum "Si O2"
_cell_formula_units_Z 14
_cell_length_a 14.887835
_cell_length_b 5.675057
_cell_length_c 20.656591
_cell_angle_alpha 71.672848
_cell_angle_beta 19.839851
_cell_angle_gamma 72.563876
_cell_volume 562.242766
_symmetry_space_group_name_H-M "P -1"
_symmetry_group_IT_number 2
_symmetry_cell_setting 'triclinic'
loop_
_space_group_symop_operation_xyz
x,y,z
-x,-y,-z
loop_
_atom_site_type_symbol
_atom_site_label
_atom_site_fract_x
_atom_site_fract_y
_atom_site_fract_z
Si Si1 0.474258 0.410757 0.382947
Si Si2 0.270741 0.810912 0.154339
Si Si3 0.299200 0.176744 0.398406
Si Si4 0.919805 0.478263 0.255184
Si Si5 0.529195 0.374790 0.095155
Si Si6 0.189981 0.937618 0.734694
Si Si7 0.792277 0.841055 0.113904
O O1 0.413408 0.387300 0.350848
O O2 0.216077 0.520480 0.582510
O O3 0.563292 0.152699 0.379470
O O4 0.732651 0.573683 0.205376
O O5 0.345922 0.548810 0.159689
O O6 0.990005 0.880029 0.371589
O O7 0.298175 0.788792 0.059596
O O8 0.500000 0.000000 0.000000
O O9 0.348720 0.249857 0.283644
O O10 0.503417 0.957366 0.293548
O O11 0.801186 0.245303 0.317645
O O12 0.841421 0.762975 0.263471
O O13 0.237144 0.470258 0.042786
O O14 0.917321 0.844900 0.958730
O O15 0.000000 0.000000 0.000000
#
# Coordination Sequence:
#
# PCOD9068225 Si02
#       7
#     2   2   2   2   2   2   2
#     4  12  27  43  75 111 161 209 263 318 390 468
#     4  11  28  50  79 108 152 197 268 340 397 473
#     4  12  26  48  78 111 157 204 263 319 405 467
#     4  12  27  47  78 113 160 209 268 324 389 470
#     4  11  26  48  75 113 149 201 262 328 405 468
#     4  12  26  47  73 114 160 213 262 318 385 471
#     4  12  26  44  71 110 158 210 263 315 386 470
#
# _framework density 24.900276999999999
#
# number of rings (size 3 to 8) (size 9 to 14) (size 15 to 20)
#    0.000    0.286    4.286    3.429    6.000    1.714 
#    0.000    0.000    0.000    0.000    0.000    0.000 
#    0.000    0.000    0.000    0.000    0.000    0.000 
#
# Total GULP energy -78220.977807 kJ/mol
# GULP energy per Si atom -5587.212700 kJ/mol
# Density = 2.484360 g / cm^3
# Si number density = 24.900277 Si / 1000 Ang^3
#
#
#
# Elastic Constant Matrix: (Units=GPa)
#
#
# Indices 1 2 3 4 5 6 
#
# 1 108.6712 34.1283 31.9522 -0.0488 23.2760 13.2567
# 2 34.1283 109.5563 33.2952 -11.3784 4.9966 5.8601
# 3 31.9522 33.2952 183.7210 15.8543 3.6634 10.1781
# 4 -0.0488 -11.3784 15.8543 46.5404 6.5457 -10.2372
# 5 23.2760 4.9966 3.6634 6.5457 43.4247 4.1302
# 6 13.2567 5.8601 10.1781 -10.2372 4.1302 33.6222
#
#
#
# Elastic Compliance Matrix: (Units=1/GPa)
#
#
# Indices 1 2 3 4 5 6 
#
# 1 0.012127 -0.002982 -0.001258 -0.000197 -0.005713 -0.003239
# 2 -0.002982 0.010928 -0.001811 0.003500 -0.000119 0.000900
# 3 -0.001258 -0.001811 0.006374 -0.003255 0.001049 -0.002238
# 4 -0.000197 0.003500 -0.003255 0.026106 -0.004813 0.008993
# 5 -0.005713 -0.000119 0.001049 -0.004813 0.027011 -0.002828
# 6 -0.003239 0.000900 -0.002238 0.008993 -0.002828 0.034625
#
#
# Mechanical properties :
#
#
# Convention : Reuss Voigt Hill
#
# Bulk Modulus (GPa) = 57.71691 66.74445 62.23068
# Shear Modulus (GPa) = 37.02319 44.88897 40.95608
#
# Velocity S-wave (km/s) = 3.86016 4.25049 4.06002
# Velocity P-wave (km/s) = 6.56486 7.13805 6.85744
#
# Compressibility (1/GPa) = 0.01732594
#
# Stress axis : x y z
#
# Youngs Moduli (GPa) = 82.45839 91.50795 156.88410
#
# Poissons Ratio (x) = 0.27287 0.19742
# Poissons Ratio (y) = 0.24589 0.28418
# Poissons Ratio (z) = 0.10377 0.16575
#
# Static dielectric constant tensor:
#      x y z
#    x 2.033740 -0.006620 0.070160 
#    y -0.006620 2.083420 0.013820 
#    z 0.070160 0.013820 2.026500 
# 
# From -- ./inp_files/229607.got.cif
#   From: 2010.05.17/outbox.cif.g08.bks.cpg/sg2_115_cif.got.tgz:229607.got - 2010.06.03 11:33:40.
