data_PCOD9068184
_publ_section_title
;
Structure prediction by ZEFSAII (Michael W. Deem and Ramdas Pophale) SiO2 
 PCOD9068184
Probable space group: P -1
;
_chemical_formula_sum "Si O2"
_cell_formula_units_Z 14
_cell_length_a 5.424310
_cell_length_b 21.426608
_cell_length_c 20.992114
_cell_angle_alpha 13.074595
_cell_angle_beta 111.164505
_cell_angle_gamma 109.807724
_cell_volume 513.749378
_symmetry_space_group_name_H-M "P -1"
_symmetry_group_IT_number 2
_symmetry_cell_setting 'triclinic'
loop_
_space_group_symop_operation_xyz
x,y,z
-x,-y,-z
loop_
_atom_site_type_symbol
_atom_site_label
_atom_site_fract_x
_atom_site_fract_y
_atom_site_fract_z
Si Si1 0.181711 0.738773 0.698571
Si Si2 0.036036 0.135533 0.571415
Si Si3 0.274318 0.320708 0.955467
Si Si4 0.003132 0.060772 0.014674
Si Si5 0.456754 0.692366 0.491159
Si Si6 0.678799 0.385721 0.034425
Si Si7 0.695606 0.581548 0.493187
O O1 0.452326 0.600519 0.830614
O O2 0.056388 0.944926 0.428188
O O3 0.943438 0.533441 0.892573
O O4 0.743075 0.175451 0.307992
O O5 0.338988 0.140513 0.613737
O O6 0.923821 0.451167 0.255230
O O7 0.884692 0.952147 0.789461
O O8 0.347465 0.470076 0.749555
O O9 0.530805 0.273713 0.070950
O O10 0.956460 0.385051 0.698857
O O11 0.251425 0.909314 0.222454
O O12 0.000000 0.000000 0.000000
O O13 0.754626 0.901675 0.176178
O O14 0.602441 0.534774 0.602340
O O15 0.500000 0.500000 0.500000
#
# Coordination Sequence:
#
# PCOD9068184 Si02
#       7
#     2   2   2   2   2   2   2
#     4   9  18  39  72 108 151 205 266 330 394 468
#     4  11  26  48  72 109 155 204 259 317 395 474
#     4  11  26  48  72 109 155 204 259 317 395 474
#     4  12  28  51  80 114 147 195 256 322 392 479
#     4  12  28  50  79 110 160 202 258 328 403 470
#     4   9  18  39  72 108 151 205 266 330 394 468
#     4  12  28  51  80 114 147 195 256 322 392 479
#
# _framework density 27.250641000000002
#
# number of rings (size 3 to 8) (size 9 to 14) (size 15 to 20)
#    0.000    1.143    2.857    1.714    0.000    8.571 
#    0.000    0.000    0.000    8.571    0.000    0.000 
#    0.000    1.143    0.000    0.000    0.000    0.286 
#
# Total GULP energy -78577.670332 kJ/mol
# GULP energy per Si atom -5612.690738 kJ/mol
# Density = 2.718862 g / cm^3
# Si number density = 27.250641 Si / 1000 Ang^3
#
#
#
# Elastic Constant Matrix: (Units=GPa)
#
#
# Indices 1 2 3 4 5 6 
#
# 1 111.7639 48.2670 39.4133 18.2524 -11.6064 -0.7914
# 2 48.2670 220.5915 47.5257 43.1952 -3.1281 6.6412
# 3 39.4133 47.5257 97.8318 11.0213 2.2167 5.3673
# 4 18.2524 43.1952 11.0213 46.8403 -0.2823 -4.2507
# 5 -11.6064 -3.1281 2.2167 -0.2823 53.9219 8.3091
# 6 -0.7914 6.6412 5.3673 -4.2507 8.3091 57.6864
#
#
#
# Elastic Compliance Matrix: (Units=1/GPa)
#
#
# Indices 1 2 3 4 5 6 
#
# 1 0.011472 -0.001167 -0.003840 -0.002466 0.002531 0.000103
# 2 -0.001167 0.006198 -0.001945 -0.004888 0.000310 -0.000953
# 3 -0.003840 -0.001945 0.012765 0.000205 -0.001338 -0.000809
# 4 -0.002466 -0.004888 0.000205 0.027004 -0.001091 0.002657
# 5 0.002531 0.000310 -0.001338 -0.001091 0.019585 -0.002778
# 6 0.000103 -0.000953 -0.000809 0.002657 -0.002778 0.018117
#
#
# Mechanical properties :
#
#
# Convention : Reuss Voigt Hill
#
# Bulk Modulus (GPa) = 60.49184 77.84435 69.16810
# Shear Modulus (GPa) = 43.64720 51.35513 47.50117
#
# Velocity S-wave (km/s) = 4.00646 4.34585 4.17960
# Velocity P-wave (km/s) = 6.60672 7.33553 6.98064
#
# Compressibility (1/GPa) = 0.01653115
#
# Stress axis : x y z
#
# Youngs Moduli (GPa) = 87.16999 161.34683 78.33981
#
# Poissons Ratio (x) = 0.18833 0.30081
# Poissons Ratio (y) = 0.10175 0.15235
# Poissons Ratio (z) = 0.33472 0.31377
#
# Static dielectric constant tensor:
#      x y z
#    x 2.159130 -0.001190 0.043690 
#    y -0.001190 2.112750 -0.007600 
#    z 0.043690 -0.007600 2.047940 
# 
# From -- ./inp_files/615985.got.cif
#   From: 2010.05.17/outbox.cif.g08.bks.cpg/sg2_308_cif.got.tgz:615985.got - 2010.06.03 11:33:40.
