data_PCOD9068131
_publ_section_title
;
Structure prediction by ZEFSAII (Michael W. Deem and Ramdas Pophale) SiO2 
 PCOD9068131
Probable space group: P -1
;
_chemical_formula_sum "Si O2"
_cell_formula_units_Z 15
_cell_length_a 14.622910
_cell_length_b 16.916101
_cell_length_c 14.186956
_cell_angle_alpha 163.307478
_cell_angle_beta 62.058787
_cell_angle_gamma 128.261234
_cell_volume 659.757132
_symmetry_space_group_name_H-M "P -1"
_symmetry_group_IT_number 2
_symmetry_cell_setting 'triclinic'
loop_
_space_group_symop_operation_xyz
x,y,z
-x,-y,-z
loop_
_atom_site_type_symbol
_atom_site_label
_atom_site_fract_x
_atom_site_fract_y
_atom_site_fract_z
Si Si1 0.025746 0.422932 0.663114
Si Si2 0.882316 0.301421 0.410065
Si Si3 0.500000 0.500000 0.500000
Si Si4 0.296528 0.545499 0.419196
Si Si5 0.972182 0.164292 0.579006
Si Si6 0.546514 0.650545 0.431218
Si Si7 0.711066 0.408761 0.322007
Si Si8 0.195707 0.193339 0.571033
O O1 0.924835 0.109825 0.432306
O O2 0.125932 0.371799 0.510506
O O3 0.952728 0.462847 0.662255
O O4 0.117740 0.793490 0.104602
O O5 0.777217 0.359195 0.499549
O O6 0.000000 0.500000 0.500000
O O7 0.811598 0.874120 0.967079
O O8 0.495668 0.451889 0.330525
O O9 0.652342 0.601365 0.547209
O O10 0.418617 0.570418 0.348096
O O11 0.350192 0.787215 0.767824
O O12 0.861101 0.834310 0.328391
O O13 0.125604 0.300296 0.662295
O O14 0.000000 0.500000 0.000000
O O15 0.642163 0.593907 0.270184
O O16 0.641069 0.077581 0.904202
#
# Coordination Sequence:
#
# PCOD9068131 Si02
#       8
#     2   2   1   2   2   2   2   2
#     4  10  21  35  59  84 119 153 208 246 303 356
#     4  12  26  42  59  85 125 175 210 252 284 358
#     4  10  18  28  50  76 114 148 190 230 302 350
#     4  11  25  40  59  85 128 165 214 241 299 358
#     4   9  18  35  59  94 112 145 190 256 319 364
#     4  10  22  35  56  86 119 162 197 256 304 370
#     4  10  21  34  55  85 117 161 197 255 301 356
#     4   9  19  37  61  88 119 146 194 256 321 359
#
# _framework density 22.735641999999999
#
# number of rings (size 3 to 8) (size 9 to 14) (size 15 to 20)
#    0.000    1.867    1.333    2.800    9.333    0.000 
#    0.000    0.000    0.000    1.600    0.000    0.000 
#    0.000    0.000    0.000    0.000    0.000    0.000 
#
# Total GULP energy -83509.119530 kJ/mol
# GULP energy per Si atom -5567.274635 kJ/mol
# Density = 2.268389 g / cm^3
# Si number density = 22.735642 Si / 1000 Ang^3
#
#
#
# Elastic Constant Matrix: (Units=GPa)
#
#
# Indices 1 2 3 4 5 6 
#
# 1 218.9751 83.7830 17.0201 -2.2214 -16.9174 8.8237
# 2 83.7830 111.9390 4.6026 -4.3347 0.9041 6.7346
# 3 17.0201 4.6026 29.9616 2.1833 -11.2477 6.7154
# 4 -2.2214 -4.3347 2.1833 14.9931 3.1270 -4.5483
# 5 -16.9174 0.9041 -11.2477 3.1270 31.8731 -5.7305
# 6 8.8237 6.7346 6.7154 -4.5483 -5.7305 47.4016
#
#
#
# Elastic Compliance Matrix: (Units=1/GPa)
#
#
# Indices 1 2 3 4 5 6 
#
# 1 0.006933 -0.005174 -0.001861 -0.000872 0.003259 0.000018
# 2 -0.005174 0.013056 -0.000561 0.003607 -0.003836 -0.000930
# 3 -0.001861 -0.000561 0.041616 -0.010865 0.013911 -0.004830
# 4 -0.000872 0.003607 -0.010865 0.073472 -0.010351 0.006987
# 5 0.003259 -0.003836 0.013911 -0.010351 0.039451 0.001744
# 6 0.000018 -0.000930 -0.004830 0.006987 0.001744 0.022791
#
#
# Mechanical properties :
#
#
# Convention : Reuss Voigt Hill
#
# Bulk Modulus (GPa) = 21.54538 63.52081 42.53310
# Shear Modulus (GPa) = 21.93168 35.88489 28.90829
#
# Velocity S-wave (km/s) = 3.10923 3.97716 3.56967
# Velocity P-wave (km/s) = 4.73147 7.00642 5.97816
#
# Compressibility (1/GPa) = 0.04641366
#
# Stress axis : x y z
#
# Youngs Moduli (GPa) = 144.23386 76.59510 24.02916
#
# Poissons Ratio (x) = 0.39630 0.04472
# Poissons Ratio (y) = 0.74626 0.01347
# Poissons Ratio (z) = 0.26841 0.04295
#
# Static dielectric constant tensor:
#      x y z
#    x 1.892000 -0.014660 0.013720 
#    y -0.014660 1.934630 0.019940 
#    z 0.013720 0.019940 1.925170 
# 
# From -- ./inp_files/534954.got.cif
#   From: 2010.05.17/outbox.cif.g08.bks.cpg/sg2_268_cif.got.tgz:534954.got - 2010.06.03 11:33:40.
