data_PCOD9068316
_publ_section_title
;
Structure prediction by ZEFSAII (Michael W. Deem and Ramdas Pophale) SiO2 
 PCOD9068316
Probable space group: P -1
;
_chemical_formula_sum "Si O2"
_cell_formula_units_Z 12
_cell_length_a 12.750002
_cell_length_b 16.080417
_cell_length_c 6.672946
_cell_angle_alpha 63.175661
_cell_angle_beta 116.251074
_cell_angle_gamma 153.471027
_cell_volume 542.759546
_symmetry_space_group_name_H-M "P -1"
_symmetry_group_IT_number 2
_symmetry_cell_setting 'triclinic'
loop_
_space_group_symop_operation_xyz
x,y,z
-x,-y,-z
loop_
_atom_site_type_symbol
_atom_site_label
_atom_site_fract_x
_atom_site_fract_y
_atom_site_fract_z
Si Si1 0.442720 0.519574 0.128675
Si Si2 0.538441 0.244974 0.582907
Si Si3 0.290675 0.915486 0.517342
Si Si4 0.196263 0.706755 0.016313
Si Si5 0.747652 0.782015 0.460883
Si Si6 0.918388 0.597908 0.258391
O O1 0.667648 0.711344 0.238651
O O2 0.292890 0.346529 0.332054
O O3 0.500000 0.500000 0.000000
O O4 0.278868 0.490066 0.948398
O O5 0.578366 0.201700 0.848092
O O6 0.438899 0.273709 0.542899
O O7 0.782223 0.432784 0.468307
O O8 0.372809 0.074410 0.477111
O O9 0.065679 0.766385 0.345503
O O10 0.500000 0.000000 0.500000
O O11 0.228331 0.811141 0.773117
O O12 0.108892 0.686218 0.175290
O O13 0.000000 0.500000 0.000000
O O14 0.000000 0.000000 0.500000
#
# Coordination Sequence:
#
# PCOD9068316 Si02
#       6
#     2   2   2   2   2   2
#     4  11  26  49  73 101 143 189 237 292 360 413
#     4  12  25  46  69 105 144 184 240 290 354 421
#     4  12  27  44  70 108 143 186 235 287 356 424
#     4  12  24  44  73  99 143 184 230 291 355 419
#     4  11  28  47  74 105 140 188 242 296 352 423
#     4  12  26  46  71 103 143 187 233 293 352 427
#
# _framework density 22.109238999999999
#
# number of rings (size 3 to 8) (size 9 to 14) (size 15 to 20)
#    0.000    0.333    5.000    3.000    4.667    2.000 
#    0.000    0.000    0.000    0.000    0.000    0.000 
#    0.000    0.000    0.000    0.000    0.000    0.000 
#
# Total GULP energy -67125.981392 kJ/mol
# GULP energy per Si atom -5593.831783 kJ/mol
# Density = 2.205892 g / cm^3
# Si number density = 22.109239 Si / 1000 Ang^3
#
#
#
# Elastic Constant Matrix: (Units=GPa)
#
#
# Indices 1 2 3 4 5 6 
#
# 1 54.7146 -5.3511 20.4094 -2.8373 -4.8967 -8.7514
# 2 -5.3511 134.1665 26.8593 36.0737 -20.9650 -25.5786
# 3 20.4094 26.8593 80.4535 30.4462 -3.3381 1.3240
# 4 -2.8373 36.0737 30.4462 38.5632 3.3965 -8.8572
# 5 -4.8967 -20.9650 -3.3381 3.3965 36.1471 7.8973
# 6 -8.7514 -25.5786 1.3240 -8.8572 7.8973 35.5287
#
#
#
# Elastic Compliance Matrix: (Units=1/GPa)
#
#
# Indices 1 2 3 4 5 6 
#
# 1 0.025295 0.002488 -0.011709 0.011332 0.000272 0.011223
# 2 0.002488 0.012760 -0.000647 -0.010635 0.007473 0.005511
# 3 -0.011709 -0.000647 0.024539 -0.022572 0.004821 -0.010963
# 4 0.011332 -0.010635 -0.022572 0.059133 -0.015361 0.014132
# 5 0.000272 0.007473 0.004821 -0.015361 0.035326 -0.006414
# 6 0.011223 0.005511 -0.010963 0.014132 -0.006414 0.040236
#
#
# Mechanical properties :
#
#
# Convention : Reuss Voigt Hill
#
# Bulk Modulus (GPa) = 23.33354 39.24110 31.28732
# Shear Modulus (GPa) = 21.61596 37.20894 29.41245
#
# Velocity S-wave (km/s) = 3.13019 4.10684 3.65132
# Velocity P-wave (km/s) = 4.86218 6.34629 5.65315
#
# Compressibility (1/GPa) = 0.04285676
#
# Stress axis : x y z
#
# Youngs Moduli (GPa) = 39.53393 78.36941 40.75224
#
# Poissons Ratio (x) = -0.19500 0.47718
# Poissons Ratio (y) = -0.09837 0.02638
# Poissons Ratio (z) = 0.46291 0.05073
#
# Static dielectric constant tensor:
#      x y z
#    x 1.804410 0.008100 -0.017030 
#    y 0.008100 1.839030 0.026590 
#    z -0.017030 0.026590 1.825360 
# 
# From -- ./inp_files/21298.got.cif
#   From: 2010.05.17/outbox.cif.g08.bks.cpg/sg2_11_cif.got.tgz:21298.got - 2010.06.03 11:33:40.
