data_PCOD9068420
_publ_section_title
;
Structure prediction by ZEFSAII (Michael W. Deem and Ramdas Pophale) SiO2 
 PCOD9068420
Probable space group: P -1
;
_chemical_formula_sum "Si O2"
_cell_formula_units_Z 12
_cell_length_a 11.879437
_cell_length_b 9.617599
_cell_length_c 8.776304
_cell_angle_alpha 68.204006
_cell_angle_beta 34.448645
_cell_angle_gamma 86.124449
_cell_volume 469.172381
_symmetry_space_group_name_H-M "P -1"
_symmetry_group_IT_number 2
_symmetry_cell_setting 'triclinic'
loop_
_space_group_symop_operation_xyz
x,y,z
-x,-y,-z
loop_
_atom_site_type_symbol
_atom_site_label
_atom_site_fract_x
_atom_site_fract_y
_atom_site_fract_z
Si Si1 0.954455 0.090369 0.371377
Si Si2 0.812665 0.246091 0.718208
Si Si3 0.838288 0.576312 0.507450
Si Si4 0.378673 0.020006 0.448192
Si Si5 0.654888 0.726610 0.382897
Si Si6 0.182469 0.621553 0.866100
O O1 0.846589 0.198516 0.529538
O O2 0.163554 0.199464 0.984704
O O3 0.000000 0.000000 0.500000
O O4 0.769181 0.952580 0.527584
O O5 0.713358 0.381599 0.772471
O O6 0.048557 0.312272 0.516569
O O7 0.627815 0.088847 0.079345
O O8 0.725668 0.636947 0.476703
O O9 0.058347 0.580323 0.181551
O O10 0.364081 0.118653 0.572669
O O11 0.256643 0.818961 0.680084
O O12 0.412397 0.610975 0.629509
O O13 0.000000 0.500000 0.000000
#
# Coordination Sequence:
#
# PCOD9068420 Si02
#       6
#     2   2   2   2   2   2
#     4  12  26  44  77 120 156 194 275 324 385 465
#     4  11  26  50  76 119 161 207 251 341 387 458
#     4  11  26  51  79 111 165 201 269 315 401 463
#     4  12  25  51  81 111 157 210 262 319 399 467
#     4  12  27  49  85 112 151 218 262 317 392 481
#     4  12  27  50  79 115 155 203 264 327 387 466
#
# _framework density 25.576954000000001
#
# number of rings (size 3 to 8) (size 9 to 14) (size 15 to 20)
#    0.000    0.333    3.333    4.500    2.333    2.667 
#    6.000    0.000    0.000    0.000    0.000    0.000 
#    0.000    0.000    0.000    0.000    0.000    0.000 
#
# Total GULP energy -67206.622096 kJ/mol
# GULP energy per Si atom -5600.551841 kJ/mol
# Density = 2.551874 g / cm^3
# Si number density = 25.576954 Si / 1000 Ang^3
#
#
#
# Elastic Constant Matrix: (Units=GPa)
#
#
# Indices 1 2 3 4 5 6 
#
# 1 196.3193 35.6761 58.5289 -16.1372 -5.7889 0.5007
# 2 35.6761 108.6398 48.6864 -5.7601 0.3189 10.6274
# 3 58.5289 48.6864 121.2504 -0.2654 -9.1209 14.2991
# 4 -16.1372 -5.7601 -0.2654 45.5786 2.4389 9.4212
# 5 -5.7889 0.3189 -9.1209 2.4389 45.5854 -0.5938
# 6 0.5007 10.6274 14.2991 9.4212 -0.5938 49.9501
#
#
#
# Elastic Compliance Matrix: (Units=1/GPa)
#
#
# Indices 1 2 3 4 5 6 
#
# 1 0.006214 -0.000759 -0.002740 0.001974 0.000147 0.000513
# 2 -0.000759 0.011562 -0.004173 0.001551 -0.001115 -0.001564
# 3 -0.002740 -0.004173 0.011655 -0.001086 0.002043 -0.002192
# 4 0.001974 0.001551 -0.001086 0.023840 -0.001312 -0.004551
# 5 0.000147 -0.001115 0.002043 -0.001312 0.022444 0.000165
# 6 0.000513 -0.001564 -0.002192 -0.004551 0.000165 0.021835
#
#
# Mechanical properties :
#
#
# Convention : Reuss Voigt Hill
#
# Bulk Modulus (GPa) = 70.97693 79.11026 75.04360
# Shear Modulus (GPa) = 42.52081 47.11071 44.81576
#
# Velocity S-wave (km/s) = 4.08176 4.29642 4.19046
# Velocity P-wave (km/s) = 7.07283 7.45719 7.26755
#
# Compressibility (1/GPa) = 0.01408909
#
# Stress axis : x y z
#
# Youngs Moduli (GPa) = 160.93281 86.48839 85.79820
#
# Poissons Ratio (x) = 0.06561 0.23508
# Poissons Ratio (y) = 0.12208 0.35800
# Poissons Ratio (z) = 0.44095 0.36088
#
# Static dielectric constant tensor:
#      x y z
#    x 2.057740 -0.067250 -0.001140 
#    y -0.067250 2.164310 -0.058960 
#    z -0.001140 -0.058960 1.942570 
# 
# From -- ./inp_files/242806.got.cif
#   From: 2010.05.17/outbox.cif.g08.bks.cpg/sg2_122_cif.got.tgz:242806.got - 2010.06.03 11:33:40.
