data_PCOD9068009
_publ_section_title
;
Structure prediction by ZEFSAII (Michael W. Deem and Ramdas Pophale) SiO2 
 PCOD9068009
Probable space group: P -1
;
_chemical_formula_sum "Si O2"
_cell_formula_units_Z 16
_cell_length_a 11.925408
_cell_length_b 15.051678
_cell_length_c 13.887762
_cell_angle_alpha 162.026917
_cell_angle_beta 54.585450
_cell_angle_gamma 130.038591
_cell_volume 583.342417
_symmetry_space_group_name_H-M "P -1"
_symmetry_group_IT_number 2
_symmetry_cell_setting 'triclinic'
loop_
_space_group_symop_operation_xyz
x,y,z
-x,-y,-z
loop_
_atom_site_type_symbol
_atom_site_label
_atom_site_fract_x
_atom_site_fract_y
_atom_site_fract_z
Si Si1 0.471864 0.773511 0.188560
Si Si2 0.636656 0.342321 0.597175
Si Si3 0.902509 0.206568 0.429627
Si Si4 0.346401 0.338083 0.281749
Si Si5 0.314973 0.536703 0.718589
Si Si6 0.151235 0.922314 0.267979
Si Si7 0.942785 0.244449 0.180842
Si Si8 0.151253 0.644308 0.188679
O O1 0.509133 0.007412 0.320950
O O2 0.769116 0.276957 0.517587
O O3 0.500000 0.000000 0.500000
O O4 0.299956 0.576720 0.064107
O O5 0.669277 0.470347 0.605811
O O6 0.949916 0.948678 0.088388
O O7 0.577273 0.577323 0.926910
O O8 0.865775 0.152952 0.503626
O O9 0.038207 0.533470 0.690506
O O10 0.312529 0.435780 0.505143
O O11 0.517881 0.381995 0.245324
O O12 0.220086 0.002984 0.982373
O O13 0.194648 0.275826 0.576778
O O14 0.270890 0.832847 0.055772
O O15 0.167469 0.845536 0.292014
O O16 0.987425 0.678109 0.076643
O O17 0.000000 0.500000 0.500000
#
# Coordination Sequence:
#
# PCOD9068009 Si02
#       8
#     2   2   2   2   2   2   2   2
#     4  12  26  47  72 111 159 211 261 318 394 479
#     4  12  28  47  73 114 156 212 264 321 393 483
#     4  12  28  48  75 114 163 214 263 322 400 482
#     4  11  28  49  84 110 158 212 263 335 403 472
#     4  11  26  53  79 113 154 203 274 332 402 468
#     4  11  26  49  77 118 151 203 269 337 397 471
#     4  12  30  50  75 117 161 213 267 324 397 485
#     4  11  26  46  81 113 160 209 263 332 403 472
#
# _framework density 27.428146000000002
#
# number of rings (size 3 to 8) (size 9 to 14) (size 15 to 20)
#    0.000    0.500    1.250    4.500    5.250    8.000 
#    0.000    0.000    0.000    0.000    0.000    0.000 
#    0.000    0.000    0.000    0.000    0.000    0.000 
#
# Total GULP energy -89870.095087 kJ/mol
# GULP energy per Si atom -5616.880943 kJ/mol
# Density = 2.736572 g / cm^3
# Si number density = 27.428146 Si / 1000 Ang^3
#
#
#
# Elastic Constant Matrix: (Units=GPa)
#
#
# Indices 1 2 3 4 5 6 
#
# 1 165.0002 70.4379 99.9991 -15.5421 14.3868 23.6153
# 2 70.4379 168.8488 75.0902 -5.9755 15.9927 -1.0511
# 3 99.9991 75.0902 164.7958 -19.0123 -13.0088 9.0938
# 4 -15.5421 -5.9755 -19.0123 52.5747 3.3971 9.4233
# 5 14.3868 15.9927 -13.0088 3.3971 57.4309 -3.0185
# 6 23.6153 -1.0511 9.0938 9.4233 -3.0185 58.6615
#
#
#
# Elastic Compliance Matrix: (Units=1/GPa)
#
#
# Indices 1 2 3 4 5 6 
#
# 1 0.011723 -0.001687 -0.006198 0.002083 -0.004222 -0.004341
# 2 -0.001687 0.008202 -0.003064 -0.000749 -0.002443 0.001296
# 3 -0.006198 -0.003064 0.011777 0.001646 0.005008 0.000608
# 4 0.002083 -0.000749 0.001646 0.021056 -0.001426 -0.004563
# 5 -0.004222 -0.002443 0.005008 -0.001426 0.020483 0.002163
# 6 -0.004341 0.001296 0.000608 -0.004563 0.002163 0.019568
#
#
# Mechanical properties :
#
#
# Convention : Reuss Voigt Hill
#
# Bulk Modulus (GPa) = 102.01309 109.96656 105.98983
# Shear Modulus (GPa) = 42.38177 50.60792 46.49485
#
# Velocity S-wave (km/s) = 3.93516 4.30013 4.12169
# Velocity P-wave (km/s) = 7.61058 8.05199 7.83439
#
# Compressibility (1/GPa) = 0.00980266
#
# Stress axis : x y z
#
# Youngs Moduli (GPa) = 85.30308 121.92141 84.91115
#
# Poissons Ratio (x) = 0.20573 0.52629
# Poissons Ratio (y) = 0.14394 0.26018
# Poissons Ratio (z) = 0.52872 0.37359
#
# Static dielectric constant tensor:
#      x y z
#    x 2.104980 0.025160 0.012660 
#    y 0.025160 2.236750 -0.027370 
#    z 0.012660 -0.027370 2.095620 
# 
# From -- ./inp_files/535121.got.cif
#   From: 2010.05.17/outbox.cif.g08.bks.cpg/sg2_268_cif.got.tgz:535121.got - 2010.06.03 11:33:40.
