data_PCOD9068980
_publ_section_title
;
Structure prediction by ZEFSAII (Michael W. Deem and Ramdas Pophale) SiO2 
 PCOD9068980
Probable space group: P -1
;
_chemical_formula_sum "Si O2"
_cell_formula_units_Z 14
_cell_length_a 7.153364
_cell_length_b 13.443283
_cell_length_c 22.664639
_cell_angle_alpha 23.899082
_cell_angle_beta 124.809655
_cell_angle_gamma 136.909886
_cell_volume 565.101536
_symmetry_space_group_name_H-M "P -1"
_symmetry_group_IT_number 2
_symmetry_cell_setting 'triclinic'
loop_
_space_group_symop_operation_xyz
x,y,z
-x,-y,-z
loop_
_atom_site_type_symbol
_atom_site_label
_atom_site_fract_x
_atom_site_fract_y
_atom_site_fract_z
Si Si1 0.194992 0.515025 0.976087
Si Si2 0.703725 0.224731 0.859606
Si Si3 0.295571 0.226937 0.983010
Si Si4 0.128807 0.832759 0.679528
Si Si5 0.799081 0.342163 0.492289
Si Si6 0.870282 0.917221 0.168212
Si Si7 0.667538 0.884479 0.624142
O O1 0.499984 0.680695 0.973538
O O2 0.170909 0.682230 0.825598
O O3 0.069737 0.173015 0.115717
O O4 0.000000 0.500000 0.000000
O O5 0.454910 0.247354 0.779000
O O6 0.736768 0.043144 0.913425
O O7 0.972644 0.571342 0.741723
O O8 0.500000 0.000000 0.000000
O O9 0.446828 0.531790 0.803077
O O10 0.995116 0.106143 0.025836
O O11 0.901466 0.894563 0.621609
O O12 0.455425 0.125027 0.562752
O O13 0.887248 0.640914 0.309712
O O14 0.000000 0.500000 0.500000
O O15 0.836132 0.122130 0.580504
O O16 0.500000 0.000000 0.500000
#
# Coordination Sequence:
#
# PCOD9068980 Si02
#       7
#     2   2   2   2   2   2   2
#     4  12  21  48  82 109 143 195 257 318 370 436
#     4  12  24  47  75 115 146 196 257 309 381 442
#     4  12  26  47  82 111 151 195 258 321 371 449
#     4  12  27  51  78 110 157 197 253 321 376 449
#     4  12  30  51  74 110 157 201 252 308 385 462
#     4  12  26  46  76 111 150 198 256 309 375 450
#     4  12  27  48  74 114 156 202 249 305 389 454
#
# _framework density 24.774308000000001
#
# number of rings (size 3 to 8) (size 9 to 14) (size 15 to 20)
#    0.000    0.000    5.714    3.857    0.000    6.857 
#    0.000    0.000    0.000    0.000    0.000    0.000 
#    0.000    0.000    0.000    0.000    0.000    0.000 
#
# Total GULP energy -78409.031014 kJ/mol
# GULP energy per Si atom -5600.645072 kJ/mol
# Density = 2.471792 g / cm^3
# Si number density = 24.774308 Si / 1000 Ang^3
#
#
#
# Elastic Constant Matrix: (Units=GPa)
#
#
# Indices 1 2 3 4 5 6 
#
# 1 150.4106 41.0610 69.3511 -26.0470 14.2033 19.1009
# 2 41.0610 183.0125 52.1859 -27.5665 3.0698 -5.8890
# 3 69.3511 52.1859 138.0068 -23.8721 13.5138 -14.1218
# 4 -26.0470 -27.5665 -23.8721 41.5189 -0.7739 -1.0966
# 5 14.2033 3.0698 13.5138 -0.7739 39.6670 -3.2607
# 6 19.1009 -5.8890 -14.1218 -1.0966 -3.2607 37.9215
#
#
#
# Elastic Compliance Matrix: (Units=1/GPa)
#
#
# Indices 1 2 3 4 5 6 
#
# 1 0.011070 -0.000704 -0.005279 0.003186 -0.002689 -0.007790
# 2 -0.000704 0.006543 -0.001538 0.003050 0.000405 0.000921
# 3 -0.005279 -0.001538 0.011753 0.002577 -0.001389 0.006752
# 4 0.003186 0.003050 0.002577 0.029575 -0.001633 0.000543
# 5 -0.002689 0.000405 -0.001389 -0.001633 0.026843 0.003161
# 6 -0.007790 0.000921 0.006752 0.000543 0.003161 0.033239
#
#
# Mechanical properties :
#
#
# Convention : Reuss Voigt Hill
#
# Bulk Modulus (GPa) = 69.81745 88.51399 79.16572
# Shear Modulus (GPa) = 36.01272 44.41028 40.21150
#
# Velocity S-wave (km/s) = 3.81679 4.23850 4.03316
# Velocity P-wave (km/s) = 6.90409 7.73038 7.32889
#
# Compressibility (1/GPa) = 0.01432307
#
# Stress axis : x y z
#
# Youngs Moduli (GPa) = 90.33654 152.83702 85.08168
#
# Poissons Ratio (x) = 0.10758 0.44917
# Poissons Ratio (y) = 0.06359 0.13088
# Poissons Ratio (z) = 0.47692 0.23510
#
# Static dielectric constant tensor:
#      x y z
#    x 1.941870 0.104540 0.023930 
#    y 0.104540 2.117150 0.160790 
#    z 0.023930 0.160790 2.066750 
# 
# From -- ./inp_files/622667.got.cif
#   From: 2010.05.17/outbox.cif.g08.bks.cpg/sg2_312_cif.got.tgz:622667.got - 2010.06.03 11:33:40.
