data_PCOD9068014
_publ_section_title
;
Structure prediction by ZEFSAII (Michael W. Deem and Ramdas Pophale) SiO2 
 PCOD9068014
Probable space group: P -1
;
_chemical_formula_sum "Si O2"
_cell_formula_units_Z 14
_cell_length_a 9.657782
_cell_length_b 21.632495
_cell_length_c 9.265165
_cell_angle_alpha 26.065345
_cell_angle_beta 49.231034
_cell_angle_gamma 44.868455
_cell_volume 599.201373
_symmetry_space_group_name_H-M "P -1"
_symmetry_group_IT_number 2
_symmetry_cell_setting 'triclinic'
loop_
_space_group_symop_operation_xyz
x,y,z
-x,-y,-z
loop_
_atom_site_type_symbol
_atom_site_label
_atom_site_fract_x
_atom_site_fract_y
_atom_site_fract_z
Si Si1 0.530926 0.445499 0.260454
Si Si2 0.935043 0.751566 0.351460
Si Si3 0.195459 0.868845 0.744510
Si Si4 0.163274 0.446438 0.687750
Si Si5 0.112155 0.826103 0.340519
Si Si6 0.368898 0.314669 0.128318
Si Si7 0.024809 0.199871 0.199972
O O1 0.331707 0.474960 0.422029
O O2 0.662029 0.266190 0.572242
O O3 0.500000 0.500000 0.000000
O O4 0.636260 0.545756 0.060112
O O5 0.725287 0.782580 0.503809
O O6 0.997101 0.602092 0.525925
O O7 0.074656 0.727247 0.445515
O O8 0.006678 0.866216 0.969925
O O9 0.401475 0.775200 0.872139
O O10 0.166906 0.795136 0.768138
O O11 0.182049 0.039681 0.377676
O O12 0.257621 0.365661 0.945190
O O13 0.084157 0.344035 0.855558
O O14 0.000058 0.817763 0.577928
O O15 0.000000 0.000000 0.000000
#
# Coordination Sequence:
#
# PCOD9068014 Si02
#       7
#     2   2   2   2   2   2   2
#     4  12  27  45  73 114 151 195 255 315 374 446
#     4  12  24  45  75 104 144 198 249 308 369 447
#     4  11  26  48  70 104 153 195 244 311 381 444
#     4  12  25  46  75 104 149 195 254 310 369 448
#     4  12  24  45  73 107 150 195 248 311 376 446
#     4  12  24  45  75 105 144 196 254 307 364 449
#     4  11  26  47  68 105 154 194 241 315 382 439
#
# _framework density 23.364432999999998
#
# number of rings (size 3 to 8) (size 9 to 14) (size 15 to 20)
#    0.000    0.286    5.714    3.429    2.000    2.286 
#    0.000    1.429    0.000    0.000    0.000    0.000 
#    0.000    0.000    0.000    0.000    0.000    0.000 
#
# Total GULP energy -78136.934954 kJ/mol
# GULP energy per Si atom -5581.209640 kJ/mol
# Density = 2.331125 g / cm^3
# Si number density = 23.364433 Si / 1000 Ang^3
#
#
#
# Elastic Constant Matrix: (Units=GPa)
#
#
# Indices 1 2 3 4 5 6 
#
# 1 93.4840 34.0031 23.8126 -5.8146 7.3347 35.3191
# 2 34.0031 83.4703 47.6149 2.2150 2.3930 11.8152
# 3 23.8126 47.6149 88.7567 9.0406 -4.3927 3.6532
# 4 -5.8146 2.2150 9.0406 58.1747 6.5317 3.0285
# 5 7.3347 2.3930 -4.3927 6.5317 38.1867 -0.4984
# 6 35.3191 11.8152 3.6532 3.0285 -0.4984 45.7479
#
#
#
# Elastic Compliance Matrix: (Units=1/GPa)
#
#
# Indices 1 2 3 4 5 6 
#
# 1 0.018467 -0.003979 -0.002861 0.003630 -0.004421 -0.013289
# 2 -0.003979 0.019077 -0.009255 0.000555 -0.001606 -0.001170
# 3 -0.002861 -0.009255 0.017370 -0.003232 0.003726 0.003467
# 4 0.003630 0.000555 -0.003232 0.018730 -0.004359 -0.003975
# 5 -0.004421 -0.001606 0.003726 -0.004359 0.028365 0.004128
# 6 -0.013289 -0.001170 0.003467 -0.003975 0.004128 0.032452
#
#
# Mechanical properties :
#
#
# Convention : Reuss Voigt Hill
#
# Bulk Modulus (GPa) = 44.00633 52.95247 48.47940
# Shear Modulus (GPa) = 28.69824 39.10722 33.90273
#
# Velocity S-wave (km/s) = 3.50850 4.09564 3.81338
# Velocity P-wave (km/s) = 5.94040 6.71406 6.33904
#
# Compressibility (1/GPa) = 0.02272401
#
# Stress axis : x y z
#
# Youngs Moduli (GPa) = 54.15176 52.41778 57.56982
#
# Poissons Ratio (x) = 0.20857 0.16473
# Poissons Ratio (y) = 0.21547 0.53280
# Poissons Ratio (z) = 0.15495 0.48512
#
# Static dielectric constant tensor:
#      x y z
#    x 1.901650 -0.006050 0.012750 
#    y -0.006050 1.971650 -0.071150 
#    z 0.012750 -0.071150 1.960730 
# 
# From -- ./inp_files/222805.got.cif
#   From: 2010.05.17/outbox.cif.g08.bks.cpg/sg2_112_cif.got.tgz:222805.got - 2010.06.03 11:33:40.
