data_PCOD9068643
_publ_section_title
;
Structure prediction by ZEFSAII (Michael W. Deem and Ramdas Pophale) SiO2 
 PCOD9068643
Probable space group: P -1
;
_chemical_formula_sum "Si O2"
_cell_formula_units_Z 14
_cell_length_a 5.369976
_cell_length_b 15.430163
_cell_length_c 7.653330
_cell_angle_alpha 115.505745
_cell_angle_beta 68.179547
_cell_angle_gamma 95.545458
_cell_volume 529.817635
_symmetry_space_group_name_H-M "P -1"
_symmetry_group_IT_number 2
_symmetry_cell_setting 'triclinic'
loop_
_space_group_symop_operation_xyz
x,y,z
-x,-y,-z
loop_
_atom_site_type_symbol
_atom_site_label
_atom_site_fract_x
_atom_site_fract_y
_atom_site_fract_z
Si Si1 0.077305 0.383547 0.266316
Si Si2 0.528984 0.113032 0.135035
Si Si3 0.251754 0.979525 0.666547
Si Si4 0.659912 0.468365 0.160462
Si Si5 0.272262 0.627114 0.310489
Si Si6 0.031699 0.183261 0.523205
Si Si7 0.024104 0.185896 0.923024
O O1 0.867489 0.437816 0.231233
O O2 0.939772 0.391400 0.498185
O O3 0.374816 0.420612 0.221463
O O4 0.088556 0.274416 0.100128
O O5 0.686196 0.096764 0.262821
O O6 0.267289 0.179745 0.316717
O O7 0.707400 0.167531 0.999506
O O8 0.500000 0.000000 0.000000
O O9 0.043816 0.926647 0.558102
O O10 0.500000 0.000000 0.500000
O O11 0.152967 0.082294 0.860156
O O12 0.561772 0.581494 0.263574
O O13 0.766781 0.427274 0.910361
O O14 0.216030 0.739623 0.384388
O O15 0.114639 0.202849 0.716663
#
# Coordination Sequence:
#
# PCOD9068643 Si02
#       7
#     2   2   2   2   2   2   2
#     4  12  28  50  81 115 156 200 260 317 390 465
#     4  12  26  44  71  98 147 195 253 307 379 447
#     4  12  25  44  69 104 145 197 244 311 372 454
#     4  11  28  54  78 117 154 203 256 324 389 466
#     4  11  27  49  81 110 155 201 258 320 392 460
#     4  12  26  49  68 107 145 198 251 313 379 455
#     4  12  26  46  71 108 145 197 253 313 378 458
#
# _framework density 26.424185999999999
#
# number of rings (size 3 to 8) (size 9 to 14) (size 15 to 20)
#    0.000    0.286    4.286    3.429    6.000    4.571 
#    2.571    0.000    0.000    0.000    0.000    0.000 
#    0.000    0.000    0.000    0.000    0.000    0.000 
#
# Total GULP energy -78510.053401 kJ/mol
# GULP energy per Si atom -5607.860957 kJ/mol
# Density = 2.636404 g / cm^3
# Si number density = 26.424186 Si / 1000 Ang^3
#
#
#
# Elastic Constant Matrix: (Units=GPa)
#
#
# Indices 1 2 3 4 5 6 
#
# 1 95.3540 40.4959 37.4897 6.5161 -4.2926 -13.8802
# 2 40.4959 90.4589 32.0925 29.4849 2.1984 -26.1679
# 3 37.4897 32.0925 182.1925 8.9889 0.2048 0.4187
# 4 6.5161 29.4849 8.9889 65.3408 -5.5613 -7.4814
# 5 -4.2926 2.1984 0.2048 -5.5613 42.0573 -1.5463
# 6 -13.8802 -26.1679 0.4187 -7.4814 -1.5463 52.9883
#
#
#
# Elastic Compliance Matrix: (Units=1/GPa)
#
#
# Indices 1 2 3 4 5 6 
#
# 1 0.013846 -0.005852 -0.001913 0.001816 0.002008 0.001067
# 2 -0.005852 0.018516 -0.001726 -0.006972 -0.002237 0.006575
# 3 -0.001913 -0.001726 0.006193 -0.000061 -0.000195 -0.001417
# 4 0.001816 -0.006972 -0.000061 0.018501 0.002987 -0.000267
# 5 0.002008 -0.002237 -0.000195 0.002987 0.024515 0.000560
# 6 0.001067 0.006575 -0.001417 -0.000267 0.000560 0.022388
#
#
# Mechanical properties :
#
#
# Convention : Reuss Voigt Hill
#
# Bulk Modulus (GPa) = 51.08984 65.35128 58.22056
# Shear Modulus (GPa) = 38.62047 49.27244 43.94646
#
# Velocity S-wave (km/s) = 3.82718 4.32287 4.08255
# Velocity P-wave (km/s) = 6.23748 7.04993 6.65612
#
# Compressibility (1/GPa) = 0.01957336
#
# Stress axis : x y z
#
# Youngs Moduli (GPa) = 72.22239 54.00857 161.47877
#
# Poissons Ratio (x) = 0.31606 0.30885
# Poissons Ratio (y) = 0.42265 0.27870
# Poissons Ratio (z) = 0.13813 0.09321
#
# Static dielectric constant tensor:
#      x y z
#    x 2.195430 -0.019530 -0.018230 
#    y -0.019530 2.076200 -0.027320 
#    z -0.018230 -0.027320 2.056830 
# 
# From -- ./inp_files/128828.got.cif
#   From: 2010.05.17/outbox.cif.g08.bks.cpg/sg2_65_cif.got.tgz:128828.got - 2010.06.03 11:33:40.
