data_PCOD9068605
_publ_section_title
;
Structure prediction by ZEFSAII (Michael W. Deem and Ramdas Pophale) SiO2 
 PCOD9068605
Probable space group: P -1
;
_chemical_formula_sum "Si O2"
_cell_formula_units_Z 12
_cell_length_a 11.000621
_cell_length_b 11.601128
_cell_length_c 11.987528
_cell_angle_alpha 23.622853
_cell_angle_beta 131.780999
_cell_angle_gamma 129.152921
_cell_volume 456.011210
_symmetry_space_group_name_H-M "P -1"
_symmetry_group_IT_number 2
_symmetry_cell_setting 'triclinic'
loop_
_space_group_symop_operation_xyz
x,y,z
-x,-y,-z
loop_
_atom_site_type_symbol
_atom_site_label
_atom_site_fract_x
_atom_site_fract_y
_atom_site_fract_z
Si Si1 0.784834 0.520936 0.074943
Si Si2 0.387482 0.490058 0.609281
Si Si3 0.091145 0.219307 0.445118
Si Si4 0.583398 0.958179 0.468031
Si Si5 0.302924 0.746233 0.094616
Si Si6 0.125347 0.274379 0.811528
O O1 0.781705 0.626145 0.107065
O O2 0.956612 0.386040 0.281547
O O3 0.642404 0.273513 0.180367
O O4 0.748197 0.797681 0.735446
O O5 0.469679 0.751080 0.503658
O O6 0.313403 0.650534 0.315145
O O7 0.521062 0.282400 0.827491
O O8 0.259180 0.298172 0.775112
O O9 0.195018 0.473130 0.219835
O O10 0.000000 0.000000 0.500000
O O11 0.212225 0.029228 0.758348
O O12 0.500000 0.000000 0.500000
O O13 0.000000 0.500000 0.500000
O O14 0.000000 0.000000 0.000000
#
# Coordination Sequence:
#
# PCOD9068605 Si02
#       6
#     2   2   2   2   2   2
#     4  12  26  47  73 113 148 197 260 313 388 454
#     4  11  27  49  78 113 162 199 267 320 388 471
#     4  12  25  49  77 111 157 202 263 314 383 472
#     4  12  25  46  75 112 151 202 254 320 384 454
#     4  11  27  48  77 115 152 212 251 321 391 456
#     4  12  28  47  75 111 154 205 252 325 391 455
#
# _framework density 26.315141000000001
#
# number of rings (size 3 to 8) (size 9 to 14) (size 15 to 20)
#    0.000    0.333    1.667    6.000    0.000    9.333 
#    0.000    0.000    0.000    0.000    0.000    0.000 
#    0.000    0.000    0.000    0.000    0.000    0.000 
#
# Total GULP energy -67395.533738 kJ/mol
# GULP energy per Si atom -5616.294478 kJ/mol
# Density = 2.625525 g / cm^3
# Si number density = 26.315141 Si / 1000 Ang^3
#
#
#
# Elastic Constant Matrix: (Units=GPa)
#
#
# Indices 1 2 3 4 5 6 
#
# 1 198.4578 43.1735 51.7538 -6.2231 -1.9955 8.0486
# 2 43.1735 130.6648 25.8697 -7.9567 4.1351 -3.3295
# 3 51.7538 25.8697 161.5270 -16.2695 11.9212 13.4690
# 4 -6.2231 -7.9567 -16.2695 40.7398 9.9610 -5.3717
# 5 -1.9955 4.1351 11.9212 9.9610 41.1332 -4.9902
# 6 8.0486 -3.3295 13.4690 -5.3717 -4.9902 47.8992
#
#
#
# Elastic Compliance Matrix: (Units=1/GPa)
#
#
# Indices 1 2 3 4 5 6 
#
# 1 0.005860 -0.001675 -0.001674 -0.000413 0.000968 -0.000576
# 2 -0.001675 0.008496 -0.000696 0.001511 -0.000962 0.001137
# 3 -0.001674 -0.000696 0.007548 0.003156 -0.003190 -0.001868
# 4 -0.000413 0.001511 0.003156 0.028138 -0.007702 0.001640
# 5 0.000968 -0.000962 -0.003190 -0.007702 0.027569 0.002676
# 6 -0.000576 0.001137 -0.001868 0.001640 0.002676 0.022041
#
#
# Mechanical properties :
#
#
# Convention : Reuss Voigt Hill
#
# Bulk Modulus (GPa) = 72.39367 81.36040 76.87703
# Shear Modulus (GPa) = 44.50534 50.61129 47.55832
#
# Velocity S-wave (km/s) = 4.11694 4.39028 4.25580
# Velocity P-wave (km/s) = 7.08300 7.52889 7.30935
#
# Compressibility (1/GPa) = 0.01381336
#
# Stress axis : x y z
#
# Youngs Moduli (GPa) = 170.64682 117.70530 132.48791
#
# Poissons Ratio (x) = 0.19718 0.22183
# Poissons Ratio (y) = 0.28587 0.09216
# Poissons Ratio (z) = 0.28572 0.08187
#
# Static dielectric constant tensor:
#      x y z
#    x 2.230290 -0.098070 -0.000400 
#    y -0.098070 2.160550 0.016480 
#    z -0.000400 0.016480 1.971330 
# 
# From -- ./inp_files/424791.got.cif
#   From: 2010.05.17/outbox.cif.g08.bks.cpg/sg2_213_cif.got.tgz:424791.got - 2010.06.03 11:33:40.
