data_PCOD9068365
_publ_section_title
;
Structure prediction by ZEFSAII (Michael W. Deem and Ramdas Pophale) SiO2 
 PCOD9068365
Probable space group: P -1
;
_chemical_formula_sum "Si O2"
_cell_formula_units_Z 10
_cell_length_a 7.601996
_cell_length_b 4.888882
_cell_length_c 17.453454
_cell_angle_alpha 80.535895
_cell_angle_beta 35.325871
_cell_angle_gamma 74.245570
_cell_volume 359.078751
_symmetry_space_group_name_H-M "P -1"
_symmetry_group_IT_number 2
_symmetry_cell_setting 'triclinic'
loop_
_space_group_symop_operation_xyz
x,y,z
-x,-y,-z
loop_
_atom_site_type_symbol
_atom_site_label
_atom_site_fract_x
_atom_site_fract_y
_atom_site_fract_z
Si Si1 0.228353 0.569903 0.199722
Si Si2 0.801124 0.755004 0.008658
Si Si3 0.745198 0.360382 0.552749
Si Si4 0.335392 0.106090 0.282626
Si Si5 0.873735 0.165410 0.259529
O O1 0.539091 0.652570 0.056565
O O2 0.335385 0.440176 0.252019
O O3 0.105696 0.335230 0.208439
O O4 0.951503 0.853238 0.282697
O O5 0.587890 0.972298 0.133850
O O6 0.000000 0.500000 0.000000
O O7 0.026498 0.865889 0.864614
O O8 0.467008 0.629374 0.619303
O O9 0.000000 0.500000 0.500000
O O10 0.950422 0.175510 0.420646
O O11 0.603396 0.128451 0.660506
#
# Coordination Sequence:
#
# PCOD9068365 Si02
#       5
#     2   2   2   2   2
#     4  12  28  51  74 121 153 194 248 320 384 442
#     4  12  26  49  80 113 148 204 252 311 371 459
#     4  11  27  51  74 112 151 207 256 306 369 461
#     4  11  26  49  77 110 154 199 258 307 373 455
#     4  12  29  48  81 111 159 194 248 317 383 440
#
# _framework density 27.849046000000001
#
# number of rings (size 3 to 8) (size 9 to 14) (size 15 to 20)
#    0.000    0.400    4.000    2.400    8.400    2.400 
#    0.000    0.000    0.000    0.000    0.000    0.000 
#    0.000    0.000    0.000    0.000    0.000    0.000 
#
# Total GULP energy -55870.118545 kJ/mol
# GULP energy per Si atom -5587.011855 kJ/mol
# Density = 2.778566 g / cm^3
# Si number density = 27.849046 Si / 1000 Ang^3
#
#
#
# Elastic Constant Matrix: (Units=GPa)
#
#
# Indices 1 2 3 4 5 6 
#
# 1 78.1780 33.4134 28.8054 18.0944 -9.7748 -3.7164
# 2 33.4134 198.5121 39.7258 32.4170 0.3019 -43.1439
# 3 28.8054 39.7258 158.7530 39.7951 14.6988 -13.8966
# 4 18.0944 32.4170 39.7951 59.4678 -7.7241 -25.4314
# 5 -9.7748 0.3019 14.6988 -7.7241 59.2030 15.9954
# 6 -3.7164 -43.1439 -13.8966 -25.4314 15.9954 41.7298
#
#
#
# Elastic Compliance Matrix: (Units=1/GPa)
#
#
# Indices 1 2 3 4 5 6 
#
# 1 0.016063 -0.003062 -0.002126 -0.004047 0.004455 -0.006618
# 2 -0.003062 0.007431 -0.000425 0.000494 -0.002698 0.008605
# 3 -0.002126 -0.000425 0.008363 -0.004989 -0.003165 0.000330
# 4 -0.004047 0.000494 -0.004989 0.027684 0.000033 0.015348
# 5 0.004455 -0.002698 -0.003165 0.000033 0.021593 -0.011704
# 6 -0.006618 0.008605 0.000330 0.015348 -0.011704 0.046220
#
#
# Mechanical properties :
#
#
# Convention : Reuss Voigt Hill
#
# Bulk Modulus (GPa) = 48.46865 71.03694 59.75279
# Shear Modulus (GPa) = 34.37439 54.31337 44.34388
#
# Velocity S-wave (km/s) = 3.51709 4.42099 3.99469
# Velocity P-wave (km/s) = 5.82538 7.18494 6.54058
#
# Compressibility (1/GPa) = 0.02063189
#
# Stress axis : x y z
#
# Youngs Moduli (GPa) = 62.25668 134.56341 119.56744
#
# Poissons Ratio (x) = 0.41209 0.25414
# Poissons Ratio (y) = 0.19066 0.05079
# Poissons Ratio (z) = 0.13233 0.05716
#
# Static dielectric constant tensor:
#      x y z
#    x 2.441830 0.034290 0.103880 
#    y 0.034290 2.167250 -0.039670 
#    z 0.103880 -0.039670 2.195810 
# 
# From -- ./inp_files/90008.got.cif
#   From: 2010.05.17/outbox.cif.g08.bks.cpg/sg2_46_cif.got.tgz:90008.got - 2010.06.03 11:33:40.
