data_PCOD9068337
_publ_section_title
;
Structure prediction by ZEFSAII (Michael W. Deem and Ramdas Pophale) SiO2 
 PCOD9068337
Probable space group: P -1
;
_chemical_formula_sum "Si O2"
_cell_formula_units_Z 16
_cell_length_a 8.483711
_cell_length_b 6.907627
_cell_length_c 21.840430
_cell_angle_alpha 132.131237
_cell_angle_beta 129.999897
_cell_angle_gamma 55.693830
_cell_volume 707.093734
_symmetry_space_group_name_H-M "P -1"
_symmetry_group_IT_number 2
_symmetry_cell_setting 'triclinic'
loop_
_space_group_symop_operation_xyz
x,y,z
-x,-y,-z
loop_
_atom_site_type_symbol
_atom_site_label
_atom_site_fract_x
_atom_site_fract_y
_atom_site_fract_z
Si Si1 0.737133 0.347308 0.055075
Si Si2 0.226432 0.091117 0.303946
Si Si3 0.005642 0.052614 0.585020
Si Si4 0.444078 0.765696 0.676196
Si Si5 0.866252 0.464901 0.247094
Si Si6 0.538728 0.498716 0.767123
Si Si7 0.301778 0.238998 0.486683
Si Si8 0.111190 0.301535 0.038847
O O1 0.778198 0.475291 0.158367
O O2 0.930355 0.358056 0.058999
O O3 0.500000 0.500000 0.000000
O O4 0.791588 0.021655 0.012080
O O5 0.377329 0.156039 0.302788
O O6 0.239770 0.253689 0.403636
O O7 0.993664 0.162414 0.232573
O O8 0.323097 0.784672 0.282356
O O9 0.235401 0.988894 0.659131
O O10 0.882381 0.848303 0.540362
O O11 0.953500 0.364451 0.658205
O O12 0.000000 0.000000 0.500000
O O13 0.503392 0.714477 0.750117
O O14 0.373173 0.502075 0.579801
O O15 0.680242 0.532391 0.265253
O O16 0.681410 0.592072 0.872461
O O17 0.500000 0.000000 0.500000
O O18 0.000000 0.500000 0.000000
#
# Coordination Sequence:
#
# PCOD9068337 Si02
#       8
#     2   2   2   2   2   2   2   2
#     4  11  27  48  76 109 146 186 239 298 361 431
#     4  12  25  45  68 103 141 186 241 292 346 419
#     4  12  25  44  70 103 144 188 239 292 350 417
#     4  12  24  45  68  97 144 187 233 296 350 412
#     4  12  26  46  72 106 142 189 237 289 354 424
#     4  12  26  45  72 104 142 184 234 291 353 421
#     4  12  23  41  67  98 138 187 240 289 351 416
#     4  11  26  49  75 107 146 185 236 300 363 429
#
# _framework density 22.627834
#
# number of rings (size 3 to 8) (size 9 to 14) (size 15 to 20)
#    0.000    0.250    2.500    6.750    3.500    5.000 
#    0.000    0.000    0.000    0.000    0.000    0.000 
#    0.000    0.000    0.000    0.000    0.000    0.000 
#
# Total GULP energy -89354.964964 kJ/mol
# GULP energy per Si atom -5584.685310 kJ/mol
# Density = 2.257633 g / cm^3
# Si number density = 22.627834 Si / 1000 Ang^3
#
#
#
# Elastic Constant Matrix: (Units=GPa)
#
#
# Indices 1 2 3 4 5 6 
#
# 1 -9.8901 12.7626 -24.8921 -9.3371 -1.0723 2.3654
# 2 12.7626 100.8706 12.4977 -38.3473 0.4115 -5.7249
# 3 -24.8921 12.4977 75.3469 -28.8946 -9.9520 3.5265
# 4 -9.3371 -38.3473 -28.8946 49.8851 7.4124 -1.7613
# 5 -1.0723 0.4115 -9.9520 7.4124 32.4997 -5.3809
# 6 2.3654 -5.7249 3.5265 -1.7613 -5.3809 40.7439
#
#
#
# Elastic Compliance Matrix: (Units=1/GPa)
#
#
# Indices 1 2 3 4 5 6 
#
# 1 -0.036014 0.000756 -0.018875 -0.016588 -0.002739 0.002752
# 2 0.000756 0.014678 0.002535 0.013273 -0.002064 0.002100
# 3 -0.018875 0.002535 0.007802 0.002782 0.001276 0.001065
# 4 -0.016588 0.013273 0.002782 0.029778 -0.006148 0.003063
# 5 -0.002739 -0.002064 0.001276 -0.006148 0.033139 0.003869
# 6 0.002752 0.002100 0.001065 0.003063 0.003869 0.025230
#
#
# Mechanical properties :
#
#
# Convention : Reuss Voigt Hill
#
# Bulk Modulus (GPa) = -22.37017 18.56265 -1.90376
# Shear Modulus (GPa) = 55.01783 35.68968 45.35375
#
# Velocity S-wave (km/s) = 4.93630 3.97577 4.48184
# Velocity P-wave (km/s) = 4.75203 5.41266 5.09307
#
# Compressibility (1/GPa) = -0.04470239
#
# Stress axis : x y z
#
# Youngs Moduli (GPa) = -27.76727 68.13075 128.17996
#
# Poissons Ratio (x) = -0.05154 2.41939
# Poissons Ratio (y) = 0.02100 -0.32488
# Poissons Ratio (z) = -0.52411 -0.17268
#
# Static dielectric constant tensor:
#      x y z
#    x 0.922430 0.778970 -0.048850 
#    y 0.778970 0.744770 -0.076690 
#    z -0.048850 -0.076690 1.808470 
# 
# From -- ./inp_files/585883.got.cif
#   From: 2010.05.17/outbox.cif.g08.bks.cpg/sg2_293_cif.got.tgz:585883.got - 2010.06.03 11:33:40.
