data_PCOD9068812
_publ_section_title
;
Structure prediction by ZEFSAII (Michael W. Deem and Ramdas Pophale) SiO2 
 PCOD9068812
Probable space group: P -1
;
_chemical_formula_sum "Si O2"
_cell_formula_units_Z 16
_cell_length_a 11.086071
_cell_length_b 10.014473
_cell_length_c 10.213975
_cell_angle_alpha 137.764043
_cell_angle_beta 79.596865
_cell_angle_gamma 86.542130
_cell_volume 716.700933
_symmetry_space_group_name_H-M "P -1"
_symmetry_group_IT_number 2
_symmetry_cell_setting 'triclinic'
loop_
_space_group_symop_operation_xyz
x,y,z
-x,-y,-z
loop_
_atom_site_type_symbol
_atom_site_label
_atom_site_fract_x
_atom_site_fract_y
_atom_site_fract_z
Si Si1 0.995004 0.103379 0.933990
Si Si2 0.618301 0.093473 0.560806
Si Si3 0.366307 0.952518 0.005429
Si Si4 0.692760 0.467609 0.882004
Si Si5 0.241794 0.204030 0.457944
Si Si6 0.969437 0.183112 0.530601
Si Si7 0.261422 0.118639 0.876831
Si Si8 0.714403 0.409518 0.145483
O O1 0.108090 0.211649 0.980009
O O2 0.028382 0.923182 0.687774
O O3 0.856729 0.257451 0.038320
O O4 0.000000 0.000000 0.000000
O O5 0.695856 0.988384 0.597462
O O6 0.701728 0.013489 0.357789
O O7 0.500000 0.000000 0.500000
O O8 0.596961 0.338499 0.760895
O O9 0.276168 0.119101 0.243795
O O10 0.378222 0.725788 0.894870
O O11 0.500000 0.000000 0.000000
O O12 0.303778 0.977858 0.893252
O O13 0.832602 0.339587 0.705856
O O14 0.668150 0.702247 0.009313
O O15 0.704357 0.465398 0.035246
O O16 0.302613 0.384775 0.616616
O O17 0.090433 0.274716 0.568960
O O18 0.000000 0.000000 0.500000
#
# Coordination Sequence:
#
# PCOD9068812 Si02
#       8
#     2   2   2   2   2   2   2   2
#     4  12  22  42  68 101 139 176 216 277 346 399
#     4  12  25  43  68  99 136 177 228 283 330 392
#     4  12  27  49  69  95 141 184 225 279 336 401
#     4  12  25  43  73 106 134 175 227 281 340 402
#     4  12  24  45  70 100 133 183 226 272 342 407
#     4  12  20  40  71  97 138 177 215 275 345 406
#     4  12  26  43  71 105 133 174 229 285 332 397
#     4  12  25  44  74 100 138 181 219 278 349 403
#
# _framework density 22.324514000000001
#
# number of rings (size 3 to 8) (size 9 to 14) (size 15 to 20)
#    0.000    0.000    8.750    1.500    0.000    5.000 
#    0.000    2.500    0.000    0.000    0.000    0.000 
#    0.000    0.000    0.000    0.000    0.000    0.000 
#
# Total GULP energy -89615.207581 kJ/mol
# GULP energy per Si atom -5600.950474 kJ/mol
# Density = 2.227370 g / cm^3
# Si number density = 22.324514 Si / 1000 Ang^3
#
#
#
# Elastic Constant Matrix: (Units=GPa)
#
#
# Indices 1 2 3 4 5 6 
#
# 1 94.3320 6.7754 -8.2675 -4.7483 4.4631 25.0707
# 2 6.7754 88.2491 45.3950 -16.1127 2.1987 17.8975
# 3 -8.2675 45.3950 51.6014 6.9897 5.4939 15.6158
# 4 -4.7483 -16.1127 6.9897 42.8488 11.6955 11.4209
# 5 4.4631 2.1987 5.4939 11.6955 30.4533 11.9581
# 6 25.0707 17.8975 15.6158 11.4209 11.9581 41.4470
#
#
#
# Elastic Compliance Matrix: (Units=1/GPa)
#
#
# Indices 1 2 3 4 5 6 
#
# 1 0.014532 -0.001994 0.007155 0.002689 0.000174 -0.011416
# 2 -0.001994 0.029646 -0.026820 0.017224 -0.001326 -0.005854
# 3 0.007155 -0.026820 0.048216 -0.015562 0.000865 -0.006874
# 4 0.002689 0.017224 -0.015562 0.038088 -0.009112 -0.011067
# 5 0.000174 -0.001326 0.000865 -0.009112 0.039708 -0.008804
# 6 -0.011416 -0.005854 -0.006874 -0.011067 -0.008804 0.041740
#
#
# Mechanical properties :
#
#
# Convention : Reuss Voigt Hill
#
# Bulk Modulus (GPa) = 20.37701 35.77650 28.07676
# Shear Modulus (GPa) = 18.40887 35.63513 27.02200
#
# Velocity S-wave (km/s) = 2.87471 3.99962 3.48288
# Velocity P-wave (km/s) = 4.49066 6.11472 5.36450
#
# Compressibility (1/GPa) = 0.04907491
#
# Stress axis : x y z
#
# Youngs Moduli (GPa) = 68.81230 33.73142 20.73994
#
# Poissons Ratio (x) = 0.06727 -0.14839
# Poissons Ratio (y) = 0.13724 0.55625
# Poissons Ratio (z) = -0.49234 0.90468
#
# Static dielectric constant tensor:
#      x y z
#    x 1.884380 0.036480 0.000480 
#    y 0.036480 1.770960 0.031750 
#    z 0.000480 0.031750 1.777650 
# 
# From -- ./inp_files/188227.got.cif
#   From: 2010.05.17/outbox.cif.g08.bks.cpg/sg2_95_cif.got.tgz:188227.got - 2010.06.03 11:33:40.
