data_PCOD9068712
_publ_section_title
;
Structure prediction by ZEFSAII (Michael W. Deem and Ramdas Pophale) SiO2 
 PCOD9068712
Probable space group: P -1
;
_chemical_formula_sum "Si O2"
_cell_formula_units_Z 12
_cell_length_a 4.828860
_cell_length_b 13.130290
_cell_length_c 14.327771
_cell_angle_alpha 148.719955
_cell_angle_beta 74.917255
_cell_angle_gamma 110.036601
_cell_volume 442.142970
_symmetry_space_group_name_H-M "P -1"
_symmetry_group_IT_number 2
_symmetry_cell_setting 'triclinic'
loop_
_space_group_symop_operation_xyz
x,y,z
-x,-y,-z
loop_
_atom_site_type_symbol
_atom_site_label
_atom_site_fract_x
_atom_site_fract_y
_atom_site_fract_z
Si Si1 0.964003 0.901468 0.124798
Si Si2 0.600190 0.401119 0.005079
Si Si3 0.088084 0.785420 0.317564
Si Si4 0.797372 0.252673 0.518353
Si Si5 0.582606 0.886782 0.992840
Si Si6 0.441639 0.467289 0.590126
O O1 0.898103 0.049803 0.324665
O O2 0.703881 0.700478 0.997361
O O3 0.872780 0.993754 0.108045
O O4 0.288152 0.867179 0.066672
O O5 0.821424 0.581158 0.181340
O O6 0.500000 0.500000 0.000000
O O7 0.758380 0.240168 0.815042
O O8 0.274072 0.766710 0.380573
O O9 0.000000 0.000000 0.500000
O O10 0.557325 0.292876 0.497474
O O11 0.093445 0.425565 0.607367
O O12 0.604141 0.671378 0.785787
O O13 0.500000 0.000000 0.000000
O O14 0.500000 0.500000 0.500000
#
# Coordination Sequence:
#
# PCOD9068712 Si02
#       6
#     2   2   2   2   2   2
#     4  12  27  47  76 110 151 201 252 316 389 459
#     4  11  28  48  76 111 160 203 263 322 391 463
#     4  11  28  50  77 113 158 211 262 324 387 463
#     4  12  27  47  77 111 150 201 258 313 389 461
#     4  12  27  49  76 108 151 197 254 320 390 459
#     4  12  27  49  76 110 150 197 255 322 387 461
#
# _framework density 27.140539
#
# number of rings (size 3 to 8) (size 9 to 14) (size 15 to 20)
#    0.000    0.333    0.000    7.000   16.333    1.333 
#    0.000    0.000    0.000    0.000    0.000    0.000 
#    0.000    0.000    0.000    0.000    0.000    0.000 
#
# Total GULP energy -67320.948920 kJ/mol
# GULP energy per Si atom -5610.079077 kJ/mol
# Density = 2.707877 g / cm^3
# Si number density = 27.140539 Si / 1000 Ang^3
#
#
#
# Elastic Constant Matrix: (Units=GPa)
#
#
# Indices 1 2 3 4 5 6 
#
# 1 152.0350 29.6870 31.5234 -7.7161 -11.9902 -8.8277
# 2 29.6870 134.2208 30.2978 -25.9361 0.4606 -8.8695
# 3 31.5234 30.2978 166.7669 -17.2173 -17.5124 -8.8001
# 4 -7.7161 -25.9361 -17.2173 48.5907 -7.5987 8.3339
# 5 -11.9902 0.4606 -17.5124 -7.5987 48.6064 0.2619
# 6 -8.8277 -8.8695 -8.8001 8.3339 0.2619 50.3572
#
#
#
# Elastic Compliance Matrix: (Units=1/GPa)
#
#
# Indices 1 2 3 4 5 6 
#
# 1 0.007194 -0.001295 -0.000901 0.000223 0.001493 0.000831
# 2 -0.001295 0.008757 -0.000914 0.004046 -0.000102 0.000487
# 3 -0.000901 -0.000914 0.006849 0.002111 0.002581 0.000515
# 4 0.000223 0.004046 0.002111 0.024768 0.004665 -0.003003
# 5 0.001493 -0.000102 0.002581 0.004665 0.022603 -0.000195
# 6 0.000831 0.000487 0.000515 -0.003003 -0.000195 0.020678
#
#
# Mechanical properties :
#
#
# Convention : Reuss Voigt Hill
#
# Bulk Modulus (GPa) = 60.30835 70.67099 65.48967
# Shear Modulus (GPa) = 48.73525 53.61183 51.17354
#
# Velocity S-wave (km/s) = 4.24212 4.44930 4.34695
# Velocity P-wave (km/s) = 6.80170 7.24503 7.02686
#
# Compressibility (1/GPa) = 0.01658145
#
# Stress axis : x y z
#
# Youngs Moduli (GPa) = 138.99679 114.19010 146.00843
#
# Poissons Ratio (x) = 0.14788 0.13156
# Poissons Ratio (y) = 0.18000 0.13338
# Poissons Ratio (z) = 0.12524 0.10432
#
# Static dielectric constant tensor:
#      x y z
#    x 2.130560 -0.037310 -0.028330 
#    y -0.037310 2.338410 0.032930 
#    z -0.028330 0.032930 2.094300 
# 
# From -- ./inp_files/484013.got.cif
#   From: 2010.05.17/outbox.cif.g08.bks.cpg/sg2_243_cif.got.tgz:484013.got - 2010.06.03 11:33:40.
