data_PCOD9068697
_publ_section_title
;
Structure prediction by ZEFSAII (Michael W. Deem and Ramdas Pophale) SiO2 
 PCOD9068697
Probable space group: P -1
;
_chemical_formula_sum "Si O2"
_cell_formula_units_Z 11
_cell_length_a 6.815952
_cell_length_b 9.335807
_cell_length_c 11.470658
_cell_angle_alpha 61.992866
_cell_angle_beta 57.210836
_cell_angle_gamma 104.312812
_cell_volume 399.364063
_symmetry_space_group_name_H-M "P -1"
_symmetry_group_IT_number 2
_symmetry_cell_setting 'triclinic'
loop_
_space_group_symop_operation_xyz
x,y,z
-x,-y,-z
loop_
_atom_site_type_symbol
_atom_site_label
_atom_site_fract_x
_atom_site_fract_y
_atom_site_fract_z
Si Si1 0.500000 0.000000 0.500000
Si Si2 0.226076 0.784671 0.094694
Si Si3 0.417946 0.306107 0.278659
Si Si4 0.291751 0.253957 0.084790
Si Si5 0.743512 0.513107 0.541518
Si Si6 0.287523 0.055062 0.766881
O O1 0.521359 0.184401 0.345705
O O2 0.537827 0.119272 0.564129
O O3 0.893098 0.634041 0.324152
O O4 0.374685 0.676334 0.070287
O O5 0.500000 0.000000 0.000000
O O6 0.214830 0.871248 0.943995
O O7 0.202108 0.190102 0.274219
O O8 0.284003 0.356194 0.406653
O O9 0.685094 0.549084 0.039688
O O10 0.019709 0.050637 0.170800
O O11 0.426048 0.261583 0.722557
O O12 0.000000 0.500000 0.500000
#
# Coordination Sequence:
#
# PCOD9068697 Si02
#       6
#     1   2   2   2   2   2
#     4  12  30  50  84 128 170 220 288 348 426 514
#     4  12  26  52  83 123 173 219 276 357 430 502
#     4  11  27  55  87 123 171 229 280 356 427 510
#     4  11  27  54  89 120 170 225 288 352 425 506
#     4  12  27  53  86 124 174 222 282 353 433 504
#     4  12  30  50  86 128 166 221 288 355 422 512
#
# _framework density 27.543790999999999
#
# number of rings (size 3 to 8) (size 9 to 14) (size 15 to 20)
#    0.000    0.364    5.455    0.000    7.636    5.091 
#    0.000    0.000    0.000    0.000    0.000    0.000 
#    0.000    0.000    0.000    0.000    0.000    0.000 
#
# Total GULP energy -61440.652900 kJ/mol
# GULP energy per Si atom -5585.513900 kJ/mol
# Density = 2.748110 g / cm^3
# Si number density = 27.543791 Si / 1000 Ang^3
#
#
#
# Elastic Constant Matrix: (Units=GPa)
#
#
# Indices 1 2 3 4 5 6 
#
# 1 152.5442 65.3127 62.2683 -7.1019 53.4625 -7.8832
# 2 65.3127 176.4738 51.5676 23.9988 10.9075 -3.5349
# 3 62.2683 51.5676 142.1383 24.1935 54.4784 6.5944
# 4 -7.1019 23.9988 24.1935 52.5720 0.8747 9.3642
# 5 53.4625 10.9075 54.4784 0.8747 65.9309 2.5583
# 6 -7.8832 -3.5349 6.5944 9.3642 2.5583 48.0570
#
#
#
# Elastic Compliance Matrix: (Units=1/GPa)
#
#
# Indices 1 2 3 4 5 6 
#
# 1 0.011891 -0.003988 -0.001499 0.003979 -0.007855 0.001506
# 2 -0.003988 0.007978 -0.001947 -0.003466 0.003542 0.000686
# 3 -0.001499 -0.001947 0.012634 -0.004856 -0.008811 -0.000708
# 4 0.003979 -0.003466 -0.004856 0.024011 0.001183 -0.003678
# 5 -0.007855 0.003542 -0.008811 0.001183 0.028276 -0.001555
# 6 0.001506 0.000686 -0.000708 -0.003678 -0.001555 0.022003
#
#
# Mechanical properties :
#
#
# Convention : Reuss Voigt Hill
#
# Bulk Modulus (GPa) = 56.70294 92.16152 74.43223
# Shear Modulus (GPa) = 39.20392 52.77914 45.99153
#
# Velocity S-wave (km/s) = 3.77680 4.38218 4.09070
# Velocity P-wave (km/s) = 6.29683 7.69008 7.02807
#
# Compressibility (1/GPa) = 0.01763577
#
# Stress axis : x y z
#
# Youngs Moduli (GPa) = 84.09723 125.35079 79.14960
#
# Poissons Ratio (x) = 0.49995 0.11862
# Poissons Ratio (y) = 0.33541 0.15407
# Poissons Ratio (z) = 0.12603 0.24400
#
# Static dielectric constant tensor:
#      x y z
#    x 2.168240 0.001780 -0.056700 
#    y 0.001780 2.134560 0.008820 
#    z -0.056700 0.008820 2.202720 
# 
# From -- ./inp_files/63447.got.cif
#   From: 2010.05.17/outbox.cif.g08.bks.cpg/sg2_32_cif.got.tgz:63447.got - 2010.06.03 11:33:40.
