data_PCOD9068830
_publ_section_title
;
Structure prediction by ZEFSAII (Michael W. Deem and Ramdas Pophale) SiO2 
 PCOD9068830
Probable space group: P -1
;
_chemical_formula_sum "Si O2"
_cell_formula_units_Z 13
_cell_length_a 15.839731
_cell_length_b 9.479135
_cell_length_c 12.713957
_cell_angle_alpha 128.876829
_cell_angle_beta 152.595920
_cell_angle_gamma 40.275330
_cell_volume 560.022594
_symmetry_space_group_name_H-M "P -1"
_symmetry_group_IT_number 2
_symmetry_cell_setting 'triclinic'
loop_
_space_group_symop_operation_xyz
x,y,z
-x,-y,-z
loop_
_atom_site_type_symbol
_atom_site_label
_atom_site_fract_x
_atom_site_fract_y
_atom_site_fract_z
Si Si1 0.322754 0.725657 0.850367
Si Si2 0.500000 0.000000 0.500000
Si Si3 0.978119 0.537154 0.115882
Si Si4 0.456071 0.047205 0.221418
Si Si5 0.112282 0.743610 0.985531
Si Si6 0.969576 0.732254 0.589464
Si Si7 0.412097 0.474735 0.626685
O O1 0.383341 0.650082 0.762189
O O2 0.083131 0.779612 0.643512
O O3 0.500000 0.500000 0.000000
O O4 0.363202 0.901465 0.021032
O O5 0.461147 0.080059 0.368391
O O6 0.518541 0.770443 0.375957
O O7 0.029680 0.326499 0.141040
O O8 0.158215 0.588568 0.362778
O O9 0.000000 0.500000 0.000000
O O10 0.718474 0.730789 0.932170
O O11 0.709123 0.921816 0.403563
O O12 0.091181 0.714617 0.825177
O O13 0.371631 0.597516 0.237520
O O14 0.000000 0.000000 0.000000
O O15 0.000000 0.500000 0.500000
#
# Coordination Sequence:
#
# PCOD9068830 Si02
#       7
#     2   1   2   2   2   2   2
#     4  12  23  43  74 104 137 187 245 291 353 426
#     4  12  20  44  74 102 140 190 238 296 352 422
#     4  12  29  46  70 107 154 187 231 305 372 421
#     4  12  26  44  71 106 144 191 240 296 360 427
#     4  12  27  45  76 108 138 191 246 294 358 434
#     4  12  23  43  74 105 141 185 246 294 347 429
#     4  12  24  47  72 102 146 188 243 294 359 432
#
# _framework density 23.213349999999998
#
# number of rings (size 3 to 8) (size 9 to 14) (size 15 to 20)
#    0.000    0.000    6.154    3.692    2.154    2.462 
#    0.000    5.385    0.000    0.000    0.000    0.000 
#    0.000    0.000    0.000    0.000    0.000    0.000 
#
# Total GULP energy -72444.116341 kJ/mol
# GULP energy per Si atom -5572.624334 kJ/mol
# Density = 2.316051 g / cm^3
# Si number density = 23.213350 Si / 1000 Ang^3
#
#
#
# Elastic Constant Matrix: (Units=GPa)
#
#
# Indices 1 2 3 4 5 6 
#
# 1 69.7507 24.5389 28.1625 11.0283 29.3899 -25.0949
# 2 24.5389 92.0942 34.9179 16.2909 0.3224 -8.8753
# 3 28.1625 34.9179 118.4025 1.5987 22.1650 -19.2017
# 4 11.0283 16.2909 1.5987 44.5847 -17.9874 8.0139
# 5 29.3899 0.3224 22.1650 -17.9874 51.8116 1.4729
# 6 -25.0949 -8.8753 -19.2017 8.0139 1.4729 32.6825
#
#
#
# Elastic Compliance Matrix: (Units=1/GPa)
#
#
# Indices 1 2 3 4 5 6 
#
# 1 0.111949 -0.008264 0.015985 -0.088933 -0.104565 0.119626
# 2 -0.008264 0.013995 -0.004396 0.000914 0.006959 -0.005665
# 3 0.015985 -0.004396 0.014035 -0.015742 -0.021196 0.024142
# 4 -0.088933 0.000914 -0.015742 0.102489 0.095791 -0.106734
# 5 -0.104565 0.006959 -0.021196 0.095791 0.124305 -0.119943
# 6 0.119626 -0.005665 0.024142 -0.106734 -0.119943 0.166673
#
#
# Mechanical properties :
#
#
# Convention : Reuss Voigt Hill
#
# Bulk Modulus (GPa) = 6.81983 50.60957 28.71470
# Shear Modulus (GPa) = 8.68550 38.65764 23.67157
#
# Velocity S-wave (km/s) = 1.93642 4.08526 3.19680
# Velocity P-wave (km/s) = 2.81849 6.64091 5.10126
#
# Compressibility (1/GPa) = 0.14663119
#
# Stress axis : x y z
#
# Youngs Moduli (GPa) = 8.93260 71.45420 71.24794
#
# Poissons Ratio (x) = 0.59050 -1.13891
# Poissons Ratio (y) = 0.07382 0.31317
# Poissons Ratio (z) = -0.14279 0.31408
#
# Static dielectric constant tensor:
#      x y z
#    x 1.846830 -0.067170 0.043750 
#    y -0.067170 2.006570 -0.009140 
#    z 0.043750 -0.009140 2.036200 
# 
# From -- ./inp_files/448265.got.cif
#   From: 2010.05.17/outbox.cif.g08.bks.cpg/sg2_225_cif.got.tgz:448265.got - 2010.06.03 11:33:40.
