data_PCOD9068395
_publ_section_title
;
Structure prediction by ZEFSAII (Michael W. Deem and Ramdas Pophale) SiO2 
 PCOD9068395
Probable space group: P -1
;
_chemical_formula_sum "Si O2"
_cell_formula_units_Z 14
_cell_length_a 5.040388
_cell_length_b 12.766162
_cell_length_c 11.756498
_cell_angle_alpha 133.299736
_cell_angle_beta 71.632225
_cell_angle_gamma 99.237806
_cell_volume 520.810870
_symmetry_space_group_name_H-M "P -1"
_symmetry_group_IT_number 2
_symmetry_cell_setting 'triclinic'
loop_
_space_group_symop_operation_xyz
x,y,z
-x,-y,-z
loop_
_atom_site_type_symbol
_atom_site_label
_atom_site_fract_x
_atom_site_fract_y
_atom_site_fract_z
Si Si1 0.657457 0.011705 0.112589
Si Si2 0.661104 0.615803 0.676276
Si Si3 0.037892 0.733630 0.902731
Si Si4 0.623431 0.020900 0.629737
Si Si5 0.189433 0.471013 0.059375
Si Si6 0.177891 0.712193 0.579281
Si Si7 0.116144 0.768642 0.384671
O O1 0.483320 0.971753 0.219339
O O2 0.928880 0.897841 0.010845
O O3 0.262927 0.828352 0.745232
O O4 0.500000 0.000000 0.000000
O O5 0.368514 0.684633 0.818285
O O6 0.664602 0.443775 0.532058
O O7 0.889023 0.637936 0.759552
O O8 0.841499 0.692191 0.611111
O O9 0.886010 0.683287 0.999106
O O10 0.723085 0.180208 0.709468
O O11 0.500000 0.000000 0.500000
O O12 0.855552 0.886426 0.507485
O O13 0.079433 0.599996 0.255271
O O14 0.500000 0.500000 0.000000
O O15 0.000000 0.500000 0.000000
O O16 0.258101 0.775983 0.494857
#
# Coordination Sequence:
#
# PCOD9068395 Si02
#       7
#     2   2   2   2   2   2   2
#     4  12  31  55  91 133 182 235 297 383 459 531
#     4  11  29  55  85 126 170 239 294 367 440 553
#     4  12  29  54  84 128 179 226 301 371 456 528
#     4  11  26  51  85 121 170 225 298 357 445 539
#     4  12  28  49  85 125 175 226 293 367 452 527
#     4  11  27  55  88 124 179 233 305 362 454 542
#     4  11  26  49  84 124 163 237 294 364 437 544
#
# _framework density 26.881160999999999
#
# number of rings (size 3 to 8) (size 9 to 14) (size 15 to 20)
#    0.000    0.571    2.857    1.714   10.000    4.571 
#    0.000    0.000    0.000    0.000    0.000    0.000 
#    0.000    0.000    0.000    0.000    0.000    0.000 
#
# Total GULP energy -78198.525659 kJ/mol
# GULP energy per Si atom -5585.608976 kJ/mol
# Density = 2.681998 g / cm^3
# Si number density = 26.881161 Si / 1000 Ang^3
#
#
#
# Elastic Constant Matrix: (Units=GPa)
#
#
# Indices 1 2 3 4 5 6 
#
# 1 157.7881 69.7790 54.2824 -0.7479 -16.2032 3.4022
# 2 69.7790 219.5434 51.0849 0.7505 -12.3702 -1.2230
# 3 54.2824 51.0849 126.6598 1.3702 2.9387 -4.7211
# 4 -0.7479 0.7505 1.3702 67.2251 1.2345 -2.3844
# 5 -16.2032 -12.3702 2.9387 1.2345 56.9028 -5.7551
# 6 3.4022 -1.2230 -4.7211 -2.3844 -5.7551 39.7982
#
#
#
# Elastic Compliance Matrix: (Units=1/GPa)
#
#
# Indices 1 2 3 4 5 6 
#
# 1 0.008403 -0.001880 -0.002922 0.000107 0.002050 -0.000820
# 2 -0.001880 0.005531 -0.001432 -0.000058 0.000769 0.000269
# 3 -0.002922 -0.001432 0.009805 -0.000148 -0.001531 0.001139
# 4 0.000107 -0.000058 -0.000148 0.014914 -0.000214 0.000834
# 5 0.002050 0.000769 -0.001531 -0.000214 0.018646 0.002350
# 6 -0.000820 0.000269 0.001139 0.000834 0.002350 0.025730
#
#
# Mechanical properties :
#
#
# Convention : Reuss Voigt Hill
#
# Bulk Modulus (GPa) = 88.73570 94.92044 91.82807
# Shear Modulus (GPa) = 50.37568 54.70823 52.54195
#
# Velocity S-wave (km/s) = 4.33369 4.51620 4.42588
# Velocity P-wave (km/s) = 7.62385 7.91091 7.76871
#
# Compressibility (1/GPa) = 0.01126942
#
# Stress axis : x y z
#
# Youngs Moduli (GPa) = 119.00340 180.80543 101.99195
#
# Poissons Ratio (x) = 0.33997 0.29804
# Poissons Ratio (y) = 0.22376 0.14606
# Poissons Ratio (z) = 0.34775 0.25893
#
# Static dielectric constant tensor:
#      x y z
#    x 1.848530 0.029450 -0.306280 
#    y 0.029450 2.223940 -0.219940 
#    z -0.306280 -0.219940 1.981480 
# 
# From -- ./inp_files/365837.got.cif
#   From: 2010.05.17/outbox.cif.g08.bks.cpg/sg2_183_cif.got.tgz:365837.got - 2010.06.03 11:33:40.
