data_PCOD9068591
_publ_section_title
;
Structure prediction by ZEFSAII (Michael W. Deem and Ramdas Pophale) SiO2 
 PCOD9068591
Probable space group: P -1
;
_chemical_formula_sum "Si O2"
_cell_formula_units_Z 14
_cell_length_a 12.190820
_cell_length_b 11.048609
_cell_length_c 11.916930
_cell_angle_alpha 61.979979
_cell_angle_beta 156.227222
_cell_angle_gamma 119.143468
_cell_volume 563.798158
_symmetry_space_group_name_H-M "P -1"
_symmetry_group_IT_number 2
_symmetry_cell_setting 'triclinic'
loop_
_space_group_symop_operation_xyz
x,y,z
-x,-y,-z
loop_
_atom_site_type_symbol
_atom_site_label
_atom_site_fract_x
_atom_site_fract_y
_atom_site_fract_z
Si Si1 0.278668 0.458846 0.181760
Si Si2 0.461531 0.759658 0.776731
Si Si3 0.124748 0.315802 0.640701
Si Si4 0.292432 0.098530 0.721455
Si Si5 0.727230 0.026141 0.797505
Si Si6 0.181139 0.562431 0.423428
Si Si7 0.543665 0.261779 0.666390
O O1 0.067010 0.424451 0.897298
O O2 0.751442 0.397115 0.847199
O O3 0.585975 0.498328 0.400702
O O4 0.320879 0.330484 0.356138
O O5 0.644945 0.907991 0.865815
O O6 0.340935 0.700408 0.570568
O O7 0.182354 0.760309 0.584813
O O8 0.669383 0.667324 0.067622
O O9 0.271635 0.223721 0.732930
O O10 0.092108 0.458052 0.487386
O O11 0.393345 0.166652 0.666702
O O12 0.000000 0.000000 0.500000
O O13 0.500000 0.000000 0.000000
O O14 0.500000 0.000000 0.500000
O O15 0.703701 0.169259 0.775918
O O16 0.000000 0.000000 0.000000
#
# Coordination Sequence:
#
# PCOD9068591 Si02
#       7
#     2   2   2   2   2   2   2
#     4  11  27  47  79 115 155 207 255 325 381 464
#     4  12  26  47  76 112 153 206 250 322 386 452
#     4  12  24  46  73 113 154 201 258 309 384 460
#     4  12  27  46  76 111 157 203 255 316 380 465
#     4  12  28  50  78 110 150 200 259 319 387 461
#     4  12  25  48  75 116 155 200 262 309 388 458
#     4  11  27  51  78 115 159 202 261 317 394 455
#
# _framework density 24.831581
#
# number of rings (size 3 to 8) (size 9 to 14) (size 15 to 20)
#    0.000    0.286    1.429    6.857    2.000    9.143 
#    0.000    0.000    0.000    0.000    0.000    0.000 
#    0.000    0.000    0.000    0.000    0.000    0.000 
#
# Total GULP energy -78514.267022 kJ/mol
# GULP energy per Si atom -5608.161930 kJ/mol
# Density = 2.477506 g / cm^3
# Si number density = 24.831581 Si / 1000 Ang^3
#
#
#
# Elastic Constant Matrix: (Units=GPa)
#
#
# Indices 1 2 3 4 5 6 
#
# 1 155.0235 77.6445 74.0833 -15.0346 8.6142 6.6909
# 2 77.6445 159.1447 67.0417 -19.8165 -4.0136 12.4064
# 3 74.0833 67.0417 221.1217 -11.5078 -5.5541 20.5779
# 4 -15.0346 -19.8165 -11.5078 34.5575 0.0480 -3.4709
# 5 8.6142 -4.0136 -5.5541 0.0480 57.2985 -5.8261
# 6 6.6909 12.4064 20.5779 -3.4709 -5.8261 61.3322
#
#
#
# Elastic Compliance Matrix: (Units=1/GPa)
#
#
# Indices 1 2 3 4 5 6 
#
# 1 0.009499 -0.003659 -0.002076 0.001376 -0.001856 0.000302
# 2 -0.003659 0.009074 -0.001270 0.003113 0.000985 -0.000741
# 3 -0.002076 -0.001270 0.005755 0.000146 0.000641 -0.001378
# 4 0.001376 0.003113 0.000146 0.031466 0.000097 0.000961
# 5 -0.001856 0.000985 0.000641 0.000097 0.018016 0.001505
# 6 0.000302 -0.000741 -0.001378 0.000961 0.001505 0.017081
#
#
# Mechanical properties :
#
#
# Convention : Reuss Voigt Hill
#
# Bulk Modulus (GPa) = 96.91540 108.09207 102.50374
# Shear Modulus (GPa) = 46.15150 51.73900 48.94525
#
# Velocity S-wave (km/s) = 4.31580 4.56960 4.44451
# Velocity P-wave (km/s) = 7.99679 8.45377 8.22845
#
# Compressibility (1/GPa) = 0.01031828
#
# Stress axis : x y z
#
# Youngs Moduli (GPa) = 105.27525 110.20942 173.76501
#
# Poissons Ratio (x) = 0.40323 0.36078
# Poissons Ratio (y) = 0.38517 0.22061
# Poissons Ratio (z) = 0.21858 0.13992
#
# Static dielectric constant tensor:
#      x y z
#    x 2.024450 -0.025760 0.006230 
#    y -0.025760 2.012380 -0.019940 
#    z 0.006230 -0.019940 1.897480 
# 
# From -- ./inp_files/433882.got.cif
#   From: 2010.05.17/outbox.cif.g08.bks.cpg/sg2_217_cif.got.tgz:433882.got - 2010.06.03 11:33:40.
