data_PCOD9068088
_publ_section_title
;
Structure prediction by ZEFSAII (Michael W. Deem and Ramdas Pophale) SiO2 
 PCOD9068088
Probable space group: P -1
;
_chemical_formula_sum "Si O2"
_cell_formula_units_Z 12
_cell_length_a 8.883320
_cell_length_b 15.326074
_cell_length_c 5.342915
_cell_angle_alpha 77.251567
_cell_angle_beta 70.811617
_cell_angle_gamma 126.942780
_cell_volume 457.102152
_symmetry_space_group_name_H-M "P -1"
_symmetry_group_IT_number 2
_symmetry_cell_setting 'triclinic'
loop_
_space_group_symop_operation_xyz
x,y,z
-x,-y,-z
loop_
_atom_site_type_symbol
_atom_site_label
_atom_site_fract_x
_atom_site_fract_y
_atom_site_fract_z
Si Si1 0.968315 0.823785 0.535190
Si Si2 0.171370 0.757685 0.179841
Si Si3 0.342074 0.212852 0.647861
Si Si4 0.865200 0.416659 0.371672
Si Si5 0.610291 0.945612 0.504497
Si Si6 0.746211 0.636773 0.175124
O O1 0.777473 0.813581 0.537013
O O2 0.946275 0.659958 0.183358
O O3 0.807387 0.675338 0.825729
O O4 0.152736 0.944269 0.542527
O O5 0.146180 0.849834 0.222887
O O6 0.162362 0.699025 0.477811
O O7 0.399232 0.817936 0.868798
O O8 0.606128 0.342676 0.499195
O O9 0.333383 0.101134 0.721288
O O10 0.224073 0.245985 0.841800
O O11 0.000000 0.500000 0.500000
O O12 0.000000 0.500000 0.000000
O O13 0.500000 0.000000 0.500000
O O14 0.500000 0.500000 0.500000
#
# Coordination Sequence:
#
# PCOD9068088 Si02
#       6
#     2   2   2   2   2   2
#     4  11  26  48  74 112 158 211 261 330 405 474
#     4  11  26  47  75 111 151 210 271 325 404 468
#     4  11  28  45  75 115 151 207 265 331 402 473
#     4  12  28  48  79 114 160 209 269 336 403 485
#     4  12  24  51  79 113 160 210 275 329 396 479
#     4  11  26  47  75 109 158 204 265 327 404 481
#
# _framework density 26.25234
#
# number of rings (size 3 to 8) (size 9 to 14) (size 15 to 20)
#    0.000    0.667    1.667    4.000   11.667    2.000 
#    0.000    0.000    0.000    0.000    0.000    0.000 
#    0.000    0.000    0.000    0.000    0.000    0.000 
#
# Total GULP energy -66916.065791 kJ/mol
# GULP energy per Si atom -5576.338816 kJ/mol
# Density = 2.619259 g / cm^3
# Si number density = 26.252340 Si / 1000 Ang^3
#
#
#
# Elastic Constant Matrix: (Units=GPa)
#
#
# Indices 1 2 3 4 5 6 
#
# 1 196.7689 45.8124 62.8226 -9.9913 0.4470 25.0083
# 2 45.8124 118.1229 13.7069 -4.0831 -18.0308 22.7743
# 3 62.8226 13.7069 99.5433 -18.7104 -0.2535 7.6592
# 4 -9.9913 -4.0831 -18.7104 27.8755 4.3969 -13.4948
# 5 0.4470 -18.0308 -0.2535 4.3969 39.4844 -1.7906
# 6 25.0083 22.7743 7.6592 -13.4948 -1.7906 70.0274
#
#
#
# Elastic Compliance Matrix: (Units=1/GPa)
#
#
# Indices 1 2 3 4 5 6 
#
# 1 0.007100 -0.002136 -0.004306 -0.001295 -0.001014 -0.001645
# 2 -0.002136 0.010546 -0.000148 -0.001447 0.004873 -0.002805
# 3 -0.004306 -0.000148 0.014347 0.009041 -0.000855 0.001737
# 4 -0.001295 -0.001447 0.009041 0.046340 -0.005352 0.008737
# 5 -0.001014 0.004873 -0.000855 -0.005352 0.028088 -0.001442
# 6 -0.001645 -0.002805 0.001737 0.008737 -0.001442 0.017237
#
#
# Mechanical properties :
#
#
# Convention : Reuss Voigt Hill
#
# Bulk Modulus (GPa) = 53.15371 73.23544 63.19458
# Shear Modulus (GPa) = 34.93825 46.95032 40.94429
#
# Velocity S-wave (km/s) = 3.65206 4.23356 3.95352
# Velocity P-wave (km/s) = 6.17046 7.20102 6.70557
#
# Compressibility (1/GPa) = 0.01881336
#
# Stress axis : x y z
#
# Youngs Moduli (GPa) = 140.84636 94.82240 69.69943
#
# Poissons Ratio (x) = 0.20257 0.30013
# Poissons Ratio (y) = 0.30088 0.01029
# Poissons Ratio (z) = 0.60649 0.01400
#
# Static dielectric constant tensor:
#      x y z
#    x 3.219150 0.321060 -0.267270 
#    y 0.321060 2.342360 -0.021200 
#    z -0.267270 -0.021200 2.405960 
# 
# From -- ./inp_files/43702.got.cif
#   From: 2010.05.17/outbox.cif.g08.bks.cpg/sg2_22_cif.got.tgz:43702.got - 2010.06.03 11:33:40.
