data_PCOD9068501
_publ_section_title
;
Structure prediction by ZEFSAII (Michael W. Deem and Ramdas Pophale) SiO2 
 PCOD9068501
Probable space group: P -1
;
_chemical_formula_sum "Si O2"
_cell_formula_units_Z 12
_cell_length_a 6.951501
_cell_length_b 11.860861
_cell_length_c 11.155851
_cell_angle_alpha 35.854012
_cell_angle_beta 80.160436
_cell_angle_gamma 94.563902
_cell_volume 491.467911
_symmetry_space_group_name_H-M "P -1"
_symmetry_group_IT_number 2
_symmetry_cell_setting 'triclinic'
loop_
_space_group_symop_operation_xyz
x,y,z
-x,-y,-z
loop_
_atom_site_type_symbol
_atom_site_label
_atom_site_fract_x
_atom_site_fract_y
_atom_site_fract_z
Si Si1 0.038871 0.290626 0.637423
Si Si2 0.699818 0.404203 0.222136
Si Si3 0.411562 0.018938 0.122174
Si Si4 0.334830 0.385787 0.722988
Si Si5 0.305594 0.111762 0.609598
Si Si6 0.000254 0.197443 0.258752
O O1 0.126496 0.240736 0.798097
O O2 0.214719 0.271079 0.544050
O O3 0.000000 0.500000 0.500000
O O4 0.828036 0.138490 0.728151
O O5 0.718039 0.463802 0.309813
O O6 0.461643 0.240016 0.376743
O O7 0.858453 0.295094 0.262592
O O8 0.780437 0.617346 0.954769
O O9 0.551489 0.964834 0.251677
O O10 0.500000 0.000000 0.000000
O O11 0.420342 0.252170 0.916351
O O12 0.500000 0.500000 0.500000
O O13 0.119483 0.905509 0.761832
O O14 0.000000 0.000000 0.500000
#
# Coordination Sequence:
#
# PCOD9068501 Si02
#       6
#     2   2   2   2   2   2
#     4  12  26  44  75 114 159 201 254 319 398 476
#     4  11  26  52  79 114 157 200 273 324 395 469
#     4  12  26  45  74 113 164 206 253 320 395 481
#     4  12  24  49  75 118 155 204 255 320 404 474
#     4  12  27  52  79 115 159 209 264 329 399 470
#     4  11  29  54  82 113 153 213 276 330 389 465
#
# _framework density 24.416650000000001
#
# number of rings (size 3 to 8) (size 9 to 14) (size 15 to 20)
#    0.000    0.333    3.333    4.000    9.333    0.667 
#    9.000    0.000    0.000    0.000    0.000    0.000 
#    0.000    0.000    0.000    0.000    0.000    0.000 
#
# Total GULP energy -67091.877147 kJ/mol
# GULP energy per Si atom -5590.989762 kJ/mol
# Density = 2.436108 g / cm^3
# Si number density = 24.416650 Si / 1000 Ang^3
#
#
#
# Elastic Constant Matrix: (Units=GPa)
#
#
# Indices 1 2 3 4 5 6 
#
# 1 115.0556 21.3559 61.4472 1.4985 19.1640 -3.5865
# 2 21.3559 122.8783 23.8402 -5.6940 10.5171 -34.7792
# 3 61.4472 23.8402 146.3888 -12.3922 23.2935 -18.4076
# 4 1.4985 -5.6940 -12.3922 32.4725 -4.0801 -6.3274
# 5 19.1640 10.5171 23.2935 -4.0801 36.2226 0.2928
# 6 -3.5865 -34.7792 -18.4076 -6.3274 0.2928 50.2739
#
#
#
# Elastic Compliance Matrix: (Units=1/GPa)
#
#
# Indices 1 2 3 4 5 6 
#
# 1 0.012157 -0.001802 -0.004957 -0.003674 -0.003114 -0.002638
# 2 -0.001802 0.011006 0.000668 0.003571 -0.002336 0.008193
# 3 -0.004957 0.000668 0.010366 0.004712 -0.003743 0.004519
# 4 -0.003674 0.003571 0.004712 0.035241 0.001779 0.008359
# 5 -0.003114 -0.002336 -0.003743 0.001779 0.032566 -0.003174
# 6 -0.002638 0.008193 0.004519 0.008359 -0.003174 0.028096
#
#
# Mechanical properties :
#
#
# Convention : Reuss Voigt Hill
#
# Bulk Modulus (GPa) = 46.84298 66.40103 56.62200
# Shear Modulus (GPa) = 33.61816 42.30578 37.96197
#
# Velocity S-wave (km/s) = 3.71462 4.16704 3.94732
# Velocity P-wave (km/s) = 6.13387 7.09974 6.63441
#
# Compressibility (1/GPa) = 0.02134792
#
# Stress axis : x y z
#
# Youngs Moduli (GPa) = 82.25385 90.85971 96.47173
#
# Poissons Ratio (x) = 0.16370 0.47821
# Poissons Ratio (y) = 0.14820 -0.06445
# Poissons Ratio (z) = 0.40774 -0.06070
#
# Static dielectric constant tensor:
#      x y z
#    x 0.895310 0.422810 0.231020 
#    y 0.422810 1.746950 -0.087830 
#    z 0.231020 -0.087830 1.839990 
# 
# From -- ./inp_files/484064.got.cif
#   From: 2010.05.17/outbox.cif.g08.bks.cpg/sg2_243_cif.got.tgz:484064.got - 2010.06.03 11:33:40.
