data_PCOD9068319
_publ_section_title
;
Structure prediction by ZEFSAII (Michael W. Deem and Ramdas Pophale) SiO2 
 PCOD9068319
Probable space group: P -1
;
_chemical_formula_sum "Si O2"
_cell_formula_units_Z 14
_cell_length_a 8.728272
_cell_length_b 14.412118
_cell_length_c 14.379054
_cell_angle_alpha 148.035912
_cell_angle_beta 38.418227
_cell_angle_gamma 140.980367
_cell_volume 559.319045
_symmetry_space_group_name_H-M "P -1"
_symmetry_group_IT_number 2
_symmetry_cell_setting 'triclinic'
loop_
_space_group_symop_operation_xyz
x,y,z
-x,-y,-z
loop_
_atom_site_type_symbol
_atom_site_label
_atom_site_fract_x
_atom_site_fract_y
_atom_site_fract_z
Si Si1 0.182804 0.894441 0.786486
Si Si2 0.876064 0.795824 0.334090
Si Si3 0.512017 0.434443 0.831982
Si Si4 0.325224 0.221774 0.275520
Si Si5 0.428502 0.764801 0.033211
Si Si6 0.610479 0.357443 0.427429
Si Si7 0.786948 0.149744 0.475447
O O1 0.174208 0.703893 0.674202
O O2 0.127061 0.868180 0.684574
O O3 0.468747 0.043430 0.794170
O O4 0.000000 0.000000 0.000000
O O5 0.716163 0.733168 0.257465
O O6 0.645475 0.686955 0.423427
O O7 0.117082 0.717600 0.142272
O O8 0.000000 0.000000 0.500000
O O9 0.740423 0.346219 0.663823
O O10 0.500000 0.500000 0.000000
O O11 0.523757 0.611758 0.911676
O O12 0.540152 0.235196 0.263337
O O13 0.309761 0.428335 0.451678
O O14 0.041659 0.118617 0.372944
O O15 0.441008 0.191560 0.094718
O O16 0.500000 0.000000 0.500000
#
# Coordination Sequence:
#
# PCOD9068319 Si02
#       7
#     2   2   2   2   2   2   2
#     4  12  25  47  74 109 153 197 251 323 390 458
#     4  12  25  49  79 106 154 203 258 315 385 464
#     4  12  28  46  78 116 150 202 261 322 380 459
#     4  11  27  46  75 106 149 199 257 320 385 458
#     4  12  25  48  72 112 151 202 255 314 387 461
#     4  11  26  49  73 108 147 204 255 315 387 459
#     4  12  27  49  72 108 152 200 257 319 392 455
#
# _framework density 25.030438
#
# number of rings (size 3 to 8) (size 9 to 14) (size 15 to 20)
#    0.000    0.286    5.714    1.286    8.000    2.857 
#    2.571    0.000    0.000    0.000    0.000    0.000 
#    0.000    0.000    0.000    0.000    0.000    0.000 
#
# Total GULP energy -78068.730901 kJ/mol
# GULP energy per Si atom -5576.337921 kJ/mol
# Density = 2.497347 g / cm^3
# Si number density = 25.030438 Si / 1000 Ang^3
#
#
#
# Elastic Constant Matrix: (Units=GPa)
#
#
# Indices 1 2 3 4 5 6 
#
# 1 80.5579 5.9567 14.9282 -18.1950 23.0491 2.5261
# 2 5.9567 99.3363 25.0498 0.0228 -1.1287 4.6708
# 3 14.9282 25.0498 120.8647 -27.2919 12.5289 1.5782
# 4 -18.1950 0.0228 -27.2919 50.7260 7.8046 -1.2906
# 5 23.0491 -1.1287 12.5289 7.8046 54.1206 2.2546
# 6 2.5261 4.6708 1.5782 -1.2906 2.2546 28.8675
#
#
#
# Elastic Compliance Matrix: (Units=1/GPa)
#
#
# Indices 1 2 3 4 5 6 
#
# 1 0.016465 -0.001276 0.000817 0.007618 -0.008314 -0.000289
# 2 -0.001276 0.010952 -0.002796 -0.002292 0.001822 -0.001752
# 3 0.000817 -0.002796 0.010640 0.006620 -0.003840 0.000395
# 4 0.007618 -0.002292 0.006620 0.027399 -0.008828 0.001257
# 5 -0.008314 0.001822 -0.003840 -0.008828 0.024287 -0.001649
# 6 -0.000289 -0.001752 0.000395 0.001257 -0.001649 0.035113
#
#
# Mechanical properties :
#
#
# Convention : Reuss Voigt Hill
#
# Bulk Modulus (GPa) = 31.69910 43.62537 37.66224
# Shear Modulus (GPa) = 35.24064 43.73110 39.48587
#
# Velocity S-wave (km/s) = 3.75629 4.18439 3.97610
# Velocity P-wave (km/s) = 5.61290 6.38845 6.01319
#
# Compressibility (1/GPa) = 0.03154663
#
# Stress axis : x y z
#
# Youngs Moduli (GPa) = 60.73522 91.30779 93.98515
#
# Poissons Ratio (x) = 0.11650 -0.07674
# Poissons Ratio (y) = 0.07749 0.26276
# Poissons Ratio (z) = -0.04959 0.25528
#
# Static dielectric constant tensor:
#      x y z
#    x 1.314500 -0.010930 0.150160 
#    y -0.010930 2.070600 0.065890 
#    z 0.150160 0.065890 1.835290 
# 
# From -- ./inp_files/189867.got.cif
#   From: 2010.05.17/outbox.cif.g08.bks.cpg/sg2_95_cif.got.tgz:189867.got - 2010.06.03 11:33:40.
