data_PCOD9068030
_publ_section_title
;
Structure prediction by ZEFSAII (Michael W. Deem and Ramdas Pophale) SiO2 
 PCOD9068030
Probable space group: P -1
;
_chemical_formula_sum "Si O2"
_cell_formula_units_Z 12
_cell_length_a 5.208985
_cell_length_b 18.708896
_cell_length_c 10.246607
_cell_angle_alpha 35.476874
_cell_angle_beta 95.051945
_cell_angle_gamma 79.644241
_cell_volume 519.821248
_symmetry_space_group_name_H-M "P -1"
_symmetry_group_IT_number 2
_symmetry_cell_setting 'triclinic'
loop_
_space_group_symop_operation_xyz
x,y,z
-x,-y,-z
loop_
_atom_site_type_symbol
_atom_site_label
_atom_site_fract_x
_atom_site_fract_y
_atom_site_fract_z
Si Si1 0.570591 0.094971 0.509052
Si Si2 0.793292 0.657045 0.722479
Si Si3 0.693911 0.547250 0.347594
Si Si4 0.231355 0.669323 0.529808
Si Si5 0.645046 0.132107 0.186154
Si Si6 0.986961 0.933047 0.963068
O O1 0.314653 0.244008 0.303290
O O2 0.750619 0.117555 0.363820
O O3 0.525570 0.959926 0.678489
O O4 0.687106 0.048423 0.728648
O O5 0.522585 0.662315 0.617248
O O6 0.988180 0.708291 0.570045
O O7 0.000000 0.500000 0.000000
O O8 0.500000 0.500000 0.500000
O O9 0.714387 0.475078 0.316715
O O10 0.000000 0.500000 0.500000
O O11 0.550524 0.709528 0.083554
O O12 0.090955 0.777075 0.245049
O O13 0.839832 0.080231 0.143734
O O14 0.000000 0.000000 0.000000
#
# Coordination Sequence:
#
# PCOD9068030 Si02
#       6
#     2   2   2   2   2   2
#     4  11  26  47  73 108 152 199 254 311 385 451
#     4  12  27  50  75 110 153 201 252 314 380 455
#     4  12  25  46  75 109 154 198 250 311 377 451
#     4  12  26  46  78 111 148 199 259 311 377 449
#     4  11  26  47  71 109 150 202 250 315 378 455
#     4  12  24  44  74 106 148 190 250 312 373 445
#
# _framework density 23.084858000000001
#
# number of rings (size 3 to 8) (size 9 to 14) (size 15 to 20)
#    0.000    0.333    3.333    5.000    2.333    1.333 
#    3.000    0.000    0.000    0.000    0.000    0.000 
#    0.000    0.000    0.000    0.000    0.000    0.000 
#
# Total GULP energy -66882.291100 kJ/mol
# GULP energy per Si atom -5573.524258 kJ/mol
# Density = 2.303232 g / cm^3
# Si number density = 23.084858 Si / 1000 Ang^3
#
#
#
# Elastic Constant Matrix: (Units=GPa)
#
#
# Indices 1 2 3 4 5 6 
#
# 1 90.8925 10.0352 39.6325 7.5360 -0.4067 -3.6713
# 2 10.0352 117.2796 45.3859 -16.1308 -6.2216 -6.7026
# 3 39.6325 45.3859 174.1437 -5.0712 -9.6330 1.5484
# 4 7.5360 -16.1308 -5.0712 62.9849 -5.8468 -5.6083
# 5 -0.4067 -6.2216 -9.6330 -5.8468 27.1598 10.0793
# 6 -3.6713 -6.7026 1.5484 -5.6083 10.0793 37.4977
#
#
#
# Elastic Compliance Matrix: (Units=1/GPa)
#
#
# Indices 1 2 3 4 5 6 
#
# 1 0.012524 -0.000182 -0.002973 -0.001821 -0.001875 0.001548
# 2 -0.000182 0.010036 -0.002441 0.002687 0.001292 0.001931
# 3 -0.002973 -0.002441 0.007230 0.000411 0.002674 -0.001683
# 4 -0.001821 0.002687 0.000411 0.017332 0.003774 0.001863
# 5 -0.001875 0.001292 0.002674 0.003774 0.042946 -0.011042
# 6 0.001548 0.001931 -0.001683 0.001863 -0.011042 0.030481
#
#
# Mechanical properties :
#
#
# Convention : Reuss Voigt Hill
#
# Bulk Modulus (GPa) = 53.77703 63.60254 58.68979
# Shear Modulus (GPa) = 36.24731 44.67929 40.46330
#
# Velocity S-wave (km/s) = 3.96684 4.40413 4.19120
# Velocity P-wave (km/s) = 6.65786 7.31254 6.99287
#
# Compressibility (1/GPa) = 0.01859530
#
# Stress axis : x y z
#
# Youngs Moduli (GPa) = 79.84889 99.64531 138.30952
#
# Poissons Ratio (x) = 0.01818 0.41122
# Poissons Ratio (y) = 0.01457 0.33767
# Poissons Ratio (z) = 0.23740 0.24328
#
# Static dielectric constant tensor:
#      x y z
#    x 1.923060 -0.056140 0.005790 
#    y -0.056140 1.952340 -0.132400 
#    z 0.005790 -0.132400 1.756310 
# 
# From -- ./inp_files/26208.got.cif
#   From: 2010.05.17/outbox.cif.g08.bks.cpg/sg2_14_cif.got.tgz:26208.got - 2010.06.03 11:33:40.
