data_PCOD9068429
_publ_section_title
;
Structure prediction by ZEFSAII (Michael W. Deem and Ramdas Pophale) SiO2 
 PCOD9068429
Probable space group: P -1
;
_chemical_formula_sum "Si O2"
_cell_formula_units_Z 12
_cell_length_a 5.219885
_cell_length_b 12.001467
_cell_length_c 15.081052
_cell_angle_alpha 28.754853
_cell_angle_beta 68.371377
_cell_angle_gamma 78.052766
_cell_volume 408.001346
_symmetry_space_group_name_H-M "P -1"
_symmetry_group_IT_number 2
_symmetry_cell_setting 'triclinic'
loop_
_space_group_symop_operation_xyz
x,y,z
-x,-y,-z
loop_
_atom_site_type_symbol
_atom_site_label
_atom_site_fract_x
_atom_site_fract_y
_atom_site_fract_z
Si Si1 0.000000 0.000000 0.500000
Si Si2 0.636408 0.112078 0.215035
Si Si3 0.564281 0.122643 0.766815
Si Si4 0.101663 0.300462 0.454974
Si Si5 0.500000 0.500000 0.000000
Si Si6 0.605436 0.703211 0.166639
Si Si7 0.156485 0.551757 0.831621
O O1 0.179424 0.826141 0.652327
O O2 0.928117 0.779620 0.586216
O O3 0.625780 0.064186 0.146035
O O4 0.743317 0.894384 0.388239
O O5 0.368259 0.177117 0.252849
O O6 0.825690 0.394092 0.005049
O O7 0.400919 0.269242 0.746381
O O8 0.806129 0.260124 0.573429
O O9 0.693297 0.966338 0.928756
O O10 0.287718 0.561431 0.276164
O O11 0.365627 0.470011 0.932416
O O12 0.779689 0.546116 0.203164
#
# Coordination Sequence:
#
# PCOD9068429 Si02
#       7
#     1   2   2   2   1   2   2
#     4  12  30  46  78 120 160 198 270 324 400 474
#     4  12  25  46  78 108 157 211 258 322 405 462
#     4  11  26  52  76 109 159 211 260 331 397 468
#     4  12  27  49  75 116 156 207 259 334 394 478
#     4  12  24  46  80 112 164 210 258 326 406 472
#     4  11  26  50  77 112 156 208 271 321 398 474
#     4  12  27  49  77 118 159 208 260 332 397 478
#
# _framework density 29.411670999999998
#
# number of rings (size 3 to 8) (size 9 to 14) (size 15 to 20)
#    0.000    0.333    5.000    2.000    4.667    2.000 
#    3.000    0.000    0.000    0.000    0.000    0.000 
#    0.000    0.000    0.000    0.000    0.000    0.000 
#
# Total GULP energy -67028.019444 kJ/mol
# GULP energy per Si atom -5585.668287 kJ/mol
# Density = 2.934473 g / cm^3
# Si number density = 29.411671 Si / 1000 Ang^3
#
#
#
# Elastic Constant Matrix: (Units=GPa)
#
#
# Indices 1 2 3 4 5 6 
#
# 1 111.7372 47.6495 37.4363 -9.1137 9.3558 -10.3485
# 2 47.6495 298.8831 28.0712 1.0129 -5.1326 -28.4799
# 3 37.4363 28.0712 136.1433 -11.0787 1.6380 -17.3390
# 4 -9.1137 1.0129 -11.0787 52.6986 -5.3745 0.1605
# 5 9.3558 -5.1326 1.6380 -5.3745 70.6191 -14.9560
# 6 -10.3485 -28.4799 -17.3390 0.1605 -14.9560 51.7335
#
#
#
# Elastic Compliance Matrix: (Units=1/GPa)
#
#
# Indices 1 2 3 4 5 6 
#
# 1 0.010636 -0.001481 -0.002494 0.001206 -0.001350 0.000082
# 2 -0.001481 0.003803 -0.000155 -0.000278 0.000879 0.002000
# 3 -0.002494 -0.000155 0.008485 0.001425 0.000755 0.002473
# 4 0.001206 -0.000278 0.001425 0.019637 0.001479 0.000932
# 5 -0.001350 0.000879 0.000755 0.001479 0.015548 0.004957
# 6 0.000082 0.002000 0.002473 0.000932 0.004957 0.022706
#
#
# Mechanical properties :
#
#
# Convention : Reuss Voigt Hill
#
# Bulk Modulus (GPa) = 68.20107 85.89751 77.04929
# Shear Modulus (GPa) = 53.21177 63.91735 58.56456
#
# Velocity S-wave (km/s) = 4.25809 4.66681 4.46713
# Velocity P-wave (km/s) = 6.88577 7.63594 7.27054
#
# Compressibility (1/GPa) = 0.01466253
#
# Stress axis : x y z
#
# Youngs Moduli (GPa) = 94.02289 262.94458 117.85513
#
# Poissons Ratio (x) = 0.38935 0.29398
# Poissons Ratio (y) = 0.13922 0.01832
# Poissons Ratio (z) = 0.23453 0.04088
#
# Static dielectric constant tensor:
#      x y z
#    x 2.423230 0.051690 0.172040 
#    y 0.051690 2.141000 0.007120 
#    z 0.172040 0.007120 1.907820 
# 
# From -- ./inp_files/78149.got.cif
#   From: 2010.05.17/outbox.cif.g08.bks.cpg/sg2_40_cif.got.tgz:78149.got - 2010.06.03 11:33:40.
