data_PCOD9068340
_publ_section_title
;
Structure prediction by ZEFSAII (Michael W. Deem and Ramdas Pophale) SiO2 
 PCOD9068340
Probable space group: P -1
;
_chemical_formula_sum "Si O2"
_cell_formula_units_Z 12
_cell_length_a 13.234903
_cell_length_b 11.360981
_cell_length_c 8.359137
_cell_angle_alpha 127.474144
_cell_angle_beta 104.517697
_cell_angle_gamma 119.574541
_cell_volume 522.571291
_symmetry_space_group_name_H-M "P -1"
_symmetry_group_IT_number 2
_symmetry_cell_setting 'triclinic'
loop_
_space_group_symop_operation_xyz
x,y,z
-x,-y,-z
loop_
_atom_site_type_symbol
_atom_site_label
_atom_site_fract_x
_atom_site_fract_y
_atom_site_fract_z
Si Si1 0.092196 0.552646 0.921122
Si Si2 0.519551 0.495288 0.806562
Si Si3 0.817577 0.696321 0.606651
Si Si4 0.454020 0.076341 0.304381
Si Si5 0.043443 0.918524 0.563135
Si Si6 0.752705 0.293687 0.396484
O O1 0.043032 0.326707 0.752525
O O2 0.955384 0.459969 0.652564
O O3 0.306984 0.838648 0.182451
O O4 0.000000 0.500000 0.000000
O O5 0.358987 0.403228 0.577583
O O6 0.502424 0.302739 0.574069
O O7 0.500000 0.500000 0.000000
O O8 0.728112 0.806570 0.093749
O O9 0.770810 0.485965 0.501859
O O10 0.907027 0.760301 0.528298
O O11 0.000000 0.000000 0.000000
O O12 0.631226 0.176278 0.415774
O O13 0.347809 0.928534 0.964549
O O14 0.000000 0.000000 0.500000
#
# Coordination Sequence:
#
# PCOD9068340 Si02
#       6
#     2   2   2   2   2   2
#     4  12  28  47  79 108 150 200 250 314 381 451
#     4  12  27  47  78 111 152 200 255 308 382 451
#     4  12  27  47  79 112 152 198 251 316 379 449
#     4  11  26  49  75 107 153 193 253 311 375 452
#     4  12  28  49  72 110 154 195 251 311 377 451
#     4  11  27  49  75 113 151 197 256 310 386 447
#
# _framework density 22.963376
#
# number of rings (size 3 to 8) (size 9 to 14) (size 15 to 20)
#    0.000    0.333    3.333    3.500   11.667    2.000 
#    0.000    0.000    0.000    0.000    0.000    0.000 
#    0.000    0.000    0.000    0.000    0.000    0.000 
#
# Total GULP energy -66921.624963 kJ/mol
# GULP energy per Si atom -5576.802080 kJ/mol
# Density = 2.291111 g / cm^3
# Si number density = 22.963376 Si / 1000 Ang^3
#
#
#
# Elastic Constant Matrix: (Units=GPa)
#
#
# Indices 1 2 3 4 5 6 
#
# 1 204.1043 40.4184 154.1048 27.5859 -4.0325 -18.0414
# 2 40.4184 93.4795 40.0245 27.3165 -7.8973 13.7923
# 3 154.1048 40.0245 210.7033 35.6415 -21.9019 -25.1981
# 4 27.5859 27.3165 35.6415 51.4334 6.8881 -0.6385
# 5 -4.0325 -7.8973 -21.9019 6.8881 72.2541 -4.7315
# 6 -18.0414 13.7923 -25.1981 -0.6385 -4.7315 58.7104
#
#
#
# Elastic Compliance Matrix: (Units=1/GPa)
#
#
# Indices 1 2 3 4 5 6 
#
# 1 0.011436 -0.001846 -0.008378 0.000947 -0.002181 0.000187
# 2 -0.001846 0.014412 -0.000613 -0.006510 0.001635 -0.004155
# 3 -0.008378 -0.000613 0.012509 -0.004329 0.003880 0.003204
# 4 0.000947 -0.006510 -0.004329 0.025987 -0.004456 -0.000114
# 5 -0.002181 0.001635 0.003880 -0.004456 0.015617 0.001821
# 6 0.000187 -0.004155 0.003204 -0.000114 0.001821 0.019587
#
#
# Mechanical properties :
#
#
# Convention : Reuss Voigt Hill
#
# Bulk Modulus (GPa) = 59.94613 108.59804 84.27209
# Shear Modulus (GPa) = 39.43751 54.72888 47.08320
#
# Velocity S-wave (km/s) = 4.14866 4.88721 4.53300
# Velocity P-wave (km/s) = 7.00787 8.90174 8.01097
#
# Compressibility (1/GPa) = 0.01668164
#
# Stress axis : x y z
#
# Youngs Moduli (GPa) = 87.44156 69.38807 79.94391
#
# Poissons Ratio (x) = 0.12809 0.66978
# Poissons Ratio (y) = 0.16142 0.04903
# Poissons Ratio (z) = 0.73260 0.04256
#
# Static dielectric constant tensor:
#      x y z
#    x 1.901290 -0.038330 0.116530 
#    y -0.038330 1.792220 -0.069300 
#    z 0.116530 -0.069300 1.906480 
# 
# From -- ./inp_files/263755.got.cif
#   From: 2010.05.17/outbox.cif.g08.bks.cpg/sg2_132_cif.got.tgz:263755.got - 2010.06.03 11:33:40.
