data_PCOD9068364
_publ_section_title
;
Structure prediction by ZEFSAII (Michael W. Deem and Ramdas Pophale) SiO2 
 PCOD9068364
Probable space group: P -1
;
_chemical_formula_sum "Si O2"
_cell_formula_units_Z 12
_cell_length_a 13.889248
_cell_length_b 11.158649
_cell_length_c 13.831551
_cell_angle_alpha 139.455005
_cell_angle_beta 159.839218
_cell_angle_gamma 36.778336
_cell_volume 442.021485
_symmetry_space_group_name_H-M "P -1"
_symmetry_group_IT_number 2
_symmetry_cell_setting 'triclinic'
loop_
_space_group_symop_operation_xyz
x,y,z
-x,-y,-z
loop_
_atom_site_type_symbol
_atom_site_label
_atom_site_fract_x
_atom_site_fract_y
_atom_site_fract_z
Si Si1 0.703401 0.191258 0.590026
Si Si2 0.375971 0.937293 0.211435
Si Si3 0.201026 0.278381 0.022381
Si Si4 0.090730 0.171450 0.644351
Si Si5 0.263871 0.692122 0.114809
Si Si6 0.563861 0.271330 0.057752
O O1 0.602993 0.358618 0.682159
O O2 0.041281 0.149285 0.849052
O O3 0.632865 0.014292 0.466091
O O4 0.516884 0.248488 0.350975
O O5 0.432338 0.804644 0.279537
O O6 0.360797 0.788218 0.019399
O O7 0.072685 0.137504 0.073971
O O8 0.146229 0.277478 0.857075
O O9 0.000000 0.500000 0.000000
O O10 0.843005 0.265093 0.384214
O O11 0.000000 0.000000 0.500000
O O12 0.414641 0.122876 0.869442
O O13 0.306049 0.494182 0.972959
#
# Coordination Sequence:
#
# PCOD9068364 Si02
#       6
#     2   2   2   2   2   2
#     4  12  23  45  70 106 144 189 240 296 364 429
#     4  11  26  49  77 109 149 194 243 309 368 434
#     4  12  24  42  70 103 143 190 240 298 356 430
#     4  12  26  48  72 109 147 197 242 302 366 435
#     4  11  26  49  77 111 146 194 248 302 372 435
#     4  12  27  49  76 109 149 192 246 302 365 440
#
# _framework density 27.148002000000002
#
# number of rings (size 3 to 8) (size 9 to 14) (size 15 to 20)
#    0.000    0.333    1.667    7.000    4.667    0.000 
#    0.000    1.667    0.000    0.000    0.000    0.000 
#    0.000    0.000    0.000    0.000    0.000    0.000 
#
# Total GULP energy -67170.977744 kJ/mol
# GULP energy per Si atom -5597.581479 kJ/mol
# Density = 2.708621 g / cm^3
# Si number density = 27.148002 Si / 1000 Ang^3
#
#
#
# Elastic Constant Matrix: (Units=GPa)
#
#
# Indices 1 2 3 4 5 6 
#
# 1 206.4688 47.3436 70.9511 -4.0967 -15.3517 -27.7417
# 2 47.3436 81.4391 32.3590 13.5917 -11.9693 -31.0040
# 3 70.9511 32.3590 145.2437 -4.5069 1.2754 -16.3393
# 4 -4.0967 13.5917 -4.5069 29.8698 -4.6400 -1.7880
# 5 -15.3517 -11.9693 1.2754 -4.6400 67.4783 18.5457
# 6 -27.7417 -31.0040 -16.3393 -1.7880 18.5457 52.1086
#
#
#
# Elastic Compliance Matrix: (Units=1/GPa)
#
#
# Indices 1 2 3 4 5 6 
#
# 1 0.006520 -0.002688 -0.002440 0.001948 0.000958 0.000833
# 2 -0.002688 0.019863 -0.002335 -0.009237 -0.000272 0.009435
# 3 -0.002440 -0.002335 0.008725 0.001897 -0.001147 0.000520
# 4 0.001948 -0.009237 0.001897 0.038396 0.002338 -0.003378
# 5 0.000958 -0.000272 -0.001147 0.002338 0.016796 -0.005909
# 6 0.000833 0.009435 0.000520 -0.003378 -0.005909 0.027398
#
#
# Mechanical properties :
#
#
# Convention : Reuss Voigt Hill
#
# Bulk Modulus (GPa) = 49.55185 81.60659 65.57922
# Shear Modulus (GPa) = 35.88044 48.72455 42.30250
#
# Velocity S-wave (km/s) = 3.63941 4.24107 3.95171
# Velocity P-wave (km/s) = 5.99604 7.35578 6.71044
#
# Compressibility (1/GPa) = 0.02018088
#
# Stress axis : x y z
#
# Youngs Moduli (GPa) = 153.37204 50.34480 114.61483
#
# Poissons Ratio (x) = 0.13533 0.27972
# Poissons Ratio (y) = 0.41227 0.26763
# Poissons Ratio (z) = 0.37430 0.11756
#
# Static dielectric constant tensor:
#      x y z
#    x 2.071780 0.003560 -0.026940 
#    y 0.003560 2.271630 0.018370 
#    z -0.026940 0.018370 2.156480 
# 
# From -- ./inp_files/360182.got.cif
#   From: 2010.05.17/outbox.cif.g08.bks.cpg/sg2_181_cif.got.tgz:360182.got - 2010.06.03 11:33:40.
