data_PCOD9068729
_publ_section_title
;
Structure prediction by ZEFSAII (Michael W. Deem and Ramdas Pophale) SiO2 
 PCOD9068729
Probable space group: P -1
;
_chemical_formula_sum "Si O2"
_cell_formula_units_Z 10
_cell_length_a 5.077612
_cell_length_b 14.993324
_cell_length_c 15.076179
_cell_angle_alpha 19.388083
_cell_angle_beta 95.041377
_cell_angle_gamma 95.370147
_cell_volume 379.341400
_symmetry_space_group_name_H-M "P -1"
_symmetry_group_IT_number 2
_symmetry_cell_setting 'triclinic'
loop_
_space_group_symop_operation_xyz
x,y,z
-x,-y,-z
loop_
_atom_site_type_symbol
_atom_site_label
_atom_site_fract_x
_atom_site_fract_y
_atom_site_fract_z
Si Si1 0.848361 0.505036 0.792108
Si Si2 0.244485 0.309604 0.685285
Si Si3 0.383887 0.873193 0.447999
Si Si4 0.455176 0.890946 0.957702
Si Si5 0.064503 0.216828 0.223777
O O1 0.629069 0.694260 0.649421
O O2 0.120413 0.677027 0.626663
O O3 0.710545 0.379861 0.818486
O O4 0.905239 0.250870 0.094848
O O5 0.500000 0.500000 0.500000
O O6 0.000000 0.500000 0.500000
O O7 0.260134 0.088386 0.816604
O O8 0.306032 0.166320 0.914707
O O9 0.430239 0.982528 0.247958
O O10 0.341960 0.119193 0.283875
O O11 0.000000 0.000000 0.500000
O O12 0.000000 0.500000 0.000000
#
# Coordination Sequence:
#
# PCOD9068729 Si02
#       5
#     2   2   2   2   2
#     4  12  28  52  83 120 164 216 277 341 408 496
#     4  11  28  51  77 114 165 209 270 342 408 494
#     4  12  28  52  83 120 164 216 277 341 408 496
#     4  11  28  50  84 118 158 218 276 336 414 491
#     4  12  28  54  82 123 170 219 276 344 414 490
#
# _framework density 26.361476
#
# number of rings (size 3 to 8) (size 9 to 14) (size 15 to 20)
#    0.000    0.400    2.000    3.600    0.000   20.800 
#    0.000    3.000    0.000    0.000    0.000    0.000 
#    0.000    0.000    0.000    0.000    0.000    0.000 
#
# Total GULP energy -56114.370156 kJ/mol
# GULP energy per Si atom -5611.437016 kJ/mol
# Density = 2.630148 g / cm^3
# Si number density = 26.361476 Si / 1000 Ang^3
#
#
#
# Elastic Constant Matrix: (Units=GPa)
#
#
# Indices 1 2 3 4 5 6 
#
# 1 189.3354 46.4793 71.1459 -10.2038 10.4778 -34.7774
# 2 46.4793 126.5092 49.0367 -10.7169 10.0242 1.2308
# 3 71.1459 49.0367 178.2955 6.8571 20.3185 -15.7478
# 4 -10.2038 -10.7169 6.8571 72.2336 -5.4084 -0.0760
# 5 10.4778 10.0242 20.3185 -5.4084 60.6632 -15.9184
# 6 -34.7774 1.2308 -15.7478 -0.0760 -15.9184 9.7816
#
#
#
# Elastic Compliance Matrix: (Units=1/GPa)
#
#
# Indices 1 2 3 4 5 6 
#
# 1 -0.026845 0.016088 -0.003988 -0.004391 -0.042494 -0.173078
# 2 0.016088 0.000146 -0.001068 0.004123 0.021788 0.090950
# 3 -0.003988 -0.001068 0.007224 -0.001724 -0.004093 -0.009088
# 4 -0.004391 0.004123 -0.001724 0.013569 -0.005356 -0.027514
# 5 -0.042494 0.021788 -0.004093 -0.005356 -0.036629 -0.220063
# 6 -0.173078 0.090950 -0.009088 -0.027514 -0.220063 -0.897540
#
#
# Mechanical properties :
#
#
# Convention : Reuss Voigt Hill
#
# Bulk Modulus (GPa) = 386.44586 91.94043 239.19315
# Shear Modulus (GPa) = -5.20142 50.36756 22.58307
#
# Velocity S-wave (km/s) = -1.40620 4.37584 2.93007
# Velocity P-wave (km/s) = 12.01152 7.77709 10.11830
#
# Compressibility (1/GPa) = 0.00258768
#
# Stress axis : x y z
#
# Youngs Moduli (GPa) = -37.25051 6850.41956 138.43221
#
# Poissons Ratio (x) = -110.20749 0.55205
# Poissons Ratio (y) = 0.59928 0.14787
# Poissons Ratio (z) = -0.14855 7.31748
#
# Static dielectric constant tensor:
#      x y z
#    x 2.061360 0.041940 -0.039410 
#    y 0.041940 2.095150 -0.020920 
#    z -0.039410 -0.020920 2.029210 
# 
# From -- ./inp_files/483739.got.cif
#   From: 2010.05.17/outbox.cif.g08.bks.cpg/sg2_242_cif.got.tgz:483739.got - 2010.06.03 11:33:40.
