data_PCOD9068886
_publ_section_title
;
Structure prediction by ZEFSAII (Michael W. Deem and Ramdas Pophale) SiO2 
 PCOD9068886
Probable space group: P -1
;
_chemical_formula_sum "Si O2"
_cell_formula_units_Z 14
_cell_length_a 11.842017
_cell_length_b 10.986667
_cell_length_c 7.138292
_cell_angle_alpha 41.968049
_cell_angle_beta 55.487490
_cell_angle_gamma 61.100980
_cell_volume 508.498312
_symmetry_space_group_name_H-M "P -1"
_symmetry_group_IT_number 2
_symmetry_cell_setting 'triclinic'
loop_
_space_group_symop_operation_xyz
x,y,z
-x,-y,-z
loop_
_atom_site_type_symbol
_atom_site_label
_atom_site_fract_x
_atom_site_fract_y
_atom_site_fract_z
Si Si1 0.734354 0.190224 0.730310
Si Si2 0.620425 0.329714 0.082917
Si Si3 0.089658 0.557505 0.176455
Si Si4 0.615325 0.848577 0.319453
Si Si5 0.984437 0.037706 0.197238
Si Si6 0.353386 0.426883 0.716220
Si Si7 0.763746 0.807339 0.627823
O O1 0.709510 0.841141 0.428223
O O2 0.740014 0.379783 0.397923
O O3 0.886614 0.087353 0.700904
O O4 0.676844 0.258669 0.910536
O O5 0.540152 0.176947 0.438886
O O6 0.500000 0.500000 0.000000
O O7 0.755952 0.399872 0.963057
O O8 0.115934 0.365064 0.264425
O O9 0.000000 0.500000 0.500000
O O10 0.012830 0.755806 0.972210
O O11 0.667952 0.675030 0.340586
O O12 0.636771 0.029541 0.973420
O O13 0.834257 0.976469 0.446455
O O14 0.000000 0.000000 0.000000
O O15 0.500000 0.500000 0.500000
O O16 0.351869 0.272826 0.050913
#
# Coordination Sequence:
#
# PCOD9068886 Si02
#       7
#     2   2   2   2   2   2   2
#     4  12  25  47  75 113 157 198 259 321 382 465
#     4  12  21  39  73 111 142 196 258 307 376 451
#     4  12  22  41  71 106 149 194 248 311 377 447
#     4  12  25  47  79 111 151 202 257 319 388 451
#     4  12  24  44  76 117 148 201 262 309 380 473
#     4  12  29  50  74 113 159 196 256 325 388 459
#     4  12  25  47  79 111 152 205 251 316 387 458
#
# _framework density 27.532046999999999
#
# number of rings (size 3 to 8) (size 9 to 14) (size 15 to 20)
#    0.000    0.000    7.143    2.143    0.000    4.571 
#    0.000    1.429    0.000    0.000    0.000    0.000 
#    0.000    0.000    0.000    0.000    0.000    0.000 
#
# Total GULP energy -78462.823703 kJ/mol
# GULP energy per Si atom -5604.487407 kJ/mol
# Density = 2.746938 g / cm^3
# Si number density = 27.532047 Si / 1000 Ang^3
#
#
#
# Elastic Constant Matrix: (Units=GPa)
#
#
# Indices 1 2 3 4 5 6 
#
# 1 104.0945 43.0034 37.7046 1.9320 -14.9607 -6.6696
# 2 43.0034 121.1857 25.8020 -34.0274 8.9670 -14.0746
# 3 37.7046 25.8020 144.6047 -4.4506 -20.1200 17.1787
# 4 1.9320 -34.0274 -4.4506 50.1837 -2.4627 -2.9958
# 5 -14.9607 8.9670 -20.1200 -2.4627 48.2093 -1.5234
# 6 -6.6696 -14.0746 17.1787 -2.9958 -1.5234 52.4531
#
#
#
# Elastic Compliance Matrix: (Units=1/GPa)
#
#
# Indices 1 2 3 4 5 6 
#
# 1 0.013499 -0.005794 -0.002126 -0.004389 0.004178 0.000729
# 2 -0.005794 0.014261 -0.001864 0.009748 -0.004600 0.004123
# 3 -0.002126 -0.001864 0.008648 -0.000471 0.003160 -0.003538
# 4 -0.004389 0.009748 -0.000471 0.026791 -0.001887 0.003687
# 5 0.004178 -0.004600 0.003160 -0.001887 0.024082 -0.001146
# 6 0.000729 0.004123 -0.003538 0.003687 -0.001146 0.021600
#
#
# Mechanical properties :
#
#
# Convention : Reuss Voigt Hill
#
# Bulk Modulus (GPa) = 59.38355 64.76719 62.07537
# Shear Modulus (GPa) = 37.29601 47.72755 42.51178
#
# Velocity S-wave (km/s) = 3.68454 4.16808 3.93375
# Velocity P-wave (km/s) = 6.30213 6.83661 6.57480
#
# Compressibility (1/GPa) = 0.01683968
#
# Stress axis : x y z
#
# Youngs Moduli (GPa) = 74.07810 70.12021 115.63628
#
# Poissons Ratio (x) = 0.40631 0.24586
# Poissons Ratio (y) = 0.42924 0.21551
# Poissons Ratio (z) = 0.15750 0.13068
#
# Static dielectric constant tensor:
#      x y z
#    x 0.866400 0.058770 -0.378690 
#    y 0.058770 2.288020 0.024190 
#    z -0.378690 0.024190 2.086440 
# 
# From -- ./inp_files/314380.got.cif
#   From: 2010.05.17/outbox.cif.g08.bks.cpg/sg2_158_cif.got.tgz:314380.got - 2010.06.03 11:33:40.
