data_PCOD9068835
_publ_section_title
;
Structure prediction by ZEFSAII (Michael W. Deem and Ramdas Pophale) SiO2 
 PCOD9068835
Probable space group: P -1
;
_chemical_formula_sum "Si O2"
_cell_formula_units_Z 12
_cell_length_a 17.122413
_cell_length_b 7.188105
_cell_length_c 7.523011
_cell_angle_alpha 104.199139
_cell_angle_beta 126.790307
_cell_angle_gamma 40.522625
_cell_volume 440.830470
_symmetry_space_group_name_H-M "P -1"
_symmetry_group_IT_number 2
_symmetry_cell_setting 'triclinic'
loop_
_space_group_symop_operation_xyz
x,y,z
-x,-y,-z
loop_
_atom_site_type_symbol
_atom_site_label
_atom_site_fract_x
_atom_site_fract_y
_atom_site_fract_z
Si Si1 0.723617 0.928424 0.881526
Si Si2 0.509439 0.211504 0.004744
Si Si3 0.328887 0.789590 0.470172
Si Si4 0.822049 0.341070 0.298194
Si Si5 0.053085 0.474203 0.368997
Si Si6 0.821320 0.350946 0.874519
O O1 0.780325 0.630110 0.824350
O O2 0.632082 0.184264 0.664668
O O3 0.889744 0.776614 0.117635
O O4 0.618106 0.065179 0.945424
O O5 0.573075 0.253787 0.254352
O O6 0.324097 0.552618 0.801152
O O7 0.500000 0.000000 0.000000
O O8 0.300512 0.607730 0.371094
O O9 0.148076 0.151999 0.339535
O O10 0.824898 0.542997 0.443696
O O11 0.800782 0.385231 0.068102
O O12 0.000000 0.000000 0.500000
O O13 0.000000 0.500000 0.500000
O O14 0.000000 0.000000 0.000000
#
# Coordination Sequence:
#
# PCOD9068835 Si02
#       6
#     2   2   2   2   2   2
#     4  12  26  48  83 114 154 214 256 318 400 455
#     4  12  25  54  77 111 162 205 258 329 390 465
#     4  12  26  46  80 115 159 205 263 317 392 466
#     4  12  27  49  79 109 154 204 261 322 389 469
#     4  12  20  47  78 106 158 209 249 314 388 462
#     4  12  25  45  75 122 156 194 266 325 373 470
#
# _framework density 27.221349
#
# number of rings (size 3 to 8) (size 9 to 14) (size 15 to 20)
#    0.000    0.000    8.333    1.500    2.333    1.333 
#    3.000    3.333    3.667    0.000    0.000    0.000 
#    0.000    0.000    0.000    0.000    0.000    0.000 
#
# Total GULP energy -67427.867580 kJ/mol
# GULP energy per Si atom -5618.988965 kJ/mol
# Density = 2.715939 g / cm^3
# Si number density = 27.221349 Si / 1000 Ang^3
#
#
#
# Elastic Constant Matrix: (Units=GPa)
#
#
# Indices 1 2 3 4 5 6 
#
# 1 112.4066 35.3010 92.9714 18.0614 14.6798 -6.0588
# 2 35.3010 106.6863 57.5456 13.0006 20.6267 -2.3249
# 3 92.9714 57.5456 231.2021 7.5885 30.6293 -2.1222
# 4 18.0614 13.0006 7.5885 59.0980 -10.5010 5.6484
# 5 14.6798 20.6267 30.6293 -10.5010 62.5973 3.0634
# 6 -6.0588 -2.3249 -2.1222 5.6484 3.0634 64.3870
#
#
#
# Elastic Compliance Matrix: (Units=1/GPa)
#
#
# Indices 1 2 3 4 5 6 
#
# 1 0.014439 -0.001251 -0.005204 -0.003819 -0.001143 0.001531
# 2 -0.001251 0.011748 -0.001921 -0.002565 -0.003098 0.000616
# 3 -0.005204 -0.001921 0.007054 0.000885 -0.001433 -0.000336
# 4 -0.003819 -0.002565 0.000885 0.019602 0.004712 -0.002367
# 5 -0.001143 -0.003098 -0.001433 0.004712 0.018833 -0.001576
# 6 0.001531 0.000616 -0.000336 -0.002367 -0.001576 0.015969
#
#
# Mechanical properties :
#
#
# Convention : Reuss Voigt Hill
#
# Bulk Modulus (GPa) = 60.64504 91.32570 75.98537
# Shear Modulus (GPa) = 45.49898 54.84826 50.17362
#
# Velocity S-wave (km/s) = 4.09277 4.49363 4.29788
# Velocity P-wave (km/s) = 6.68290 7.78112 7.25282
#
# Compressibility (1/GPa) = 0.01648939
#
# Stress axis : x y z
#
# Youngs Moduli (GPa) = 69.25826 85.11910 141.77012
#
# Poissons Ratio (x) = 0.10647 0.73776
# Poissons Ratio (y) = 0.08663 0.27231
# Poissons Ratio (z) = 0.36042 0.16350
#
# Static dielectric constant tensor:
#      x y z
#    x 2.151880 0.062480 -0.038880 
#    y 0.062480 2.295960 -0.110380 
#    z -0.038880 -0.110380 2.112210 
# 
# From -- ./inp_files/343788.got.cif
#   From: 2010.05.17/outbox.cif.g08.bks.cpg/sg2_172_cif.got.tgz:343788.got - 2010.06.03 11:33:40.
