data_PCOD9068354
_publ_section_title
;
Structure prediction by ZEFSAII (Michael W. Deem and Ramdas Pophale) SiO2 
 PCOD9068354
Probable space group: P -1
;
_chemical_formula_sum "Si O2"
_cell_formula_units_Z 15
_cell_length_a 9.361000
_cell_length_b 8.700227
_cell_length_c 8.643579
_cell_angle_alpha 64.676381
_cell_angle_beta 109.659536
_cell_angle_gamma 97.560231
_cell_volume 599.157078
_symmetry_space_group_name_H-M "P -1"
_symmetry_group_IT_number 2
_symmetry_cell_setting 'triclinic'
loop_
_space_group_symop_operation_xyz
x,y,z
-x,-y,-z
loop_
_atom_site_type_symbol
_atom_site_label
_atom_site_fract_x
_atom_site_fract_y
_atom_site_fract_z
Si Si1 0.939671 0.695098 0.402812
Si Si2 0.520227 0.091557 0.630715
Si Si3 0.590295 0.127415 0.082156
Si Si4 0.124040 0.310413 0.265426
Si Si5 0.872140 0.019501 0.808700
Si Si6 0.500000 0.500000 0.500000
Si Si7 0.786953 0.408652 0.026576
Si Si8 0.347464 0.402381 0.818466
O O1 0.874357 0.726896 0.536813
O O2 0.800629 0.706032 0.228509
O O3 0.000000 0.500000 0.500000
O O4 0.068592 0.823817 0.342090
O O5 0.694091 0.053461 0.768684
O O6 0.497323 0.291977 0.556475
O O7 0.500000 0.000000 0.500000
O O8 0.387001 0.990377 0.713445
O O9 0.736391 0.222968 0.035347
O O10 0.471044 0.281011 0.994636
O O11 0.500000 0.000000 0.000000
O O12 0.959668 0.395915 0.144553
O O13 0.131708 0.149774 0.225233
O O14 0.237228 0.455404 0.179396
O O15 0.000000 0.000000 0.000000
O O16 0.412942 0.471695 0.651634
O O17 0.703626 0.461731 0.131058
#
# Coordination Sequence:
#
# PCOD9068354 Si02
#       8
#     2   2   2   2   2   1   2   2
#     4  12  26  47  79 115 157 200 270 328 402 480
#     4  12  29  52  80 121 159 214 274 331 412 490
#     4  12  27  47  76 109 157 207 260 324 403 481
#     4  11  27  47  80 113 155 214 259 339 398 472
#     4  12  29  51  80 117 167 212 270 334 409 498
#     4  12  28  48  84 112 168 208 268 340 412 472
#     4  11  26  49  76 112 157 203 273 325 405 484
#     4  12  26  49  75 115 153 213 260 329 402 489
#
# _framework density 25.035170000000001
#
# number of rings (size 3 to 8) (size 9 to 14) (size 15 to 20)
#    0.000    0.267    2.667    4.800   11.200    0.000 
#    0.000    0.000    0.000    0.000    0.000    0.000 
#    0.000    0.000    0.000    0.000    0.000    0.000 
#
# Total GULP energy -83693.117867 kJ/mol
# GULP energy per Si atom -5579.541191 kJ/mol
# Density = 2.497819 g / cm^3
# Si number density = 25.035170 Si / 1000 Ang^3
#
#
#
# Elastic Constant Matrix: (Units=GPa)
#
#
# Indices 1 2 3 4 5 6 
#
# 1 105.8540 38.4865 37.7533 -3.9590 -5.8153 4.1932
# 2 38.4865 126.8480 67.1651 1.4301 -37.9345 3.7185
# 3 37.7533 67.1651 88.9025 -14.3825 -23.1918 1.5546
# 4 -3.9590 1.4301 -14.3825 50.8737 11.8002 -6.8851
# 5 -5.8153 -37.9345 -23.1918 11.8002 54.6318 -4.2794
# 6 4.1932 3.7185 1.5546 -6.8851 -4.2794 55.3630
#
#
#
# Elastic Compliance Matrix: (Units=1/GPa)
#
#
# Indices 1 2 3 4 5 6 
#
# 1 0.011467 -0.002020 -0.003790 0.000216 -0.001896 -0.000746
# 2 -0.002020 0.016442 -0.010371 -0.005489 0.007927 -0.000730
# 3 -0.003790 -0.010371 0.021781 0.006223 0.000389 0.001176
# 4 0.000216 -0.005489 0.006223 0.023328 -0.005980 0.002616
# 5 -0.001896 0.007927 0.000389 -0.005980 0.025127 0.000799
# 6 -0.000746 -0.000730 0.001176 0.002616 0.000799 0.018522
#
#
# Mechanical properties :
#
#
# Convention : Reuss Voigt Hill
#
# Bulk Modulus (GPa) = 57.71252 67.60158 62.65705
# Shear Modulus (GPa) = 32.29903 44.05367 38.17635
#
# Velocity S-wave (km/s) = 3.59576 4.19939 3.90924
# Velocity P-wave (km/s) = 6.35153 7.11157 6.74227
#
# Compressibility (1/GPa) = 0.01732726
#
# Stress axis : x y z
#
# Youngs Moduli (GPa) = 87.21029 60.82112 45.91221
#
# Poissons Ratio (x) = 0.12285 0.17400
# Poissons Ratio (y) = 0.17615 0.47616
# Poissons Ratio (z) = 0.33052 0.63078
#
# Static dielectric constant tensor:
#      x y z
#    x 2.120120 0.050380 0.044070 
#    y 0.050380 1.959490 -0.002550 
#    z 0.044070 -0.002550 2.071720 
# 
# From -- ./inp_files/157004.got.cif
#   From: 2010.05.17/outbox.cif.g08.bks.cpg/sg2_79_cif.got.tgz:157004.got - 2010.06.03 11:33:40.
