data_PCOD9068764
_publ_section_title
;
Structure prediction by ZEFSAII (Michael W. Deem and Ramdas Pophale) SiO2 
 PCOD9068764
Probable space group: P -1
;
_chemical_formula_sum "Si O2"
_cell_formula_units_Z 12
_cell_length_a 21.010255
_cell_length_b 9.503645
_cell_length_c 7.289559
_cell_angle_alpha 135.262706
_cell_angle_beta 38.428351
_cell_angle_gamma 145.813844
_cell_volume 500.160653
_symmetry_space_group_name_H-M "P -1"
_symmetry_group_IT_number 2
_symmetry_cell_setting 'triclinic'
loop_
_space_group_symop_operation_xyz
x,y,z
-x,-y,-z
loop_
_atom_site_type_symbol
_atom_site_label
_atom_site_fract_x
_atom_site_fract_y
_atom_site_fract_z
Si Si1 0.738480 0.985844 0.248014
Si Si2 0.192947 0.058833 0.578677
Si Si3 0.343838 0.700303 0.364285
Si Si4 0.901571 0.785191 0.381695
Si Si5 0.805037 0.264275 0.007284
Si Si6 0.509512 0.552388 0.810495
O O1 0.824001 0.982259 0.204873
O O2 0.597499 0.712677 0.292869
O O3 0.707448 0.183974 0.542312
O O4 0.807876 0.092360 0.993125
O O5 0.111713 0.106901 0.676900
O O6 0.343400 0.307984 0.448964
O O7 0.183194 0.826488 0.295731
O O8 0.235232 0.398243 0.364018
O O9 0.333302 0.797041 0.678708
O O10 0.469443 0.736150 0.048153
O O11 0.909120 0.560205 0.094538
O O12 0.000000 0.000000 0.500000
O O13 0.500000 0.500000 0.000000
#
# Coordination Sequence:
#
# PCOD9068764 Si02
#       6
#     2   2   2   2   2   2
#     4   9  22  35  53  87 117 146 184 224 275 337
#     4  12  21  35  60  84 111 154 186 222 281 332
#     4   8  20  37  53  81 115 142 180 230 279 319
#     4   9  20  38  59  82 108 147 194 231 277 330
#     4   8  20  38  53  80 116 145 178 234 275 323
#     4  12  18  35  59  82 117 151 180 224 275 337
#
# _framework density 23.992290000000001
#
# number of rings (size 3 to 8) (size 9 to 14) (size 15 to 20)
#    2.000    0.000    3.333    0.500    0.000    6.667 
#    0.000    3.333    0.000    8.000    0.000    0.000 
#    0.000    0.000    0.000    0.000    0.000    0.000 
#
# Total GULP energy -66878.693526 kJ/mol
# GULP energy per Si atom -5573.224461 kJ/mol
# Density = 2.393768 g / cm^3
# Si number density = 23.992290 Si / 1000 Ang^3
#
#
#
# Elastic Constant Matrix: (Units=GPa)
#
#
# Indices 1 2 3 4 5 6 
#
# 1 126.9726 37.0332 33.3394 24.4074 11.8602 8.0685
# 2 37.0332 78.6555 22.4847 23.5564 8.1319 9.6997
# 3 33.3394 22.4847 52.6327 23.7630 4.6960 -4.3357
# 4 24.4074 23.5564 23.7630 37.8238 1.5466 1.2523
# 5 11.8602 8.1319 4.6960 1.5466 45.3383 2.0432
# 6 8.0685 9.6997 -4.3357 1.2523 2.0432 18.3259
#
#
#
# Elastic Compliance Matrix: (Units=1/GPa)
#
#
# Indices 1 2 3 4 5 6 
#
# 1 0.010700 -0.002246 -0.005093 -0.002095 -0.001599 -0.004406
# 2 -0.002246 0.018261 -0.003691 -0.007243 -0.001659 -0.008870
# 3 -0.005093 -0.003691 0.031582 -0.014626 -0.001356 0.012818
# 4 -0.002095 -0.007243 -0.014626 0.041466 0.002027 -0.001764
# 5 -0.001599 -0.001659 -0.001356 0.002027 0.022908 -0.001432
# 6 -0.004406 -0.008870 0.012818 -0.001764 -0.001432 0.064515
#
#
# Mechanical properties :
#
#
# Convention : Reuss Voigt Hill
#
# Bulk Modulus (GPa) = 25.98459 49.33063 37.65761
# Shear Modulus (GPa) = 22.28975 31.32451 26.80713
#
# Velocity S-wave (km/s) = 3.05132 3.61724 3.34626
# Velocity P-wave (km/s) = 4.82369 6.16859 5.53713
#
# Compressibility (1/GPa) = 0.03848434
#
# Stress axis : x y z
#
# Youngs Moduli (GPa) = 93.45794 54.76234 31.66313
#
# Poissons Ratio (x) = 0.12300 0.16125
# Poissons Ratio (y) = 0.20991 0.11686
# Poissons Ratio (z) = 0.47595 0.20212
#
# Static dielectric constant tensor:
#      x y z
#    x 1.931010 0.007810 -0.060390 
#    y 0.007810 1.949160 -0.026440 
#    z -0.060390 -0.026440 1.981430 
# 
# From -- ./inp_files/173781.got.cif
#   From: 2010.05.17/outbox.cif.g08.bks.cpg/sg2_87_cif.got.tgz:173781.got - 2010.06.03 11:33:40.
