data_PCOD9068369
_publ_section_title
;
Structure prediction by ZEFSAII (Michael W. Deem and Ramdas Pophale) SiO2 
 PCOD9068369
Probable space group: P -1
;
_chemical_formula_sum "Si O2"
_cell_formula_units_Z 16
_cell_length_a 17.751828
_cell_length_b 20.738096
_cell_length_c 11.572996
_cell_angle_alpha 149.176364
_cell_angle_beta 150.990227
_cell_angle_gamma 19.070764
_cell_volume 660.991194
_symmetry_space_group_name_H-M "P -1"
_symmetry_group_IT_number 2
_symmetry_cell_setting 'triclinic'
loop_
_space_group_symop_operation_xyz
x,y,z
-x,-y,-z
loop_
_atom_site_type_symbol
_atom_site_label
_atom_site_fract_x
_atom_site_fract_y
_atom_site_fract_z
Si Si1 0.975172 0.045680 0.305150
Si Si2 0.667402 0.756360 0.978456
Si Si3 0.138335 0.108654 0.920880
Si Si4 0.980945 0.327834 0.829953
Si Si5 0.668176 0.122502 0.810947
Si Si6 0.491945 0.641883 0.263672
Si Si7 0.023752 0.281979 0.483424
Si Si8 0.805182 0.727733 0.547918
O O1 0.925753 0.987452 0.260424
O O2 0.244386 0.830541 0.290778
O O3 0.976895 0.193261 0.558057
O O4 0.770928 0.144328 0.084262
O O5 0.769467 0.747107 0.979558
O O6 0.800643 0.770118 0.265599
O O7 0.773643 0.553255 0.847168
O O8 0.377502 0.942993 0.903421
O O9 0.953762 0.306567 0.895452
O O10 0.189114 0.163013 0.183898
O O11 0.511037 0.272483 0.723195
O O12 0.473175 0.149022 0.644974
O O13 0.906852 0.906371 0.737777
O O14 0.736014 0.493404 0.441230
O O15 0.500000 0.500000 0.000000
O O16 0.095104 0.296817 0.480226
O O17 0.000000 0.500000 0.500000
#
# Coordination Sequence:
#
# PCOD9068369 Si02
#       8
#     2   2   2   2   2   2   2   2
#     4  12  27  47  72 109 151 197 237 305 361 442
#     4  11  26  49  78 106 137 196 253 303 356 435
#     4  12  25  50  73 106 152 190 248 298 364 435
#     4  11  28  49  72 105 146 197 250 295 362 427
#     4  12  24  44  71 106 148 183 238 298 366 428
#     4  12  26  43  68 109 148 191 235 292 375 437
#     4  12  23  45  72 110 144 182 238 301 370 424
#     4  12  23  42  74 113 143 186 233 305 369 427
#
# _framework density 24.206071999999999
#
# number of rings (size 3 to 8) (size 9 to 14) (size 15 to 20)
#    0.000    0.250    5.000    3.750    1.750    2.500 
#    0.000    0.000    0.000    0.000    0.000    0.000 
#    0.000    0.000    0.000    0.000    0.000    0.000 
#
# Total GULP energy -89585.137289 kJ/mol
# GULP energy per Si atom -5599.071081 kJ/mol
# Density = 2.415098 g / cm^3
# Si number density = 24.206072 Si / 1000 Ang^3
#
#
#
# Elastic Constant Matrix: (Units=GPa)
#
#
# Indices 1 2 3 4 5 6 
#
# 1 110.8324 16.0928 22.5360 6.5014 19.9478 23.4412
# 2 16.0928 72.4987 8.6527 -5.7606 17.8261 4.1202
# 3 22.5360 8.6527 120.3994 6.4708 5.4924 4.5777
# 4 6.5014 -5.7606 6.4708 30.9840 10.2885 4.6666
# 5 19.9478 17.8261 5.4924 10.2885 38.1328 2.9953
# 6 23.4412 4.1202 4.5777 4.6666 2.9953 40.1275
#
#
#
# Elastic Compliance Matrix: (Units=1/GPa)
#
#
# Indices 1 2 3 4 5 6 
#
# 1 0.011692 -0.000742 -0.001686 0.000407 -0.005148 -0.006225
# 2 -0.000742 0.016917 -0.000974 0.006718 -0.009090 -0.001295
# 3 -0.001686 -0.000974 0.008757 -0.001883 0.000563 0.000263
# 4 0.000407 0.006718 -0.001883 0.038866 -0.013235 -0.004245
# 5 -0.005148 -0.009090 0.000563 -0.013235 0.036445 0.002695
# 6 -0.006225 -0.001295 0.000263 -0.004245 0.002695 0.028952
#
#
# Mechanical properties :
#
#
# Convention : Reuss Voigt Hill
#
# Bulk Modulus (GPa) = 32.72022 44.25482 38.48752
# Shear Modulus (GPa) = 31.52194 38.94547 35.23370
#
# Velocity S-wave (km/s) = 3.61256 4.01548 3.81934
# Velocity P-wave (km/s) = 5.56305 6.31039 5.94846
#
# Compressibility (1/GPa) = 0.03056214
#
# Stress axis : x y z
#
# Youngs Moduli (GPa) = 85.52646 59.11241 114.19837
#
# Poissons Ratio (x) = 0.04388 0.19249
# Poissons Ratio (y) = 0.06349 0.11122
# Poissons Ratio (z) = 0.14416 0.05757
#
# Static dielectric constant tensor:
#      x y z
#    x 1.927340 0.001530 -0.010550 
#    y 0.001530 1.925020 0.009250 
#    z -0.010550 0.009250 1.922710 
# 
# From -- ./inp_files/467206.got.cif
#   From: 2010.05.17/outbox.cif.g08.bks.cpg/sg2_234_cif.got.tgz:467206.got - 2010.06.03 11:33:40.
