data_PCOD9068944
_publ_section_title
;
Structure prediction by ZEFSAII (Michael W. Deem and Ramdas Pophale) SiO2 
 PCOD9068944
Probable space group: P -1
;
_chemical_formula_sum "Si O2"
_cell_formula_units_Z 16
_cell_length_a 15.620328
_cell_length_b 12.231465
_cell_length_c 9.507729
_cell_angle_alpha 44.736557
_cell_angle_beta 33.631924
_cell_angle_gamma 60.320524
_cell_volume 686.196085
_symmetry_space_group_name_H-M "P -1"
_symmetry_group_IT_number 2
_symmetry_cell_setting 'triclinic'
loop_
_space_group_symop_operation_xyz
x,y,z
-x,-y,-z
loop_
_atom_site_type_symbol
_atom_site_label
_atom_site_fract_x
_atom_site_fract_y
_atom_site_fract_z
Si Si1 0.174874 0.958633 0.791520
Si Si2 0.704449 0.168899 0.532724
Si Si3 0.527301 0.386775 0.692216
Si Si4 0.177856 0.999666 0.213539
Si Si5 0.434789 0.271193 0.221761
Si Si6 0.278917 0.334802 0.650800
Si Si7 0.203882 0.746828 0.184683
Si Si8 0.992833 0.441680 0.902169
O O1 0.253229 0.937449 0.552776
O O2 0.307311 0.099716 0.555339
O O3 0.175345 0.793340 0.022478
O O4 0.000000 0.000000 0.000000
O O5 0.544584 0.221503 0.747506
O O6 0.751251 0.092512 0.680203
O O7 0.817547 0.346917 0.188357
O O8 0.500000 0.500000 0.500000
O O9 0.675265 0.506761 0.461612
O O10 0.417455 0.338705 0.026301
O O11 0.166996 0.892794 0.188390
O O12 0.000000 0.000000 0.500000
O O13 0.284488 0.177059 0.873449
O O14 0.385038 0.360207 0.343196
O O15 0.615482 0.258032 0.017115
O O16 0.097465 0.311083 0.872415
O O17 0.080680 0.586390 0.551623
O O18 0.000000 0.500000 0.000000
#
# Coordination Sequence:
#
# PCOD9068944 Si02
#       8
#     2   2   2   2   2   2   2   2
#     4  12  29  48  71 111 150 187 240 309 375 435
#     4  12  26  46  71 108 149 187 237 306 370 426
#     4  12  29  46  69 110 144 193 239 304 373 424
#     4  12  22  41  76 108 135 189 244 295 358 431
#     4  12  26  49  73 104 146 190 249 293 362 442
#     4  12  24  43  75 103 142 187 242 295 356 437
#     4  12  25  46  75 104 140 197 247 292 360 442
#     4  12  21  44  73 102 141 181 244 295 355 437
#
# _framework density 23.316949000000001
#
# number of rings (size 3 to 8) (size 9 to 14) (size 15 to 20)
#    0.000    0.000    7.500    2.250    3.500    2.000 
#    0.000    0.000    0.000    0.000    0.000    0.000 
#    0.000    0.000    0.000    0.000    0.000    0.000 
#
# Total GULP energy -89374.565306 kJ/mol
# GULP energy per Si atom -5585.910332 kJ/mol
# Density = 2.326388 g / cm^3
# Si number density = 23.316949 Si / 1000 Ang^3
#
#
#
# Elastic Constant Matrix: (Units=GPa)
#
#
# Indices 1 2 3 4 5 6 
#
# 1 55.2996 9.3009 40.4834 3.8304 22.7166 -9.7571
# 2 9.3009 90.9097 23.7586 22.8399 4.4338 1.0413
# 3 40.4834 23.7586 138.3656 -4.7573 22.3504 -11.9229
# 4 3.8304 22.8399 -4.7573 57.7396 0.2925 8.9410
# 5 22.7166 4.4338 22.3504 0.2925 42.0489 -10.6805
# 6 -9.7571 1.0413 -11.9229 8.9410 -10.6805 40.8141
#
#
#
# Elastic Compliance Matrix: (Units=1/GPa)
#
#
# Indices 1 2 3 4 5 6 
#
# 1 0.027817 -0.000037 -0.006221 -0.002679 -0.011057 0.002527
# 2 -0.000037 0.012969 -0.002387 -0.005345 -0.000008 0.000132
# 3 -0.006221 -0.002387 0.009818 0.002080 -0.001468 0.000602
# 4 -0.002679 -0.005345 0.002080 0.020478 -0.000376 -0.004481
# 5 -0.011057 -0.000008 -0.001468 -0.000376 0.031900 0.005358
# 6 0.002527 0.000132 0.000602 -0.004481 0.005358 0.027662
#
#
# Mechanical properties :
#
#
# Convention : Reuss Voigt Hill
#
# Bulk Modulus (GPa) = 30.01717 47.96231 38.98974
# Shear Modulus (GPa) = 31.43891 42.18932 36.81412
#
# Velocity S-wave (km/s) = 3.67594 4.25830 3.97779
# Velocity P-wave (km/s) = 5.56042 6.69267 6.15265
#
# Compressibility (1/GPa) = 0.03331427
#
# Stress axis : x y z
#
# Youngs Moduli (GPa) = 35.94904 77.10521 101.85696
#
# Poissons Ratio (x) = 0.00284 0.63363
# Poissons Ratio (y) = 0.00133 0.24316
# Poissons Ratio (z) = 0.22363 0.18407
#
# Static dielectric constant tensor:
#      x y z
#    x 1.889000 0.005160 -0.006680 
#    y 0.005160 1.933870 0.053290 
#    z -0.006680 0.053290 2.093950 
# 
# From -- ./inp_files/243582.got.cif
#   From: 2010.05.17/outbox.cif.g08.bks.cpg/sg2_122_cif.got.tgz:243582.got - 2010.06.03 11:33:40.
