data_PCOD9068834
_publ_section_title
;
Structure prediction by ZEFSAII (Michael W. Deem and Ramdas Pophale) SiO2 
 PCOD9068834
Probable space group: P -1
;
_chemical_formula_sum "Si O2"
_cell_formula_units_Z 14
_cell_length_a 24.272281
_cell_length_b 15.129251
_cell_length_c 15.376132
_cell_angle_alpha 29.094487
_cell_angle_beta 159.668757
_cell_angle_gamma 161.277717
_cell_volume 624.543318
_symmetry_space_group_name_H-M "P -1"
_symmetry_group_IT_number 2
_symmetry_cell_setting 'triclinic'
loop_
_space_group_symop_operation_xyz
x,y,z
-x,-y,-z
loop_
_atom_site_type_symbol
_atom_site_label
_atom_site_fract_x
_atom_site_fract_y
_atom_site_fract_z
Si Si1 0.090559 0.905038 0.769844
Si Si2 0.594656 0.506200 0.041572
Si Si3 0.146487 0.905461 0.550371
Si Si4 0.258180 0.706223 0.749301
Si Si5 0.724224 0.706577 0.868034
Si Si6 0.238173 0.775013 0.969886
Si Si7 0.725652 0.591258 0.658361
O O1 0.938145 0.778913 0.739901
O O2 0.372621 0.184462 0.964742
O O3 0.062336 0.695172 0.853595
O O4 0.000000 0.000000 0.500000
O O5 0.649107 0.667580 0.893069
O O6 0.500000 0.500000 0.000000
O O7 0.858695 0.653598 0.325062
O O8 0.259076 0.845573 0.710562
O O9 0.245406 0.194997 0.430232
O O10 0.204815 0.897522 0.741242
O O11 0.000000 0.500000 0.500000
O O12 0.488482 0.972765 0.807022
O O13 0.291426 0.523147 0.974632
O O14 0.525990 0.624120 0.582157
O O15 0.000000 0.000000 0.000000
O O16 0.222053 0.559082 0.092317
#
# Coordination Sequence:
#
# PCOD9068834 Si02
#       7
#     2   2   2   2   2   2   2
#     4  12  20  47  75  98 143 190 242 295 374 432
#     4  12  23  44  78 103 143 195 236 302 372 427
#     4  12  25  44  70 103 147 188 240 304 363 435
#     4  12  23  46  69  98 146 194 238 293 371 434
#     4  12  26  47  75 109 145 194 248 302 363 441
#     4  12  25  44  71 104 139 193 244 297 369 436
#     4  12  26  44  74 104 142 191 245 304 360 439
#
# _framework density 22.41638
#
# number of rings (size 3 to 8) (size 9 to 14) (size 15 to 20)
#    0.000    0.000    8.571    1.714    0.000    1.714 
#    0.000    0.714    0.000    0.000    0.000    0.000 
#    0.000    0.000    0.000    0.000    0.000    0.000 
#
# Total GULP energy -78157.452902 kJ/mol
# GULP energy per Si atom -5582.675207 kJ/mol
# Density = 2.236536 g / cm^3
# Si number density = 22.416380 Si / 1000 Ang^3
#
#
#
# Elastic Constant Matrix: (Units=GPa)
#
#
# Indices 1 2 3 4 5 6 
#
# 1 132.0726 21.5527 7.0022 -11.5389 18.1537 -7.3668
# 2 21.5527 100.1973 36.4043 -6.1727 9.5388 -4.1174
# 3 7.0022 36.4043 106.5048 1.8469 5.4771 -8.3430
# 4 -11.5389 -6.1727 1.8469 54.3450 -11.6558 15.8807
# 5 18.1537 9.5388 5.4771 -11.6558 24.6945 -3.4416
# 6 -7.3668 -4.1174 -8.3430 15.8807 -3.4416 40.5744
#
#
#
# Elastic Compliance Matrix: (Units=1/GPa)
#
#
# Indices 1 2 3 4 5 6 
#
# 1 0.008625 -0.001361 0.000259 0.000183 -0.005656 0.000930
# 2 -0.001361 0.011961 -0.003915 0.000784 -0.002430 -0.000351
# 3 0.000259 -0.003915 0.011023 -0.001848 -0.001647 0.002500
# 4 0.000183 0.000784 -0.001848 0.023163 0.009719 -0.008509
# 5 -0.005656 -0.002430 -0.001647 0.009719 0.050385 -0.001142
# 6 0.000930 -0.000351 0.002500 -0.008509 -0.001142 0.028527
#
#
# Mechanical properties :
#
#
# Convention : Reuss Voigt Hill
#
# Bulk Modulus (GPa) = 46.35221 52.07702 49.21462
# Shear Modulus (GPa) = 33.13239 42.17714 37.65476
#
# Velocity S-wave (km/s) = 3.84870 4.34237 4.10297
# Velocity P-wave (km/s) = 6.36182 6.95871 6.66695
#
# Compressibility (1/GPa) = 0.02157394
#
# Stress axis : x y z
#
# Youngs Moduli (GPa) = 115.93713 83.60687 90.71975
#
# Poissons Ratio (x) = 0.11382 -0.02348
# Poissons Ratio (y) = 0.15784 0.35516
# Poissons Ratio (z) = -0.03000 0.32732
#
# Static dielectric constant tensor:
#      x y z
#    x 1.886060 -0.042690 -0.001670 
#    y -0.042690 1.823940 -0.047910 
#    z -0.001670 -0.047910 1.815430 
# 
# From -- ./inp_files/345464.got.cif
#   From: 2010.05.17/outbox.cif.g08.bks.cpg/sg2_173_cif.got.tgz:345464.got - 2010.06.03 11:33:40.
