data_PCOD9068892
_publ_section_title
;
Structure prediction by ZEFSAII (Michael W. Deem and Ramdas Pophale) SiO2 
 PCOD9068892
Probable space group: P -1
;
_chemical_formula_sum "Si O2"
_cell_formula_units_Z 16
_cell_length_a 21.186941
_cell_length_b 22.847748
_cell_length_c 7.496274
_cell_angle_alpha 49.663980
_cell_angle_beta 128.595115
_cell_angle_gamma 167.309507
_cell_volume 607.025969
_symmetry_space_group_name_H-M "P -1"
_symmetry_group_IT_number 2
_symmetry_cell_setting 'triclinic'
loop_
_space_group_symop_operation_xyz
x,y,z
-x,-y,-z
loop_
_atom_site_type_symbol
_atom_site_label
_atom_site_fract_x
_atom_site_fract_y
_atom_site_fract_z
Si Si1 0.556410 0.924587 0.615807
Si Si2 0.808859 0.443133 0.924623
Si Si3 0.154380 0.267639 0.254208
Si Si4 0.610887 0.076486 0.847060
Si Si5 0.276283 0.414617 0.792583
Si Si6 0.496628 0.275992 0.862046
Si Si7 0.938319 0.009784 0.729275
Si Si8 0.816870 0.494458 0.463488
O O1 0.487426 0.820247 0.508202
O O2 0.394694 0.856166 0.428091
O O3 0.879513 0.234196 0.641010
O O4 0.445916 0.750052 0.875735
O O5 0.669079 0.401290 0.750601
O O6 0.916806 0.537196 0.726331
O O7 0.589439 0.173084 0.090080
O O8 0.077929 0.675331 0.064966
O O9 0.372230 0.529956 0.197846
O O10 0.837133 0.015402 0.181358
O O11 0.108406 0.162743 0.538221
O O12 0.243975 0.332385 0.079446
O O13 0.500000 0.000000 0.000000
O O14 0.223924 0.451771 0.699860
O O15 0.595912 0.699080 0.715586
O O16 0.050976 0.185722 0.694218
O O17 0.000000 0.000000 0.000000
#
# Coordination Sequence:
#
# PCOD9068892 Si02
#       8
#     2   2   2   2   2   2   2   2
#     4  12  23  39  64  87 130 166 223 287 332 405
#     4  12  24  38  64  89 129 178 225 296 356 407
#     4  12  25  48  75 106 145 185 237 292 345 419
#     4  12  23  39  59  91 126 176 231 282 355 426
#     4  12  25  46  78 106 143 193 234 281 353 412
#     4  12  25  45  65 102 135 175 234 295 351 401
#     4  12  28  48  74 114 151 183 229 281 340 428
#     4  12  21  40  65  96 120 170 234 278 332 402
#
# _framework density 26.358017
#
# number of rings (size 3 to 8) (size 9 to 14) (size 15 to 20)
#    0.000    0.000    5.000    6.000    0.000    2.000 
#    0.000    0.000    0.000    0.000    0.000    0.000 
#    0.000    0.000    0.000    0.000    0.000    0.000 
#
# Total GULP energy -89477.580251 kJ/mol
# GULP energy per Si atom -5592.348766 kJ/mol
# Density = 2.629803 g / cm^3
# Si number density = 26.358017 Si / 1000 Ang^3
#
#
#
# Elastic Constant Matrix: (Units=GPa)
#
#
# Indices 1 2 3 4 5 6 
#
# 1 36.7382 10.0871 -5.0508 -3.7517 -5.1386 -11.4156
# 2 10.0871 113.9452 10.3953 3.8816 2.7826 0.7594
# 3 -5.0508 10.3953 137.1532 -13.3994 -11.1471 -3.1146
# 4 -3.7517 3.8816 -13.3994 37.6524 5.5652 -2.7160
# 5 -5.1386 2.7826 -11.1471 5.5652 45.5331 1.3092
# 6 -11.4156 0.7594 -3.1146 -2.7160 1.3092 32.9071
#
#
#
# Elastic Compliance Matrix: (Units=1/GPa)
#
#
# Indices 1 2 3 4 5 6 
#
# 1 0.033323 -0.003520 0.002548 0.004927 0.003648 0.012144
# 2 -0.003520 0.009282 -0.001114 -0.001677 -0.000985 -0.001640
# 3 0.002548 -0.001114 0.007963 0.003057 0.001878 0.001841
# 4 0.004927 -0.001677 0.003057 0.028971 -0.002264 0.004518
# 5 0.003648 -0.000985 0.001878 -0.002264 0.023160 0.000358
# 6 0.012144 -0.001640 0.001841 0.004518 0.000358 0.035172
#
#
# Mechanical properties :
#
#
# Convention : Reuss Voigt Hill
#
# Bulk Modulus (GPa) = 21.55478 35.41110 28.48294
# Shear Modulus (GPa) = 31.74424 41.37886 36.56155
#
# Velocity S-wave (km/s) = 3.47414 3.96647 3.72844
# Velocity P-wave (km/s) = 4.92831 5.86864 5.41891
#
# Compressibility (1/GPa) = 0.04639342
#
# Stress axis : x y z
#
# Youngs Moduli (GPa) = 30.00915 107.74076 125.58794
#
# Poissons Ratio (x) = 0.37927 -0.31994
# Poissons Ratio (y) = 0.10564 0.13994
# Poissons Ratio (z) = -0.07645 0.12005
#
# Static dielectric constant tensor:
#      x y z
#    x 2.698180 -0.096680 -0.435190 
#    y -0.096680 2.013640 -0.020430 
#    z -0.435190 -0.020430 2.333070 
# 
# From -- ./inp_files/340264.got.cif
#   From: 2010.05.17/outbox.cif.g08.bks.cpg/sg2_171_cif.got.tgz:340264.got - 2010.06.03 11:33:40.
