data_PCOD9068750
_publ_section_title
;
Structure prediction by ZEFSAII (Michael W. Deem and Ramdas Pophale) SiO2 
 PCOD9068750
Probable space group: P -1
;
_chemical_formula_sum "Si O2"
_cell_formula_units_Z 13
_cell_length_a 6.672774
_cell_length_b 11.254284
_cell_length_c 9.348340
_cell_angle_alpha 99.114948
_cell_angle_beta 52.775575
_cell_angle_gamma 112.111050
_cell_volume 515.609858
_symmetry_space_group_name_H-M "P -1"
_symmetry_group_IT_number 2
_symmetry_cell_setting 'triclinic'
loop_
_space_group_symop_operation_xyz
x,y,z
-x,-y,-z
loop_
_atom_site_type_symbol
_atom_site_label
_atom_site_fract_x
_atom_site_fract_y
_atom_site_fract_z
Si Si1 0.760762 0.503933 0.703697
Si Si2 0.327154 0.261388 0.750941
Si Si3 0.026586 0.623528 0.911338
Si Si4 0.392553 0.988086 0.719668
Si Si5 0.978983 0.067802 0.353319
Si Si6 0.372049 0.301456 0.402397
Si Si7 0.500000 0.000000 0.000000
O O1 0.562393 0.357219 0.767234
O O2 0.622744 0.579265 0.676415
O O3 0.000000 0.500000 0.500000
O O4 0.858198 0.567071 0.827704
O O5 0.357918 0.124309 0.721912
O O6 0.341967 0.306432 0.587171
O O7 0.071535 0.282369 0.933061
O O8 0.333790 0.700615 0.751922
O O9 0.000000 0.500000 0.000000
O O10 0.685916 0.991886 0.539633
O O11 0.137662 0.887020 0.729276
O O12 0.382262 0.982175 0.890323
O O13 0.130541 0.184465 0.415686
O O14 0.199363 0.007443 0.197973
#
# Coordination Sequence:
#
# PCOD9068750 Si02
#       7
#     2   2   2   2   2   2   1
#     4  12  24  48  75 109 152 201 248 313 383 456
#     4  12  27  48  77 111 154 204 254 315 383 459
#     4  12  27  47  75 113 156 202 256 311 381 457
#     4  11  29  52  78 114 155 203 260 318 389 458
#     4  11  29  51  77 113 152 203 258 321 383 458
#     4  12  28  47  76 110 156 200 253 318 378 456
#     4  12  28  50  82 108 154 198 262 320 384 456
#
# _framework density 25.212861
#
# number of rings (size 3 to 8) (size 9 to 14) (size 15 to 20)
#    0.000    0.308    3.077    3.692   10.769    0.000 
#    0.000    0.000    0.000    0.000    0.000    0.000 
#    0.000    0.000    0.000    0.000    0.000    0.000 
#
# Total GULP energy -72517.249929 kJ/mol
# GULP energy per Si atom -5578.249995 kJ/mol
# Density = 2.515548 g / cm^3
# Si number density = 25.212861 Si / 1000 Ang^3
#
#
#
# Elastic Constant Matrix: (Units=GPa)
#
#
# Indices 1 2 3 4 5 6 
#
# 1 150.8942 48.6538 81.5649 3.1020 16.6152 20.9297
# 2 48.6538 89.1409 31.8365 17.5691 -0.1064 11.5989
# 3 81.5649 31.8365 224.9520 31.1159 5.5833 11.0816
# 4 3.1020 17.5691 31.1159 26.9083 2.4504 -3.2592
# 5 16.6152 -0.1064 5.5833 2.4504 74.9167 5.3354
# 6 20.9297 11.5989 11.0816 -3.2592 5.3354 43.1443
#
#
#
# Elastic Compliance Matrix: (Units=1/GPa)
#
#
# Indices 1 2 3 4 5 6 
#
# 1 0.011012 -0.005719 -0.004008 0.007066 -0.002243 -0.001964
# 2 -0.005719 0.016698 0.001575 -0.012629 0.001823 -0.003299
# 3 -0.004008 0.001575 0.006918 -0.008755 0.000734 -0.001008
# 4 0.007066 -0.012629 -0.008755 0.055843 -0.003246 0.006836
# 5 -0.002243 0.001823 0.000734 -0.003246 0.014011 -0.001568
# 6 -0.001964 -0.003299 -0.001008 0.006836 -0.001568 0.025987
#
#
# Mechanical properties :
#
#
# Convention : Reuss Voigt Hill
#
# Bulk Modulus (GPa) = 54.57601 87.67751 71.12676
# Shear Modulus (GPa) = 32.70514 49.18931 40.94722
#
# Velocity S-wave (km/s) = 3.60552 4.42176 4.03434
# Velocity P-wave (km/s) = 6.24709 7.80511 7.06915
#
# Compressibility (1/GPa) = 0.01832307
#
# Stress axis : x y z
#
# Youngs Moduli (GPa) = 90.81125 59.88865 144.54153
#
# Poissons Ratio (x) = 0.34248 0.57938
# Poissons Ratio (y) = 0.51931 -0.22758
# Poissons Ratio (z) = 0.36401 -0.09430
#
# Static dielectric constant tensor:
#      x y z
#    x 2.046620 -0.087660 -0.039700 
#    y -0.087660 2.031390 -0.002050 
#    z -0.039700 -0.002050 1.966480 
# 
# From -- ./inp_files/131716.got.cif
#   From: 2010.05.17/outbox.cif.g08.bks.cpg/sg2_66_cif.got.tgz:131716.got - 2010.06.03 11:33:40.
