data_PCOD9068767
_publ_section_title
;
Structure prediction by ZEFSAII (Michael W. Deem and Ramdas Pophale) SiO2 
 PCOD9068767
Probable space group: P -1
;
_chemical_formula_sum "Si O2"
_cell_formula_units_Z 10
_cell_length_a 12.479180
_cell_length_b 7.572430
_cell_length_c 11.984925
_cell_angle_alpha 127.987967
_cell_angle_beta 142.252555
_cell_angle_gamma 28.654583
_cell_volume 320.399594
_symmetry_space_group_name_H-M "P -1"
_symmetry_group_IT_number 2
_symmetry_cell_setting 'triclinic'
loop_
_space_group_symop_operation_xyz
x,y,z
-x,-y,-z
loop_
_atom_site_type_symbol
_atom_site_label
_atom_site_fract_x
_atom_site_fract_y
_atom_site_fract_z
Si Si1 0.317090 0.655572 0.192689
Si Si2 0.837736 0.453553 0.779507
Si Si3 0.120103 0.336120 0.327465
Si Si4 0.873251 0.225402 0.359228
Si Si5 0.478257 0.268347 0.963129
O O1 0.328040 0.437752 0.200406
O O2 0.548189 0.374159 0.168612
O O3 0.235296 0.355037 0.851205
O O4 0.310370 0.911454 0.335132
O O5 0.854529 0.505810 0.495004
O O6 0.851586 0.189605 0.637290
O O7 0.195632 0.132095 0.969198
O O8 0.703170 0.450760 0.180579
O O9 0.000000 0.000000 0.000000
O O10 0.220974 0.318958 0.282094
O O11 0.000000 0.000000 0.500000
#
# Coordination Sequence:
#
# PCOD9068767 Si02
#       5
#     2   2   2   2   2
#     4   9  21  39  56  84 114 141 189 229 266 336
#     4   9  21  39  56  84 114 141 189 229 266 336
#     4  12  18  38  66  74 112 160 170 228 294 304
#     4   8  22  38  54  86 116 136 190 234 260 336
#     4   8  22  38  54  86 116 136 190 234 260 336
#
# _framework density 31.211024999999999
#
# number of rings (size 3 to 8) (size 9 to 14) (size 15 to 20)
#    2.400    0.000    0.000    2.400    0.000    3.200 
#    0.000   10.000    0.000    0.000    0.000    0.000 
#    0.000    0.000    0.000    0.000    0.000    0.000 
#
# Total GULP energy -55852.081504 kJ/mol
# GULP energy per Si atom -5585.208150 kJ/mol
# Density = 3.113999 g / cm^3
# Si number density = 31.211025 Si / 1000 Ang^3
#
#
#
# Elastic Constant Matrix: (Units=GPa)
#
#
# Indices 1 2 3 4 5 6 
#
# 1 281.4985 66.9161 88.6238 20.3632 -27.6688 -16.6314
# 2 66.9161 142.7790 44.3280 -16.8870 10.7586 -11.3782
# 3 88.6238 44.3280 257.9569 -6.4481 9.4287 2.1450
# 4 20.3632 -16.8870 -6.4481 69.3573 -3.1054 3.6435
# 5 -27.6688 10.7586 9.4287 -3.1054 63.1685 4.7916
# 6 -16.6314 -11.3782 2.1450 3.6435 4.7916 67.6517
#
#
#
# Elastic Compliance Matrix: (Units=1/GPa)
#
#
# Indices 1 2 3 4 5 6 
#
# 1 0.005021 -0.002271 -0.001491 -0.002091 0.002643 0.000825
# 2 -0.002271 0.008814 -0.000591 0.002602 -0.002353 0.000969
# 3 -0.001491 -0.000591 0.004555 0.000695 -0.001155 -0.000566
# 4 -0.002091 0.002602 0.000695 0.015750 -0.000620 -0.000903
# 5 0.002643 -0.002353 -0.001155 -0.000620 0.017601 -0.000923
# 6 0.000825 0.000969 -0.000566 -0.000903 -0.000923 0.015279
#
#
# Mechanical properties :
#
#
# Convention : Reuss Voigt Hill
#
# Bulk Modulus (GPa) = 103.26556 120.21891 111.74224
# Shear Modulus (GPa) = 63.32705 72.19326 67.76015
#
# Velocity S-wave (km/s) = 4.50932 4.81466 4.66449
# Velocity P-wave (km/s) = 7.76338 8.33724 8.05542
#
# Compressibility (1/GPa) = 0.00968377
#
# Stress axis : x y z
#
# Youngs Moduli (GPa) = 199.14515 113.45291 219.55624
#
# Poissons Ratio (x) = 0.25769 0.32727
# Poissons Ratio (y) = 0.45233 0.12983
# Poissons Ratio (z) = 0.29685 0.06709
#
# Static dielectric constant tensor:
#      x y z
#    x 2.446270 -0.075710 0.224320 
#    y -0.075710 2.433140 0.092390 
#    z 0.224320 0.092390 2.849770 
# 
# From -- ./inp_files/34165.got.cif
#   From: 2010.05.17/outbox.cif.g08.bks.cpg/sg2_18_cif.got.tgz:34165.got - 2010.06.03 11:33:40.
