data_PCOD9068044
_publ_section_title
;
Structure prediction by ZEFSAII (Michael W. Deem and Ramdas Pophale) SiO2 
 PCOD9068044
Probable space group: P -1
;
_chemical_formula_sum "Si O2"
_cell_formula_units_Z 16
_cell_length_a 13.503602
_cell_length_b 9.528911
_cell_length_c 8.189995
_cell_angle_alpha 102.647769
_cell_angle_beta 78.816264
_cell_angle_gamma 139.950348
_cell_volume 661.060332
_symmetry_space_group_name_H-M "P -1"
_symmetry_group_IT_number 2
_symmetry_cell_setting 'triclinic'
loop_
_space_group_symop_operation_xyz
x,y,z
-x,-y,-z
loop_
_atom_site_type_symbol
_atom_site_label
_atom_site_fract_x
_atom_site_fract_y
_atom_site_fract_z
Si Si1 0.912382 0.017432 0.921291
Si Si2 0.376486 0.758251 0.807363
Si Si3 0.629383 0.556559 0.372549
Si Si4 0.033278 0.414355 0.833936
Si Si5 0.170349 0.327536 0.363874
Si Si6 0.901881 0.250932 0.504233
Si Si7 0.691120 0.891932 0.223543
Si Si8 0.598328 0.244259 0.815565
O O1 0.829906 0.823202 0.771505
O O2 0.804541 0.002224 0.061881
O O3 0.034794 0.257044 0.867340
O O4 0.000000 0.000000 0.000000
O O5 0.431769 0.656655 0.734684
O O6 0.206228 0.618429 0.761541
O O7 0.500959 0.996214 0.745343
O O8 0.358883 0.742676 0.006566
O O9 0.500000 0.500000 0.500000
O O10 0.756306 0.636766 0.478995
O O11 0.684690 0.726660 0.261858
O O12 0.896784 0.257905 0.703634
O O13 0.000000 0.500000 0.000000
O O14 0.263237 0.550188 0.289180
O O15 0.004993 0.221172 0.420840
O O16 0.000000 0.500000 0.500000
O O17 0.753923 0.064361 0.391269
O O18 0.528051 0.766730 0.174320
#
# Coordination Sequence:
#
# PCOD9068044 Si02
#       8
#     2   2   2   2   2   2   2   2
#     4  12  25  43  74 105 142 186 238 292 354 426
#     4  11  26  47  73 101 145 193 240 295 357 432
#     4  12  26  46  69 105 144 188 237 294 363 423
#     4  12  26  49  74 105 143 189 245 298 358 424
#     4  12  26  46  74 106 144 192 237 302 363 423
#     4  12  27  46  74 108 143 186 246 301 359 426
#     4  12  26  47  72 108 144 188 240 297 359 428
#     4  11  26  48  72 103 146 189 240 292 361 429
#
# _framework density 24.203541000000001
#
# number of rings (size 3 to 8) (size 9 to 14) (size 15 to 20)
#    0.000    0.250    3.750    5.250    3.500    3.500 
#    2.250    0.000    0.000    0.000    0.000    0.000 
#    0.000    0.000    0.000    0.000    0.000    0.000 
#
# Total GULP energy -89530.236966 kJ/mol
# GULP energy per Si atom -5595.639810 kJ/mol
# Density = 2.414845 g / cm^3
# Si number density = 24.203541 Si / 1000 Ang^3
#
#
#
# Elastic Constant Matrix: (Units=GPa)
#
#
# Indices 1 2 3 4 5 6 
#
# 1 65.1415 5.8835 10.3049 -3.9332 3.5800 -7.3637
# 2 5.8835 118.5036 17.1578 11.1127 -10.3453 -36.0789
# 3 10.3049 17.1578 86.8226 7.6527 -12.9684 -1.4493
# 4 -3.9332 11.1127 7.6527 23.8665 -8.8132 -3.0518
# 5 3.5800 -10.3453 -12.9684 -8.8132 43.2987 -4.3232
# 6 -7.3637 -36.0789 -1.4493 -3.0518 -4.3232 49.7933
#
#
#
# Elastic Compliance Matrix: (Units=1/GPa)
#
#
# Indices 1 2 3 4 5 6 
#
# 1 0.016265 -0.000187 -0.002327 0.003377 -0.001169 0.002308
# 2 -0.000187 0.011759 -0.001507 -0.002970 0.002617 0.008494
# 3 -0.002327 -0.001507 0.012769 -0.002797 0.002990 -0.000976
# 4 0.003377 -0.002970 -0.002797 0.047983 0.008131 0.001913
# 5 -0.001169 0.002617 0.002990 0.008131 0.026831 0.004638
# 6 0.002308 0.008494 -0.000976 0.001913 0.004638 0.027070
#
#
# Mechanical properties :
#
#
# Convention : Reuss Voigt Hill
#
# Bulk Modulus (GPa) = 30.53371 37.46224 33.99798
# Shear Modulus (GPa) = 30.93354 39.19979 35.06666
#
# Velocity S-wave (km/s) = 3.57887 4.02878 3.81047
# Velocity P-wave (km/s) = 5.45166 6.09533 5.78245
#
# Compressibility (1/GPa) = 0.03275069
#
# Stress axis : x y z
#
# Youngs Moduli (GPa) = 61.48077 85.04046 78.31707
#
# Poissons Ratio (x) = 0.01587 0.18227
# Poissons Ratio (y) = 0.01147 0.11804
# Poissons Ratio (z) = 0.14309 0.12817
#
# Static dielectric constant tensor:
#      x y z
#    x 1.655790 0.433470 0.567250 
#    y 0.433470 1.250420 -0.814070 
#    z 0.567250 -0.814070 1.145630 
# 
# From -- ./inp_files/209349.got.cif
#   From: 2010.05.17/outbox.cif.g08.bks.cpg/sg2_105_cif.got.tgz:209349.got - 2010.06.03 11:33:40.
