data_PCOD9068804
_publ_section_title
;
Structure prediction by ZEFSAII (Michael W. Deem and Ramdas Pophale) SiO2 
 PCOD9068804
Probable space group: P -1
;
_chemical_formula_sum "Si O2"
_cell_formula_units_Z 13
_cell_length_a 13.372095
_cell_length_b 17.842022
_cell_length_c 13.342506
_cell_angle_alpha 146.138835
_cell_angle_beta 31.255286
_cell_angle_gamma 157.782082
_cell_volume 612.085957
_symmetry_space_group_name_H-M "P -1"
_symmetry_group_IT_number 2
_symmetry_cell_setting 'triclinic'
loop_
_space_group_symop_operation_xyz
x,y,z
-x,-y,-z
loop_
_atom_site_type_symbol
_atom_site_label
_atom_site_fract_x
_atom_site_fract_y
_atom_site_fract_z
Si Si1 0.741438 0.629799 0.521817
Si Si2 0.026012 0.178501 0.111775
Si Si3 0.574462 0.512222 0.151035
Si Si4 0.500000 0.000000 0.500000
Si Si5 0.930039 0.423833 0.729190
Si Si6 0.169183 0.079185 0.702403
Si Si7 0.212525 0.685588 0.599912
O O1 0.500000 0.500000 0.500000
O O2 0.588618 0.557629 0.681226
O O3 0.944074 0.602605 0.319745
O O4 0.946626 0.867371 0.601708
O O5 0.778382 0.071292 0.285881
O O6 0.931474 0.245464 0.189381
O O7 0.335323 0.366072 0.105846
O O8 0.040742 0.055780 0.893679
O O9 0.738869 0.736615 0.229601
O O10 0.766976 0.477223 0.954125
O O11 0.723567 0.221144 0.614776
O O12 0.197061 0.605414 0.629788
O O13 0.468824 0.149356 0.538879
O O14 0.000000 0.500000 0.500000
#
# Coordination Sequence:
#
# PCOD9068804 Si02
#       7
#     2   2   2   1   2   2   2
#     4  12  29  51  69  97 140 194 247 288 335 405
#     4  12  24  38  68 110 145 177 218 285 361 433
#     4  12  25  46  71 108 140 179 236 288 350 428
#     4  12  22  38  64 104 152 180 212 278 364 424
#     4  12  25  42  68 105 143 179 234 289 346 420
#     4  12  25  44  74 101 141 189 225 287 360 410
#     4  12  20  39  66 103 148 179 218 278 357 432
#
# _framework density 21.238845999999999
#
# number of rings (size 3 to 8) (size 9 to 14) (size 15 to 20)
#    0.000    0.000    7.692    3.231    2.154    2.462 
#    0.000    0.769    0.000    0.000    0.000    0.000 
#    0.000    0.000    0.000    0.000    0.000    0.000 
#
# Total GULP energy -72498.721255 kJ/mol
# GULP energy per Si atom -5576.824712 kJ/mol
# Density = 2.119051 g / cm^3
# Si number density = 21.238846 Si / 1000 Ang^3
#
#
#
# Elastic Constant Matrix: (Units=GPa)
#
#
# Indices 1 2 3 4 5 6 
#
# 1 88.0182 51.8956 40.5393 16.2853 -28.6289 19.5178
# 2 51.8956 127.8607 54.6362 6.0606 -14.2063 15.5145
# 3 40.5393 54.6362 113.1989 -14.3403 -30.0591 14.8685
# 4 16.2853 6.0606 -14.3403 31.1739 -0.3630 3.2810
# 5 -28.6289 -14.2063 -30.0591 -0.3630 30.4605 -2.1481
# 6 19.5178 15.5145 14.8685 3.2810 -2.1481 37.3017
#
#
#
# Elastic Compliance Matrix: (Units=1/GPa)
#
#
# Indices 1 2 3 4 5 6 
#
# 1 0.026121 -0.006146 -0.001735 -0.012158 0.019245 -0.008242
# 2 -0.006146 0.012022 -0.005248 -0.001618 -0.005357 0.000141
# 3 -0.001735 -0.005248 0.017212 0.010409 0.012752 -0.003951
# 4 -0.012158 -0.001618 0.010409 0.043624 -0.001463 -0.001036
# 5 0.019245 -0.005357 0.012752 -0.001463 0.060328 -0.009322
# 6 -0.008242 0.000141 -0.003951 -0.001036 -0.009322 0.032192
#
#
# Mechanical properties :
#
#
# Convention : Reuss Voigt Hill
#
# Bulk Modulus (GPa) = 34.36685 69.24666 51.80676
# Shear Modulus (GPa) = 21.98226 31.92101 26.95164
#
# Velocity S-wave (km/s) = 3.22064 3.88100 3.56614
# Velocity P-wave (km/s) = 5.48145 7.26343 6.43443
#
# Compressibility (1/GPa) = 0.02909781
#
# Stress axis : x y z
#
# Youngs Moduli (GPa) = 38.28357 83.17998 58.09830
#
# Poissons Ratio (x) = 0.51119 0.10083
# Poissons Ratio (y) = 0.23528 0.30488
# Poissons Ratio (z) = 0.06644 0.43650
#
# Static dielectric constant tensor:
#      x y z
#    x 1.575480 -0.066920 -0.137820 
#    y -0.066920 1.766260 -0.015420 
#    z -0.137820 -0.015420 1.711730 
# 
# From -- ./inp_files/535198.got.cif
#   From: 2010.05.17/outbox.cif.g08.bks.cpg/sg2_268_cif.got.tgz:535198.got - 2010.06.03 11:33:40.
