data_PCOD9068883
_publ_section_title
;
Structure prediction by ZEFSAII (Michael W. Deem and Ramdas Pophale) SiO2 
 PCOD9068883
Probable space group: P -1
;
_chemical_formula_sum "Si O2"
_cell_formula_units_Z 12
_cell_length_a 5.392741
_cell_length_b 18.716857
_cell_length_c 9.252175
_cell_angle_alpha 35.367896
_cell_angle_beta 122.947890
_cell_angle_gamma 119.822087
_cell_volume 450.816673
_symmetry_space_group_name_H-M "P -1"
_symmetry_group_IT_number 2
_symmetry_cell_setting 'triclinic'
loop_
_space_group_symop_operation_xyz
x,y,z
-x,-y,-z
loop_
_atom_site_type_symbol
_atom_site_label
_atom_site_fract_x
_atom_site_fract_y
_atom_site_fract_z
Si Si1 0.617412 0.483728 0.730635
Si Si2 0.822555 0.150934 0.199842
Si Si3 0.510193 0.208143 0.281920
Si Si4 0.670666 0.934996 0.035683
Si Si5 0.165998 0.634293 0.364201
Si Si6 0.987558 0.288351 0.523902
O O1 0.500000 0.500000 0.500000
O O2 0.450100 0.580979 0.609766
O O3 0.943447 0.561063 0.717729
O O4 0.528201 0.347379 0.988003
O O5 0.720432 0.142295 0.347153
O O6 0.173075 0.143259 0.297295
O O7 0.566840 0.071266 0.159292
O O8 0.798230 0.288966 0.898754
O O9 0.682064 0.232898 0.445601
O O10 0.762022 0.795586 0.314654
O O11 0.500000 0.000000 0.000000
O O12 0.000000 0.000000 0.000000
O O13 0.027473 0.722638 0.288702
O O14 0.000000 0.500000 0.500000
#
# Coordination Sequence:
#
# PCOD9068883 Si02
#       6
#     2   2   2   2   2   2
#     4  12  21  40  69 104 146 198 233 270 341 439
#     4  12  24  47  70 102 141 189 232 286 349 428
#     4  12  27  42  70 112 153 182 220 288 366 424
#     4  12  27  50  79 100 126 187 254 297 345 417
#     4  12  21  39  71 101 146 192 239 269 338 435
#     4  12  27  44  68 109 147 184 236 304 347 410
#
# _framework density 26.618359000000002
#
# number of rings (size 3 to 8) (size 9 to 14) (size 15 to 20)
#    0.000    0.000    6.667    3.500    2.333    0.667 
#    0.000    5.000    0.000    0.000    0.000    0.000 
#    0.000    0.000    0.000    0.000    0.000    0.000 
#
# Total GULP energy -66993.910432 kJ/mol
# GULP energy per Si atom -5582.825869 kJ/mol
# Density = 2.655777 g / cm^3
# Si number density = 26.618359 Si / 1000 Ang^3
#
#
#
# Elastic Constant Matrix: (Units=GPa)
#
#
# Indices 1 2 3 4 5 6 
#
# 1 206.5442 88.5427 28.6482 9.6713 -4.4883 6.6856
# 2 88.5427 178.5849 31.9684 22.5316 -11.7690 24.1730
# 3 28.6482 31.9684 91.2244 -3.7440 7.6806 4.0779
# 4 9.6713 22.5316 -3.7440 41.7347 1.9511 3.0001
# 5 -4.4883 -11.7690 7.6806 1.9511 34.1640 -2.8802
# 6 6.6856 24.1730 4.0779 3.0001 -2.8802 67.1057
#
#
#
# Elastic Compliance Matrix: (Units=1/GPa)
#
#
# Indices 1 2 3 4 5 6 
#
# 1 0.006239 -0.003000 -0.000932 0.000052 0.000036 0.000515
# 2 -0.003000 0.008553 -0.002384 -0.004116 0.003128 -0.002319
# 3 -0.000932 -0.002384 0.012541 0.002819 -0.003933 -0.000105
# 4 0.000052 -0.004116 0.002819 0.026593 -0.003567 -0.000036
# 5 0.000036 0.003128 -0.003933 -0.003567 0.031493 0.000620
# 6 0.000515 -0.002319 -0.000105 -0.000036 0.000620 0.015721
#
#
# Mechanical properties :
#
#
# Convention : Reuss Voigt Hill
#
# Bulk Modulus (GPa) = 68.01848 86.07467 77.04658
# Shear Modulus (GPa) = 42.13300 50.41382 46.27341
#
# Velocity S-wave (km/s) = 3.98283 4.35667 4.17394
# Velocity P-wave (km/s) = 6.83807 7.59699 7.22750
#
# Compressibility (1/GPa) = 0.01470189
#
# Stress axis : x y z
#
# Youngs Moduli (GPa) = 160.29098 116.91681 79.73535
#
# Poissons Ratio (x) = 0.35078 0.07429
# Poissons Ratio (y) = 0.48091 0.19007
# Poissons Ratio (z) = 0.14935 0.27870
#
# Static dielectric constant tensor:
#      x y z
#    x 2.506660 0.158960 0.012170 
#    y 0.158960 2.167780 -0.056930 
#    z 0.012170 -0.056930 2.157540 
# 
# From -- ./inp_files/138638.got.cif
#   From: 2010.05.17/outbox.cif.g08.bks.cpg/sg2_70_cif.got.tgz:138638.got - 2010.06.03 11:33:40.
