data_PCOD9068114
_publ_section_title
;
Structure prediction by ZEFSAII (Michael W. Deem and Ramdas Pophale) SiO2 
 PCOD9068114
Probable space group: P -1
;
_chemical_formula_sum "Si O2"
_cell_formula_units_Z 13
_cell_length_a 6.135145
_cell_length_b 14.120893
_cell_length_c 8.086013
_cell_angle_alpha 127.713712
_cell_angle_beta 96.770901
_cell_angle_gamma 72.567368
_cell_volume 526.727260
_symmetry_space_group_name_H-M "P -1"
_symmetry_group_IT_number 2
_symmetry_cell_setting 'triclinic'
loop_
_space_group_symop_operation_xyz
x,y,z
-x,-y,-z
loop_
_atom_site_type_symbol
_atom_site_label
_atom_site_fract_x
_atom_site_fract_y
_atom_site_fract_z
Si Si1 0.500000 0.500000 0.500000
Si Si2 0.788916 0.097275 0.172252
Si Si3 0.657498 0.591368 0.282977
Si Si4 0.907856 0.914454 0.274108
Si Si5 0.345044 0.677925 0.043527
Si Si6 0.985444 0.324995 0.409829
Si Si7 0.363285 0.231820 0.060161
O O1 0.517320 0.590516 0.437082
O O2 0.780557 0.441227 0.459211
O O3 0.565719 0.137405 0.080835
O O4 0.887111 0.213006 0.334700
O O5 0.765283 0.020606 0.248909
O O6 0.000000 0.000000 0.000000
O O7 0.493732 0.671888 0.214473
O O8 0.870129 0.641156 0.393828
O O9 0.737450 0.445417 0.080871
O O10 0.145178 0.805844 0.135546
O O11 0.729770 0.829732 0.170757
O O12 0.000000 0.000000 0.500000
O O13 0.518085 0.663566 0.883937
O O14 0.155777 0.280220 0.220433
#
# Coordination Sequence:
#
# PCOD9068114 Si02
#       7
#     1   2   2   2   2   2   2
#     4  12  26  48  72 108 144 186 254 302 360 454
#     4  12  25  48  76 111 151 195 254 306 362 447
#     4  11  26  47  77 106 153 194 247 310 370 446
#     4  12  29  46  76 109 154 197 247 309 369 440
#     4  11  27  49  70 113 152 195 248 308 376 436
#     4  12  27  46  81 110 144 199 253 305 372 442
#     4  12  25  49  77 110 151 197 250 301 377 436
#
# _framework density 24.680707000000002
#
# number of rings (size 3 to 8) (size 9 to 14) (size 15 to 20)
#    0.000    0.308    3.077    4.615    6.462    3.077 
#    0.000    5.385    0.000    0.000    0.000    0.000 
#    0.000    0.000    0.000    0.000    0.000    0.000 
#
# Total GULP energy -72527.415297 kJ/mol
# GULP energy per Si atom -5579.031946 kJ/mol
# Density = 2.462453 g / cm^3
# Si number density = 24.680707 Si / 1000 Ang^3
#
#
#
# Elastic Constant Matrix: (Units=GPa)
#
#
# Indices 1 2 3 4 5 6 
#
# 1 131.7889 61.1462 61.9926 14.3552 25.2520 -36.2130
# 2 61.1462 147.6918 33.3549 -0.0200 3.1297 -24.2011
# 3 61.9926 33.3549 83.5139 18.0194 37.0783 -24.3602
# 4 14.3552 -0.0200 18.0194 50.7727 -5.3146 6.4706
# 5 25.2520 3.1297 37.0783 -5.3146 60.6767 4.7454
# 6 -36.2130 -24.2011 -24.3602 6.4706 4.7454 52.6098
#
#
#
# Elastic Compliance Matrix: (Units=1/GPa)
#
#
# Indices 1 2 3 4 5 6 
#
# 1 0.014645 -0.003750 -0.004905 -0.003672 -0.003764 0.006876
# 2 -0.003750 0.008807 -0.002639 0.002348 0.002949 -0.000307
# 3 -0.004905 -0.002639 0.032885 -0.014219 -0.020275 0.014214
# 4 -0.003672 0.002348 -0.014219 0.028839 0.013623 -0.012807
# 5 -0.003764 0.002949 -0.020275 0.013623 0.032670 -0.015245
# 6 0.006876 -0.000307 0.014214 -0.012807 -0.015245 0.033132
#
#
# Mechanical properties :
#
#
# Convention : Reuss Voigt Hill
#
# Bulk Modulus (GPa) = 29.63005 75.10912 52.36959
# Shear Modulus (GPa) = 27.05412 46.57858 36.81635
#
# Velocity S-wave (km/s) = 3.31443 4.34896 3.86645
# Velocity P-wave (km/s) = 5.16514 7.46434 6.41853
#
# Compressibility (1/GPa) = 0.03374952
#
# Stress axis : x y z
#
# Youngs Moduli (GPa) = 68.28147 113.54726 30.40937
#
# Poissons Ratio (x) = 0.42576 0.14915
# Poissons Ratio (y) = 0.25603 0.08026
# Poissons Ratio (z) = 0.33490 0.29967
#
# Static dielectric constant tensor:
#      x y z
#    x 1.914830 0.022380 0.051520 
#    y 0.022380 1.863450 -0.054680 
#    z 0.051520 -0.054680 1.777610 
# 
# From -- ./inp_files/25520.got.cif
#   From: 2010.05.17/outbox.cif.g08.bks.cpg/sg2_13_cif.got.tgz:25520.got - 2010.06.03 11:33:40.
