data_PCOD9068778
_publ_section_title
;
Structure prediction by ZEFSAII (Michael W. Deem and Ramdas Pophale) SiO2 
 PCOD9068778
Probable space group: P -1
;
_chemical_formula_sum "Si O2"
_cell_formula_units_Z 16
_cell_length_a 23.021885
_cell_length_b 10.495529
_cell_length_c 11.715272
_cell_angle_alpha 141.675025
_cell_angle_beta 29.440065
_cell_angle_gamma 148.074430
_cell_volume 724.468780
_symmetry_space_group_name_H-M "P -1"
_symmetry_group_IT_number 2
_symmetry_cell_setting 'triclinic'
loop_
_space_group_symop_operation_xyz
x,y,z
-x,-y,-z
loop_
_atom_site_type_symbol
_atom_site_label
_atom_site_fract_x
_atom_site_fract_y
_atom_site_fract_z
Si Si1 0.241248 0.097168 0.112349
Si Si2 0.397282 0.823635 0.651368
Si Si3 0.271963 0.259359 0.419123
Si Si4 0.898698 0.805735 0.131250
Si Si5 0.656670 0.639412 0.282778
Si Si6 0.920497 0.263133 0.047959
Si Si7 0.667501 0.088491 0.519061
Si Si8 0.589597 0.440557 0.004632
O O1 0.205450 0.161478 0.340104
O O2 0.364609 0.349081 0.020628
O O3 0.294912 0.916456 0.917069
O O4 0.124618 0.963462 0.119509
O O5 0.318072 0.541100 0.554495
O O6 0.500000 0.000000 0.500000
O O7 0.510389 0.891281 0.604624
O O8 0.167579 0.112304 0.598401
O O9 0.420036 0.277488 0.184981
O O10 0.761875 0.602684 0.152013
O O11 0.983479 0.720297 0.000331
O O12 0.000000 0.000000 0.000000
O O13 0.500000 0.500000 0.500000
O O14 0.648910 0.565678 0.113072
O O15 0.713141 0.926874 0.393359
O O16 0.776777 0.212987 0.314976
O O17 0.000000 0.500000 0.000000
O O18 0.654560 0.284857 0.748589
#
# Coordination Sequence:
#
# PCOD9068778 Si02
#       8
#     2   2   2   2   2   2   2   2
#     4  12  24  41  70 111 150 186 244 307 379 435
#     4  12  19  37  70 107 150 183 230 306 371 428
#     4  12  24  41  73 109 143 193 240 304 375 440
#     4  12  26  50  75  97 151 204 243 296 367 445
#     4  12  24  50  76 101 145 198 253 304 365 434
#     4  12  27  48  73 105 150 203 243 299 373 445
#     4  12  24  43  71 109 147 187 244 309 365 436
#     4  12  23  41  74 115 143 185 244 319 371 433
#
# _framework density 22.085148
#
# number of rings (size 3 to 8) (size 9 to 14) (size 15 to 20)
#    0.000    0.000    8.750    1.875    1.750    1.000 
#    2.250    0.625    0.000    0.000    0.000    0.000 
#    0.000    0.000    0.000    0.000    0.000    0.000 
#
# Total GULP energy -89505.160986 kJ/mol
# GULP energy per Si atom -5594.072562 kJ/mol
# Density = 2.203488 g / cm^3
# Si number density = 22.085148 Si / 1000 Ang^3
#
#
#
# Elastic Constant Matrix: (Units=GPa)
#
#
# Indices 1 2 3 4 5 6 
#
# 1 144.0436 38.4856 58.5076 -2.4563 7.8405 3.1487
# 2 38.4856 91.9594 67.1666 -2.1706 9.4610 -8.7831
# 3 58.5076 67.1666 136.6151 0.4034 24.1263 0.1851
# 4 -2.4563 -2.1706 0.4034 50.4637 -1.0569 6.1656
# 5 7.8405 9.4610 24.1263 -1.0569 47.8154 -7.5048
# 6 3.1487 -8.7831 0.1851 6.1656 -7.5048 30.2700
#
#
#
# Elastic Compliance Matrix: (Units=1/GPa)
#
#
# Indices 1 2 3 4 5 6 
#
# 1 0.008587 -0.001599 -0.002922 0.000548 0.000174 -0.001408
# 2 -0.001599 0.018213 -0.008622 0.000086 0.001948 0.005969
# 3 -0.002922 -0.008622 0.013755 -0.000302 -0.005317 -0.003539
# 4 0.000548 0.000086 -0.000302 0.020361 -0.000167 -0.004219
# 5 0.000174 0.001948 -0.005317 -0.000167 0.024218 0.006618
# 6 -0.001408 0.005969 -0.003539 -0.004219 0.006618 0.037436
#
#
# Mechanical properties :
#
#
# Convention : Reuss Voigt Hill
#
# Bulk Modulus (GPa) = 70.08053 77.88196 73.98124
# Shear Modulus (GPa) = 32.54991 39.60705 36.07848
#
# Velocity S-wave (km/s) = 3.84322 4.23943 4.04618
# Velocity P-wave (km/s) = 7.17598 7.70095 7.44309
#
# Compressibility (1/GPa) = 0.01426930
#
# Stress axis : x y z
#
# Youngs Moduli (GPa) = 116.45508 54.90734 72.70299
#
# Poissons Ratio (x) = 0.08780 0.21242
# Poissons Ratio (y) = 0.18623 0.62681
# Poissons Ratio (z) = 0.34025 0.47339
#
# Static dielectric constant tensor:
#      x y z
#    x 1.870400 0.003000 -0.020390 
#    y 0.003000 1.814230 -0.026830 
#    z -0.020390 -0.026830 1.809680 
# 
# From -- ./inp_files/474785.got.cif
#   From: 2010.05.17/outbox.cif.g08.bks.cpg/sg2_238_cif.got.tgz:474785.got - 2010.06.03 11:33:40.
