data_PCOD9068401
_publ_section_title
;
Structure prediction by ZEFSAII (Michael W. Deem and Ramdas Pophale) SiO2 
 PCOD9068401
Probable space group: P -1
;
_chemical_formula_sum "Si O2"
_cell_formula_units_Z 14
_cell_length_a 20.737668
_cell_length_b 8.349845
_cell_length_c 11.548506
_cell_angle_alpha 114.592484
_cell_angle_beta 152.051009
_cell_angle_gamma 46.954909
_cell_volume 574.117376
_symmetry_space_group_name_H-M "P -1"
_symmetry_group_IT_number 2
_symmetry_cell_setting 'triclinic'
loop_
_space_group_symop_operation_xyz
x,y,z
-x,-y,-z
loop_
_atom_site_type_symbol
_atom_site_label
_atom_site_fract_x
_atom_site_fract_y
_atom_site_fract_z
Si Si1 0.676167 0.918950 0.506504
Si Si2 0.112881 0.168213 0.703504
Si Si3 0.313902 0.606564 0.896845
Si Si4 0.973487 0.211810 0.082778
Si Si5 0.256397 0.233467 0.183631
Si Si6 0.443731 0.912318 0.984010
Si Si7 0.362747 0.516539 0.201719
O O1 0.791937 0.803865 0.778199
O O2 0.814633 0.885826 0.621333
O O3 0.469607 0.226292 0.281836
O O4 0.603534 0.800370 0.308951
O O5 0.872298 0.358214 0.378585
O O6 0.221106 0.873757 0.782512
O O7 0.220073 0.153397 0.756865
O O8 0.168901 0.214635 0.926761
O O9 0.499845 0.333610 0.047125
O O10 0.377904 0.587476 0.122845
O O11 0.819039 0.494223 0.861086
O O12 0.868553 0.277084 0.059058
O O13 0.000000 0.000000 0.000000
O O14 0.500000 0.000000 0.500000
O O15 0.500000 0.000000 0.000000
O O16 0.500000 0.500000 0.500000
#
# Coordination Sequence:
#
# PCOD9068401 Si02
#       7
#     2   2   2   2   2   2   2
#     4  12  25  47  72 110 144 193 245 295 371 432
#     4  11  26  50  72 105 147 197 243 297 367 434
#     4  11  27  46  74 105 146 194 246 299 362 439
#     4  12  27  43  71 111 146 186 241 306 364 432
#     4  12  24  49  77 104 148 194 240 305 363 432
#     4  12  25  45  71 105 147 190 239 295 363 440
#     4  12  24  45  71 105 146 187 242 303 364 423
#
# _framework density 24.385258
#
# number of rings (size 3 to 8) (size 9 to 14) (size 15 to 20)
#    0.000    0.286    5.714    2.571    2.000    0.571 
#    2.571    0.000    0.000    0.000    0.000    0.000 
#    0.000    0.000    0.000    0.000    0.000    0.000 
#
# Total GULP energy -78379.184724 kJ/mol
# GULP energy per Si atom -5598.513195 kJ/mol
# Density = 2.432976 g / cm^3
# Si number density = 24.385258 Si / 1000 Ang^3
#
#
#
# Elastic Constant Matrix: (Units=GPa)
#
#
# Indices 1 2 3 4 5 6 
#
# 1 90.1464 15.3155 8.9677 2.0630 11.3064 -22.5093
# 2 15.3155 103.9644 17.7882 -20.6122 7.8958 -3.9883
# 3 8.9677 17.7882 86.7377 11.7687 9.1902 -21.2374
# 4 2.0630 -20.6122 11.7687 40.8601 -1.0283 -2.0788
# 5 11.3064 7.8958 9.1902 -1.0283 31.3615 -5.0548
# 6 -22.5093 -3.9883 -21.2374 -2.0788 -5.0548 42.7230
#
#
#
# Elastic Compliance Matrix: (Units=1/GPa)
#
#
# Indices 1 2 3 4 5 6 
#
# 1 0.013593 -0.002057 0.001410 -0.001860 -0.003706 0.007142
# 2 -0.002057 0.011933 -0.003411 0.006999 -0.001272 -0.001475
# 3 0.001410 -0.003411 0.014963 -0.005811 -0.003062 0.007217
# 4 -0.001860 0.006999 -0.005811 0.029723 0.001326 -0.001612
# 5 -0.003706 -0.001272 -0.003062 0.001326 0.034574 0.000562
# 6 0.007142 -0.001475 0.007217 -0.001612 0.000562 0.030607
#
#
# Mechanical properties :
#
#
# Convention : Reuss Voigt Hill
#
# Bulk Modulus (GPa) = 30.88962 40.55459 35.72210
# Shear Modulus (GPa) = 32.40464 38.90739 35.65602
#
# Velocity S-wave (km/s) = 3.64931 3.99874 3.82802
# Velocity P-wave (km/s) = 5.51828 6.16334 5.84971
#
# Compressibility (1/GPa) = 0.03237333
#
# Stress axis : x y z
#
# Youngs Moduli (GPa) = 73.56798 83.80241 66.83295
#
# Poissons Ratio (x) = 0.17239 -0.09424
# Poissons Ratio (y) = 0.15134 0.22794
# Poissons Ratio (z) = -0.10374 0.28581
#
# Static dielectric constant tensor:
#      x y z
#    x 2.032810 -0.011080 0.022950 
#    y -0.011080 1.943040 0.024320 
#    z 0.022950 0.024320 1.930240 
# 
# From -- ./inp_files/405336.got.cif
#   From: 2010.05.17/outbox.cif.g08.bks.cpg/sg2_203_cif.got.tgz:405336.got - 2010.06.03 11:33:40.
