data_PCOD9068250
_publ_section_title
;
Structure prediction by ZEFSAII (Michael W. Deem and Ramdas Pophale) SiO2 
 PCOD9068250
Probable space group: P -1
;
_chemical_formula_sum "Si O2"
_cell_formula_units_Z 13
_cell_length_a 20.132610
_cell_length_b 9.149915
_cell_length_c 11.710849
_cell_angle_alpha 139.995080
_cell_angle_beta 148.595851
_cell_angle_gamma 29.799353
_cell_volume 555.954556
_symmetry_space_group_name_H-M "P -1"
_symmetry_group_IT_number 2
_symmetry_cell_setting 'triclinic'
loop_
_space_group_symop_operation_xyz
x,y,z
-x,-y,-z
loop_
_atom_site_type_symbol
_atom_site_label
_atom_site_fract_x
_atom_site_fract_y
_atom_site_fract_z
Si Si1 0.000000 0.500000 0.000000
Si Si2 0.965806 0.734553 0.502739
Si Si3 0.604329 0.211480 0.719716
Si Si4 0.581510 0.111285 0.112119
Si Si5 0.861827 0.354395 0.515066
Si Si6 0.027926 0.086241 0.969193
Si Si7 0.505109 0.142031 0.753458
O O1 0.946403 0.405320 0.984714
O O2 0.895339 0.451417 0.736743
O O3 0.000000 0.500000 0.500000
O O4 0.095534 0.560450 0.486548
O O5 0.777879 0.917367 0.296603
O O6 0.996552 0.932038 0.733910
O O7 0.498199 0.559908 0.768904
O O8 0.635890 0.104583 0.835326
O O9 0.524335 0.083641 0.465556
O O10 0.779656 0.067152 0.838117
O O11 0.544245 0.112019 0.924819
O O12 0.500000 0.000000 0.000000
O O13 0.666925 0.525827 0.324891
O O14 0.000000 0.000000 0.500000
O O15 0.000000 0.000000 0.000000
#
# Coordination Sequence:
#
# PCOD9068250 Si02
#       7
#     1   2   2   2   2   2   2
#     4  12  26  44  80 114 154 202 264 304 404 440
#     4  12  27  49  75 109 155 199 260 323 387 464
#     4  11  26  50  74 109 156 195 254 319 381 467
#     4  12  28  47  75 110 152 203 249 315 396 459
#     4  12  24  44  77 111 149 196 260 312 373 472
#     4  12  27  49  78 111 157 204 264 326 383 465
#     4  11  26  48  77 111 154 201 249 316 391 455
#
# _framework density 23.383205
#
# number of rings (size 3 to 8) (size 9 to 14) (size 15 to 20)
#    0.000    0.308    3.077    5.077    4.308    0.615 
#    2.769    0.000    0.000    0.000    0.000    0.000 
#    0.000    0.000    0.000    0.000    0.000    0.000 
#
# Total GULP energy -72532.108511 kJ/mol
# GULP energy per Si atom -5579.392962 kJ/mol
# Density = 2.332998 g / cm^3
# Si number density = 23.383205 Si / 1000 Ang^3
#
#
#
# Elastic Constant Matrix: (Units=GPa)
#
#
# Indices 1 2 3 4 5 6 
#
# 1 191.2828 29.0193 24.1748 -6.2247 3.9178 17.6595
# 2 29.0193 95.9243 13.1029 15.6971 -5.0833 16.0709
# 3 24.1748 13.1029 90.7758 7.2994 -19.2621 6.3234
# 4 -6.2247 15.6971 7.2994 19.4528 11.8873 -1.8034
# 5 3.9178 -5.0833 -19.2621 11.8873 48.6847 1.2453
# 6 17.6595 16.0709 6.3234 -1.8034 1.2453 38.3317
#
#
#
# Elastic Compliance Matrix: (Units=1/GPa)
#
#
# Indices 1 2 3 4 5 6 
#
# 1 0.006385 -0.002849 -0.002603 0.007466 -0.003643 -0.000848
# 2 -0.002849 0.015801 0.002206 -0.019882 0.007782 -0.006865
# 3 -0.002603 0.002206 0.014907 -0.014605 0.009986 -0.003196
# 4 0.007466 -0.019882 -0.014605 0.096242 -0.032284 0.012882
# 5 -0.003643 0.007782 0.009986 -0.032284 0.033629 -0.005843
# 6 -0.000848 -0.006865 -0.003196 0.012882 -0.005843 0.030680
#
#
# Mechanical properties :
#
#
# Convention : Reuss Voigt Hill
#
# Bulk Modulus (GPa) = 32.67852 56.73076 44.70464
# Shear Modulus (GPa) = 23.32784 42.07290 32.70037
#
# Velocity S-wave (km/s) = 3.16196 4.24639 3.74365
# Velocity P-wave (km/s) = 5.22840 6.95388 6.15194
#
# Compressibility (1/GPa) = 0.03060114
#
# Stress axis : x y z
#
# Youngs Moduli (GPa) = 156.61928 63.28632 67.08246
#
# Poissons Ratio (x) = 0.18028 0.17464
# Poissons Ratio (y) = 0.44615 -0.14798
# Poissons Ratio (z) = 0.40774 -0.13961
#
# Static dielectric constant tensor:
#      x y z
#    x 1.149000 1.061860 0.293640 
#    y 1.061860 0.584100 -0.416780 
#    z 0.293640 -0.416780 1.717860 
# 
# From -- ./inp_files/261307.got.cif
#   From: 2010.05.17/outbox.cif.g08.bks.cpg/sg2_131_cif.got.tgz:261307.got - 2010.06.03 11:33:40.
