data_PCOD9068376
_publ_section_title
;
Structure prediction by ZEFSAII (Michael W. Deem and Ramdas Pophale) SiO2 
 PCOD9068376
Probable space group: P -1
;
_chemical_formula_sum "Si O2"
_cell_formula_units_Z 12
_cell_length_a 11.756094
_cell_length_b 11.665566
_cell_length_c 5.296487
_cell_angle_alpha 79.728101
_cell_angle_beta 78.026294
_cell_angle_gamma 133.906120
_cell_volume 455.322398
_symmetry_space_group_name_H-M "P -1"
_symmetry_group_IT_number 2
_symmetry_cell_setting 'triclinic'
loop_
_space_group_symop_operation_xyz
x,y,z
-x,-y,-z
loop_
_atom_site_type_symbol
_atom_site_label
_atom_site_fract_x
_atom_site_fract_y
_atom_site_fract_z
Si Si1 0.491712 0.837567 0.205155
Si Si2 0.150922 0.661124 0.186334
Si Si3 0.066512 0.366325 0.074398
Si Si4 0.114118 0.105833 0.651803
Si Si5 0.291011 0.010019 0.469771
Si Si6 0.340586 0.471717 0.573400
O O1 0.335109 0.805009 0.195641
O O2 0.587093 0.951668 0.375748
O O3 0.397228 0.641266 0.384071
O O4 0.617349 0.912174 0.875149
O O5 0.160060 0.560286 0.023597
O O6 0.000000 0.500000 0.500000
O O7 0.059973 0.701881 0.082039
O O8 0.227914 0.405007 0.908913
O O9 0.905944 0.196840 0.388633
O O10 0.260565 0.115588 0.559294
O O11 0.199314 0.297474 0.533427
O O12 0.000000 0.000000 0.500000
O O13 0.000000 0.000000 0.000000
O O14 0.500000 0.500000 0.500000
#
# Coordination Sequence:
#
# PCOD9068376 Si02
#       6
#     2   2   2   2   2   2
#     4  12  28  48  75 114 152 199 255 310 377 450
#     4  11  26  49  79 108 151 202 261 310 384 454
#     4  11  27  50  78 110 152 205 253 319 383 452
#     4  12  27  46  75 111 152 203 251 305 381 457
#     4  12  28  48  75 115 156 195 255 316 380 450
#     4  12  26  50  78 114 155 201 251 316 382 461
#
# _framework density 26.354953999999999
#
# number of rings (size 3 to 8) (size 9 to 14) (size 15 to 20)
#    0.000    0.333    5.000    2.000    7.000    3.333 
#    0.000    0.000    0.000    0.000    0.000    0.000 
#    0.000    0.000    0.000    0.000    0.000    0.000 
#
# Total GULP energy -67235.148676 kJ/mol
# GULP energy per Si atom -5602.929056 kJ/mol
# Density = 2.629497 g / cm^3
# Si number density = 26.354954 Si / 1000 Ang^3
#
#
#
# Elastic Constant Matrix: (Units=GPa)
#
#
# Indices 1 2 3 4 5 6 
#
# 1 117.0600 26.7677 37.0005 9.9669 -22.3997 14.5559
# 2 26.7677 138.3003 38.8690 -3.2027 0.7601 12.8459
# 3 37.0005 38.8690 197.8021 -6.9165 -14.6137 8.8817
# 4 9.9669 -3.2027 -6.9165 47.6692 2.4575 3.1389
# 5 -22.3997 0.7601 -14.6137 2.4575 46.3049 10.3577
# 6 14.5559 12.8459 8.8817 3.1389 10.3577 52.3830
#
#
#
# Elastic Compliance Matrix: (Units=1/GPa)
#
#
# Indices 1 2 3 4 5 6 
#
# 1 0.011096 -0.001561 -0.001269 -0.002684 0.005917 -0.003494
# 2 -0.001561 0.008026 -0.001285 0.000811 -0.001078 -0.001152
# 3 -0.001269 -0.001285 0.005703 0.000980 0.001292 -0.000614
# 4 -0.002684 0.000811 0.000980 0.021876 -0.002046 -0.000526
# 5 0.005917 -0.001078 0.001292 -0.002046 0.026494 -0.006715
# 6 -0.003494 -0.001152 -0.000614 -0.000526 -0.006715 0.021807
#
#
# Mechanical properties :
#
#
# Convention : Reuss Voigt Hill
#
# Bulk Modulus (GPa) = 60.25784 73.15963 66.70873
# Shear Modulus (GPa) = 45.97213 52.63978 49.30596
#
# Velocity S-wave (km/s) = 4.18107 4.47401 4.33002
# Velocity P-wave (km/s) = 6.79868 7.38299 7.09685
#
# Compressibility (1/GPa) = 0.01659535
#
# Stress axis : x y z
#
# Youngs Moduli (GPa) = 90.12393 124.60252 175.35891
#
# Poissons Ratio (x) = 0.19452 0.22246
# Poissons Ratio (y) = 0.14070 0.22526
# Poissons Ratio (z) = 0.11433 0.16006
#
# Static dielectric constant tensor:
#      x y z
#    x 2.141410 -0.050290 0.009130 
#    y -0.050290 2.180070 0.001750 
#    z 0.009130 0.001750 2.064680 
# 
# From -- ./inp_files/45507.got.cif
#   From: 2010.05.17/outbox.cif.g08.bks.cpg/sg2_23_cif.got.tgz:45507.got - 2010.06.03 11:33:40.
