data_PCOD9068847
_publ_section_title
;
Structure prediction by ZEFSAII (Michael W. Deem and Ramdas Pophale) SiO2 
 PCOD9068847
Probable space group: P -1
;
_chemical_formula_sum "Si O2"
_cell_formula_units_Z 14
_cell_length_a 15.478517
_cell_length_b 13.285957
_cell_length_c 12.462370
_cell_angle_alpha 113.130562
_cell_angle_beta 113.796774
_cell_angle_gamma 18.366123
_cell_volume 738.434237
_symmetry_space_group_name_H-M "P -1"
_symmetry_group_IT_number 2
_symmetry_cell_setting 'triclinic'
loop_
_space_group_symop_operation_xyz
x,y,z
-x,-y,-z
loop_
_atom_site_type_symbol
_atom_site_label
_atom_site_fract_x
_atom_site_fract_y
_atom_site_fract_z
Si Si1 0.934021 0.142976 0.331134
Si Si2 0.977033 0.254076 0.060013
Si Si3 0.943107 0.236725 0.799329
Si Si4 0.204175 0.311457 0.925633
Si Si5 0.463702 0.655002 0.481768
Si Si6 0.558567 0.556931 0.103534
Si Si7 0.654174 0.058976 0.264479
O O1 0.735745 0.375320 0.430653
O O2 0.747447 0.349720 0.217723
O O3 0.060922 0.883483 0.288182
O O4 0.198118 0.932500 0.387660
O O5 0.886146 0.477398 0.087073
O O6 0.731979 0.445177 0.062388
O O7 0.059203 0.120141 0.927669
O O8 0.257255 0.935750 0.134421
O O9 0.638107 0.617692 0.807265
O O10 0.132792 0.095203 0.753910
O O11 0.227858 0.190687 0.797256
O O12 0.000000 0.500000 0.000000
O O13 0.500000 0.000000 0.000000
O O14 0.500000 0.500000 0.500000
O O15 0.408964 0.816021 0.601229
O O16 0.500000 0.500000 0.000000
#
# Coordination Sequence:
#
# PCOD9068847 Si02
#       7
#     2   2   2   2   2   2   2
#     4  12  24  39  59  91 126 162 202 249 303 374
#     4  12  24  40  62  92 129 162 201 253 311 370
#     4  12  21  35  64  91 128 156 200 244 306 386
#     4  12  23  40  64  93 125 161 202 257 315 363
#     4  12  23  38  62  88 127 162 201 251 313 360
#     4  12  26  40  63  90 125 168 206 249 310 365
#     4  12  23  38  60  95 125 162 197 249 315 374
#
# _framework density 18.959033000000002
#
# number of rings (size 3 to 8) (size 9 to 14) (size 15 to 20)
#    0.000    0.000    7.143    4.286    2.000    0.000 
#    0.000    0.000    0.000    5.143    0.000    0.000 
#    0.000    0.000    0.000    0.000    0.000    0.000 
#
# Total GULP energy -78249.686192 kJ/mol
# GULP energy per Si atom -5589.263299 kJ/mol
# Density = 1.891588 g / cm^3
# Si number density = 18.959033 Si / 1000 Ang^3
#
#
#
# Elastic Constant Matrix: (Units=GPa)
#
#
# Indices 1 2 3 4 5 6 
#
# 1 67.5158 39.4838 17.3766 11.4839 3.2795 28.2332
# 2 39.4838 117.4808 21.6889 -0.7050 10.6283 6.8373
# 3 17.3766 21.6889 93.5701 15.9130 16.2925 21.4142
# 4 11.4839 -0.7050 15.9130 47.3325 -3.5978 5.2174
# 5 3.2795 10.6283 16.2925 -3.5978 33.4719 12.3802
# 6 28.2332 6.8373 21.4142 5.2174 12.3802 30.8402
#
#
#
# Elastic Compliance Matrix: (Units=1/GPa)
#
#
# Indices 1 2 3 4 5 6 
#
# 1 0.036768 -0.011894 0.003265 -0.005209 0.011758 -0.037128
# 2 -0.011894 0.012880 -0.002915 0.002310 -0.005675 0.011945
# 3 0.003265 -0.002915 0.014484 -0.004806 -0.003142 -0.010325
# 4 -0.005209 0.002310 -0.004806 0.024136 0.004007 0.001902
# 5 0.011758 -0.005675 -0.003142 0.004007 0.041626 -0.024712
# 6 -0.037128 0.011945 -0.010325 0.001902 -0.024712 0.080535
#
#
# Mechanical properties :
#
#
# Convention : Reuss Voigt Hill
#
# Bulk Modulus (GPa) = 24.36474 48.40725 36.38599
# Shear Modulus (GPa) = 20.22672 35.66341 27.94507
#
# Velocity S-wave (km/s) = 3.26983 4.34184 3.84340
# Velocity P-wave (km/s) = 5.20912 7.12204 6.23933
#
# Compressibility (1/GPa) = 0.04104292
#
# Stress axis : x y z
#
# Youngs Moduli (GPa) = 27.19771 77.64158 69.04220
#
# Poissons Ratio (x) = 0.92347 -0.22540
# Poissons Ratio (y) = 0.32349 0.20125
# Poissons Ratio (z) = -0.08879 0.22631
#
# Static dielectric constant tensor:
#      x y z
#    x 1.650570 -0.000910 0.017360 
#    y -0.000910 1.660400 -0.022270 
#    z 0.017360 -0.022270 1.696970 
# 
# From -- ./inp_files/71644.got.cif
#   From: 2010.05.17/outbox.cif.g08.bks.cpg/sg2_36_cif.got.tgz:71644.got - 2010.06.03 11:33:40.
