data_PCOD9068197
_publ_section_title
;
Structure prediction by ZEFSAII (Michael W. Deem and Ramdas Pophale) SiO2 
 PCOD9068197
Probable space group: P -1
;
_chemical_formula_sum "Si O2"
_cell_formula_units_Z 12
_cell_length_a 10.138133
_cell_length_b 7.996791
_cell_length_c 15.303739
_cell_angle_alpha 35.307826
_cell_angle_beta 45.998257
_cell_angle_gamma 45.640272
_cell_volume 489.020369
_symmetry_space_group_name_H-M "P -1"
_symmetry_group_IT_number 2
_symmetry_cell_setting 'triclinic'
loop_
_space_group_symop_operation_xyz
x,y,z
-x,-y,-z
loop_
_atom_site_type_symbol
_atom_site_label
_atom_site_fract_x
_atom_site_fract_y
_atom_site_fract_z
Si Si1 0.593660 0.734937 0.787128
Si Si2 0.093181 0.220632 0.510736
Si Si3 0.589695 0.278305 0.344572
Si Si4 0.219697 0.289503 0.981125
Si Si5 0.776595 0.046041 0.058484
Si Si6 0.714477 0.141504 0.698518
O O1 0.732497 0.731522 0.643850
O O2 0.365296 0.934919 0.800788
O O3 0.660847 0.910833 0.758562
O O4 0.664516 0.380948 0.930165
O O5 0.000000 0.500000 0.500000
O O6 0.912453 0.187892 0.555754
O O7 0.194545 0.899914 0.647193
O O8 0.445162 0.527678 0.366702
O O9 0.500000 0.000000 0.500000
O O10 0.636302 0.509229 0.153527
O O11 0.259169 0.015591 0.150152
O O12 0.000000 0.500000 0.000000
O O13 0.238865 0.171397 0.921917
O O14 0.000000 0.000000 0.000000
#
# Coordination Sequence:
#
# PCOD9068197 Si02
#       6
#     2   2   2   2   2   2
#     4  11  27  46  74 109 152 196 250 318 378 445
#     4  12  26  48  71 110 154 197 251 309 384 456
#     4  12  27  44  77 112 149 201 251 313 380 450
#     4  12  25  48  81 108 149 201 255 309 381 453
#     4  11  26  48  73 111 152 200 252 311 377 452
#     4  12  25  49  76 109 149 197 257 311 376 454
#
# _framework density 24.538858000000001
#
# number of rings (size 3 to 8) (size 9 to 14) (size 15 to 20)
#    0.000    0.333    5.000    3.000    0.000    4.667 
#    0.000    0.000    0.000    0.000    0.000    0.000 
#    0.000    0.000    0.000    0.000    0.000    0.000 
#
# Total GULP energy -67000.436222 kJ/mol
# GULP energy per Si atom -5583.369685 kJ/mol
# Density = 2.448301 g / cm^3
# Si number density = 24.538858 Si / 1000 Ang^3
#
#
#
# Elastic Constant Matrix: (Units=GPa)
#
#
# Indices 1 2 3 4 5 6 
#
# 1 80.5303 62.5535 9.2207 3.9463 -22.3548 -4.3058
# 2 62.5535 233.9103 62.1875 2.8895 -10.9658 -12.2943
# 3 9.2207 62.1875 106.3148 10.8676 -23.5526 -0.8318
# 4 3.9463 2.8895 10.8676 57.0521 -3.7603 -11.4942
# 5 -22.3548 -10.9658 -23.5526 -3.7603 43.6182 -1.6847
# 6 -4.3058 -12.2943 -0.8318 -11.4942 -1.6847 50.7861
#
#
#
# Elastic Compliance Matrix: (Units=1/GPa)
#
#
# Indices 1 2 3 4 5 6 
#
# 1 0.019478 -0.005781 0.004176 -0.001056 0.010710 0.000437
# 2 -0.005781 0.006872 -0.004369 0.000895 -0.003472 0.001189
# 3 0.004176 -0.004369 0.013639 -0.002272 0.008183 -0.000723
# 4 -0.001056 0.000895 -0.002272 0.018886 0.000254 0.004373
# 5 0.010710 -0.003472 0.008183 0.000254 0.032034 0.001322
# 6 0.000437 0.001189 -0.000723 0.004373 0.001322 0.021037
#
#
# Mechanical properties :
#
#
# Convention : Reuss Voigt Hill
#
# Bulk Modulus (GPa) = 35.66239 76.51984 56.09112
# Shear Modulus (GPa) = 37.52595 49.41086 43.46840
#
# Velocity S-wave (km/s) = 3.91480 4.49216 4.21338
# Velocity P-wave (km/s) = 5.91598 7.62606 6.82479
#
# Compressibility (1/GPa) = 0.02804074
#
# Stress axis : x y z
#
# Youngs Moduli (GPa) = 51.33870 145.52839 73.31955
#
# Poissons Ratio (x) = 0.84134 -0.30622
# Poissons Ratio (y) = 0.29680 0.32035
# Poissons Ratio (z) = -0.21441 0.63585
#
# Static dielectric constant tensor:
#      x y z
#    x 2.052360 0.043460 0.105180 
#    y 0.043460 1.864320 0.111340 
#    z 0.105180 0.111340 2.185780 
# 
# From -- ./inp_files/565625.got.cif
#   From: 2010.05.17/outbox.cif.g08.bks.cpg/sg2_283_cif.got.tgz:565625.got - 2010.06.03 11:33:40.
