data_PCOD9068112
_publ_section_title
;
Structure prediction by ZEFSAII (Michael W. Deem and Ramdas Pophale) SiO2 
 PCOD9068112
Probable space group: P -1
;
_chemical_formula_sum "Si O2"
_cell_formula_units_Z 16
_cell_length_a 30.151566
_cell_length_b 12.152572
_cell_length_c 5.156925
_cell_angle_alpha 77.313652
_cell_angle_beta 63.306783
_cell_angle_gamma 27.099812
_cell_volume 689.485259
_symmetry_space_group_name_H-M "P -1"
_symmetry_group_IT_number 2
_symmetry_cell_setting 'triclinic'
loop_
_space_group_symop_operation_xyz
x,y,z
-x,-y,-z
loop_
_atom_site_type_symbol
_atom_site_label
_atom_site_fract_x
_atom_site_fract_y
_atom_site_fract_z
Si Si1 0.048579 0.017205 0.479440
Si Si2 0.394323 0.197551 0.873457
Si Si3 0.999837 0.420986 0.791916
Si Si4 0.167984 0.864145 0.731028
Si Si5 0.581065 0.650431 0.889650
Si Si6 0.787378 0.595575 0.842069
Si Si7 0.239817 0.222621 0.698813
Si Si8 0.477663 0.621067 0.246769
O O1 0.921937 0.334023 0.712909
O O2 0.121533 0.870701 0.631211
O O3 0.000000 0.000000 0.500000
O O4 0.116980 0.940176 0.108991
O O5 0.500000 0.000000 0.500000
O O6 0.453391 0.968688 0.985956
O O7 0.378400 0.342343 0.006415
O O8 0.271133 0.406716 0.977162
O O9 0.000000 0.500000 0.500000
O O10 0.107593 0.108032 0.679836
O O11 0.000000 0.500000 0.000000
O O12 0.876343 0.609961 0.035580
O O13 0.310955 0.572908 0.485091
O O14 0.555473 0.575060 0.073147
O O15 0.788075 0.625268 0.522318
O O16 0.716174 0.818406 0.120433
O O17 0.341760 0.939000 0.449127
O O18 0.500000 0.500000 0.500000
O O19 0.500000 0.500000 0.000000
#
# Coordination Sequence:
#
# PCOD9068112 Si02
#       8
#     2   2   2   2   2   2   2   2
#     4  12  25  45  69 106 143 188 230 282 359 426
#     4  11  26  47  77 106 146 195 242 302 368 437
#     4  12  26  46  73 104 139 195 243 295 361 419
#     4  12  27  47  70 108 147 183 238 299 355 427
#     4  11  28  48  72 110 146 191 246 302 367 435
#     4  12  23  46  75 104 144 186 236 295 358 436
#     4  12  25  48  72 104 143 184 245 298 358 431
#     4  12  29  49  73 105 142 192 242 302 361 426
#
# _framework density 23.205715999999999
#
# number of rings (size 3 to 8) (size 9 to 14) (size 15 to 20)
#    0.000    0.250    3.750    4.125   10.500    0.000 
#    0.000    0.000    0.000    0.000    0.000    0.000 
#    0.000    0.000    0.000    0.000    0.000    0.000 
#
# Total GULP energy -89519.365182 kJ/mol
# GULP energy per Si atom -5594.960324 kJ/mol
# Density = 2.315290 g / cm^3
# Si number density = 23.205716 Si / 1000 Ang^3
#
#
#
# Elastic Constant Matrix: (Units=GPa)
#
#
# Indices 1 2 3 4 5 6 
#
# 1 146.2868 24.0175 62.3963 -4.6904 5.1552 15.9995
# 2 24.0175 60.1645 23.4044 5.1037 -6.8715 4.2077
# 3 62.3963 23.4044 147.6852 5.3541 -10.0296 3.9761
# 4 -4.6904 5.1037 5.3541 51.6364 -2.5283 2.0539
# 5 5.1552 -6.8715 -10.0296 -2.5283 50.2117 3.5776
# 6 15.9995 4.2077 3.9761 2.0539 3.5776 39.2116
#
#
#
# Elastic Compliance Matrix: (Units=1/GPa)
#
#
# Indices 1 2 3 4 5 6 
#
# 1 0.009203 -0.002380 -0.003598 0.001483 -0.001697 -0.003058
# 2 -0.002380 0.018732 -0.001707 -0.001731 0.002451 -0.000999
# 3 -0.003598 -0.001707 0.008701 -0.001000 0.001776 0.000659
# 4 0.001483 -0.001731 -0.001000 0.019856 0.000511 -0.001405
# 5 -0.001697 0.002451 0.001776 0.000511 0.020926 -0.001687
# 6 -0.003058 -0.000999 0.000659 -0.001405 -0.001687 0.027018
#
#
# Mechanical properties :
#
#
# Convention : Reuss Voigt Hill
#
# Bulk Modulus (GPa) = 47.02260 63.75255 55.38758
# Shear Modulus (GPa) = 39.40294 44.49982 41.95138
#
# Velocity S-wave (km/s) = 4.12513 4.38382 4.25644
# Velocity P-wave (km/s) = 6.55716 7.29083 6.93371
#
# Compressibility (1/GPa) = 0.02126637
#
# Stress axis : x y z
#
# Youngs Moduli (GPa) = 108.66103 53.38524 114.93203
#
# Poissons Ratio (x) = 0.12706 0.41349
# Poissons Ratio (y) = 0.25861 0.19618
# Poissons Ratio (z) = 0.39093 0.09112
#
# Static dielectric constant tensor:
#      x y z
#    x 1.861190 0.009730 0.014860 
#    y 0.009730 2.069460 0.023470 
#    z 0.014860 0.023470 1.890750 
# 
# From -- ./inp_files/128470.got.cif
#   From: 2010.05.17/outbox.cif.g08.bks.cpg/sg2_65_cif.got.tgz:128470.got - 2010.06.03 11:33:40.
