data_PCOD9068071
_publ_section_title
;
Structure prediction by ZEFSAII (Michael W. Deem and Ramdas Pophale) SiO2 
 PCOD9068071
Probable space group: P -1
;
_chemical_formula_sum "Si O2"
_cell_formula_units_Z 12
_cell_length_a 25.270086
_cell_length_b 15.609524
_cell_length_c 10.007445
_cell_angle_alpha 27.969062
_cell_angle_beta 152.280228
_cell_angle_gamma 163.895322
_cell_volume 492.701948
_symmetry_space_group_name_H-M "P -1"
_symmetry_group_IT_number 2
_symmetry_cell_setting 'triclinic'
loop_
_space_group_symop_operation_xyz
x,y,z
-x,-y,-z
loop_
_atom_site_type_symbol
_atom_site_label
_atom_site_fract_x
_atom_site_fract_y
_atom_site_fract_z
Si Si1 0.719106 0.265893 0.255335
Si Si2 0.804001 0.123595 0.099794
Si Si3 0.938287 0.872732 0.387067
Si Si4 0.507762 0.727817 0.736188
Si Si5 0.383662 0.085551 0.746165
Si Si6 0.911371 0.047074 0.824555
O O1 0.935943 0.584199 0.361598
O O2 0.594052 0.959406 0.487487
O O3 0.712123 0.182157 0.204908
O O4 0.610293 0.319358 0.935959
O O5 0.892947 0.036789 0.417917
O O6 0.702082 0.039341 0.126151
O O7 0.000000 0.500000 0.000000
O O8 0.652388 0.945208 0.885087
O O9 0.714664 0.500068 0.410639
O O10 0.000000 0.000000 0.500000
O O11 0.919398 0.011444 0.048212
O O12 0.500000 0.500000 0.000000
O O13 0.311049 0.185949 0.391042
O O14 0.000000 0.000000 0.000000
#
# Coordination Sequence:
#
# PCOD9068071 Si02
#       6
#     2   2   2   2   2   2
#     4  11  28  49  78 108 156 203 256 315 385 456
#     4  12  27  46  77 113 154 198 254 320 384 455
#     4  12  28  48  77 112 154 200 256 314 388 455
#     4  12  27  50  80 114 151 204 261 314 384 460
#     4  11  26  47  74 109 152 197 256 309 386 447
#     4  12  27  49  76 114 153 201 256 317 385 461
#
# _framework density 24.355495999999999
#
# number of rings (size 3 to 8) (size 9 to 14) (size 15 to 20)
#    0.000    0.333    3.333    3.500    9.333    3.333 
#    0.000    0.000    0.000    0.000    0.000    0.000 
#    0.000    0.000    0.000    0.000    0.000    0.000 
#
# Total GULP energy -67256.108181 kJ/mol
# GULP energy per Si atom -5604.675682 kJ/mol
# Density = 2.430006 g / cm^3
# Si number density = 24.355496 Si / 1000 Ang^3
#
#
#
# Elastic Constant Matrix: (Units=GPa)
#
#
# Indices 1 2 3 4 5 6 
#
# 1 170.2719 42.2572 47.9180 16.0464 -7.2767 -0.3073
# 2 42.2572 124.3806 34.7527 20.8859 -13.3125 -3.7141
# 3 47.9180 34.7527 124.8992 26.5746 -5.1970 1.0534
# 4 16.0464 20.8859 26.5746 50.5565 6.1851 2.8670
# 5 -7.2767 -13.3125 -5.1970 6.1851 46.0194 14.6259
# 6 -0.3073 -3.7141 1.0534 2.8670 14.6259 31.7432
#
#
#
# Elastic Compliance Matrix: (Units=1/GPa)
#
#
# Indices 1 2 3 4 5 6 
#
# 1 0.006933 -0.001646 -0.002075 -0.000480 0.000533 -0.000259
# 2 -0.001646 0.009805 -0.001301 -0.003197 0.002804 0.000171
# 3 -0.002075 -0.001301 0.010123 -0.004236 0.001228 -0.000691
# 4 -0.000480 -0.003197 -0.004236 0.024061 -0.004624 -0.000281
# 5 0.000533 0.002804 0.001228 -0.004624 0.027133 -0.011792
# 6 -0.000259 0.000171 -0.000691 -0.000281 -0.011792 0.037002
#
#
# Mechanical properties :
#
#
# Convention : Reuss Voigt Hill
#
# Bulk Modulus (GPa) = 59.46791 74.37860 66.92325
# Shear Modulus (GPa) = 38.25373 45.30543 41.77958
#
# Velocity S-wave (km/s) = 3.96743 4.31765 4.14624
# Velocity P-wave (km/s) = 6.74218 7.44723 7.10346
#
# Compressibility (1/GPa) = 0.01681579
#
# Stress axis : x y z
#
# Youngs Moduli (GPa) = 144.23810 101.99291 98.78573
#
# Poissons Ratio (x) = 0.16784 0.20503
# Poissons Ratio (y) = 0.23736 0.12855
# Poissons Ratio (z) = 0.29936 0.13272
#
# Static dielectric constant tensor:
#      x y z
#    x 1.917270 0.008450 0.054100 
#    y 0.008450 1.871690 -0.015580 
#    z 0.054100 -0.015580 1.993070 
# 
# From -- ./inp_files/354495.got.cif
#   From: 2010.05.17/outbox.cif.g08.bks.cpg/sg2_178_cif.got.tgz:354495.got - 2010.06.03 11:33:40.
