data_PCOD9068685
_publ_section_title
;
Structure prediction by ZEFSAII (Michael W. Deem and Ramdas Pophale) SiO2 
 PCOD9068685
Probable space group: P -1
;
_chemical_formula_sum "Si O2"
_cell_formula_units_Z 10
_cell_length_a 5.306281
_cell_length_b 14.664951
_cell_length_c 10.578213
_cell_angle_alpha 146.992845
_cell_angle_beta 91.435298
_cell_angle_gamma 104.079650
_cell_volume 391.945804
_symmetry_space_group_name_H-M "P -1"
_symmetry_group_IT_number 2
_symmetry_cell_setting 'triclinic'
loop_
_space_group_symop_operation_xyz
x,y,z
-x,-y,-z
loop_
_atom_site_type_symbol
_atom_site_label
_atom_site_fract_x
_atom_site_fract_y
_atom_site_fract_z
Si Si1 0.552810 0.002140 0.150886
Si Si2 0.810502 0.181266 0.677868
Si Si3 0.670899 0.388014 0.397976
Si Si4 0.162066 0.161264 0.451957
Si Si5 0.268792 0.555254 0.235805
O O1 0.684653 0.367852 0.528736
O O2 0.328100 0.047111 0.276565
O O3 0.500000 0.000000 0.000000
O O4 0.464068 0.781000 0.904388
O O5 0.774644 0.315154 0.723098
O O6 0.896567 0.116422 0.306040
O O7 0.500000 0.000000 0.500000
O O8 0.015692 0.338806 0.966153
O O9 0.500000 0.500000 0.500000
O O10 0.000000 0.500000 0.500000
O O11 0.398492 0.386733 0.721794
O O12 0.004139 0.107078 0.520531
#
# Coordination Sequence:
#
# PCOD9068685 Si02
#       5
#     2   2   2   2   2
#     4  12  25  46  81 114 158 214 266 333 411 487
#     4  11  27  52  85 122 164 221 284 345 414 487
#     4  12  29  49  79 121 166 213 270 339 417 497
#     4  12  24  48  81 113 161 210 271 337 409 483
#     4  11  27  52  82 119 170 214 279 344 412 488
#
# _framework density 25.513732000000001
#
# number of rings (size 3 to 8) (size 9 to 14) (size 15 to 20)
#    0.000    0.400    4.000    2.400    8.400    2.400 
#    0.000    0.000    0.000    0.000    0.000    0.000 
#    0.000    0.000    0.000    0.000    0.000    0.000 
#
# Total GULP energy -55742.229732 kJ/mol
# GULP energy per Si atom -5574.222973 kJ/mol
# Density = 2.545566 g / cm^3
# Si number density = 25.513732 Si / 1000 Ang^3
#
#
#
# Elastic Constant Matrix: (Units=GPa)
#
#
# Indices 1 2 3 4 5 6 
#
# 1 223.5198 55.1011 107.6330 4.2514 13.9962 17.1130
# 2 55.1011 119.7328 32.1982 -7.7473 9.4329 13.6060
# 3 107.6330 32.1982 175.7822 -14.2101 19.4867 7.0475
# 4 4.2514 -7.7473 -14.2101 40.7327 -0.2143 9.4965
# 5 13.9962 9.4329 19.4867 -0.2143 69.2287 -2.6518
# 6 17.1130 13.6060 7.0475 9.4965 -2.6518 59.4478
#
#
#
# Elastic Compliance Matrix: (Units=1/GPa)
#
#
# Indices 1 2 3 4 5 6 
#
# 1 0.007104 -0.002248 -0.004109 -0.002451 -0.000006 -0.000652
# 2 -0.002248 0.009872 -0.000035 0.002576 -0.000952 -0.002062
# 3 -0.004109 -0.000035 0.008698 0.003560 -0.001620 -0.000481
# 4 -0.002451 0.002576 0.003560 0.027644 -0.000955 -0.004765
# 5 -0.000006 -0.000952 -0.001620 -0.000955 0.015076 0.001237
# 6 -0.000652 -0.002062 -0.000481 -0.004765 0.001237 0.018354
#
#
# Mechanical properties :
#
#
# Convention : Reuss Voigt Hill
#
# Bulk Modulus (GPa) = 77.58839 100.98883 89.28861
# Shear Modulus (GPa) = 48.15580 55.48868 51.82224
#
# Velocity S-wave (km/s) = 4.34919 4.66859 4.51172
# Velocity P-wave (km/s) = 7.46305 8.29030 7.88753
#
# Compressibility (1/GPa) = 0.01288853
#
# Stress axis : x y z
#
# Youngs Moduli (GPa) = 140.77211 101.29695 114.96718
#
# Poissons Ratio (x) = 0.22773 0.47242
# Poissons Ratio (y) = 0.31647 0.00406
# Poissons Ratio (z) = 0.57846 0.00358
#
# Static dielectric constant tensor:
#      x y z
#    x 1.974340 -0.026850 -0.003620 
#    y -0.026850 1.995280 -0.325660 
#    z -0.003620 -0.325660 1.365350 
# 
# From -- ./inp_files/366557.got.cif
#   From: 2010.05.17/outbox.cif.g08.bks.cpg/sg2_184_cif.got.tgz:366557.got - 2010.06.03 11:33:40.
