data_PCOD9068517
_publ_section_title
;
Structure prediction by ZEFSAII (Michael W. Deem and Ramdas Pophale) SiO2 
 PCOD9068517
Probable space group: P -1
;
_chemical_formula_sum "Si O2"
_cell_formula_units_Z 14
_cell_length_a 13.287445
_cell_length_b 8.161524
_cell_length_c 9.314064
_cell_angle_alpha 65.476269
_cell_angle_beta 32.607314
_cell_angle_gamma 70.721543
_cell_volume 494.811928
_symmetry_space_group_name_H-M "P -1"
_symmetry_group_IT_number 2
_symmetry_cell_setting 'triclinic'
loop_
_space_group_symop_operation_xyz
x,y,z
-x,-y,-z
loop_
_atom_site_type_symbol
_atom_site_label
_atom_site_fract_x
_atom_site_fract_y
_atom_site_fract_z
Si Si1 0.515455 0.377134 0.887527
Si Si2 0.548224 0.865571 0.715603
Si Si3 0.016230 0.145603 0.797503
Si Si4 0.890222 0.537157 0.765940
Si Si5 0.071943 0.171003 0.147637
Si Si6 0.513912 0.746392 0.479806
Si Si7 0.796023 0.398668 0.291654
O O1 0.546675 0.187532 0.999299
O O2 0.319500 0.402946 0.035698
O O3 0.500000 0.500000 0.000000
O O4 0.679521 0.435431 0.562014
O O5 0.763484 0.818300 0.498911
O O6 0.483456 0.769513 0.678304
O O7 0.526104 0.070268 0.623539
O O8 0.927237 0.339385 0.864104
O O9 0.916804 0.043472 0.817130
O O10 0.000000 0.000000 0.000000
O O11 0.955020 0.713413 0.717235
O O12 0.000000 0.500000 0.500000
O O13 0.261904 0.261119 0.814807
O O14 0.876249 0.201914 0.292876
O O15 0.000000 0.500000 0.000000
O O16 0.362795 0.611779 0.635340
#
# Coordination Sequence:
#
# PCOD9068517 Si02
#       7
#     2   2   2   2   2   2   2
#     4  12  29  54  82 128 181 240 295 381 455 543
#     4  11  26  53  87 128 184 227 307 375 457 546
#     4  12  27  50  87 136 178 231 305 381 455 553
#     4  12  28  54  85 129 185 239 300 378 463 546
#     4  12  28  52  87 131 174 242 300 372 456 549
#     4  11  26  54  88 131 173 243 293 385 456 543
#     4  12  30  54  85 129 179 236 306 374 452 551
#
# _framework density 28.293579000000001
#
# number of rings (size 3 to 8) (size 9 to 14) (size 15 to 20)
#    0.000    0.286    5.714    0.857    6.000    2.857 
#    2.571    2.143    0.000    0.000    0.000    0.000 
#    0.000    0.000    0.000    0.000    0.000    0.000 
#
# Total GULP energy -78294.164102 kJ/mol
# GULP energy per Si atom -5592.440293 kJ/mol
# Density = 2.822918 g / cm^3
# Si number density = 28.293579 Si / 1000 Ang^3
#
#
#
# Elastic Constant Matrix: (Units=GPa)
#
#
# Indices 1 2 3 4 5 6 
#
# 1 202.9495 77.9183 92.8090 -3.0628 -22.9705 11.5898
# 2 77.9183 152.8625 51.5431 9.8030 -7.8764 3.8327
# 3 92.8090 51.5431 177.2014 20.9339 9.1711 -3.0770
# 4 -3.0628 9.8030 20.9339 63.0834 -9.6655 -6.0878
# 5 -22.9705 -7.8764 9.1711 -9.6655 68.8305 0.7452
# 6 11.5898 3.8327 -3.0770 -6.0878 0.7452 72.3618
#
#
#
# Elastic Compliance Matrix: (Units=1/GPa)
#
#
# Indices 1 2 3 4 5 6 
#
# 1 0.008370 -0.002862 -0.004054 0.002601 0.003384 -0.001177
# 2 -0.002862 0.008342 -0.000785 -0.001196 -0.000063 -0.000117
# 3 -0.004054 -0.000785 0.008557 -0.003305 -0.003056 0.000808
# 4 0.002601 -0.001196 -0.003305 0.017918 0.003677 0.000976
# 5 0.003384 -0.000063 -0.003056 0.003677 0.016580 -0.000530
# 6 -0.001177 -0.000117 0.000808 0.000976 -0.000530 0.014136
#
#
# Mechanical properties :
#
#
# Convention : Reuss Voigt Hill
#
# Bulk Modulus (GPa) = 101.34941 108.61715 104.98328
# Shear Modulus (GPa) = 53.99930 61.57134 57.78532
#
# Velocity S-wave (km/s) = 4.37342 4.66999 4.52414
# Velocity P-wave (km/s) = 7.83587 8.21895 8.02969
#
# Compressibility (1/GPa) = 0.00986686
#
# Stress axis : x y z
#
# Youngs Moduli (GPa) = 119.48097 119.87823 116.85811
#
# Poissons Ratio (x) = 0.34312 0.47373
# Poissons Ratio (y) = 0.34198 0.09172
# Poissons Ratio (z) = 0.48436 0.09409
#
# Static dielectric constant tensor:
#      x y z
#    x 2.301200 -0.056260 0.148470 
#    y -0.056260 2.447960 -0.212950 
#    z 0.148470 -0.212950 2.401970 
# 
# From -- ./inp_files/344066.got.cif
#   From: 2010.05.17/outbox.cif.g08.bks.cpg/sg2_173_cif.got.tgz:344066.got - 2010.06.03 11:33:40.
