data_PCOD9068149
_publ_section_title
;
Structure prediction by ZEFSAII (Michael W. Deem and Ramdas Pophale) SiO2 
 PCOD9068149
Probable space group: P -1
;
_chemical_formula_sum "Si O2"
_cell_formula_units_Z 14
_cell_length_a 5.280583
_cell_length_b 7.965449
_cell_length_c 18.807962
_cell_angle_alpha 118.492019
_cell_angle_beta 125.643390
_cell_angle_gamma 64.628757
_cell_volume 552.347701
_symmetry_space_group_name_H-M "P -1"
_symmetry_group_IT_number 2
_symmetry_cell_setting 'triclinic'
loop_
_space_group_symop_operation_xyz
x,y,z
-x,-y,-z
loop_
_atom_site_type_symbol
_atom_site_label
_atom_site_fract_x
_atom_site_fract_y
_atom_site_fract_z
Si Si1 0.667987 0.847264 0.273111
Si Si2 0.198299 0.327252 0.947056
Si Si3 0.165013 0.438554 0.440417
Si Si4 0.794975 0.437874 0.247688
Si Si5 0.528392 0.064628 0.148016
Si Si6 0.931381 0.335406 0.102443
Si Si7 0.676841 0.013713 0.607472
O O1 0.595825 0.629990 0.216222
O O2 0.511690 0.960750 0.200144
O O3 0.538608 0.920944 0.344922
O O4 0.039579 0.868100 0.332100
O O5 0.079742 0.443619 0.879167
O O6 0.222852 0.096064 0.889937
O O7 0.571912 0.314497 0.023804
O O8 0.000000 0.500000 0.000000
O O9 0.500000 0.500000 0.500000
O O10 0.182369 0.209422 0.394798
O O11 0.000000 0.500000 0.500000
O O12 0.963643 0.523515 0.356490
O O13 0.635346 0.269253 0.216394
O O14 0.009190 0.331002 0.197488
O O15 0.187479 0.157903 0.074197
O O16 0.500000 0.000000 0.500000
#
# Coordination Sequence:
#
# PCOD9068149 Si02
#       7
#     2   2   2   2   2   2   2
#     4  12  27  48  78 115 162 213 281 338 408 501
#     4  11  26  52  80 120 163 210 276 340 423 501
#     4  12  26  46  75 116 160 209 274 339 405 486
#     4  12  27  47  79 115 159 218 273 339 411 490
#     4  12  27  50  82 116 166 216 277 341 419 498
#     4  11  26  47  80 117 159 211 276 333 420 494
#     4  12  25  48  75 112 160 215 271 348 417 480
#
# _framework density 25.346350999999999
#
# number of rings (size 3 to 8) (size 9 to 14) (size 15 to 20)
#    0.000    0.286    2.857    5.143    4.000    5.714 
#    0.000    0.000    0.000    0.000    0.000    0.000 
#    0.000    0.000    0.000    0.000    0.000    0.000 
#
# Total GULP energy -78165.316335 kJ/mol
# GULP energy per Si atom -5583.236881 kJ/mol
# Density = 2.528866 g / cm^3
# Si number density = 25.346351 Si / 1000 Ang^3
#
#
#
# Elastic Constant Matrix: (Units=GPa)
#
#
# Indices 1 2 3 4 5 6 
#
# 1 147.9119 52.0286 54.1279 -5.9650 1.8538 8.7326
# 2 52.0286 206.0570 33.5230 8.0489 6.2547 -3.2367
# 3 54.1279 33.5230 95.1833 -4.2155 -1.6750 2.7294
# 4 -5.9650 8.0489 -4.2155 36.7308 12.8909 12.3402
# 5 1.8538 6.2547 -1.6750 12.8909 46.4891 -0.6601
# 6 8.7326 -3.2367 2.7294 12.3402 -0.6601 33.0380
#
#
#
# Elastic Compliance Matrix: (Units=1/GPa)
#
#
# Indices 1 2 3 4 5 6 
#
# 1 0.009360 -0.001765 -0.004494 0.002940 -0.001161 -0.003397
# 2 -0.001765 0.005604 -0.001128 -0.002280 -0.000064 0.001959
# 3 -0.004494 -0.001128 0.013525 0.001022 0.000529 -0.000411
# 4 0.002940 -0.002280 0.001022 0.036990 -0.010245 -0.015106
# 5 -0.001161 -0.000064 0.000529 -0.010245 0.024490 0.004573
# 6 -0.003397 0.001959 -0.000411 -0.015106 0.004573 0.037126
#
#
# Mechanical properties :
#
#
# Convention : Reuss Voigt Hill
#
# Bulk Modulus (GPa) = 72.91390 80.94570 76.92980
# Shear Modulus (GPa) = 34.14349 43.88311 39.01330
#
# Velocity S-wave (km/s) = 3.67424 4.16545 3.92753
# Velocity P-wave (km/s) = 6.84321 7.42562 7.14035
#
# Compressibility (1/GPa) = 0.01371481
#
# Stress axis : x y z
#
# Youngs Moduli (GPa) = 106.83936 178.44259 73.93583
#
# Poissons Ratio (x) = 0.31498 0.33225
# Poissons Ratio (y) = 0.18859 0.08341
# Poissons Ratio (z) = 0.48011 0.20131
#
# Static dielectric constant tensor:
#      x y z
#    x 2.150630 0.047110 -0.201790 
#    y 0.047110 1.936810 0.077840 
#    z -0.201790 0.077840 1.944920 
# 
# From -- ./inp_files/546750.got.cif
#   From: 2010.05.17/outbox.cif.g08.bks.cpg/sg2_274_cif.got.tgz:546750.got - 2010.06.03 11:33:40.
