data_PCOD9068961
_publ_section_title
;
Structure prediction by ZEFSAII (Michael W. Deem and Ramdas Pophale) SiO2 
 PCOD9068961
Probable space group: P -1
;
_chemical_formula_sum "Si O2"
_cell_formula_units_Z 14
_cell_length_a 8.936233
_cell_length_b 19.471140
_cell_length_c 12.939595
_cell_angle_alpha 24.718391
_cell_angle_beta 43.410085
_cell_angle_gamma 35.468214
_cell_volume 545.461812
_symmetry_space_group_name_H-M "P -1"
_symmetry_group_IT_number 2
_symmetry_cell_setting 'triclinic'
loop_
_space_group_symop_operation_xyz
x,y,z
-x,-y,-z
loop_
_atom_site_type_symbol
_atom_site_label
_atom_site_fract_x
_atom_site_fract_y
_atom_site_fract_z
Si Si1 0.784603 0.886840 0.814677
Si Si2 0.918513 0.978999 0.209234
Si Si3 0.086795 0.393159 0.710420
Si Si4 0.523773 0.297733 0.742847
Si Si5 0.345921 0.243351 0.441861
Si Si6 0.012526 0.759576 0.664827
Si Si7 0.431510 0.317231 0.071685
O O1 0.982941 0.833294 0.695555
O O2 0.554180 0.107845 0.609210
O O3 0.891852 0.803440 0.989217
O O4 0.660011 0.754844 0.032272
O O5 0.784631 0.870840 0.377951
O O6 0.010012 0.895281 0.393004
O O7 0.189148 0.889041 0.138266
O O8 0.696955 0.203676 0.029649
O O9 0.382417 0.332847 0.656234
O O10 0.000000 0.500000 0.500000
O O11 0.882381 0.555785 0.670878
O O12 0.500000 0.500000 0.500000
O O13 0.468789 0.276789 0.232001
O O14 0.758321 0.754522 0.769441
O O15 0.263034 0.545460 0.824570
#
# Coordination Sequence:
#
# PCOD9068961 Si02
#       7
#     2   2   2   2   2   2   2
#     4  10  20  36  57  84 110 152 193 223 276 345
#     4  11  19  32  53  87 124 137 176 238 292 325
#     4  10  23  41  58  76 114 158 193 229 274 335
#     4  10  22  38  54  86 120 145 182 241 286 325
#     4  11  18  34  58  85 112 147 191 232 274 334
#     4  10  18  31  53  82 114 151 186 216 281 347
#     4  10  18  28  53  84 117 144 178 233 283 330
#
# _framework density 25.666325000000001
#
# number of rings (size 3 to 8) (size 9 to 14) (size 15 to 20)
#    0.857    0.857    5.714    0.857    4.000    1.143 
#    2.571    0.000    0.000    1.714    0.000    0.000 
#    0.000    0.000    0.000    0.000    0.000    0.000 
#
# Total GULP energy -78218.704637 kJ/mol
# GULP energy per Si atom -5587.050331 kJ/mol
# Density = 2.560791 g / cm^3
# Si number density = 25.666325 Si / 1000 Ang^3
#
#
#
# Elastic Constant Matrix: (Units=GPa)
#
#
# Indices 1 2 3 4 5 6 
#
# 1 65.8454 25.5201 52.9931 -7.9702 17.0335 -7.6725
# 2 25.5201 133.1415 29.2747 -28.2147 9.1779 -4.5100
# 3 52.9931 29.2747 116.5981 -22.3614 36.2640 0.9983
# 4 -7.9702 -28.2147 -22.3614 49.8714 -2.2541 13.4449
# 5 17.0335 9.1779 36.2640 -2.2541 50.8724 -1.1932
# 6 -7.6725 -4.5100 0.9983 13.4449 -1.1932 13.5859
#
#
#
# Elastic Compliance Matrix: (Units=1/GPa)
#
#
# Indices 1 2 3 4 5 6 
#
# 1 0.031926 -0.004298 -0.016953 -0.013220 0.002315 0.031134
# 2 -0.004298 0.009356 0.001278 0.006820 -0.001004 -0.006253
# 3 -0.016953 0.001278 0.022181 0.014516 -0.010334 -0.026052
# 4 -0.013220 0.006820 0.014516 0.040721 -0.006453 -0.047133
# 5 0.002315 -0.001004 -0.010334 -0.006453 0.026389 0.010437
# 6 0.031134 -0.006253 -0.026052 -0.047133 0.010437 0.138588
#
#
# Mechanical properties :
#
#
# Convention : Reuss Voigt Hill
#
# Bulk Modulus (GPa) = 42.52057 59.01786 50.76922
# Shear Modulus (GPa) = 15.77560 36.71907 26.24734
#
# Velocity S-wave (km/s) = 2.48189 3.78647 3.20134
# Velocity P-wave (km/s) = 4.98153 6.49313 5.78690
#
# Compressibility (1/GPa) = 0.02351803
#
# Stress axis : x y z
#
# Youngs Moduli (GPa) = 31.32288 106.88008 45.08262
#
# Poissons Ratio (x) = 0.45940 0.76427
# Poissons Ratio (y) = 0.13463 -0.05763
# Poissons Ratio (z) = 0.53101 -0.13662
#
# Static dielectric constant tensor:
#      x y z
#    x 2.118690 0.033260 0.039050 
#    y 0.033260 2.017430 0.063900 
#    z 0.039050 0.063900 2.003820 
# 
# From -- ./inp_files/524258.got.cif
#   From: 2010.05.17/outbox.cif.g08.bks.cpg/sg2_263_cif.got.tgz:524258.got - 2010.06.03 11:33:40.
