data_PCOD9068990
_publ_section_title
;
Structure prediction by ZEFSAII (Michael W. Deem and Ramdas Pophale) SiO2 
 PCOD9068990
Probable space group: P -1
;
_chemical_formula_sum "Si O2"
_cell_formula_units_Z 13
_cell_length_a 5.820880
_cell_length_b 12.514986
_cell_length_c 6.953182
_cell_angle_alpha 90.447696
_cell_angle_beta 92.338093
_cell_angle_gamma 71.777910
_cell_volume 480.718414
_symmetry_space_group_name_H-M "P -1"
_symmetry_group_IT_number 2
_symmetry_cell_setting 'triclinic'
loop_
_space_group_symop_operation_xyz
x,y,z
-x,-y,-z
loop_
_atom_site_type_symbol
_atom_site_label
_atom_site_fract_x
_atom_site_fract_y
_atom_site_fract_z
Si Si1 0.749848 0.418476 0.083172
Si Si2 0.500000 0.500000 0.500000
Si Si3 0.210555 0.186831 0.521508
Si Si4 0.275269 0.032270 0.857488
Si Si5 0.015790 0.430703 0.721802
Si Si6 0.668397 0.228207 0.525187
Si Si7 0.192997 0.819535 0.020125
O O1 0.813338 0.486752 0.265336
O O2 0.500000 0.500000 0.000000
O O3 0.966254 0.402555 0.939229
O O4 0.716047 0.297290 0.089770
O O5 0.749923 0.499179 0.638818
O O6 0.589493 0.362439 0.518199
O O7 0.304341 0.073411 0.648376
O O8 0.453814 0.189548 0.421394
O O9 0.135708 0.310983 0.623580
O O10 0.943319 0.184601 0.452792
O O11 0.088315 0.146208 0.937189
O O12 0.500000 0.000000 0.000000
O O13 0.191949 0.924455 0.890568
O O14 0.688323 0.193309 0.758319
#
# Coordination Sequence:
#
# PCOD9068990 Si02
#       7
#     2   1   2   2   2   2   2
#     4  11  21  36  54  79 122 158 183 237 300 352
#     4  10  20  38  54  84 110 160 196 236 280 354
#     4  10  19  35  50  84 111 146 183 245 285 339
#     4  10  18  28  54  76 112 145 189 243 293 333
#     4  10  22  34  55  80 117 153 192 235 291 350
#     4  10  19  32  52  76 115 142 188 235 285 334
#     4  10  19  33  48  84 113 147 190 239 291 346
#
# _framework density 27.042863000000001
#
# number of rings (size 3 to 8) (size 9 to 14) (size 15 to 20)
#    0.000    1.846    6.154    0.923    0.000    2.462 
#    0.000    0.000    0.000    0.000    0.000   18.308 
#    0.000    0.154    0.000    0.000    0.000    0.000 
#
# Total GULP energy -72418.543443 kJ/mol
# GULP energy per Si atom -5570.657188 kJ/mol
# Density = 2.698131 g / cm^3
# Si number density = 27.042863 Si / 1000 Ang^3
#
#
#
# Elastic Constant Matrix: (Units=GPa)
#
#
# Indices 1 2 3 4 5 6 
#
# 1 159.4315 49.1729 20.9567 -5.7504 28.4971 4.8763
# 2 49.1729 183.5543 36.6953 -29.2131 7.0884 -2.1203
# 3 20.9567 36.6953 74.2953 -1.0779 5.0743 -2.5768
# 4 -5.7504 -29.2131 -1.0779 51.8792 -5.0559 -0.7856
# 5 28.4971 7.0884 5.0743 -5.0559 42.7723 -6.6919
# 6 4.8763 -2.1203 -2.5768 -0.7856 -6.6919 48.8786
#
#
#
# Elastic Compliance Matrix: (Units=1/GPa)
#
#
# Indices 1 2 3 4 5 6 
#
# 1 0.007933 -0.001850 -0.001036 -0.000716 -0.005198 -0.001650
# 2 -0.001850 0.007122 -0.002986 0.003843 0.000943 0.000527
# 3 -0.001036 -0.002986 0.015276 -0.001538 -0.000706 0.000658
# 4 -0.000716 0.003843 -0.001538 0.021606 0.002713 0.000876
# 5 -0.005198 0.000943 -0.000706 0.002713 0.027775 0.004369
# 6 -0.001650 0.000527 0.000658 0.000876 0.004369 0.021293
#
#
# Mechanical properties :
#
#
# Convention : Reuss Voigt Hill
#
# Bulk Modulus (GPa) = 53.80619 70.10344 61.95481
# Shear Modulus (GPa) = 42.03628 49.40310 45.71969
#
# Velocity S-wave (km/s) = 3.94691 4.27880 4.11620
# Velocity P-wave (km/s) = 6.38048 7.09860 6.74910
#
# Compressibility (1/GPa) = 0.01858522
#
# Stress axis : x y z
#
# Youngs Moduli (GPa) = 126.05586 140.41195 65.46341
#
# Poissons Ratio (x) = 0.25979 0.06785
# Poissons Ratio (y) = 0.23323 0.19548
# Poissons Ratio (z) = 0.13064 0.41928
#
# Static dielectric constant tensor:
#      x y z
#    x 0.790620 -0.194150 0.766130 
#    y -0.194150 1.940670 0.261170 
#    z 0.766130 0.261170 1.700550 
# 
# From -- ./inp_files/76437.got.cif
#   From: 2010.05.17/outbox.cif.g08.bks.cpg/sg2_39_cif.got.tgz:76437.got - 2010.06.03 11:33:40.
