data_PCOD9068065
_publ_section_title
;
Structure prediction by ZEFSAII (Michael W. Deem and Ramdas Pophale) SiO2 
 PCOD9068065
Probable space group: P -1
;
_chemical_formula_sum "Si O2"
_cell_formula_units_Z 16
_cell_length_a 9.039226
_cell_length_b 15.703393
_cell_length_c 9.549338
_cell_angle_alpha 136.276956
_cell_angle_beta 97.132703
_cell_angle_gamma 107.336084
_cell_volume 766.826144
_symmetry_space_group_name_H-M "P -1"
_symmetry_group_IT_number 2
_symmetry_cell_setting 'triclinic'
loop_
_space_group_symop_operation_xyz
x,y,z
-x,-y,-z
loop_
_atom_site_type_symbol
_atom_site_label
_atom_site_fract_x
_atom_site_fract_y
_atom_site_fract_z
Si Si1 0.447305 0.563273 0.443294
Si Si2 0.287716 0.896013 0.312946
Si Si3 0.507038 0.600750 0.998307
Si Si4 0.197919 0.073134 0.674772
Si Si5 0.211111 0.144011 0.086939
Si Si6 0.117915 0.549844 0.929216
Si Si7 0.853679 0.115111 0.021933
Si Si8 0.861637 0.383609 0.459344
O O1 0.500000 0.500000 0.500000
O O2 0.433248 0.461058 0.194763
O O3 0.621672 0.730214 0.653452
O O4 0.284634 0.579581 0.479029
O O5 0.500000 0.000000 0.500000
O O6 0.216338 0.938418 0.486773
O O7 0.181088 0.716791 0.088794
O O8 0.242504 0.937828 0.205612
O O9 0.307705 0.567061 0.949167
O O10 0.500000 0.500000 0.000000
O O11 0.653940 0.779299 0.220685
O O12 0.233335 0.118983 0.896389
O O13 0.000000 0.000000 0.500000
O O14 0.067730 0.190367 0.113408
O O15 0.169175 0.000501 0.999164
O O16 0.979075 0.420758 0.654857
O O17 0.000000 0.500000 0.000000
O O18 0.796489 0.221278 0.201785
O O19 0.000000 0.500000 0.500000
#
# Coordination Sequence:
#
# PCOD9068065 Si02
#       8
#     2   2   2   2   2   2   2   2
#     4  12  26  45  73 102 142 188 244 297 361 432
#     4  12  27  48  73 103 151 191 242 299 370 438
#     4  12  28  48  75 108 148 191 247 304 367 441
#     4  12  27  46  74 106 146 197 240 298 367 436
#     4  11  26  47  74 107 143 189 246 301 369 435
#     4  12  28  48  75 109 145 194 243 307 370 437
#     4  11  26  47  74 107 145 190 242 305 364 439
#     4  12  26  45  72 103 142 189 242 297 363 429
#
# _framework density 20.865224999999999
#
# number of rings (size 3 to 8) (size 9 to 14) (size 15 to 20)
#    0.000    0.250    5.000    3.000    8.750    1.500 
#    0.000    0.000    0.000    0.000    0.000    0.000 
#    0.000    0.000    0.000    0.000    0.000    0.000 
#
# Total GULP energy -89088.801316 kJ/mol
# GULP energy per Si atom -5568.050082 kJ/mol
# Density = 2.081774 g / cm^3
# Si number density = 20.865225 Si / 1000 Ang^3
#
#
#
# Elastic Constant Matrix: (Units=GPa)
#
#
# Indices 1 2 3 4 5 6 
#
# 1 151.8395 12.9568 21.5051 7.6442 -1.0156 -1.1387
# 2 12.9568 82.5923 8.4433 -9.0173 -0.8478 -5.8705
# 3 21.5051 8.4433 79.3121 2.1229 -7.7876 2.1084
# 4 7.6442 -9.0173 2.1229 25.8992 -0.9886 -4.5612
# 5 -1.0156 -0.8478 -7.7876 -0.9886 48.1788 2.6903
# 6 -1.1387 -5.8705 2.1084 -4.5612 2.6903 24.4412
#
#
#
# Elastic Compliance Matrix: (Units=1/GPa)
#
#
# Indices 1 2 3 4 5 6 
#
# 1 0.007053 -0.001212 -0.001731 -0.002412 -0.000188 -0.000243
# 2 -0.001212 0.013395 -0.001386 0.005904 -0.000138 0.004398
# 3 -0.001731 -0.001386 0.013534 -0.001363 0.002215 -0.002079
# 4 -0.002412 0.005904 -0.001363 0.043163 0.000190 0.009458
# 5 -0.000188 -0.000138 0.002215 0.000190 0.021253 -0.002537
# 6 -0.000243 0.004398 -0.002079 0.009458 -0.002537 0.044183
#
#
# Mechanical properties :
#
#
# Convention : Reuss Voigt Hill
#
# Bulk Modulus (GPa) = 39.48639 44.39491 41.94065
# Shear Modulus (GPa) = 31.31241 37.75975 34.53608
#
# Velocity S-wave (km/s) = 3.87809 4.25867 4.07283
# Velocity P-wave (km/s) = 6.24647 6.74573 6.50089
#
# Compressibility (1/GPa) = 0.02532518
#
# Stress axis : x y z
#
# Youngs Moduli (GPa) = 141.78786 74.65345 73.88533
#
# Poissons Ratio (x) = 0.09048 0.12788
# Poissons Ratio (y) = 0.17184 0.10240
# Poissons Ratio (z) = 0.24541 0.10346
#
# Static dielectric constant tensor:
#      x y z
#    x 1.556100 0.002700 0.114050 
#    y 0.002700 1.878120 -0.014260 
#    z 0.114050 -0.014260 1.576640 
# 
# From -- ./inp_files/209060.got.cif
#   From: 2010.05.17/outbox.cif.g08.bks.cpg/sg2_105_cif.got.tgz:209060.got - 2010.06.03 11:33:40.
