data_PCOD9068910
_publ_section_title
;
Structure prediction by ZEFSAII (Michael W. Deem and Ramdas Pophale) SiO2 
 PCOD9068910
Probable space group: P -1
;
_chemical_formula_sum "Si O2"
_cell_formula_units_Z 14
_cell_length_a 9.359700
_cell_length_b 12.400373
_cell_length_c 15.080601
_cell_angle_alpha 52.491408
_cell_angle_beta 152.324321
_cell_angle_gamma 129.050709
_cell_volume 625.005494
_symmetry_space_group_name_H-M "P -1"
_symmetry_group_IT_number 2
_symmetry_cell_setting 'triclinic'
loop_
_space_group_symop_operation_xyz
x,y,z
-x,-y,-z
loop_
_atom_site_type_symbol
_atom_site_label
_atom_site_fract_x
_atom_site_fract_y
_atom_site_fract_z
Si Si1 0.696766 0.709462 0.653067
Si Si2 0.161134 0.858357 0.711294
Si Si3 0.163278 0.271530 0.571203
Si Si4 0.144046 0.985635 0.991034
Si Si5 0.911840 0.318512 0.954406
Si Si6 0.227328 0.855741 0.409940
Si Si7 0.954250 0.564354 0.724139
O O1 0.388811 0.750524 0.497499
O O2 0.674641 0.614798 0.599929
O O3 0.948525 0.852027 0.685333
O O4 0.866485 0.641002 0.857612
O O5 0.950638 0.840748 0.515373
O O6 0.237946 0.702507 0.834423
O O7 0.478076 0.974483 0.819133
O O8 0.537325 0.295196 0.782609
O O9 0.096116 0.412071 0.418903
O O10 0.933362 0.217197 0.553074
O O11 0.039359 0.095533 0.815475
O O12 0.028114 0.829058 0.969251
O O13 0.000000 0.000000 0.000000
O O14 0.990317 0.426685 0.861377
O O15 0.500000 0.000000 0.500000
#
# Coordination Sequence:
#
# PCOD9068910 Si02
#       7
#     2   2   2   2   2   2   2
#     4   9  22  40  69  92 127 170 213 266 315 379
#     4   8  22  44  61  95 127 171 213 258 325 377
#     4   9  23  39  69  94 127 169 218 261 316 382
#     4  12  27  39  66  99 132 167 215 272 327 373
#     4  12  21  41  72  93 128 174 218 259 319 397
#     4  12  23  42  62  98 133 164 219 268 321 375
#     4   8  22  44  69  91 129 171 220 255 326 380
#
# _framework density 22.399802000000001
#
# number of rings (size 3 to 8) (size 9 to 14) (size 15 to 20)
#    1.714    0.000    1.429    2.571    6.000    1.714 
#    0.000    3.571    0.000    0.000    0.000    0.000 
#    0.000    0.000    0.000    0.000    0.000    0.000 
#
# Total GULP energy -78074.984508 kJ/mol
# GULP energy per Si atom -5576.784608 kJ/mol
# Density = 2.234882 g / cm^3
# Si number density = 22.399802 Si / 1000 Ang^3
#
#
#
# Elastic Constant Matrix: (Units=GPa)
#
#
# Indices 1 2 3 4 5 6 
#
# 1 123.4077 46.5171 44.7698 -30.2781 -14.5954 30.0868
# 2 46.5171 72.4525 37.4896 -16.7554 -4.2880 21.9747
# 3 44.7698 37.4896 94.4083 -25.4251 -0.1176 13.0687
# 4 -30.2781 -16.7554 -25.4251 33.7966 4.5343 -6.3942
# 5 -14.5954 -4.2880 -0.1176 4.5343 20.7748 -10.0183
# 6 30.0868 21.9747 13.0687 -6.3942 -10.0183 34.1987
#
#
#
# Elastic Compliance Matrix: (Units=1/GPa)
#
#
# Indices 1 2 3 4 5 6 
#
# 1 0.014397 -0.004139 -0.002333 0.007264 0.004566 -0.006419
# 2 -0.004139 0.022150 -0.004953 0.002242 -0.003314 -0.009250
# 3 -0.002333 -0.004953 0.015884 0.007890 -0.004640 -0.000719
# 4 0.007264 0.002242 0.007890 0.043087 -0.005984 -0.004543
# 5 0.004566 -0.003314 -0.004640 -0.005984 0.059791 0.016282
# 6 -0.006419 -0.009250 -0.000719 -0.004543 0.016282 0.045027
#
#
# Mechanical properties :
#
#
# Convention : Reuss Voigt Hill
#
# Bulk Modulus (GPa) = 33.80559 60.86906 47.33733
# Shear Modulus (GPa) = 21.45489 28.52017 24.98753
#
# Velocity S-wave (km/s) = 3.09822 3.57211 3.34357
# Velocity P-wave (km/s) = 5.28425 6.65178 6.00706
#
# Compressibility (1/GPa) = 0.02958091
#
# Stress axis : x y z
#
# Youngs Moduli (GPa) = 69.45876 45.14589 62.95558
#
# Poissons Ratio (x) = 0.18687 0.14689
# Poissons Ratio (y) = 0.28751 0.31182
# Poissons Ratio (z) = 0.16206 0.22361
#
# Static dielectric constant tensor:
#      x y z
#    x 1.808170 -0.030040 -0.017330 
#    y -0.030040 2.050610 -0.005840 
#    z -0.017330 -0.005840 1.837300 
# 
# From -- ./inp_files/391637.got.cif
#   From: 2010.05.17/outbox.cif.g08.bks.cpg/sg2_196_cif.got.tgz:391637.got - 2010.06.03 11:33:40.
