data_PCOD9068339
_publ_section_title
;
Structure prediction by ZEFSAII (Michael W. Deem and Ramdas Pophale) SiO2 
 PCOD9068339
Probable space group: P -1
;
_chemical_formula_sum "Si O2"
_cell_formula_units_Z 16
_cell_length_a 11.684100
_cell_length_b 11.914555
_cell_length_c 11.240772
_cell_angle_alpha 150.775416
_cell_angle_beta 114.238071
_cell_angle_gamma 60.466484
_cell_volume 664.025486
_symmetry_space_group_name_H-M "P -1"
_symmetry_group_IT_number 2
_symmetry_cell_setting 'triclinic'
loop_
_space_group_symop_operation_xyz
x,y,z
-x,-y,-z
loop_
_atom_site_type_symbol
_atom_site_label
_atom_site_fract_x
_atom_site_fract_y
_atom_site_fract_z
Si Si1 0.423075 0.638088 0.410677
Si Si2 0.075173 0.419174 0.806126
Si Si3 0.827511 0.203804 0.936179
Si Si4 0.282731 0.655673 0.737340
Si Si5 0.351676 0.984545 0.917869
Si Si6 0.005686 0.701952 0.593054
Si Si7 0.434765 0.783593 0.285605
Si Si8 0.788793 0.627050 0.953216
O O1 0.576851 0.526112 0.401858
O O2 0.359209 0.785998 0.635348
O O3 0.420119 0.771357 0.409277
O O4 0.340517 0.456482 0.176872
O O5 0.065027 0.323569 0.582869
O O6 0.932156 0.438429 0.818076
O O7 0.106132 0.669912 0.018392
O O8 0.185207 0.279093 0.818264
O O9 0.707339 0.136496 0.762978
O O10 0.758106 0.377636 0.176592
O O11 0.932345 0.984192 0.844915
O O12 0.309465 0.910493 0.958772
O O13 0.161157 0.656323 0.603744
O O14 0.500000 0.000000 0.000000
O O15 0.239534 0.205328 0.019200
O O16 0.000000 0.500000 0.500000
O O17 0.500000 0.000000 0.500000
O O18 0.500000 0.500000 0.000000
#
# Coordination Sequence:
#
# PCOD9068339 Si02
#       8
#     2   2   2   2   2   2   2   2
#     4  12  27  48  76 112 154 203 259 336 400 479
#     4  11  26  49  75 107 151 201 259 322 396 479
#     4  12  27  48  76 112 154 203 259 336 400 479
#     4  12  26  49  71 110 152 194 266 320 408 460
#     4  12  28  44  75 106 151 200 258 323 401 480
#     4  12  28  44  75 106 151 200 258 323 401 480
#     4  12  30  50  83 123 167 211 270 337 406 484
#     4  11  26  49  75 107 151 201 259 322 396 479
#
# _framework density 24.095459000000002
#
# number of rings (size 3 to 8) (size 9 to 14) (size 15 to 20)
#    0.000    0.250    5.000    2.250   12.250    0.000 
#    0.000    3.125    0.000    0.000    0.000    0.000 
#    0.000    0.000    0.000    0.000    0.000    0.000 
#
# Total GULP energy -89313.507236 kJ/mol
# GULP energy per Si atom -5582.094202 kJ/mol
# Density = 2.404062 g / cm^3
# Si number density = 24.095459 Si / 1000 Ang^3
#
#
#
# Elastic Constant Matrix: (Units=GPa)
#
#
# Indices 1 2 3 4 5 6 
#
# 1 112.4851 19.6376 25.0861 6.8212 18.6097 -8.2050
# 2 19.6376 90.1625 9.8514 -10.3206 2.9591 -10.5489
# 3 25.0861 9.8514 43.9027 -15.3954 11.9465 -19.7158
# 4 6.8212 -10.3206 -15.3954 40.8676 -5.3030 5.9966
# 5 18.6097 2.9591 11.9465 -5.3030 31.7661 -7.2379
# 6 -8.2050 -10.5489 -19.7158 5.9966 -7.2379 60.5110
#
#
#
# Elastic Compliance Matrix: (Units=1/GPa)
#
#
# Indices 1 2 3 4 5 6 
#
# 1 0.012188 -0.002488 -0.007668 -0.006050 -0.005335 -0.001318
# 2 -0.002488 0.012156 0.000377 0.003529 0.001159 0.001693
# 3 -0.007668 0.000377 0.037354 0.013410 -0.005247 0.009240
# 4 -0.006050 0.003529 0.013410 0.031698 0.003801 0.001477
# 5 -0.005335 0.001159 -0.005247 0.003801 0.037534 0.001882
# 6 -0.001318 0.001693 0.009240 0.001477 0.001882 0.019732
#
#
# Mechanical properties :
#
#
# Convention : Reuss Voigt Hill
#
# Bulk Modulus (GPa) = 23.73040 39.52228 31.62634
# Shear Modulus (GPa) = 27.13448 39.42728 33.28088
#
# Velocity S-wave (km/s) = 3.35942 4.04950 3.72049
# Velocity P-wave (km/s) = 4.99174 6.18891 5.62228
#
# Compressibility (1/GPa) = 0.04214003
#
# Stress axis : x y z
#
# Youngs Moduli (GPa) = 82.04890 82.26431 26.77065
#
# Poissons Ratio (x) = 0.20471 0.20526
# Poissons Ratio (y) = 0.20417 -0.01009
# Poissons Ratio (z) = 0.62911 -0.03100
#
# Static dielectric constant tensor:
#      x y z
#    x 1.983290 0.050350 0.009100 
#    y 0.050350 1.937670 0.092230 
#    z 0.009100 0.092230 2.145880 
# 
# From -- ./inp_files/94854.got.cif
#   From: 2010.05.17/outbox.cif.g08.bks.cpg/sg2_48_cif.got.tgz:94854.got - 2010.06.03 11:33:40.
