data_PCOD9068887
_publ_section_title
;
Structure prediction by ZEFSAII (Michael W. Deem and Ramdas Pophale) SiO2 
 PCOD9068887
Probable space group: P -1
;
_chemical_formula_sum "Si O2"
_cell_formula_units_Z 16
_cell_length_a 9.453648
_cell_length_b 18.987886
_cell_length_c 11.054349
_cell_angle_alpha 151.900211
_cell_angle_beta 137.129362
_cell_angle_gamma 53.415412
_cell_volume 627.924564
_symmetry_space_group_name_H-M "P -1"
_symmetry_group_IT_number 2
_symmetry_cell_setting 'triclinic'
loop_
_space_group_symop_operation_xyz
x,y,z
-x,-y,-z
loop_
_atom_site_type_symbol
_atom_site_label
_atom_site_fract_x
_atom_site_fract_y
_atom_site_fract_z
Si Si1 0.039393 0.839862 0.331624
Si Si2 0.847334 0.347839 0.208737
Si Si3 0.793278 0.845232 0.830904
Si Si4 0.618838 0.315450 0.769107
Si Si5 0.502643 0.635963 0.806152
Si Si6 0.842412 0.560022 0.090374
Si Si7 0.847319 0.180848 0.354275
Si Si8 0.374789 0.210240 0.097041
O O1 0.274032 0.827768 0.419816
O O2 0.041544 0.823507 0.451363
O O3 0.000000 0.000000 0.500000
O O4 0.852428 0.726406 0.974830
O O5 0.722605 0.363788 0.277186
O O6 0.000000 0.500000 0.500000
O O7 0.986203 0.213463 0.101535
O O8 0.675598 0.331100 0.968031
O O9 0.624817 0.717476 0.467230
O O10 0.693370 0.866433 0.933708
O O11 0.804089 0.007903 0.021910
O O12 0.251930 0.553665 0.035591
O O13 0.500000 0.500000 0.500000
O O14 0.585104 0.795035 0.031454
O O15 0.652461 0.600016 0.952155
O O16 0.986296 0.710997 0.457615
O O17 0.000000 0.500000 0.000000
O O18 0.628951 0.246768 0.337667
#
# Coordination Sequence:
#
# PCOD9068887 Si02
#       8
#     2   2   2   2   2   2   2   2
#     4  12  21  39  73 111 151 194 252 309 358 439
#     4  12  29  49  77 107 150 198 250 318 383 452
#     4  12  25  48  77 112 152 199 251 309 378 450
#     4  12  25  47  73 109 155 199 251 307 381 449
#     4  12  27  47  74 109 144 190 251 313 379 451
#     4  12  24  44  75 116 152 196 251 316 364 439
#     4  12  24  41  75 118 151 201 258 304 371 438
#     4  12  22  40  73 107 147 192 248 303 358 437
#
# _framework density 25.480765999999999
#
# number of rings (size 3 to 8) (size 9 to 14) (size 15 to 20)
#    0.000    0.000    6.250    4.125    3.500    2.000 
#    0.000    1.250    0.000    0.000    0.000    0.000 
#    0.000    0.000    0.000    0.000    0.000    0.000 
#
# Total GULP energy -89267.521662 kJ/mol
# GULP energy per Si atom -5579.220104 kJ/mol
# Density = 2.542277 g / cm^3
# Si number density = 25.480766 Si / 1000 Ang^3
#
#
#
# Elastic Constant Matrix: (Units=GPa)
#
#
# Indices 1 2 3 4 5 6 
#
# 1 136.2405 46.6323 37.4120 6.5127 10.5910 -8.9806
# 2 46.6323 154.2436 51.6277 -22.5895 12.3456 7.4882
# 3 37.4120 51.6277 93.9893 -16.8506 13.2651 -1.8730
# 4 6.5127 -22.5895 -16.8506 58.9532 3.7832 -0.9908
# 5 10.5910 12.3456 13.2651 3.7832 30.5890 -10.2641
# 6 -8.9806 7.4882 -1.8730 -0.9908 -10.2641 32.4081
#
#
#
# Elastic Compliance Matrix: (Units=1/GPa)
#
#
# Indices 1 2 3 4 5 6 
#
# 1 0.009246 -0.002420 -0.002829 -0.002729 0.000340 0.002982
# 2 -0.002420 0.009153 -0.003156 0.003010 -0.003161 -0.003877
# 3 -0.002829 -0.003156 0.014821 0.003639 -0.004831 -0.000617
# 4 -0.002729 0.003010 0.003639 0.019744 -0.005040 -0.002234
# 5 0.000340 -0.003161 -0.004831 -0.005040 0.041063 0.013397
# 6 0.002982 -0.003877 -0.000617 -0.002234 0.013397 0.036718
#
#
# Mechanical properties :
#
#
# Convention : Reuss Voigt Hill
#
# Bulk Modulus (GPa) = 60.93709 72.86859 66.90284
# Shear Modulus (GPa) = 32.67459 40.97682 36.82571
#
# Velocity S-wave (km/s) = 3.58484 4.01452 3.80575
# Velocity P-wave (km/s) = 6.41105 7.08153 6.75462
#
# Compressibility (1/GPa) = 0.01641037
#
# Stress axis : x y z
#
# Youngs Moduli (GPa) = 108.15897 109.24913 67.47173
#
# Poissons Ratio (x) = 0.26439 0.19086
# Poissons Ratio (y) = 0.26176 0.21294
# Poissons Ratio (z) = 0.30595 0.34479
#
# Static dielectric constant tensor:
#      x y z
#    x 1.996440 -0.011070 0.055450 
#    y -0.011070 2.037070 0.122890 
#    z 0.055450 0.122890 2.330470 
# 
# From -- ./inp_files/405746.got.cif
#   From: 2010.05.17/outbox.cif.g08.bks.cpg/sg2_203_cif.got.tgz:405746.got - 2010.06.03 11:33:40.
