data_PCOD9068082
_publ_section_title
;
Structure prediction by ZEFSAII (Michael W. Deem and Ramdas Pophale) SiO2 
 PCOD9068082
Probable space group: P -1
;
_chemical_formula_sum "Si O2"
_cell_formula_units_Z 15
_cell_length_a 6.351401
_cell_length_b 10.941891
_cell_length_c 11.958866
_cell_angle_alpha 74.869119
_cell_angle_beta 125.514098
_cell_angle_gamma 95.622895
_cell_volume 651.514026
_symmetry_space_group_name_H-M "P -1"
_symmetry_group_IT_number 2
_symmetry_cell_setting 'triclinic'
loop_
_space_group_symop_operation_xyz
x,y,z
-x,-y,-z
loop_
_atom_site_type_symbol
_atom_site_label
_atom_site_fract_x
_atom_site_fract_y
_atom_site_fract_z
Si Si1 0.428282 0.175175 0.375706
Si Si2 0.533112 0.708308 0.251804
Si Si3 0.439321 0.279933 0.114497
Si Si4 0.715478 0.888373 0.073240
Si Si5 0.000000 0.500000 0.500000
Si Si6 0.000727 0.660110 0.684321
Si Si7 0.696305 0.101200 0.678948
Si Si8 0.036507 0.559106 0.116945
O O1 0.410212 0.268407 0.241816
O O2 0.678127 0.172498 0.534900
O O3 0.196036 0.219556 0.378132
O O4 0.404986 0.035626 0.349655
O O5 0.650044 0.778941 0.166362
O O6 0.724452 0.585208 0.366900
O O7 0.476462 0.811908 0.308449
O O8 0.248748 0.661077 0.151322
O O9 0.734924 0.306697 0.182060
O O10 0.341878 0.153376 0.060327
O O11 0.252607 0.381407 0.967638
O O12 0.011674 0.916287 0.180527
O O13 0.500000 0.000000 0.000000
O O14 0.946596 0.392963 0.410464
O O15 0.887208 0.540064 0.739567
O O16 0.000000 0.500000 0.000000
#
# Coordination Sequence:
#
# PCOD9068082 Si02
#       8
#     2   2   2   2   1   2   2   2
#     4  11  26  47  75 103 142 192 240 298 361 433
#     4  12  27  47  73 110 147 193 248 292 370 430
#     4  12  25  44  72 105 143 189 239 293 364 424
#     4  12  27  46  76 109 148 189 242 304 358 434
#     4  12  28  46  74 106 150 196 234 306 358 444
#     4  12  26  45  70 107 143 187 245 294 362 428
#     4  11  26  49  74 106 145 191 243 301 362 426
#     4  12  24  44  71 101 145 189 234 297 353 431
#
# _framework density 23.023295000000001
#
# number of rings (size 3 to 8) (size 9 to 14) (size 15 to 20)
#    0.000    0.267    4.000    4.400    3.733    1.600 
#    0.000    3.333    0.000    0.000    0.000    0.000 
#    0.000    0.000    0.000    0.000    0.000    0.000 
#
# Total GULP energy -83534.073831 kJ/mol
# GULP energy per Si atom -5568.938255 kJ/mol
# Density = 2.297089 g / cm^3
# Si number density = 23.023295 Si / 1000 Ang^3
#
#
#
# Elastic Constant Matrix: (Units=GPa)
#
#
# Indices 1 2 3 4 5 6 
#
# 1 56.6049 27.2429 26.8326 4.4536 3.7703 -18.2924
# 2 27.2429 88.4119 26.9629 9.7622 -0.8358 -44.0610
# 3 26.8326 26.9629 99.5522 13.6546 3.1103 -18.4573
# 4 4.4536 9.7622 13.6546 38.4684 -9.6865 0.2250
# 5 3.7703 -0.8358 3.1103 -9.6865 32.8499 -6.7548
# 6 -18.2924 -44.0610 -18.4573 0.2250 -6.7548 49.4145
#
#
#
# Elastic Compliance Matrix: (Units=1/GPa)
#
#
# Indices 1 2 3 4 5 6 
#
# 1 0.022858 -0.004320 -0.004358 -0.000500 -0.001908 0.002723
# 2 -0.004320 0.022917 -0.001088 -0.004062 0.003887 0.018978
# 3 -0.004358 -0.001088 0.012464 -0.004035 -0.001510 0.001884
# 4 -0.000500 -0.004062 -0.004035 0.030682 0.008501 -0.004291
# 5 -0.001908 0.003887 -0.001510 0.008501 0.034832 0.006918
# 6 0.002723 0.018978 0.001884 -0.004291 0.006918 0.039836
#
#
# Mechanical properties :
#
#
# Convention : Reuss Voigt Hill
#
# Bulk Modulus (GPa) = 25.83525 45.18285 35.50905
# Shear Modulus (GPa) = 25.50727 35.04861 30.27794
#
# Velocity S-wave (km/s) = 3.33211 3.90591 3.63037
# Velocity P-wave (km/s) = 5.10388 6.32527 5.74711
#
# Compressibility (1/GPa) = 0.03870681
#
# Stress axis : x y z
#
# Youngs Moduli (GPa) = 43.74906 43.63580 80.22973
#
# Poissons Ratio (x) = 0.18851 0.34963
# Poissons Ratio (y) = 0.18900 0.08730
# Poissons Ratio (z) = 0.19065 0.04748
#
# Static dielectric constant tensor:
#      x y z
#    x 1.940700 -0.159320 -0.015180 
#    y -0.159320 2.220380 -0.064540 
#    z -0.015180 -0.064540 1.847830 
# 
# From -- ./inp_files/60976.got.cif
#   From: 2010.05.17/outbox.cif.g08.bks.cpg/sg2_31_cif.got.tgz:60976.got - 2010.06.03 11:33:40.
