data_PCOD9068610
_publ_section_title
;
Structure prediction by ZEFSAII (Michael W. Deem and Ramdas Pophale) SiO2 
 PCOD9068610
Probable space group: P -1
;
_chemical_formula_sum "Si O2"
_cell_formula_units_Z 12
_cell_length_a 5.025892
_cell_length_b 9.589114
_cell_length_c 11.478241
_cell_angle_alpha 113.952648
_cell_angle_beta 91.744363
_cell_angle_gamma 71.938609
_cell_volume 477.723010
_symmetry_space_group_name_H-M "P -1"
_symmetry_group_IT_number 2
_symmetry_cell_setting 'triclinic'
loop_
_space_group_symop_operation_xyz
x,y,z
-x,-y,-z
loop_
_atom_site_type_symbol
_atom_site_label
_atom_site_fract_x
_atom_site_fract_y
_atom_site_fract_z
Si Si1 0.235962 0.513610 0.421911
Si Si2 0.202450 0.078711 0.959756
Si Si3 0.485641 0.073885 0.722364
Si Si4 0.877634 0.861386 0.487155
Si Si5 0.002065 0.436001 0.172626
Si Si6 0.400739 0.602938 0.149034
O O1 0.500000 0.500000 0.500000
O O2 0.202736 0.400943 0.277325
O O3 0.000000 0.500000 0.500000
O O4 0.128436 0.695717 0.435295
O O5 0.282672 0.050002 0.813546
O O6 0.078421 0.270783 0.046281
O O7 0.500000 0.000000 0.000000
O O8 0.000000 0.000000 0.000000
O O9 0.332124 0.139462 0.620400
O O10 0.616139 0.212788 0.807896
O O11 0.719832 0.909448 0.625203
O O12 0.000000 0.000000 0.500000
O O13 0.109451 0.571658 0.160064
O O14 0.664267 0.514861 0.210741
O O15 0.500000 0.500000 0.000000
#
# Coordination Sequence:
#
# PCOD9068610 Si02
#       6
#     2   2   2   2   2   2
#     4  12  29  50  77 113 161 210 264 330 402 479
#     4  12  30  49  74 113 161 210 259 323 406 488
#     4  11  27  48  80 119 156 207 274 335 402 485
#     4  11  27  49  85 116 159 215 272 338 402 485
#     4  12  26  48  74 111 149 204 259 322 398 475
#     4  12  24  45  79 113 148 190 262 328 392 461
#
# _framework density 25.119160000000001
#
# number of rings (size 3 to 8) (size 9 to 14) (size 15 to 20)
#    0.000    0.333    3.333    3.500    9.333    0.000 
#    0.000    0.000    0.000    0.000    0.000    0.000 
#    0.000    0.000    0.000    0.000    0.000    0.000 
#
# Total GULP energy -67163.733745 kJ/mol
# GULP energy per Si atom -5596.977812 kJ/mol
# Density = 2.506199 g / cm^3
# Si number density = 25.119160 Si / 1000 Ang^3
#
#
#
# Elastic Constant Matrix: (Units=GPa)
#
#
# Indices 1 2 3 4 5 6 
#
# 1 157.6943 33.6052 34.1739 -1.0840 -1.9425 11.0106
# 2 33.6052 94.2676 29.4111 7.2010 -1.6353 3.3568
# 3 34.1739 29.4111 172.5143 7.5921 -9.6700 12.6330
# 4 -1.0840 7.2010 7.5921 40.5539 -1.9455 -3.9676
# 5 -1.9425 -1.6353 -9.6700 -1.9455 44.7694 -7.8830
# 6 11.0106 3.3568 12.6330 -3.9676 -7.8830 59.1420
#
#
#
# Elastic Compliance Matrix: (Units=1/GPa)
#
#
# Indices 1 2 3 4 5 6 
#
# 1 0.007104 -0.002243 -0.000992 0.000674 -0.000127 -0.000955
# 2 -0.002243 0.012030 -0.001521 -0.001923 -0.000084 -0.000081
# 3 -0.000992 -0.001521 0.006432 -0.001010 0.001066 -0.001029
# 4 0.000674 -0.001923 -0.001010 0.025468 0.001212 0.002069
# 5 -0.000127 -0.000084 0.001066 0.001212 0.023133 0.002965
# 6 -0.000955 -0.000081 -0.001029 0.002069 0.002965 0.017845
#
#
# Mechanical properties :
#
#
# Convention : Reuss Voigt Hill
#
# Bulk Modulus (GPa) = 62.28379 68.76184 65.52282
# Shear Modulus (GPa) = 46.78382 50.71214 48.74798
#
# Velocity S-wave (km/s) = 4.32032 4.49805 4.41008
# Velocity P-wave (km/s) = 7.05238 7.37633 7.21618
#
# Compressibility (1/GPa) = 0.01605554
#
# Stress axis : x y z
#
# Youngs Moduli (GPa) = 140.76569 83.12225 155.47554
#
# Poissons Ratio (x) = 0.18642 0.15419
# Poissons Ratio (y) = 0.31570 0.23646
# Poissons Ratio (z) = 0.13960 0.12642
#
# Static dielectric constant tensor:
#      x y z
#    x 2.035540 -0.027710 0.059440 
#    y -0.027710 1.926910 0.040770 
#    z 0.059440 0.040770 1.918670 
# 
# From -- ./inp_files/360406.got.cif
#   From: 2010.05.17/outbox.cif.g08.bks.cpg/sg2_181_cif.got.tgz:360406.got - 2010.06.03 11:33:40.
