data_PCOD9068882
_publ_section_title
;
Structure prediction by ZEFSAII (Michael W. Deem and Ramdas Pophale) SiO2 
 PCOD9068882
Probable space group: P -1
;
_chemical_formula_sum "Si O2"
_cell_formula_units_Z 16
_cell_length_a 20.149152
_cell_length_b 16.115925
_cell_length_c 4.924985
_cell_angle_alpha 84.987693
_cell_angle_beta 106.123482
_cell_angle_gamma 151.044159
_cell_volume 700.925208
_symmetry_space_group_name_H-M "P -1"
_symmetry_group_IT_number 2
_symmetry_cell_setting 'triclinic'
loop_
_space_group_symop_operation_xyz
x,y,z
-x,-y,-z
loop_
_atom_site_type_symbol
_atom_site_label
_atom_site_fract_x
_atom_site_fract_y
_atom_site_fract_z
Si Si1 0.139721 0.128109 0.800399
Si Si2 0.044121 0.451303 0.121221
Si Si3 0.124100 0.814750 0.494981
Si Si4 0.369108 0.511400 0.029145
Si Si5 0.813027 0.932298 0.618258
Si Si6 0.484645 0.160367 0.846085
Si Si7 0.404660 0.817538 0.532158
Si Si8 0.509557 0.598352 0.645854
O O1 0.214666 0.298199 0.873578
O O2 0.226585 0.162152 0.671236
O O3 0.000000 0.000000 0.500000
O O4 0.884194 0.946950 0.923776
O O5 0.224655 0.637476 0.331228
O O6 0.956898 0.318008 0.312518
O O7 0.000000 0.500000 0.000000
O O8 0.970554 0.321243 0.827642
O O9 0.109729 0.899994 0.440218
O O10 0.304175 0.985242 0.674820
O O11 0.475059 0.570299 0.929206
O O12 0.420608 0.659246 0.988276
O O13 0.388313 0.522482 0.370576
O O14 0.666818 0.803649 0.661721
O O15 0.540023 0.196448 0.599658
O O16 0.539041 0.145464 0.113102
O O17 0.500000 0.000000 0.500000
O O18 0.500000 0.500000 0.500000
#
# Coordination Sequence:
#
# PCOD9068882 Si02
#       8
#     2   2   2   2   2   2   2   2
#     4  12  26  43  63  96 140 194 236 293 350 424
#     4  12  27  50  77 107 146 189 235 293 365 443
#     4  12  26  45  75 112 143 186 242 302 360 434
#     4  12  24  40  66  99 136 178 235 289 348 410
#     4  12  25  42  69  96 136 183 238 290 350 416
#     4  12  26  44  75 111 147 184 240 302 361 432
#     4  12  27  50  76 106 145 189 232 292 367 442
#     4  12  21  39  68  97 129 176 239 289 339 394
#
# _framework density 22.826971
#
# number of rings (size 3 to 8) (size 9 to 14) (size 15 to 20)
#    0.000    0.000    3.750    6.750    1.750    3.000 
#    0.000    0.000    0.000    0.000    0.000    0.000 
#    0.000    0.000    0.000    0.000    0.000    0.000 
#
# Total GULP energy -89274.029043 kJ/mol
# GULP energy per Si atom -5579.626815 kJ/mol
# Density = 2.277502 g / cm^3
# Si number density = 22.826971 Si / 1000 Ang^3
#
#
#
# Elastic Constant Matrix: (Units=GPa)
#
#
# Indices 1 2 3 4 5 6 
#
# 1 55.2700 37.5405 0.1188 11.3340 -4.6603 -7.2572
# 2 37.5405 152.8349 46.4250 6.5631 20.3439 -11.7435
# 3 0.1188 46.4250 123.4885 -0.1254 7.8477 8.8441
# 4 11.3340 6.5631 -0.1254 47.6857 11.7251 -3.7534
# 5 -4.6603 20.3439 7.8477 11.7251 41.1573 0.2675
# 6 -7.2572 -11.7435 8.8441 -3.7534 0.2675 44.0230
#
#
#
# Elastic Compliance Matrix: (Units=1/GPa)
#
#
# Indices 1 2 3 4 5 6 
#
# 1 0.025566 -0.007680 0.002256 -0.006954 0.008235 0.001070
# 2 -0.007680 0.010451 -0.003721 0.002028 -0.005920 0.002478
# 3 0.002256 -0.003721 0.009657 -0.000289 0.000352 -0.002588
# 4 -0.006954 0.002028 -0.000289 0.024624 -0.008760 0.001605
# 5 0.008235 -0.005920 0.000352 -0.008760 0.030592 -0.001225
# 6 0.001070 0.002478 -0.002588 0.001605 -0.001225 0.024217
#
#
# Mechanical properties :
#
#
# Convention : Reuss Voigt Hill
#
# Bulk Modulus (GPa) = 36.51874 55.52913 46.02393
# Shear Modulus (GPa) = 32.78142 43.07380 37.92761
#
# Velocity S-wave (km/s) = 3.79368 4.34864 4.08060
# Velocity P-wave (km/s) = 5.93482 7.04224 6.51211
#
# Compressibility (1/GPa) = 0.02738320
#
# Stress axis : x y z
#
# Youngs Moduli (GPa) = 39.11508 95.68402 103.54939
#
# Poissons Ratio (x) = 0.73487 -0.23358
# Poissons Ratio (y) = 0.30041 0.38529
# Poissons Ratio (z) = -0.08823 0.35603
#
# Static dielectric constant tensor:
#      x y z
#    x 1.943000 0.100220 -0.000050 
#    y 0.100220 1.800270 0.005610 
#    z -0.000050 0.005610 1.938590 
# 
# From -- ./inp_files/110815.got.cif
#   From: 2010.05.17/outbox.cif.g08.bks.cpg/sg2_56_cif.got.tgz:110815.got - 2010.06.03 11:33:40.
