data_PCOD9068584
_publ_section_title
;
Structure prediction by ZEFSAII (Michael W. Deem and Ramdas Pophale) SiO2 
 PCOD9068584
Probable space group: P -1
;
_chemical_formula_sum "Si O2"
_cell_formula_units_Z 12
_cell_length_a 5.153531
_cell_length_b 11.426426
_cell_length_c 13.863168
_cell_angle_alpha 44.720526
_cell_angle_beta 56.123976
_cell_angle_gamma 70.199785
_cell_volume 474.613778
_symmetry_space_group_name_H-M "P -1"
_symmetry_group_IT_number 2
_symmetry_cell_setting 'triclinic'
loop_
_space_group_symop_operation_xyz
x,y,z
-x,-y,-z
loop_
_atom_site_type_symbol
_atom_site_label
_atom_site_fract_x
_atom_site_fract_y
_atom_site_fract_z
Si Si1 0.396232 0.275127 0.897679
Si Si2 0.403091 0.482546 0.141304
Si Si3 0.395180 0.887957 0.319289
Si Si4 0.647780 0.910753 0.612156
Si Si5 0.077719 0.938102 0.151650
Si Si6 0.294234 0.529119 0.621885
O O1 0.353040 0.377346 0.942635
O O2 0.671323 0.152984 0.908115
O O3 0.484028 0.426574 0.717617
O O4 0.111385 0.136920 0.016589
O O5 0.409510 0.286610 0.278802
O O6 0.063332 0.523038 0.233266
O O7 0.500000 0.500000 0.000000
O O8 0.163637 0.904071 0.267353
O O9 0.293130 0.728759 0.500367
O O10 0.743524 0.859324 0.230237
O O11 0.470193 0.045043 0.282682
O O12 0.500000 0.000000 0.500000
O O13 0.000000 0.000000 0.500000
O O14 0.500000 0.500000 0.500000
#
# Coordination Sequence:
#
# PCOD9068584 Si02
#       6
#     2   2   2   2   2   2
#     4  11  27  47  76 112 155 203 260 323 394 461
#     4  12  29  50  76 115 158 208 257 325 393 472
#     4  12  25  48  76 111 153 203 262 320 392 460
#     4  12  26  48  75 110 154 208 256 312 384 471
#     4  11  27  47  79 111 153 204 259 328 387 464
#     4  12  26  47  78 112 153 199 261 323 390 456
#
# _framework density 25.283716999999999
#
# number of rings (size 3 to 8) (size 9 to 14) (size 15 to 20)
#    0.000    0.333    3.333    4.000    7.000    3.333 
#    0.000    0.000    0.000    0.000    0.000    0.000 
#    0.000    0.000    0.000    0.000    0.000    0.000 
#
# Total GULP energy -66936.528681 kJ/mol
# GULP energy per Si atom -5578.044057 kJ/mol
# Density = 2.522617 g / cm^3
# Si number density = 25.283717 Si / 1000 Ang^3
#
#
#
# Elastic Constant Matrix: (Units=GPa)
#
#
# Indices 1 2 3 4 5 6 
#
# 1 109.5538 23.5778 48.3514 -1.4619 23.4302 11.3545
# 2 23.5778 147.3818 55.3745 -22.3250 21.7417 20.9437
# 3 48.3514 55.3745 134.3292 -15.0110 16.9130 2.3137
# 4 -1.4619 -22.3250 -15.0110 62.0025 -10.3827 -3.2046
# 5 23.4302 21.7417 16.9130 -10.3827 46.0738 9.8653
# 6 11.3545 20.9437 2.3137 -3.2046 9.8653 38.9803
#
#
#
# Elastic Compliance Matrix: (Units=1/GPa)
#
#
# Indices 1 2 3 4 5 6 
#
# 1 0.012049 0.000399 -0.004038 -0.001452 -0.004641 -0.002430
# 2 0.000399 0.009173 -0.003390 0.001948 -0.001951 -0.004190
# 3 -0.004038 -0.003390 0.010449 0.001273 -0.000452 0.002596
# 4 -0.001452 0.001948 0.001273 0.017660 0.003352 -0.000096
# 5 -0.004641 -0.001951 -0.000452 0.003352 0.026779 -0.004075
# 6 -0.002430 -0.004190 0.002596 -0.000096 -0.004075 0.029482
#
#
# Mechanical properties :
#
#
# Convention : Reuss Voigt Hill
#
# Bulk Modulus (GPa) = 56.76801 71.76358 64.26579
# Shear Modulus (GPa) = 39.83408 47.00873 43.42140
#
# Velocity S-wave (km/s) = 3.97354 4.31658 4.14861
# Velocity P-wave (km/s) = 6.59948 7.29991 6.95852
#
# Compressibility (1/GPa) = 0.01761556
#
# Stress axis : x y z
#
# Youngs Moduli (GPa) = 82.99462 109.01385 95.69840
#
# Poissons Ratio (x) = -0.04353 0.38641
# Poissons Ratio (y) = -0.03314 0.32438
# Poissons Ratio (z) = 0.33511 0.36951
#
# Static dielectric constant tensor:
#      x y z
#    x 2.164710 0.017220 0.018900 
#    y 0.017220 2.056100 0.052500 
#    z 0.018900 0.052500 1.975980 
# 
# From -- ./inp_files/28049.got.cif
#   From: 2010.05.17/outbox.cif.g08.bks.cpg/sg2_15_cif.got.tgz:28049.got - 2010.06.03 11:33:40.
