data_PCOD9068866
_publ_section_title
;
Structure prediction by ZEFSAII (Michael W. Deem and Ramdas Pophale) SiO2 
 PCOD9068866
Probable space group: P -1
;
_chemical_formula_sum "Si O2"
_cell_formula_units_Z 14
_cell_length_a 5.024185
_cell_length_b 12.270014
_cell_length_c 10.772910
_cell_angle_alpha 56.859191
_cell_angle_beta 89.475826
_cell_angle_gamma 85.177986
_cell_volume 553.576032
_symmetry_space_group_name_H-M "P -1"
_symmetry_group_IT_number 2
_symmetry_cell_setting 'triclinic'
loop_
_space_group_symop_operation_xyz
x,y,z
-x,-y,-z
loop_
_atom_site_type_symbol
_atom_site_label
_atom_site_fract_x
_atom_site_fract_y
_atom_site_fract_z
Si Si1 0.912028 0.136293 0.217441
Si Si2 0.411253 0.298048 0.093553
Si Si3 0.361942 0.452319 0.742043
Si Si4 0.266398 0.913283 0.023181
Si Si5 0.059701 0.165305 0.562974
Si Si6 0.813359 0.603680 0.731153
Si Si7 0.464284 0.736344 0.348322
O O1 0.681615 0.244411 0.201639
O O2 0.195345 0.190405 0.155910
O O3 0.951887 0.989256 0.361509
O O4 0.760052 0.122517 0.095790
O O5 0.264090 0.407055 0.118450
O O6 0.439873 0.357583 0.919285
O O7 0.567916 0.562111 0.677465
O O8 0.383548 0.389258 0.644168
O O9 0.066467 0.511974 0.740839
O O10 0.307509 0.795130 0.190611
O O11 0.500000 0.000000 0.000000
O O12 0.000000 0.000000 0.000000
O O13 0.138006 0.246319 0.392080
O O14 0.297351 0.185098 0.647627
O O15 0.781334 0.237659 0.569756
#
# Coordination Sequence:
#
# PCOD9068866 Si02
#       7
#     2   2   2   2   2   2   2
#     4  12  24  41  71 107 135 171 222 280 349 403
#     4  12  26  45  74 101 130 178 234 288 332 381
#     4  12  26  46  73  98 131 180 235 286 330 382
#     4  12  21  38  66 102 138 175 211 281 345 393
#     4  12  27  44  68 104 143 181 212 270 350 421
#     4  12  28  49  67  95 141 185 232 275 323 403
#     4  12  24  41  70 103 137 175 223 276 342 406
#
# _framework density 25.290113999999999
#
# number of rings (size 3 to 8) (size 9 to 14) (size 15 to 20)
#    0.000    0.000    4.286    6.000    2.000    4.571 
#    0.000    0.000    0.000    0.000    0.000    0.000 
#    0.000    0.000    0.000    0.000    0.000    0.000 
#
# Total GULP energy -78315.666777 kJ/mol
# GULP energy per Si atom -5593.976198 kJ/mol
# Density = 2.523255 g / cm^3
# Si number density = 25.290114 Si / 1000 Ang^3
#
#
#
# Elastic Constant Matrix: (Units=GPa)
#
#
# Indices 1 2 3 4 5 6 
#
# 1 172.2348 24.3633 17.9045 -8.8382 -4.8030 -19.3442
# 2 24.3633 49.0882 20.5433 1.1587 -1.9718 -16.8726
# 3 17.9045 20.5433 97.4345 -6.8488 -2.9894 -13.9068
# 4 -8.8382 1.1587 -6.8488 36.3524 2.1763 -1.6266
# 5 -4.8030 -1.9718 -2.9894 2.1763 38.5959 -1.8682
# 6 -19.3442 -16.8726 -13.9068 -1.6266 -1.8682 53.3568
#
#
#
# Elastic Compliance Matrix: (Units=1/GPa)
#
#
# Indices 1 2 3 4 5 6 
#
# 1 0.006474 -0.002578 -0.000294 0.001631 0.000633 0.001527
# 2 -0.002578 0.025559 -0.004162 -0.002020 0.001069 0.006039
# 3 -0.000294 -0.004162 0.011616 0.002289 0.000603 0.001696
# 4 0.001631 -0.002020 0.002289 0.028538 -0.001265 0.001375
# 5 0.000633 0.001069 0.000603 -0.001265 0.026239 0.001605
# 6 0.001527 0.006039 0.001696 0.001375 0.001605 0.021745
#
#
# Mechanical properties :
#
#
# Convention : Reuss Voigt Hill
#
# Bulk Modulus (GPa) = 33.80637 49.37553 41.59095
# Shear Modulus (GPa) = 34.69776 42.72411 38.71093
#
# Velocity S-wave (km/s) = 3.70806 4.11464 3.91663
# Velocity P-wave (km/s) = 5.63288 6.49151 6.07738
#
# Compressibility (1/GPa) = 0.02958022
#
# Stress axis : x y z
#
# Youngs Moduli (GPa) = 154.45942 39.12466 86.08499
#
# Poissons Ratio (x) = 0.10088 0.02531
# Poissons Ratio (y) = 0.39826 0.35833
# Poissons Ratio (z) = 0.04541 0.16285
#
# Static dielectric constant tensor:
#      x y z
#    x 1.918580 0.032330 -0.033810 
#    y 0.032330 1.972550 0.048210 
#    z -0.033810 0.048210 2.060300 
# 
# From -- ./inp_files/363828.got.cif
#   From: 2010.05.17/outbox.cif.g08.bks.cpg/sg2_182_cif.got.tgz:363828.got - 2010.06.03 11:33:40.
