data_PCOD9068490
_publ_section_title
;
Structure prediction by ZEFSAII (Michael W. Deem and Ramdas Pophale) SiO2 
 PCOD9068490
Probable space group: P -1
;
_chemical_formula_sum "Si O2"
_cell_formula_units_Z 10
_cell_length_a 13.401078
_cell_length_b 7.883851
_cell_length_c 4.914118
_cell_angle_alpha 112.944571
_cell_angle_beta 63.352868
_cell_angle_gamma 125.407823
_cell_volume 372.146909
_symmetry_space_group_name_H-M "P -1"
_symmetry_group_IT_number 2
_symmetry_cell_setting 'triclinic'
loop_
_space_group_symop_operation_xyz
x,y,z
-x,-y,-z
loop_
_atom_site_type_symbol
_atom_site_label
_atom_site_fract_x
_atom_site_fract_y
_atom_site_fract_z
Si Si1 0.372535 0.987410 0.033009
Si Si2 0.298668 0.451206 0.360735
Si Si3 0.592352 0.745885 0.339015
Si Si4 0.094279 0.050334 0.669677
Si Si5 0.848617 0.328431 0.592850
O O1 0.378009 0.174248 0.336657
O O2 0.245854 0.761343 0.084603
O O3 0.381409 0.053791 0.754109
O O4 0.500000 0.000000 0.000000
O O5 0.439157 0.595719 0.407554
O O6 0.201753 0.283025 0.592885
O O7 0.227237 0.578438 0.425762
O O8 0.331034 0.348815 0.988514
O O9 0.145400 0.888487 0.585449
O O10 0.000000 0.000000 0.500000
O O11 0.000000 0.000000 0.000000
O O12 0.000000 0.500000 0.500000
#
# Coordination Sequence:
#
# PCOD9068490 Si02
#       5
#     2   2   2   2   2
#     4  12  26  50  78 116 159 205 268 320 387 470
#     4  11  26  51  82 117 158 206 268 323 396 466
#     4  11  27  50  80 115 157 209 257 332 388 462
#     4  12  29  52  75 111 158 206 257 320 390 471
#     4  12  27  49  80 117 157 207 263 321 396 465
#
# _framework density 26.871106999999999
#
# number of rings (size 3 to 8) (size 9 to 14) (size 15 to 20)
#    0.000    0.400    6.000    0.600    2.800    7.200 
#    0.000    0.000    0.000    0.000    0.000    0.000 
#    0.000    0.000    0.000    0.000    0.000    0.000 
#
# Total GULP energy -55836.442108 kJ/mol
# GULP energy per Si atom -5583.644211 kJ/mol
# Density = 2.680995 g / cm^3
# Si number density = 26.871107 Si / 1000 Ang^3
#
#
#
# Elastic Constant Matrix: (Units=GPa)
#
#
# Indices 1 2 3 4 5 6 
#
# 1 142.4557 48.7354 64.0887 -6.3897 -30.4814 -15.1488
# 2 48.7354 221.3326 67.4749 -61.0503 -25.1860 -6.2421
# 3 64.0887 67.4749 144.5035 -27.2377 -2.8527 -7.3212
# 4 -6.3897 -61.0503 -27.2377 63.4781 -1.7629 -14.2619
# 5 -30.4814 -25.1860 -2.8527 -1.7629 65.7570 1.6320
# 6 -15.1488 -6.2421 -7.3212 -14.2619 1.6320 64.8522
#
#
#
# Elastic Compliance Matrix: (Units=1/GPa)
#
#
# Indices 1 2 3 4 5 6 
#
# 1 0.010170 -0.000718 -0.004208 -0.001019 0.004192 0.001502
# 2 -0.000718 0.007419 -0.001724 0.006795 0.002572 0.001781
# 3 -0.004208 -0.001724 0.010005 0.002272 -0.002129 0.000534
# 4 -0.001019 0.006795 0.002272 0.024587 0.002739 0.006011
# 5 0.004192 0.002572 -0.002129 0.002739 0.018089 0.001133
# 6 0.001502 0.001781 0.000534 0.006011 0.001133 0.017296
#
#
# Mechanical properties :
#
#
# Convention : Reuss Voigt Hill
#
# Bulk Modulus (GPa) = 69.96447 96.54331 83.25389
# Shear Modulus (GPa) = 47.33536 60.68364 54.00950
#
# Velocity S-wave (km/s) = 4.20166 4.75734 4.48811
# Velocity P-wave (km/s) = 7.04501 8.13527 7.60969
#
# Compressibility (1/GPa) = 0.01429297
#
# Stress axis : x y z
#
# Youngs Moduli (GPa) = 98.33314 134.79210 99.95076
#
# Poissons Ratio (x) = 0.09677 0.42061
# Poissons Ratio (y) = 0.07060 0.17231
# Poissons Ratio (z) = 0.41381 0.23238
#
# Static dielectric constant tensor:
#      x y z
#    x 2.112690 0.090850 -0.078510 
#    y 0.090850 2.187610 0.035020 
#    z -0.078510 0.035020 2.233040 
# 
# From -- ./inp_files/86752.got.cif
#   From: 2010.05.17/outbox.cif.g08.bks.cpg/sg2_44_cif.got.tgz:86752.got - 2010.06.03 11:33:40.
