data_PCOD9068085
_publ_section_title
;
Structure prediction by ZEFSAII (Michael W. Deem and Ramdas Pophale) SiO2 
 PCOD9068085
Probable space group: P -1
;
_chemical_formula_sum "Si O2"
_cell_formula_units_Z 12
_cell_length_a 12.679884
_cell_length_b 6.353699
_cell_length_c 9.060051
_cell_angle_alpha 104.206188
_cell_angle_beta 80.945386
_cell_angle_gamma 50.068102
_cell_volume 491.498804
_symmetry_space_group_name_H-M "P -1"
_symmetry_group_IT_number 2
_symmetry_cell_setting 'triclinic'
loop_
_space_group_symop_operation_xyz
x,y,z
-x,-y,-z
loop_
_atom_site_type_symbol
_atom_site_label
_atom_site_fract_x
_atom_site_fract_y
_atom_site_fract_z
Si Si1 0.650772 0.903974 0.897876
Si Si2 0.894103 0.209182 0.779252
Si Si3 0.655974 0.150298 0.359437
Si Si4 0.108124 0.164544 0.503421
Si Si5 0.259425 0.774482 0.932203
Si Si6 0.493233 0.056072 0.686779
O O1 0.784619 0.571792 0.878974
O O2 0.645622 0.866640 0.715362
O O3 0.500000 0.000000 0.000000
O O4 0.672006 0.122389 0.973386
O O5 0.023165 0.133177 0.637385
O O6 0.835308 0.092789 0.672304
O O7 0.883589 0.113824 0.927012
O O8 0.500000 0.500000 0.500000
O O9 0.763176 0.118592 0.213169
O O10 0.753548 0.947010 0.446494
O O11 0.595169 0.032812 0.263242
O O12 0.000000 0.500000 0.500000
O O13 0.390647 0.406790 0.816006
O O14 0.500000 0.000000 0.500000
#
# Coordination Sequence:
#
# PCOD9068085 Si02
#       6
#     2   2   2   2   2   2
#     4  12  24  44  74 112 152 201 254 311 389 454
#     4  11  26  47  75 109 149 212 252 307 393 464
#     4  12  26  46  76 115 151 197 257 321 377 445
#     4  11  28  50  78 110 157 205 254 317 386 467
#     4  12  25  44  72 113 155 196 252 322 377 462
#     4  12  26  39  70 114 153 195 248 317 381 442
#
# _framework density 24.415116999999999
#
# number of rings (size 3 to 8) (size 9 to 14) (size 15 to 20)
#    0.000    0.333    5.000    2.500    4.667    2.000 
#    0.000    5.833    0.000    0.000    0.000    0.000 
#    0.000    0.000    0.000    0.000    0.000    0.000 
#
# Total GULP energy -66933.112044 kJ/mol
# GULP energy per Si atom -5577.759337 kJ/mol
# Density = 2.435955 g / cm^3
# Si number density = 24.415117 Si / 1000 Ang^3
#
#
#
# Elastic Constant Matrix: (Units=GPa)
#
#
# Indices 1 2 3 4 5 6 
#
# 1 132.6234 67.5647 39.2651 -0.5651 35.3104 6.1488
# 2 67.5647 109.5921 43.5034 -15.2763 27.1737 20.4290
# 3 39.2651 43.5034 163.5163 -42.4348 5.9963 11.1384
# 4 -0.5651 -15.2763 -42.4348 67.7082 15.5446 16.3198
# 5 35.3104 27.1737 5.9963 15.5446 34.8479 -2.9992
# 6 6.1488 20.4290 11.1384 16.3198 -2.9992 40.9974
#
#
#
# Elastic Compliance Matrix: (Units=1/GPa)
#
#
# Indices 1 2 3 4 5 6 
#
# 1 0.012990 -0.005502 -0.001466 -0.000280 -0.008436 0.000686
# 2 -0.005502 0.022548 0.001141 0.014793 -0.020360 -0.018098
# 3 -0.001466 0.001141 0.009125 0.008856 -0.005507 -0.006756
# 4 -0.000280 0.014793 0.008856 0.037459 -0.031806 -0.026973
# 5 -0.008436 -0.020360 -0.005507 -0.031806 0.070903 0.030755
# 6 0.000686 -0.018098 -0.006756 -0.026973 0.030755 0.048130
#
#
# Mechanical properties :
#
#
# Convention : Reuss Voigt Hill
#
# Bulk Modulus (GPa) = 30.29448 78.48869 54.39158
# Shear Modulus (GPa) = 22.34033 45.73726 34.03880
#
# Velocity S-wave (km/s) = 3.02821 4.33288 3.73791
# Velocity P-wave (km/s) = 4.96606 7.56632 6.39965
#
# Compressibility (1/GPa) = 0.03300931
#
# Stress axis : x y z
#
# Youngs Moduli (GPa) = 76.98211 44.34993 109.59501
#
# Poissons Ratio (x) = 0.24400 0.16061
# Poissons Ratio (y) = 0.42354 -0.12501
# Poissons Ratio (z) = 0.11282 -0.05059
#
# Static dielectric constant tensor:
#      x y z
#    x 1.954070 0.009100 -0.105430 
#    y 0.009100 2.005990 -0.179500 
#    z -0.105430 -0.179500 2.209710 
# 
# From -- ./inp_files/41325.got.cif
#   From: 2010.05.17/outbox.cif.g08.bks.cpg/sg2_21_cif.got.tgz:41325.got - 2010.06.03 11:33:40.
