data_PCOD9068620
_publ_section_title
;
Structure prediction by ZEFSAII (Michael W. Deem and Ramdas Pophale) SiO2 
 PCOD9068620
Probable space group: P -1
;
_chemical_formula_sum "Si O2"
_cell_formula_units_Z 16
_cell_length_a 11.485597
_cell_length_b 8.996136
_cell_length_c 14.523310
_cell_angle_alpha 128.493573
_cell_angle_beta 138.264121
_cell_angle_gamma 76.961486
_cell_volume 694.867000
_symmetry_space_group_name_H-M "P -1"
_symmetry_group_IT_number 2
_symmetry_cell_setting 'triclinic'
loop_
_space_group_symop_operation_xyz
x,y,z
-x,-y,-z
loop_
_atom_site_type_symbol
_atom_site_label
_atom_site_fract_x
_atom_site_fract_y
_atom_site_fract_z
Si Si1 0.647946 0.008041 0.319894
Si Si2 0.925350 0.052235 0.826180
Si Si3 0.177128 0.573956 0.701082
Si Si4 0.996881 0.554767 0.260580
Si Si5 0.794848 0.074800 0.947362
Si Si6 0.297651 0.008582 0.871081
Si Si7 0.354275 0.281965 0.621101
Si Si8 0.782508 0.599115 0.973367
O O1 0.787825 0.248476 0.530006
O O2 0.726549 0.001667 0.259394
O O3 0.660224 0.846796 0.341722
O O4 0.418747 0.954162 0.158916
O O5 0.030511 0.294360 0.943033
O O6 0.810120 0.882431 0.610468
O O7 0.771453 0.011502 0.801398
O O8 0.109363 0.046303 0.985408
O O9 0.194434 0.811698 0.805181
O O10 0.319197 0.487467 0.705690
O O11 0.000000 0.500000 0.500000
O O12 0.117646 0.457366 0.717520
O O13 0.970883 0.317512 0.146831
O O14 0.870747 0.572488 0.110447
O O15 0.270306 0.205856 0.964958
O O16 0.500000 0.000000 0.000000
O O17 0.577268 0.387728 0.752696
#
# Coordination Sequence:
#
# PCOD9068620 Si02
#       8
#     2   2   2   2   2   2   2   2
#     4  12  26  45  69 105 140 186 229 285 346 407
#     4  11  27  49  72 101 138 180 235 290 342 411
#     4  12  24  40  68 103 140 181 226 279 345 417
#     4  12  25  44  70 103 142 182 226 284 347 413
#     4  11  27  49  72 101 138 180 235 290 342 411
#     4  12  24  40  68 103 140 181 226 279 345 417
#     4  12  26  45  69 105 140 186 229 285 346 407
#     4  12  25  44  70 103 142 182 226 284 347 413
#
# _framework density 23.02599
#
# number of rings (size 3 to 8) (size 9 to 14) (size 15 to 20)
#    0.000    0.250    5.000    4.500    0.000    4.000 
#    0.000    2.500    0.000    0.000    0.000    0.000 
#    0.000    0.000    0.000    0.000    0.000    0.000 
#
# Total GULP energy -89115.959361 kJ/mol
# GULP energy per Si atom -5569.747460 kJ/mol
# Density = 2.297358 g / cm^3
# Si number density = 23.025990 Si / 1000 Ang^3
#
#
#
# Elastic Constant Matrix: (Units=GPa)
#
#
# Indices 1 2 3 4 5 6 
#
# 1 84.0360 20.9294 21.5370 -7.2384 -8.5880 24.5382
# 2 20.9294 109.2766 33.8686 0.6040 -1.1031 28.1472
# 3 21.5370 33.8686 107.8181 -2.2009 5.6094 18.7802
# 4 -7.2384 0.6040 -2.2009 36.2168 7.5367 -4.9610
# 5 -8.5880 -1.1031 5.6094 7.5367 25.9558 1.6092
# 6 24.5382 28.1472 18.7802 -4.9610 1.6092 36.0054
#
#
#
# Elastic Compliance Matrix: (Units=1/GPa)
#
#
# Indices 1 2 3 4 5 6 
#
# 1 0.015997 0.000219 -0.001773 0.000370 0.006221 -0.010375
# 2 0.000219 0.012166 -0.002502 -0.001974 0.002244 -0.008727
# 3 -0.001773 -0.002502 0.010999 0.000686 -0.003124 -0.002338
# 4 0.000370 -0.001974 0.000686 0.030454 -0.009296 0.005545
# 5 0.006221 0.002244 -0.003124 -0.009296 0.044529 -0.007636
# 6 -0.010375 -0.008727 -0.002338 0.005545 -0.007636 0.043992
#
#
# Mechanical properties :
#
#
# Convention : Reuss Voigt Hill
#
# Bulk Modulus (GPa) = 32.20724 50.42229 41.31477
# Shear Modulus (GPa) = 28.31269 34.62199 31.46734
#
# Velocity S-wave (km/s) = 3.51037 3.88184 3.70077
# Velocity P-wave (km/s) = 5.51796 6.48360 6.02018
#
# Compressibility (1/GPa) = 0.03104891
#
# Stress axis : x y z
#
# Youngs Moduli (GPa) = 62.51270 82.19480 90.91778
#
# Poissons Ratio (x) = -0.01800 0.16120
# Poissons Ratio (y) = -0.01369 0.22751
# Poissons Ratio (z) = 0.11084 0.20568
#
# Static dielectric constant tensor:
#      x y z
#    x 1.111360 -0.030900 0.378600 
#    y -0.030900 1.816640 0.013240 
#    z 0.378600 0.013240 1.647990 
# 
# From -- ./inp_files/516151.got.cif
#   From: 2010.05.17/outbox.cif.g08.bks.cpg/sg2_259_cif.got.tgz:516151.got - 2010.06.03 11:33:40.
