data_PCOD9068594
_publ_section_title
;
Structure prediction by ZEFSAII (Michael W. Deem and Ramdas Pophale) SiO2 
 PCOD9068594
Probable space group: P -1
;
_chemical_formula_sum "Si O2"
_cell_formula_units_Z 15
_cell_length_a 11.440546
_cell_length_b 9.931948
_cell_length_c 4.968646
_cell_angle_alpha 105.932576
_cell_angle_beta 95.471535
_cell_angle_gamma 83.898710
_cell_volume 538.514511
_symmetry_space_group_name_H-M "P -1"
_symmetry_group_IT_number 2
_symmetry_cell_setting 'triclinic'
loop_
_space_group_symop_operation_xyz
x,y,z
-x,-y,-z
loop_
_atom_site_type_symbol
_atom_site_label
_atom_site_fract_x
_atom_site_fract_y
_atom_site_fract_z
Si Si1 0.500000 0.000000 0.000000
Si Si2 0.680786 0.211100 0.399766
Si Si3 0.281523 0.113686 0.274671
Si Si4 0.295857 0.278779 0.875522
Si Si5 0.907610 0.293321 0.268101
Si Si6 0.923883 0.063951 0.763743
Si Si7 0.102704 0.447559 0.213046
Si Si8 0.445408 0.658308 0.031525
O O1 0.612776 0.081503 0.205715
O O2 0.414692 0.050557 0.257209
O O3 0.821503 0.197202 0.365583
O O4 0.628563 0.270502 0.701664
O O5 0.635308 0.332339 0.241024
O O6 0.279628 0.247190 0.545496
O O7 0.199259 0.002959 0.306869
O O8 0.245546 0.164127 0.995573
O O9 0.436615 0.260072 0.951466
O O10 0.221059 0.415247 0.045981
O O11 0.873572 0.441122 0.490663
O O12 0.047829 0.317816 0.288867
O O13 0.897348 0.227398 0.931165
O O14 0.000000 0.000000 0.500000
O O15 0.000000 0.000000 0.000000
O O16 0.000000 0.500000 0.000000
O O17 0.500000 0.500000 0.000000
#
# Coordination Sequence:
#
# PCOD9068594 Si02
#       8
#     1   2   2   2   2   2   2   2
#     4  12  24  52  72 114 150 192 250 300 384 448
#     4  12  27  47  77 108 149 191 245 304 375 448
#     4  12  26  47  76 106 147 194 239 313 369 451
#     4  12  26  48  74 106 148 195 248 306 375 436
#     4  11  27  48  72 108 143 198 240 310 369 435
#     4  12  27  47  73 108 145 188 247 301 367 444
#     4  11  28  48  75 104 148 197 253 311 367 442
#     4  12  26  46  72 109 144 193 244 306 367 443
#
# _framework density 27.854399000000001
#
# number of rings (size 3 to 8) (size 9 to 14) (size 15 to 20)
#    0.000    0.267    4.000    3.600   11.200    2.133 
#    0.000    0.000    0.000    0.000    0.000    0.000 
#    0.000    0.000    0.000    0.000    0.000    0.000 
#
# Total GULP energy -83685.929168 kJ/mol
# GULP energy per Si atom -5579.061945 kJ/mol
# Density = 2.779100 g / cm^3
# Si number density = 27.854399 Si / 1000 Ang^3
#
#
#
# Elastic Constant Matrix: (Units=GPa)
#
#
# Indices 1 2 3 4 5 6 
#
# 1 206.8446 34.0466 91.1731 9.8627 -41.9892 26.7893
# 2 34.0466 72.3121 32.3345 5.6719 -8.0396 24.1731
# 3 91.1731 32.3345 201.4518 16.1227 -42.7649 -1.0689
# 4 9.8627 5.6719 16.1227 50.7763 0.2034 3.5009
# 5 -41.9892 -8.0396 -42.7649 0.2034 62.0657 1.7803
# 6 26.7893 24.1731 -1.0689 3.5009 1.7803 69.8694
#
#
#
# Elastic Compliance Matrix: (Units=1/GPa)
#
#
# Indices 1 2 3 4 5 6 
#
# 1 0.006984 -0.001080 -0.002324 -0.000345 0.003053 -0.002400
# 2 -0.001080 0.017259 -0.002234 -0.000626 0.000127 -0.005563
# 3 -0.002324 -0.002234 0.007164 -0.001709 0.003028 0.001782
# 4 -0.000345 -0.000626 -0.001709 0.020425 -0.001539 -0.000662
# 5 0.003053 0.000127 0.003028 -0.001539 0.020332 -0.001609
# 6 -0.002400 -0.005563 0.001782 -0.000662 -0.001609 0.017259
#
#
# Mechanical properties :
#
#
# Convention : Reuss Voigt Hill
#
# Bulk Modulus (GPa) = 49.67635 88.41301 69.04468
# Shear Modulus (GPa) = 46.55061 58.07923 52.31492
#
# Velocity S-wave (km/s) = 4.09248 4.57124 4.33847
# Velocity P-wave (km/s) = 6.34068 7.72475 7.06668
#
# Compressibility (1/GPa) = 0.02013031
#
# Stress axis : x y z
#
# Youngs Moduli (GPa) = 143.18410 57.93981 139.59440
#
# Poissons Ratio (x) = 0.06258 0.32448
# Poissons Ratio (y) = 0.15464 0.31183
# Poissons Ratio (z) = 0.33282 0.12943
#
# Static dielectric constant tensor:
#      x y z
#    x 2.156940 -0.136020 -0.005790 
#    y -0.136020 2.271670 -0.064750 
#    z -0.005790 -0.064750 2.086880 
# 
# From -- ./inp_files/67838.got.cif
#   From: 2010.05.17/outbox.cif.g08.bks.cpg/sg2_34_cif.got.tgz:67838.got - 2010.06.03 11:33:40.
