data_PCOD9068659
_publ_section_title
;
Structure prediction by ZEFSAII (Michael W. Deem and Ramdas Pophale) SiO2 
 PCOD9068659
Probable space group: P -1
;
_chemical_formula_sum "Si O2"
_cell_formula_units_Z 14
_cell_length_a 12.858636
_cell_length_b 14.112037
_cell_length_c 9.386465
_cell_angle_alpha 40.526949
_cell_angle_beta 88.230785
_cell_angle_gamma 57.751624
_cell_volume 684.751281
_symmetry_space_group_name_H-M "P -1"
_symmetry_group_IT_number 2
_symmetry_cell_setting 'triclinic'
loop_
_space_group_symop_operation_xyz
x,y,z
-x,-y,-z
loop_
_atom_site_type_symbol
_atom_site_label
_atom_site_fract_x
_atom_site_fract_y
_atom_site_fract_z
Si Si1 0.505325 0.699893 0.911329
Si Si2 0.117692 0.723275 0.942166
Si Si3 0.249952 0.811848 0.623678
Si Si4 0.299871 0.055660 0.734297
Si Si5 0.790153 0.598135 0.478075
Si Si6 0.232633 0.358059 0.140812
Si Si7 0.052271 0.524910 0.669372
O O1 0.355080 0.831938 0.655442
O O2 0.605884 0.731290 0.819459
O O3 0.436499 0.795945 0.964582
O O4 0.629941 0.425619 0.201129
O O5 0.198048 0.778455 0.806484
O O6 0.223019 0.536460 0.280209
O O7 0.125824 0.595961 0.959709
O O8 0.922410 0.965352 0.704671
O O9 0.334021 0.136420 0.765596
O O10 0.270173 0.191646 0.442325
O O11 0.117087 0.191775 0.626927
O O12 0.970005 0.467223 0.676845
O O13 0.815179 0.560235 0.352472
O O14 0.134555 0.410989 0.947561
#
# Coordination Sequence:
#
# PCOD9068659 Si02
#       7
#     2   2   2   2   2   2   2
#     4  10  19  30  45  73 106 123 155 197 244 285
#     4   9  17  33  54  73  92 123 171 198 231 276
#     4   9  19  31  49  73  97 130 160 201 230 274
#     4   9  17  30  49  74  99 124 154 200 245 281
#     4   8  18  31  53  75  94 121 159 205 243 278
#     4  10  18  28  51  79  96 122 157 200 245 284
#     4   9  17  31  50  78  96 121 158 196 251 282
#
# _framework density 20.445378999999999
#
# number of rings (size 3 to 8) (size 9 to 14) (size 15 to 20)
#    0.857    2.000    0.000    1.714    2.000    0.000 
#    0.000    0.714    0.000   15.429    0.000    0.000 
#    0.000    0.000    0.000    0.000    0.000    0.000 
#
# Total GULP energy -77954.278188 kJ/mol
# GULP energy per Si atom -5568.162728 kJ/mol
# Density = 2.039884 g / cm^3
# Si number density = 20.445379 Si / 1000 Ang^3
#
#
#
# Elastic Constant Matrix: (Units=GPa)
#
#
# Indices 1 2 3 4 5 6 
#
# 1 38.8272 -1.8791 0.4946 -4.3724 8.5583 0.8798
# 2 -1.8791 125.7085 20.9033 -21.1174 2.8801 -12.9679
# 3 0.4946 20.9033 9.4944 -11.2672 4.7129 4.7950
# 4 -4.3724 -21.1174 -11.2672 37.5442 -2.6877 0.3524
# 5 8.5583 2.8801 4.7129 -2.6877 18.5847 -0.6421
# 6 0.8798 -12.9679 4.7950 0.3524 -0.6421 9.4929
#
#
#
# Elastic Compliance Matrix: (Units=1/GPa)
#
#
# Indices 1 2 3 4 5 6 
#
# 1 0.026688 0.008229 -0.033559 -0.002903 -0.004593 0.025516
# 2 0.008229 -0.011169 0.100149 0.023488 -0.026452 -0.069269
# 3 -0.033559 0.100149 -0.465366 -0.082313 0.119382 0.386116
# 4 -0.002903 0.023488 -0.082313 0.015781 0.023442 0.074932
# 5 -0.004593 -0.026452 0.119382 0.023442 0.029861 -0.094861
# 6 0.025516 -0.069269 0.386116 0.074932 -0.094861 -0.195881
#
#
# Mechanical properties :
#
#
# Convention : Reuss Voigt Hill
#
# Bulk Modulus (GPa) = -3.33103 23.67418 10.17157
# Shear Modulus (GPa) = -5.88378 23.42512 8.77067
#
# Velocity S-wave (km/s) = -1.69825 3.38855 2.07343
# Velocity P-wave (km/s) = 2.34055 5.18788 3.27383
#
# Compressibility (1/GPa) = -0.30020733
#
# Stress axis : x y z
#
# Youngs Moduli (GPa) = 37.46966 -89.53130 -2.14885
#
# Poissons Ratio (x) = 0.73675 -0.07211
# Poissons Ratio (y) = -0.30834 0.21521
# Poissons Ratio (z) = 1.25743 8.96650
#
# Static dielectric constant tensor:
#      x y z
#    x 1.767830 -0.011520 0.014950 
#    y -0.011520 1.797310 -0.048780 
#    z 0.014950 -0.048780 1.754200 
# 
# From -- ./inp_files/164122.got.cif
#   From: 2010.05.17/outbox.cif.g08.bks.cpg/sg2_83_cif.got.tgz:164122.got - 2010.06.03 11:33:40.
