data_PCOD9068393
_publ_section_title
;
Structure prediction by ZEFSAII (Michael W. Deem and Ramdas Pophale) SiO2 
 PCOD9068393
Probable space group: P -1
;
_chemical_formula_sum "Si O2"
_cell_formula_units_Z 14
_cell_length_a 20.644280
_cell_length_b 6.449134
_cell_length_c 21.483667
_cell_angle_alpha 134.153425
_cell_angle_beta 159.619733
_cell_angle_gamma 56.418313
_cell_volume 655.124199
_symmetry_space_group_name_H-M "P -1"
_symmetry_group_IT_number 2
_symmetry_cell_setting 'triclinic'
loop_
_space_group_symop_operation_xyz
x,y,z
-x,-y,-z
loop_
_atom_site_type_symbol
_atom_site_label
_atom_site_fract_x
_atom_site_fract_y
_atom_site_fract_z
Si Si1 0.406343 0.626622 0.856916
Si Si2 0.653826 0.346777 0.635338
Si Si3 0.892279 0.696836 0.589556
Si Si4 0.629595 0.638429 0.458355
Si Si5 0.831215 0.635037 0.282605
Si Si6 0.204774 0.385706 0.042006
Si Si7 0.923969 0.654785 0.834319
O O1 0.274062 0.409523 0.636923
O O2 0.248498 0.507511 0.749071
O O3 0.613929 0.581940 0.046614
O O4 0.500000 0.000000 0.000000
O O5 0.500000 0.500000 0.500000
O O6 0.732449 0.500427 0.806030
O O7 0.838933 0.444969 0.774468
O O8 0.594113 0.966982 0.503494
O O9 0.765049 0.598396 0.517189
O O10 0.054034 0.553985 0.687392
O O11 0.021620 0.060369 0.795576
O O12 0.406425 0.378797 0.194195
O O13 0.742545 0.594741 0.611710
O O14 0.000000 0.000000 0.500000
O O15 0.124103 0.620709 0.983621
O O16 0.000000 0.000000 0.000000
#
# Coordination Sequence:
#
# PCOD9068393 Si02
#       7
#     2   2   2   2   2   2   2
#     4  11  26  50  81 110 146 193 245 299 375 462
#     4  12  23  46  71  97 145 198 250 297 363 430
#     4  12  28  45  74 112 148 183 244 306 369 438
#     4  12  27  46  68 108 144 193 246 304 363 431
#     4  11  26  49  82 110 145 197 243 295 380 460
#     4  12  26  45  71 104 146 193 247 307 368 424
#     4  12  23  43  72  95 141 195 247 300 360 431
#
# _framework density 21.369993999999998
#
# number of rings (size 3 to 8) (size 9 to 14) (size 15 to 20)
#    0.000    0.286    5.714    3.000    2.000    4.571 
#    0.000    0.000    0.000    0.000    0.000    0.000 
#    0.000    0.000    0.000    0.000    0.000    0.000 
#
# Total GULP energy -78010.026817 kJ/mol
# GULP energy per Si atom -5572.144773 kJ/mol
# Density = 2.132136 g / cm^3
# Si number density = 21.369994 Si / 1000 Ang^3
#
#
#
# Elastic Constant Matrix: (Units=GPa)
#
#
# Indices 1 2 3 4 5 6 
#
# 1 -140.0603 168.0753 119.2332 225.5081 -16.6418 -71.3018
# 2 168.0753 -4.1457 -8.4924 -128.6969 21.8950 28.5524
# 3 119.2332 -8.4924 108.2274 -71.5282 34.8742 20.8227
# 4 225.5081 -128.6969 -71.5282 -144.4966 25.0242 62.6104
# 5 -16.6418 21.8950 34.8742 25.0242 22.4030 -10.7597
# 6 -71.3018 28.5524 20.8227 62.6104 -10.7597 17.1174
#
#
#
# Elastic Compliance Matrix: (Units=1/GPa)
#
#
# Indices 1 2 3 4 5 6 
#
# 1 0.005731 0.001099 -0.000201 0.006061 -0.004610 -0.002783
# 2 0.001099 0.013739 -0.005484 -0.004309 0.003873 0.006526
# 3 -0.000201 -0.005484 0.010372 -0.002428 -0.008633 -0.000852
# 4 0.006061 -0.004309 -0.002428 0.009444 0.003366 0.002960
# 5 -0.004610 0.003873 -0.008633 0.003366 0.048574 0.003058
# 6 -0.002783 0.006526 -0.000852 0.002960 0.003058 0.028074
#
#
# Mechanical properties :
#
#
# Convention : Reuss Voigt Hill
#
# Bulk Modulus (GPa) = 48.37740 57.96152 53.16946
# Shear Modulus (GPa) = 37.87949 -41.98155 -2.05103
#
# Velocity S-wave (km/s) = 4.21474 -4.43709 -0.98074
# Velocity P-wave (km/s) = 6.80974 0.96510 4.86333
#
# Compressibility (1/GPa) = 0.02067081
#
# Stress axis : x y z
#
# Youngs Moduli (GPa) = 174.47491 72.78308 96.41384
#
# Poissons Ratio (x) = -0.07999 0.01939
# Poissons Ratio (y) = -0.19175 0.52873
# Poissons Ratio (z) = 0.03509 0.39914
#
# Static dielectric constant tensor:
#      x y z
#    x 1.818620 -0.012620 -0.005730 
#    y -0.012620 1.821790 0.030750 
#    z -0.005730 0.030750 1.821280 
# 
# From -- ./inp_files/600837.got.cif
#   From: 2010.05.17/outbox.cif.g08.bks.cpg/sg2_301_cif.got.tgz:600837.got - 2010.06.03 11:33:40.
