data_PCOD9068633
_publ_section_title
;
Structure prediction by ZEFSAII (Michael W. Deem and Ramdas Pophale) SiO2 
 PCOD9068633
Probable space group: P -1
;
_chemical_formula_sum "Si O2"
_cell_formula_units_Z 16
_cell_length_a 5.486105
_cell_length_b 11.622773
_cell_length_c 13.864806
_cell_angle_alpha 125.690381
_cell_angle_beta 98.860311
_cell_angle_gamma 108.032100
_cell_volume 615.343188
_symmetry_space_group_name_H-M "P -1"
_symmetry_group_IT_number 2
_symmetry_cell_setting 'triclinic'
loop_
_space_group_symop_operation_xyz
x,y,z
-x,-y,-z
loop_
_atom_site_type_symbol
_atom_site_label
_atom_site_fract_x
_atom_site_fract_y
_atom_site_fract_z
Si Si1 0.417086 0.167630 0.848680
Si Si2 0.174940 0.228830 0.041417
Si Si3 0.404047 0.065948 0.179000
Si Si4 0.995327 0.625066 0.319128
Si Si5 0.671311 0.689211 0.579597
Si Si6 0.614255 0.430497 0.831113
Si Si7 0.003578 0.094298 0.449848
Si Si8 0.061707 0.698598 0.756008
O O1 0.398051 0.208736 0.979191
O O2 0.554606 0.333042 0.878487
O O3 0.564984 0.059164 0.810585
O O4 0.133914 0.042485 0.709428
O O5 0.171757 0.375698 0.053000
O O6 0.909901 0.049148 0.933813
O O7 0.161075 0.292059 0.178687
O O8 0.438298 0.215501 0.316337
O O9 0.623475 0.148698 0.145362
O O10 0.689424 0.593566 0.240826
O O11 0.129913 0.794623 0.468970
O O12 0.939947 0.469434 0.305677
O O13 0.218993 0.634161 0.257667
O O14 0.500000 0.500000 0.500000
O O15 0.709451 0.759919 0.509724
O O16 0.975696 0.727610 0.658959
O O17 0.000000 0.000000 0.500000
#
# Coordination Sequence:
#
# PCOD9068633 Si02
#       8
#     2   2   2   2   2   2   2   2
#     4  12  27  48  76 118 155 209 262 332 403 478
#     4  11  27  49  77 111 158 205 268 323 400 475
#     4  12  26  46  78 112 155 204 270 323 405 466
#     4  11  28  49  81 117 154 213 268 327 403 474
#     4  12  29  50  79 115 161 207 268 333 402 483
#     4  11  28  51  80 116 162 210 264 328 398 479
#     4  12  26  50  79 113 161 206 268 335 405 479
#     4  11  27  50  78 113 155 212 263 330 399 478
#
# _framework density 26.001750000000001
#
# number of rings (size 3 to 8) (size 9 to 14) (size 15 to 20)
#    0.000    0.500    3.750    1.500   15.750    4.000 
#    0.000    0.000    0.000    0.000    0.000    0.000 
#    0.000    0.000    0.000    0.000    0.000    0.000 
#
# Total GULP energy -89404.427895 kJ/mol
# GULP energy per Si atom -5587.776743 kJ/mol
# Density = 2.594257 g / cm^3
# Si number density = 26.001750 Si / 1000 Ang^3
#
#
#
# Elastic Constant Matrix: (Units=GPa)
#
#
# Indices 1 2 3 4 5 6 
#
# 1 105.0689 53.2878 30.0765 -13.5400 -25.2897 -2.9623
# 2 53.2878 202.3143 52.1285 1.8223 6.8903 -4.5669
# 3 30.0765 52.1285 103.9243 17.4534 -25.0479 -8.5263
# 4 -13.5400 1.8223 17.4534 43.2816 -7.7715 -3.3136
# 5 -25.2897 6.8903 -25.0479 -7.7715 28.6614 8.4177
# 6 -2.9623 -4.5669 -8.5263 -3.3136 8.4177 37.4597
#
#
#
# Elastic Compliance Matrix: (Units=1/GPa)
#
#
# Indices 1 2 3 4 5 6 
#
# 1 0.018998 -0.006288 0.001322 0.009551 0.022984 -0.003283
# 2 -0.006288 0.008407 -0.004989 -0.002523 -0.013243 0.002145
# 3 0.001322 -0.004989 0.015986 -0.003054 0.015703 -0.000664
# 4 0.009551 -0.002523 -0.003054 0.030012 0.014770 -0.000912
# 5 0.022984 -0.013243 0.015703 0.014770 0.079860 -0.012862
# 6 -0.003283 0.002145 -0.000664 -0.000912 -0.012862 0.029356
#
#
# Mechanical properties :
#
#
# Convention : Reuss Voigt Hill
#
# Bulk Modulus (GPa) = 42.58822 75.81035 59.19929
# Shear Modulus (GPa) = 23.76931 40.26818 32.01875
#
# Velocity S-wave (km/s) = 3.02676 3.93959 3.51295
# Velocity P-wave (km/s) = 5.35066 7.06491 6.26668
#
# Compressibility (1/GPa) = 0.02348067
#
# Stress axis : x y z
#
# Youngs Moduli (GPa) = 52.63587 118.95430 62.55616
#
# Poissons Ratio (x) = 0.74793 -0.08269
# Poissons Ratio (y) = 0.33095 0.31211
# Poissons Ratio (z) = -0.06958 0.59350
#
# Static dielectric constant tensor:
#      x y z
#    x 2.314700 0.092390 0.146150 
#    y 0.092390 2.048040 0.005130 
#    z 0.146150 0.005130 2.154610 
# 
# From -- ./inp_files/483040.got.cif
#   From: 2010.05.17/outbox.cif.g08.bks.cpg/sg2_242_cif.got.tgz:483040.got - 2010.06.03 11:33:40.
