data_PCOD9068630
_publ_section_title
;
Structure prediction by ZEFSAII (Michael W. Deem and Ramdas Pophale) SiO2 
 PCOD9068630
Probable space group: P -1
;
_chemical_formula_sum "Si O2"
_cell_formula_units_Z 15
_cell_length_a 11.660120
_cell_length_b 11.261280
_cell_length_c 12.344269
_cell_angle_alpha 48.355498
_cell_angle_beta 49.341095
_cell_angle_gamma 32.312296
_cell_volume 630.835394
_symmetry_space_group_name_H-M "P -1"
_symmetry_group_IT_number 2
_symmetry_cell_setting 'triclinic'
loop_
_space_group_symop_operation_xyz
x,y,z
-x,-y,-z
loop_
_atom_site_type_symbol
_atom_site_label
_atom_site_fract_x
_atom_site_fract_y
_atom_site_fract_z
Si Si1 0.872533 0.831931 0.213911
Si Si2 0.450724 0.697974 0.977302
Si Si3 0.500000 0.500000 0.500000
Si Si4 0.438923 0.178755 0.518972
Si Si5 0.125568 0.589128 0.756749
Si Si6 0.190032 0.686461 0.300967
Si Si7 0.159986 0.017346 0.475253
Si Si8 0.888711 0.435090 0.973842
O O1 0.776547 0.729106 0.346676
O O2 0.022534 0.753677 0.271477
O O3 0.002474 0.757683 0.067539
O O4 0.670193 0.103430 0.157547
O O5 0.313345 0.741306 0.139272
O O6 0.652050 0.642652 0.937919
O O7 0.500000 0.500000 0.000000
O O8 0.362285 0.439428 0.646837
O O9 0.288278 0.759075 0.523090
O O10 0.364351 0.412088 0.385623
O O11 0.656941 0.021315 0.551633
O O12 0.500000 0.000000 0.500000
O O13 0.140144 0.616835 0.858747
O O14 0.931933 0.828922 0.667879
O O15 0.044900 0.467821 0.871629
O O16 0.050039 0.836458 0.402881
#
# Coordination Sequence:
#
# PCOD9068630 Si02
#       8
#     2   2   1   2   2   2   2   2
#     4  12  25  45  75 112 155 202 251 319 393 472
#     4  12  27  45  74 114 156 204 252 312 394 471
#     4  12  28  50  78 106 150 202 274 312 380 456
#     4  12  26  45  78 118 157 201 252 324 400 469
#     4  11  28  51  76 112 145 213 251 333 372 471
#     4  12  27  44  76 119 156 198 258 324 396 464
#     4  12  27  48  78 110 156 198 266 319 393 453
#     4  11  27  49  77 106 160 194 267 306 397 465
#
# _framework density 23.777994
#
# number of rings (size 3 to 8) (size 9 to 14) (size 15 to 20)
#    0.000    0.267    2.667    5.200    7.467    1.067 
#    0.000    3.333    0.000    0.000    0.000    0.000 
#    0.000    0.000    0.000    0.000    0.000    0.000 
#
# Total GULP energy -83713.276015 kJ/mol
# GULP energy per Si atom -5580.885068 kJ/mol
# Density = 2.372387 g / cm^3
# Si number density = 23.777994 Si / 1000 Ang^3
#
#
#
# Elastic Constant Matrix: (Units=GPa)
#
#
# Indices 1 2 3 4 5 6 
#
# 1 103.3455 8.0469 28.8653 5.3122 19.8158 -25.6225
# 2 8.0469 85.0433 40.9551 7.0495 19.7285 4.4324
# 3 28.8653 40.9551 100.7686 2.9236 4.3243 -12.4119
# 4 5.3122 7.0495 2.9236 38.6552 -3.9713 3.2936
# 5 19.8158 19.7285 4.3243 -3.9713 51.4539 9.0235
# 6 -25.6225 4.4324 -12.4119 3.2936 9.0235 42.0764
#
#
#
# Elastic Compliance Matrix: (Units=1/GPa)
#
#
# Indices 1 2 3 4 5 6 
#
# 1 0.014608 0.001878 -0.003291 -0.003761 -0.008070 0.009752
# 2 0.001878 0.016915 -0.007156 -0.003399 -0.006686 -0.001049
# 3 -0.003291 -0.007156 0.013924 0.000769 0.002504 0.002260
# 4 -0.003761 -0.003399 0.000769 0.027975 0.005745 -0.005127
# 5 -0.008070 -0.006686 0.002504 0.005745 0.027044 -0.009720
# 6 0.009752 -0.001049 0.002260 -0.005127 -0.009720 0.032968
#
#
# Mechanical properties :
#
#
# Convention : Reuss Voigt Hill
#
# Bulk Modulus (GPa) = 35.32635 49.43243 42.37939
# Shear Modulus (GPa) = 31.24857 40.52310 35.88584
#
# Velocity S-wave (km/s) = 3.62910 4.13271 3.88906
# Velocity P-wave (km/s) = 5.69644 6.60353 6.16669
#
# Compressibility (1/GPa) = 0.02830748
#
# Stress axis : x y z
#
# Youngs Moduli (GPa) = 68.45719 59.11996 71.82052
#
# Poissons Ratio (x) = -0.11105 0.23638
# Poissons Ratio (y) = -0.12859 0.51397
# Poissons Ratio (z) = 0.22531 0.42308
#
# Static dielectric constant tensor:
#      x y z
#    x 1.939140 -0.060000 -0.191570 
#    y -0.060000 2.073240 0.398810 
#    z -0.191570 0.398810 3.042190 
# 
# From -- ./inp_files/106761.got.cif
#   From: 2010.05.17/outbox.cif.g08.bks.cpg/sg2_54_cif.got.tgz:106761.got - 2010.06.03 11:33:40.
