data_PCOD9068094
_publ_section_title
;
Structure prediction by ZEFSAII (Michael W. Deem and Ramdas Pophale) SiO2 
 PCOD9068094
Probable space group: P -1
;
_chemical_formula_sum "Si O2"
_cell_formula_units_Z 15
_cell_length_a 11.390010
_cell_length_b 8.114317
_cell_length_c 6.582500
_cell_angle_alpha 103.649223
_cell_angle_beta 79.921011
_cell_angle_gamma 91.992225
_cell_volume 582.050525
_symmetry_space_group_name_H-M "P -1"
_symmetry_group_IT_number 2
_symmetry_cell_setting 'triclinic'
loop_
_space_group_symop_operation_xyz
x,y,z
-x,-y,-z
loop_
_atom_site_type_symbol
_atom_site_label
_atom_site_fract_x
_atom_site_fract_y
_atom_site_fract_z
Si Si1 0.932100 0.576630 0.350924
Si Si2 0.608400 0.088487 0.379881
Si Si3 0.155012 0.021164 0.861624
Si Si4 0.630291 0.361209 0.768739
Si Si5 0.000000 0.000000 0.500000
Si Si6 0.458321 0.261390 0.131454
Si Si7 0.799322 0.825174 0.729839
Si Si8 0.137959 0.690728 0.049776
O O1 0.823397 0.669561 0.523877
O O2 0.895588 0.449157 0.149876
O O3 0.000000 0.500000 0.500000
O O4 0.028405 0.704965 0.253951
O O5 0.714649 0.958770 0.267017
O O6 0.663207 0.238765 0.540767
O O7 0.555320 0.181533 0.226899
O O8 0.500000 0.000000 0.500000
O O9 0.161449 0.858576 0.961244
O O10 0.059962 0.979330 0.707533
O O11 0.138823 0.181699 0.066310
O O12 0.583501 0.544128 0.762859
O O13 0.521415 0.273820 0.898156
O O14 0.744725 0.371945 0.883889
O O15 0.134026 0.032539 0.375528
O O16 0.338997 0.154371 0.173342
#
# Coordination Sequence:
#
# PCOD9068094 Si02
#       8
#     2   2   2   2   1   2   2   2
#     4  11  26  48  76 108 151 203 257 321 388 469
#     4  12  27  47  78 112 157 210 260 319 395 469
#     4  12  28  47  75 109 154 204 258 325 387 466
#     4  11  26  47  79 109 158 204 259 328 394 467
#     4  12  28  48  70 108 158 208 254 320 394 460
#     4  11  26  47  75 116 153 201 266 323 391 465
#     4  12  27  46  77 111 154 197 265 326 393 463
#     4  11  26  47  76 112 153 204 263 318 396 464
#
# _framework density 25.770958
#
# number of rings (size 3 to 8) (size 9 to 14) (size 15 to 20)
#    0.000    0.533    1.333    4.800    9.333    7.467 
#    0.000    0.000    0.000    0.000    0.000    0.000 
#    0.000    0.000    0.000    0.000    0.000    0.000 
#
# Total GULP energy -83826.221916 kJ/mol
# GULP energy per Si atom -5588.414794 kJ/mol
# Density = 2.571230 g / cm^3
# Si number density = 25.770958 Si / 1000 Ang^3
#
#
#
# Elastic Constant Matrix: (Units=GPa)
#
#
# Indices 1 2 3 4 5 6 
#
# 1 154.9993 16.0302 57.3742 -7.9786 -10.4669 6.2247
# 2 16.0302 61.9300 20.4335 -15.0166 4.1037 -3.2797
# 3 57.3742 20.4335 127.2369 7.9592 -2.8750 2.2768
# 4 -7.9786 -15.0166 7.9592 40.6939 3.6053 -7.9016
# 5 -10.4669 4.1037 -2.8750 3.6053 59.2138 -8.9961
# 6 6.2247 -3.2797 2.2768 -7.9016 -8.9961 38.0566
#
#
#
# Elastic Compliance Matrix: (Units=1/GPa)
#
#
# Indices 1 2 3 4 5 6 
#
# 1 0.008039 -0.000521 -0.003627 0.001901 0.001091 -0.000490
# 2 -0.000521 0.019887 -0.003605 0.008756 -0.001656 0.003442
# 3 -0.003627 -0.003605 0.010370 -0.004318 0.000195 -0.001188
# 4 0.001901 0.008756 -0.004318 0.030442 -0.001314 0.006712
# 5 0.001091 -0.001656 0.000195 -0.001314 0.017833 0.003610
# 6 -0.000490 0.003442 -0.001188 0.006712 0.003610 0.028971
#
#
# Mechanical properties :
#
#
# Convention : Reuss Voigt Hill
#
# Bulk Modulus (GPa) = 43.88182 59.09354 51.48768
# Shear Modulus (GPa) = 36.06301 44.28141 40.17221
#
# Velocity S-wave (km/s) = 3.74487 4.14970 3.95247
# Velocity P-wave (km/s) = 5.98024 6.77791 6.39153
#
# Compressibility (1/GPa) = 0.02278848
#
# Stress axis : x y z
#
# Youngs Moduli (GPa) = 124.38866 50.28405 96.43622
#
# Poissons Ratio (x) = 0.02622 0.34976
# Poissons Ratio (y) = 0.06487 0.34769
# Poissons Ratio (z) = 0.45114 0.18129
#
# Static dielectric constant tensor:
#      x y z
#    x 1.973290 -0.125440 -0.092560 
#    y -0.125440 0.633870 -0.790790 
#    z -0.092560 -0.790790 1.518480 
# 
# From -- ./inp_files/60648.got.cif
#   From: 2010.05.17/outbox.cif.g08.bks.cpg/sg2_31_cif.got.tgz:60648.got - 2010.06.03 11:33:40.
