data_PCOD9068702
_publ_section_title
;
Structure prediction by ZEFSAII (Michael W. Deem and Ramdas Pophale) SiO2 
 PCOD9068702
Probable space group: P -1
;
_chemical_formula_sum "Si O2"
_cell_formula_units_Z 12
_cell_length_a 13.068038
_cell_length_b 7.226756
_cell_length_c 6.014522
_cell_angle_alpha 118.863450
_cell_angle_beta 109.389093
_cell_angle_gamma 70.377681
_cell_volume 458.515355
_symmetry_space_group_name_H-M "P -1"
_symmetry_group_IT_number 2
_symmetry_cell_setting 'triclinic'
loop_
_space_group_symop_operation_xyz
x,y,z
-x,-y,-z
loop_
_atom_site_type_symbol
_atom_site_label
_atom_site_fract_x
_atom_site_fract_y
_atom_site_fract_z
Si Si1 0.500000 0.500000 0.500000
Si Si2 0.500000 0.000000 0.500000
Si Si3 0.375036 0.228322 0.943283
Si Si4 0.710228 0.045568 0.908195
Si Si5 0.057927 0.630690 0.296220
Si Si6 0.078677 0.047955 0.282119
Si Si7 0.720990 0.496798 0.371348
O O1 0.602178 0.565463 0.451843
O O2 0.547136 0.621683 0.811860
O O3 0.554216 0.964263 0.265636
O O4 0.399432 0.888381 0.280628
O O5 0.292488 0.369866 0.788721
O O6 0.310783 0.124619 0.023215
O O7 0.805838 0.953763 0.751259
O O8 0.736905 0.247728 0.171632
O O9 0.090077 0.839390 0.325988
O O10 0.172266 0.494979 0.399210
O O11 0.974817 0.737707 0.495109
O O12 0.000000 0.500000 0.000000
O O13 0.000000 0.000000 0.000000
#
# Coordination Sequence:
#
# PCOD9068702 Si02
#       7
#     1   1   2   2   2   2   2
#     4  12  28  52  80 130 162 214 282 336 406 510
#     4  12  28  52  82 120 168 222 270 332 422 494
#     4  12  30  50  83 123 170 220 275 341 420 503
#     4  12  29  52  84 122 170 219 275 349 416 491
#     4  11  29  58  88 122 164 222 285 354 419 497
#     4  11  27  56  86 120 165 219 284 348 421 506
#     4  12  29  53  85 123 171 215 284 343 420 505
#
# _framework density 26.171424999999999
#
# number of rings (size 3 to 8) (size 9 to 14) (size 15 to 20)
#    0.000    0.333    3.333    2.000    9.333    4.667 
#    3.000    0.833    0.000    0.000    0.000    0.000 
#    0.000    0.000    0.000    0.000    0.000    0.000 
#
# Total GULP energy -66914.782300 kJ/mol
# GULP energy per Si atom -5576.231858 kJ/mol
# Density = 2.611186 g / cm^3
# Si number density = 26.171425 Si / 1000 Ang^3
#
#
#
# Elastic Constant Matrix: (Units=GPa)
#
#
# Indices 1 2 3 4 5 6 
#
# 1 186.7649 58.9454 78.5970 -2.6878 -23.9110 0.6842
# 2 58.9454 132.4287 53.0050 -5.4993 4.7574 2.6437
# 3 78.5970 53.0050 244.3176 6.8467 5.8662 -14.2956
# 4 -2.6878 -5.4993 6.8467 24.4122 -2.7004 7.8204
# 5 -23.9110 4.7574 5.8662 -2.7004 65.2142 -11.2071
# 6 0.6842 2.6437 -14.2956 7.8204 -11.2071 31.1994
#
#
#
# Elastic Compliance Matrix: (Units=1/GPa)
#
#
# Indices 1 2 3 4 5 6 
#
# 1 0.007396 -0.002589 -0.001923 0.001109 0.003123 0.000020
# 2 -0.002589 0.009526 -0.001437 0.002961 -0.001878 -0.002826
# 3 -0.001923 -0.001437 0.005310 -0.003103 -0.000667 0.003135
# 4 0.001109 0.002961 -0.003103 0.046934 0.000107 -0.013423
# 5 0.003123 -0.001878 -0.000667 0.000107 0.017734 0.006128
# 6 0.000020 -0.002826 0.003135 -0.013423 0.006128 0.039293
#
#
# Mechanical properties :
#
#
# Convention : Reuss Voigt Hill
#
# Bulk Modulus (GPa) = 96.76477 104.95622 100.86050
# Shear Modulus (GPa) = 35.32697 49.02943 42.17820
#
# Velocity S-wave (km/s) = 3.67799 4.33297 4.01884
# Velocity P-wave (km/s) = 7.42230 8.07609 7.75609
#
# Compressibility (1/GPa) = 0.01033434
#
# Stress axis : x y z
#
# Youngs Moduli (GPa) = 135.20238 104.97954 188.33641
#
# Poissons Ratio (x) = 0.27181 0.36209
# Poissons Ratio (y) = 0.35006 0.27062
# Poissons Ratio (z) = 0.25994 0.15084
#
# Static dielectric constant tensor:
#      x y z
#    x 2.064000 -0.063380 0.005960 
#    y -0.063380 2.082630 -0.019590 
#    z 0.005960 -0.019590 2.010260 
# 
# From -- ./inp_files/58787.got.cif
#   From: 2010.05.17/outbox.cif.g08.bks.cpg/sg2_30_cif.got.tgz:58787.got - 2010.06.03 11:33:40.
