data_PCOD9068815
_publ_section_title
;
Structure prediction by ZEFSAII (Michael W. Deem and Ramdas Pophale) SiO2 
 PCOD9068815
Probable space group: P -1
;
_chemical_formula_sum "Si O2"
_cell_formula_units_Z 14
_cell_length_a 21.199416
_cell_length_b 8.251503
_cell_length_c 20.311738
_cell_angle_alpha 145.941510
_cell_angle_beta 20.330550
_cell_angle_gamma 150.091469
_cell_volume 613.009835
_symmetry_space_group_name_H-M "P -1"
_symmetry_group_IT_number 2
_symmetry_cell_setting 'triclinic'
loop_
_space_group_symop_operation_xyz
x,y,z
-x,-y,-z
loop_
_atom_site_type_symbol
_atom_site_label
_atom_site_fract_x
_atom_site_fract_y
_atom_site_fract_z
Si Si1 0.143303 0.338166 0.283851
Si Si2 0.366817 0.643380 0.295106
Si Si3 0.979015 0.665973 0.378548
Si Si4 0.456283 0.602924 0.649589
Si Si5 0.827251 0.595247 0.357513
Si Si6 0.011388 0.737239 0.008888
Si Si7 0.282846 0.454615 0.039026
O O1 0.296981 0.429302 0.225430
O O2 0.250101 0.472568 0.155287
O O3 0.000000 0.500000 0.500000
O O4 0.003681 0.952353 0.283608
O O5 0.166259 0.603184 0.517085
O O6 0.500366 0.021270 0.272231
O O7 0.493931 0.521054 0.176239
O O8 0.863239 0.582128 0.394827
O O9 0.202939 0.687370 0.161860
O O10 0.000000 0.000000 0.500000
O O11 0.500000 0.500000 0.500000
O O12 0.613938 0.577974 0.538106
O O13 0.221857 0.373761 0.820274
O O14 0.865172 0.326556 0.191474
O O15 0.127277 0.101710 0.044189
O O16 0.000000 0.500000 0.000000
#
# Coordination Sequence:
#
# PCOD9068815 Si02
#       7
#     2   2   2   2   2   2   2
#     4  12  20  41  69 100 131 171 227 283 325 383
#     4  12  24  41  70 101 131 177 225 273 340 385
#     4  12  27  47  64  95 146 182 213 270 336 407
#     4  12  22  41  73 100 130 173 226 279 329 389
#     4  12  24  43  67  98 138 178 220 271 335 399
#     4  12  23  43  71 101 130 169 223 286 331 379
#     4  12  25  45  70  99 136 172 228 280 328 396
#
# _framework density 22.838132999999999
#
# number of rings (size 3 to 8) (size 9 to 14) (size 15 to 20)
#    0.000    0.000    8.571    1.286    0.000    2.286 
#    0.000    5.000    0.000    0.000    0.000    0.000 
#    0.000    0.000    0.000    0.000    0.000    0.000 
#
# Total GULP energy -78413.612480 kJ/mol
# GULP energy per Si atom -5600.972320 kJ/mol
# Density = 2.278615 g / cm^3
# Si number density = 22.838133 Si / 1000 Ang^3
#
#
#
# Elastic Constant Matrix: (Units=GPa)
#
#
# Indices 1 2 3 4 5 6 
#
# 1 138.6713 6.3467 37.8073 2.1327 -19.0452 30.0022
# 2 6.3467 62.6268 16.2293 12.4617 -12.8346 22.8162
# 3 37.8073 16.2293 113.7589 9.4848 -29.7898 19.4778
# 4 2.1327 12.4617 9.4848 37.5857 10.4885 0.2115
# 5 -19.0452 -12.8346 -29.7898 10.4885 50.9129 -9.6267
# 6 30.0022 22.8162 19.4778 0.2115 -9.6267 29.5533
#
#
#
# Elastic Compliance Matrix: (Units=1/GPa)
#
#
# Indices 1 2 3 4 5 6 
#
# 1 0.010467 0.004980 -0.001068 -0.002644 0.002655 -0.012883
# 2 0.004980 0.028245 0.001669 -0.012059 0.007644 -0.025385
# 3 -0.001068 0.001669 0.012278 -0.005578 0.007239 -0.005899
# 4 -0.002644 -0.012059 -0.005578 0.035579 -0.012476 0.011352
# 5 0.002655 0.007644 0.007239 -0.012476 0.028619 -0.003956
# 6 -0.012883 -0.025385 -0.005899 0.011352 -0.003956 0.069032
#
#
# Mechanical properties :
#
#
# Convention : Reuss Voigt Hill
#
# Bulk Modulus (GPa) = 16.08956 48.42484 32.25720
# Shear Modulus (GPa) = 25.80302 40.58863 33.19583
#
# Velocity S-wave (km/s) = 3.36493 4.22029 3.81665
# Velocity P-wave (km/s) = 4.70716 6.70801 5.79460
#
# Compressibility (1/GPa) = 0.06215212
#
# Stress axis : x y z
#
# Youngs Moduli (GPa) = 95.53747 35.40490 81.44641
#
# Poissons Ratio (x) = -0.17631 0.08695
# Poissons Ratio (y) = -0.47575 -0.13594
# Poissons Ratio (z) = 0.10199 -0.05909
#
# Static dielectric constant tensor:
#      x y z
#    x 1.847390 -0.016710 -0.041080 
#    y -0.016710 1.856770 -0.014720 
#    z -0.041080 -0.014720 1.869860 
# 
# From -- ./inp_files/258367.got.cif
#   From: 2010.05.17/outbox.cif.g08.bks.cpg/sg2_130_cif.got.tgz:258367.got - 2010.06.03 11:33:40.
