data_PCOD9068135
_publ_section_title
;
Structure prediction by ZEFSAII (Michael W. Deem and Ramdas Pophale) SiO2 
 PCOD9068135
Probable space group: P -1
;
_chemical_formula_sum "Si O2"
_cell_formula_units_Z 12
_cell_length_a 10.288289
_cell_length_b 5.386696
_cell_length_c 9.331499
_cell_angle_alpha 96.529440
_cell_angle_beta 107.456516
_cell_angle_gamma 115.355755
_cell_volume 427.854741
_symmetry_space_group_name_H-M "P -1"
_symmetry_group_IT_number 2
_symmetry_cell_setting 'triclinic'
loop_
_space_group_symop_operation_xyz
x,y,z
-x,-y,-z
loop_
_atom_site_type_symbol
_atom_site_label
_atom_site_fract_x
_atom_site_fract_y
_atom_site_fract_z
Si Si1 0.500000 0.500000 0.000000
Si Si2 0.500000 0.500000 0.500000
Si Si3 0.045039 0.739347 0.879316
Si Si4 0.140220 0.166451 0.412528
Si Si5 0.530252 0.913054 0.274919
Si Si6 0.775245 0.490935 0.263539
Si Si7 0.786305 0.151038 0.789859
O O1 0.470733 0.728925 0.099039
O O2 0.648534 0.562078 0.157311
O O3 0.311292 0.416775 0.430428
O O4 0.535433 0.717912 0.389325
O O5 0.136599 0.586671 0.833041
O O6 0.998306 0.866911 0.739499
O O7 0.879242 0.490160 0.866377
O O8 0.150633 0.945051 0.056223
O O9 0.125840 0.264706 0.572165
O O10 0.160747 0.899121 0.350272
O O11 0.400307 0.008864 0.278584
O O12 0.684990 0.198506 0.306025
#
# Coordination Sequence:
#
# PCOD9068135 Si02
#       7
#     1   1   2   2   2   2   2
#     4  12  26  50  76 118 154 202 256 312 396 460
#     4  12  26  48  78 114 148 198 266 314 388 446
#     4  11  26  49  72 112 156 206 254 316 385 461
#     4  12  26  46  75 114 148 205 255 317 385 459
#     4  12  27  51  81 112 153 205 260 326 378 468
#     4  12  28  49  80 114 158 202 259 319 389 457
#     4  11  26  47  78 107 156 203 258 316 386 457
#
# _framework density 28.046900000000001
#
# number of rings (size 3 to 8) (size 9 to 14) (size 15 to 20)
#    0.000    0.333    5.000    2.500    2.333    3.333 
#    0.000    0.000    0.000    0.000    0.000    0.000 
#    0.000    0.000    0.000    0.000    0.000    0.000 
#
# Total GULP energy -66825.185991 kJ/mol
# GULP energy per Si atom -5568.765499 kJ/mol
# Density = 2.798306 g / cm^3
# Si number density = 28.046900 Si / 1000 Ang^3
#
#
#
# Elastic Constant Matrix: (Units=GPa)
#
#
# Indices 1 2 3 4 5 6 
#
# 1 101.4913 7.7385 31.0089 -4.7883 -12.2869 -10.6219
# 2 7.7385 88.8946 37.3446 -2.3504 -4.8913 27.8966
# 3 31.0089 37.3446 201.0408 13.9232 -2.6618 -8.5293
# 4 -4.7883 -2.3504 13.9232 35.8552 -17.4408 -4.5442
# 5 -12.2869 -4.8913 -2.6618 -17.4408 67.4168 4.8848
# 6 -10.6219 27.8966 -8.5293 -4.5442 4.8848 36.0657
#
#
#
# Elastic Compliance Matrix: (Units=1/GPa)
#
#
# Indices 1 2 3 4 5 6 
#
# 1 0.011367 -0.001421 -0.001541 0.003817 0.002590 0.004212
# 2 -0.001421 0.018001 -0.003865 0.001739 0.002458 -0.015370
# 3 -0.001541 -0.003865 0.006287 -0.003092 -0.001390 0.003821
# 4 0.003817 0.001739 -0.003092 0.034603 0.009498 0.002121
# 5 0.002590 0.002458 -0.001390 0.009498 0.018083 -0.002720
# 6 0.004212 -0.015370 0.003821 0.002121 -0.002720 0.042396
#
#
# Mechanical properties :
#
#
# Convention : Reuss Voigt Hill
#
# Bulk Modulus (GPa) = 45.44813 60.40120 52.92467
# Shear Modulus (GPa) = 32.95478 48.88985 40.92232
#
# Velocity S-wave (km/s) = 3.43153 4.17963 3.82392
# Velocity P-wave (km/s) = 5.65155 6.69888 6.19738
#
# Compressibility (1/GPa) = 0.02200311
#
# Stress axis : x y z
#
# Youngs Moduli (GPa) = 87.97736 55.55238 159.04591
#
# Poissons Ratio (x) = 0.07893 0.24503
# Poissons Ratio (y) = 0.12500 0.61465
# Poissons Ratio (z) = 0.13554 0.21469
#
# Static dielectric constant tensor:
#      x y z
#    x 2.246140 -0.063010 -0.033420 
#    y -0.063010 2.265800 0.054490 
#    z -0.033420 0.054490 2.270460 
# 
# From -- ./inp_files/21024.got.cif
#   From: 2010.05.17/outbox.cif.g08.bks.cpg/sg2_11_cif.got.tgz:21024.got - 2010.06.03 11:33:40.
