data_PCOD9068497
_publ_section_title
;
Structure prediction by ZEFSAII (Michael W. Deem and Ramdas Pophale) SiO2 
 PCOD9068497
Probable space group: P -1
;
_chemical_formula_sum "Si O2"
_cell_formula_units_Z 15
_cell_length_a 5.028473
_cell_length_b 10.797730
_cell_length_c 11.928634
_cell_angle_alpha 63.754120
_cell_angle_beta 79.253380
_cell_angle_gamma 73.892066
_cell_volume 556.569129
_symmetry_space_group_name_H-M "P -1"
_symmetry_group_IT_number 2
_symmetry_cell_setting 'triclinic'
loop_
_space_group_symop_operation_xyz
x,y,z
-x,-y,-z
loop_
_atom_site_type_symbol
_atom_site_label
_atom_site_fract_x
_atom_site_fract_y
_atom_site_fract_z
Si Si1 0.317683 0.910707 0.621612
Si Si2 0.478287 0.884430 0.878073
Si Si3 0.585976 0.568057 0.299013
Si Si4 0.418770 0.303574 0.486085
Si Si5 0.854706 0.606146 0.062005
Si Si6 0.000000 0.500000 0.500000
Si Si7 0.862147 0.197245 0.877261
Si Si8 0.171467 0.896377 0.301259
O O1 0.396882 0.878868 0.757364
O O2 0.407008 0.764214 0.606477
O O3 0.500000 0.000000 0.500000
O O4 0.012382 0.009603 0.624415
O O5 0.666186 0.998828 0.818261
O O6 0.244326 0.903787 0.985328
O O7 0.653683 0.730090 0.960583
O O8 0.378546 0.478626 0.408167
O O9 0.824737 0.558614 0.374612
O O10 0.405681 0.712461 0.205402
O O11 0.723936 0.508848 0.195783
O O12 0.595762 0.221596 0.605983
O O13 0.088931 0.324905 0.511182
O O14 0.016789 0.693094 0.099113
O O15 0.000000 0.500000 0.000000
O O16 0.020317 0.137688 0.773857
#
# Coordination Sequence:
#
# PCOD9068497 Si02
#       8
#     2   2   2   2   2   1   2   2
#     4  12  29  47  77 115 160 212 261 328 401 480
#     4  11  27  48  77 115 153 216 265 326 400 468
#     4  11  27  44  77 112 153 202 258 323 396 467
#     4  12  28  46  78 113 161 202 263 327 405 472
#     4  11  28  47  77 110 159 205 266 325 393 474
#     4  12  26  48  76 114 150 200 258 328 386 470
#     4  11  26  52  77 116 156 211 268 328 398 471
#     4  12  27  50  79 116 163 208 268 325 401 476
#
# _framework density 26.95083
#
# number of rings (size 3 to 8) (size 9 to 14) (size 15 to 20)
#    0.000    0.533    2.667    2.800   11.200    5.333 
#    0.000    0.000    0.000    0.000    0.000    0.000 
#    0.000    0.000    0.000    0.000    0.000    0.000 
#
# Total GULP energy -83604.375563 kJ/mol
# GULP energy per Si atom -5573.625038 kJ/mol
# Density = 2.688949 g / cm^3
# Si number density = 26.950830 Si / 1000 Ang^3
#
#
#
# Elastic Constant Matrix: (Units=GPa)
#
#
# Indices 1 2 3 4 5 6 
#
# 1 86.0075 37.6560 52.9700 -9.4770 5.1050 -22.7126
# 2 37.6560 150.0621 72.0439 17.3998 13.1245 -43.5164
# 3 52.9700 72.0439 248.2635 8.9554 3.9344 -18.8522
# 4 -9.4770 17.3998 8.9554 68.4879 -2.3608 3.8775
# 5 5.1050 13.1245 3.9344 -2.3608 65.9277 -10.0974
# 6 -22.7126 -43.5164 -18.8522 3.8775 -10.0974 40.9931
#
#
#
# Elastic Compliance Matrix: (Units=1/GPa)
#
#
# Indices 1 2 3 4 5 6 
#
# 1 0.015612 -0.001248 -0.002611 0.002489 0.000194 0.005936
# 2 -0.001248 0.011595 -0.002143 -0.003470 -0.000550 0.010825
# 3 -0.002611 -0.002143 0.005121 -0.000409 0.000109 -0.001300
# 4 0.002489 -0.003470 -0.000409 0.016118 0.000503 -0.003893
# 5 0.000194 -0.000550 0.000109 0.000503 0.015798 0.003417
# 6 0.005936 0.010825 -0.001300 -0.003893 0.003417 0.039787
#
#
# Mechanical properties :
#
#
# Convention : Reuss Voigt Hill
#
# Bulk Modulus (GPa) = 49.20073 89.96366 69.58220
# Shear Modulus (GPa) = 40.71348 56.52594 48.61971
#
# Velocity S-wave (km/s) = 3.89093 4.58468 4.25198
# Velocity P-wave (km/s) = 6.20332 7.84084 7.06965
#
# Compressibility (1/GPa) = 0.02032490
#
# Stress axis : x y z
#
# Youngs Moduli (GPa) = 64.05403 86.24102 195.27070
#
# Poissons Ratio (x) = 0.10765 0.50982
# Poissons Ratio (y) = 0.07995 0.41840
# Poissons Ratio (z) = 0.16723 0.18479
#
# Static dielectric constant tensor:
#      x y z
#    x 0.083530 1.600840 0.850180 
#    y 1.600840 1.446290 -0.642900 
#    z 0.850180 -0.642900 1.631710 
# 
# From -- ./inp_files/363823.got.cif
#   From: 2010.05.17/outbox.cif.g08.bks.cpg/sg2_182_cif.got.tgz:363823.got - 2010.06.03 11:33:40.
