data_PCOD9068742
_publ_section_title
;
Structure prediction by ZEFSAII (Michael W. Deem and Ramdas Pophale) SiO2 
 PCOD9068742
Probable space group: P -1
;
_chemical_formula_sum "Si O2"
_cell_formula_units_Z 12
_cell_length_a 5.044124
_cell_length_b 14.691575
_cell_length_c 11.681539
_cell_angle_alpha 42.244600
_cell_angle_beta 102.915062
_cell_angle_gamma 125.821663
_cell_volume 435.569591
_symmetry_space_group_name_H-M "P -1"
_symmetry_group_IT_number 2
_symmetry_cell_setting 'triclinic'
loop_
_space_group_symop_operation_xyz
x,y,z
-x,-y,-z
loop_
_atom_site_type_symbol
_atom_site_label
_atom_site_fract_x
_atom_site_fract_y
_atom_site_fract_z
Si Si1 0.765151 0.768315 0.997913
Si Si2 0.301300 0.711839 0.810227
Si Si3 0.462236 0.854582 0.054505
Si Si4 0.532550 0.757530 0.392278
Si Si5 0.696606 0.969796 0.420296
Si Si6 0.751123 0.548955 0.588689
O O1 0.758311 0.908853 0.939074
O O2 0.436057 0.598184 0.195303
O O3 0.076663 0.758950 0.052992
O O4 0.632124 0.751029 0.873504
O O5 0.373319 0.777362 0.624850
O O6 0.291130 0.863990 0.717282
O O7 0.000000 0.500000 0.000000
O O8 0.499388 0.763738 0.247532
O O9 0.500000 0.000000 0.000000
O O10 0.682189 0.930151 0.321189
O O11 0.775463 0.708883 0.491969
O O12 0.126591 0.613031 0.526414
O O13 0.000000 0.000000 0.500000
O O14 0.500000 0.500000 0.500000
#
# Coordination Sequence:
#
# PCOD9068742 Si02
#       6
#     2   2   2   2   2   2
#     4  12  26  44  74 107 149 187 258 309 379 465
#     4  11  28  53  77 112 154 208 265 324 386 461
#     4  12  25  43  68 107 142 194 238 317 388 451
#     4  12  25  45  76 103 157 193 254 312 389 458
#     4  11  29  51  78 111 153 210 264 322 387 463
#     4  12  23  45  71 114 147 199 243 311 391 462
#
# _framework density 27.550134
#
# number of rings (size 3 to 8) (size 9 to 14) (size 15 to 20)
#    0.000    0.333    3.333    4.000   11.667    0.667 
#    0.000    0.000    0.000    0.000    0.000    0.000 
#    0.000    0.000    0.000    0.000    0.000    0.000 
#
# Total GULP energy -67103.452039 kJ/mol
# GULP energy per Si atom -5591.954337 kJ/mol
# Density = 2.748743 g / cm^3
# Si number density = 27.550134 Si / 1000 Ang^3
#
#
#
# Elastic Constant Matrix: (Units=GPa)
#
#
# Indices 1 2 3 4 5 6 
#
# 1 143.2501 30.8189 64.6841 27.0029 10.8778 13.9836
# 2 30.8189 121.0003 49.2139 26.4032 4.0629 14.8476
# 3 64.6841 49.2139 150.2432 6.7439 20.4921 6.7932
# 4 27.0029 26.4032 6.7439 65.1644 -10.5528 2.4392
# 5 10.8778 4.0629 20.4921 -10.5528 52.6903 5.4322
# 6 13.9836 14.8476 6.7932 2.4392 5.4322 58.6952
#
#
#
# Elastic Compliance Matrix: (Units=1/GPa)
#
#
# Indices 1 2 3 4 5 6 
#
# 1 0.009616 0.000156 -0.003797 -0.003773 -0.001108 -0.001632
# 2 0.000156 0.010704 -0.003272 -0.004007 -0.000162 -0.002184
# 3 -0.003797 -0.003272 0.009599 0.001474 -0.002483 0.000790
# 4 -0.003773 -0.004007 0.001474 0.019052 0.004273 0.000555
# 5 -0.001108 -0.000162 -0.002483 0.004273 0.021201 -0.001547
# 6 -0.001632 -0.002184 0.000790 0.000555 -0.001547 0.018007
#
#
# Mechanical properties :
#
#
# Convention : Reuss Voigt Hill
#
# Bulk Modulus (GPa) = 62.14128 78.21414 70.17771
# Shear Modulus (GPa) = 46.56757 53.29510 49.93133
#
# Velocity S-wave (km/s) = 4.11577 4.40304 4.26183
# Velocity P-wave (km/s) = 6.72240 7.36888 7.05305
#
# Compressibility (1/GPa) = 0.01609236
#
# Stress axis : x y z
#
# Youngs Moduli (GPa) = 103.98806 93.42610 104.17433
#
# Poissons Ratio (x) = -0.01455 0.39554
# Poissons Ratio (y) = -0.01620 0.34090
# Poissons Ratio (z) = 0.39483 0.30573
#
# Static dielectric constant tensor:
#      x y z
#    x 1.817290 -0.442870 -0.021420 
#    y -0.442870 2.227780 -0.414580 
#    z -0.021420 -0.414580 2.462330 
# 
# From -- ./inp_files/69224.got.cif
#   From: 2010.05.17/outbox.cif.g08.bks.cpg/sg2_35_cif.got.tgz:69224.got - 2010.06.03 11:33:40.
