data_PCOD9068430
_publ_section_title
;
Structure prediction by ZEFSAII (Michael W. Deem and Ramdas Pophale) SiO2 
 PCOD9068430
Probable space group: P -1
;
_chemical_formula_sum "Si O2"
_cell_formula_units_Z 14
_cell_length_a 11.481086
_cell_length_b 8.151406
_cell_length_c 15.731005
_cell_angle_alpha 42.943307
_cell_angle_beta 32.829434
_cell_angle_gamma 41.608176
_cell_volume 507.513190
_symmetry_space_group_name_H-M "P -1"
_symmetry_group_IT_number 2
_symmetry_cell_setting 'triclinic'
loop_
_space_group_symop_operation_xyz
x,y,z
-x,-y,-z
loop_
_atom_site_type_symbol
_atom_site_label
_atom_site_fract_x
_atom_site_fract_y
_atom_site_fract_z
Si Si1 0.579673 0.862560 0.598599
Si Si2 0.515788 0.412686 0.924413
Si Si3 0.688348 0.205420 0.629390
Si Si4 0.814433 0.381979 0.183996
Si Si5 0.058477 0.909536 0.302059
Si Si6 0.098692 0.348853 0.265179
Si Si7 0.875798 0.925931 0.182790
O O1 0.175445 0.837859 0.808900
O O2 0.372157 0.078184 0.694219
O O3 0.850015 0.804417 0.460395
O O4 0.500000 0.000000 0.500000
O O5 0.739550 0.162057 0.864783
O O6 0.553167 0.612367 0.757386
O O7 0.500000 0.500000 0.000000
O O8 0.276679 0.363758 0.076018
O O9 0.433378 0.406658 0.723550
O O10 0.808488 0.166435 0.663119
O O11 0.855612 0.307101 0.434245
O O12 0.732888 0.907383 0.690512
O O13 0.915863 0.211033 0.268435
O O14 0.000000 0.500000 0.000000
O O15 0.017548 0.642572 0.237667
O O16 0.000000 0.000000 0.000000
#
# Coordination Sequence:
#
# PCOD9068430 Si02
#       7
#     2   2   2   2   2   2   2
#     4  12  26  47  78 118 163 214 275 347 412 497
#     4  12  26  44  75 118 162 214 275 345 420 494
#     4  11  28  54  79 117 169 220 271 347 422 509
#     4  12  28  51  83 119 162 217 281 340 420 504
#     4  12  27  46  79 112 157 220 274 335 418 499
#     4  11  26  50  77 117 170 209 271 350 415 491
#     4  12  26  48  81 119 160 213 277 348 403 498
#
# _framework density 27.58549
#
# number of rings (size 3 to 8) (size 9 to 14) (size 15 to 20)
#    0.000    0.286    2.857    4.714    4.000    1.143 
#    5.143    3.571    0.000    0.000    0.000    0.000 
#    0.000    0.000    0.000    0.000    0.000    0.000 
#
# Total GULP energy -78121.222415 kJ/mol
# GULP energy per Si atom -5580.087315 kJ/mol
# Density = 2.752270 g / cm^3
# Si number density = 27.585490 Si / 1000 Ang^3
#
#
#
# Elastic Constant Matrix: (Units=GPa)
#
#
# Indices 1 2 3 4 5 6 
#
# 1 129.1840 61.6631 49.6967 8.0004 19.4214 -4.5142
# 2 61.6631 272.1164 110.0856 30.6717 -1.2254 -4.8792
# 3 49.6967 110.0856 273.5451 16.6120 14.0510 -3.7504
# 4 8.0004 30.6717 16.6120 81.7392 -6.7906 1.8415
# 5 19.4214 -1.2254 14.0510 -6.7906 35.9323 6.0013
# 6 -4.5142 -4.8792 -3.7504 1.8415 6.0013 43.0509
#
#
#
# Elastic Compliance Matrix: (Units=1/GPa)
#
#
# Indices 1 2 3 4 5 6 
#
# 1 0.009815 -0.001873 -0.000690 -0.000607 -0.005472 0.001545
# 2 -0.001873 0.004906 -0.001643 -0.001193 0.001589 0.000046
# 3 -0.000690 -0.001643 0.004553 -0.000383 -0.001599 0.000377
# 4 -0.000607 -0.001193 -0.000383 0.013106 0.003119 -0.001227
# 5 -0.005472 0.001589 -0.001599 0.003119 0.032934 -0.005257
# 6 0.001545 0.000046 0.000377 -0.001227 -0.005257 0.024214
#
#
# Mechanical properties :
#
#
# Convention : Reuss Voigt Hill
#
# Bulk Modulus (GPa) = 92.06892 124.19292 108.13092
# Shear Modulus (GPa) = 49.23163 62.37115 55.80139
#
# Velocity S-wave (km/s) = 4.22915 4.76017 4.50249
# Velocity P-wave (km/s) = 7.56940 8.67935 8.14331
#
# Compressibility (1/GPa) = 0.01086143
#
# Stress axis : x y z
#
# Youngs Moduli (GPa) = 101.88683 203.81331 219.64953
#
# Poissons Ratio (x) = 0.38184 0.15157
# Poissons Ratio (y) = 0.19088 0.36083
# Poissons Ratio (z) = 0.07031 0.33481
#
# Static dielectric constant tensor:
#      x y z
#    x 2.351690 -0.004250 -0.178200 
#    y -0.004250 2.234730 -0.021270 
#    z -0.178200 -0.021270 2.289930 
# 
# From -- ./inp_files/611904.got.cif
#   From: 2010.05.17/outbox.cif.g08.bks.cpg/sg2_306_cif.got.tgz:611904.got - 2010.06.03 11:33:40.
