data_PCOD9068129
_publ_section_title
;
Structure prediction by ZEFSAII (Michael W. Deem and Ramdas Pophale) SiO2 
 PCOD9068129
Probable space group: P -1
;
_chemical_formula_sum "Si O2"
_cell_formula_units_Z 16
_cell_length_a 5.273736
_cell_length_b 9.284105
_cell_length_c 14.434441
_cell_angle_alpha 110.918852
_cell_angle_beta 102.160835
_cell_angle_gamma 101.277210
_cell_volume 616.315638
_symmetry_space_group_name_H-M "P -1"
_symmetry_group_IT_number 2
_symmetry_cell_setting 'triclinic'
loop_
_space_group_symop_operation_xyz
x,y,z
-x,-y,-z
loop_
_atom_site_type_symbol
_atom_site_label
_atom_site_fract_x
_atom_site_fract_y
_atom_site_fract_z
Si Si1 0.179741 0.092140 0.804389
Si Si2 0.045971 0.184063 0.153196
Si Si3 0.266677 0.738307 0.015820
Si Si4 0.353141 0.647576 0.737156
Si Si5 0.729116 0.357898 0.477686
Si Si6 0.765767 0.007950 0.414741
Si Si7 0.462898 0.639924 0.335306
Si Si8 0.968539 0.598486 0.151680
O O1 0.449243 0.150836 0.900206
O O2 0.184749 0.989464 0.690337
O O3 0.138481 0.253461 0.796030
O O4 0.963749 0.978186 0.829873
O O5 0.885544 0.282013 0.229195
O O6 0.358546 0.269442 0.173922
O O7 0.877192 0.167240 0.041815
O O8 0.098126 0.665296 0.077513
O O9 0.256562 0.572979 0.921298
O O10 0.417302 0.685776 0.642240
O O11 0.318053 0.454926 0.696711
O O12 0.602906 0.408229 0.572643
O O13 0.000000 0.500000 0.500000
O O14 0.742596 0.184035 0.472310
O O15 0.547557 0.833523 0.374619
O O16 0.000000 0.000000 0.500000
O O17 0.204507 0.580184 0.233372
#
# Coordination Sequence:
#
# PCOD9068129 Si02
#       8
#     2   2   2   2   2   2   2   2
#     4  12  27  46  78 110 159 203 266 326 403 472
#     4  12  29  48  82 111 163 209 264 334 392 476
#     4  11  26  50  73 116 147 214 258 331 396 478
#     4  12  28  51  79 116 157 212 269 323 403 474
#     4  12  27  50  79 115 162 213 270 328 403 479
#     4  12  27  46  75 116 160 205 270 327 405 474
#     4  12  26  48  79 114 157 212 262 333 401 477
#     4  11  26  47  77 113 154 200 265 324 405 474
#
# _framework density 25.960722000000001
#
# number of rings (size 3 to 8) (size 9 to 14) (size 15 to 20)
#    0.000    0.250    3.750    3.750    8.750    0.500 
#    0.000    0.000    0.000    0.000    0.000    0.000 
#    0.000    0.000    0.000    0.000    0.000    0.000 
#
# Total GULP energy -89517.910097 kJ/mol
# GULP energy per Si atom -5594.869381 kJ/mol
# Density = 2.590163 g / cm^3
# Si number density = 25.960722 Si / 1000 Ang^3
#
#
#
# Elastic Constant Matrix: (Units=GPa)
#
#
# Indices 1 2 3 4 5 6 
#
# 1 51.2855 20.3690 23.2003 4.8879 -5.6543 -0.4005
# 2 20.3690 129.5749 21.7775 -18.4694 -5.5216 11.1655
# 3 23.2003 21.7775 114.7685 -0.4786 -1.3954 1.1514
# 4 4.8879 -18.4694 -0.4786 44.3813 -1.8184 -5.5082
# 5 -5.6543 -5.5216 -1.3954 -1.8184 46.5811 -2.1528
# 6 -0.4005 11.1655 1.1514 -5.5082 -2.1528 53.4048
#
#
#
# Elastic Compliance Matrix: (Units=1/GPa)
#
#
# Indices 1 2 3 4 5 6 
#
# 1 0.023342 -0.003511 -0.004049 -0.003902 0.002175 0.000682
# 2 -0.003511 0.009169 -0.000990 0.004038 0.000720 -0.001477
# 3 -0.004049 -0.000990 0.009717 0.000122 -0.000315 -0.000033
# 4 -0.003902 0.004038 0.000122 0.024902 0.001061 0.001735
# 5 0.002175 0.000720 -0.000315 0.001061 0.021889 0.000864
# 6 0.000682 -0.001477 -0.000033 0.001735 0.000864 0.019253
#
#
# Mechanical properties :
#
#
# Convention : Reuss Voigt Hill
#
# Bulk Modulus (GPa) = 39.79587 47.36916 43.58251
# Shear Modulus (GPa) = 37.38374 44.22558 40.80466
#
# Velocity S-wave (km/s) = 3.79887 4.13190 3.96887
# Velocity P-wave (km/s) = 5.88255 6.40699 6.15036
#
# Compressibility (1/GPa) = 0.02512824
#
# Stress axis : x y z
#
# Youngs Moduli (GPa) = 42.84162 109.05919 102.91763
#
# Poissons Ratio (x) = 0.38291 0.41671
# Poissons Ratio (y) = 0.15042 0.10186
# Poissons Ratio (z) = 0.17346 0.10794
#
# Static dielectric constant tensor:
#      x y z
#    x 1.964280 -0.256790 -0.257390 
#    y -0.256790 1.580590 -0.264240 
#    z -0.257390 -0.264240 1.838540 
# 
# From -- ./inp_files/480781.got.cif
#   From: 2010.05.17/outbox.cif.g08.bks.cpg/sg2_241_cif.got.tgz:480781.got - 2010.06.03 11:33:40.
