data_PCOD9068362
_publ_section_title
;
Structure prediction by ZEFSAII (Michael W. Deem and Ramdas Pophale) SiO2 
 PCOD9068362
Probable space group: P -1
;
_chemical_formula_sum "Si O2"
_cell_formula_units_Z 10
_cell_length_a 12.842921
_cell_length_b 8.638379
_cell_length_c 10.590400
_cell_angle_alpha 85.262689
_cell_angle_beta 137.689192
_cell_angle_gamma 128.982660
_cell_volume 419.375875
_symmetry_space_group_name_H-M "P -1"
_symmetry_group_IT_number 2
_symmetry_cell_setting 'triclinic'
loop_
_space_group_symop_operation_xyz
x,y,z
-x,-y,-z
loop_
_atom_site_type_symbol
_atom_site_label
_atom_site_fract_x
_atom_site_fract_y
_atom_site_fract_z
Si Si1 0.519036 0.841009 0.480125
Si Si2 0.707505 0.581888 0.497058
Si Si3 0.907546 0.810220 0.106542
Si Si4 0.396056 0.741103 0.078644
Si Si5 0.921309 0.285552 0.358529
O O1 0.311513 0.553912 0.394651
O O2 0.449886 0.780733 0.273496
O O3 0.500000 0.000000 0.500000
O O4 0.845535 0.051444 0.771833
O O5 0.806359 0.573596 0.462019
O O6 0.388285 0.382314 0.208502
O O7 0.936308 0.913611 0.704144
O O8 0.806581 0.577442 0.115511
O O9 0.692925 0.987049 0.249693
O O10 0.247134 0.776897 0.905653
O O11 0.000000 0.500000 0.500000
#
# Coordination Sequence:
#
# PCOD9068362 Si02
#       5
#     2   2   2   2   2
#     4  12  27  50  79 112 150 201 251 309 373 454
#     4  12  29  47  81 108 159 192 251 312 379 441
#     4  12  27  50  73 119 150 197 246 315 380 443
#     4  11  26  49  77 108 154 194 261 303 373 451
#     4  11  27  51  75 111 148 205 255 306 368 455
#
# _framework density 23.844957999999998
#
# number of rings (size 3 to 8) (size 9 to 14) (size 15 to 20)
#    0.000    0.400    2.000    4.800   11.200    3.200 
#    0.000    0.000    0.000    0.000    0.000    0.000 
#    0.000    0.000    0.000    0.000    0.000    0.000 
#
# Total GULP energy -56057.144956 kJ/mol
# GULP energy per Si atom -5605.714496 kJ/mol
# Density = 2.379069 g / cm^3
# Si number density = 23.844958 Si / 1000 Ang^3
#
#
#
# Elastic Constant Matrix: (Units=GPa)
#
#
# Indices 1 2 3 4 5 6 
#
# 1 164.1151 72.4056 38.1957 7.6908 0.6915 -4.3408
# 2 72.4056 169.0720 31.7052 41.4967 -19.8636 2.2705
# 3 38.1957 31.7052 91.6971 18.0465 -12.2503 -4.6263
# 4 7.6908 41.4967 18.0465 39.0996 -1.0459 0.8717
# 5 0.6915 -19.8636 -12.2503 -1.0459 20.8061 6.4595
# 6 -4.3408 2.2705 -4.6263 0.8717 6.4595 38.1028
#
#
#
# Elastic Compliance Matrix: (Units=1/GPa)
#
#
# Indices 1 2 3 4 5 6 
#
# 1 0.009405 -0.005735 -0.004126 0.005860 -0.008617 0.002239
# 2 -0.005735 0.012877 0.002247 -0.013124 0.014156 -0.003247
# 3 -0.004126 0.002247 0.014864 -0.008136 0.010760 -0.000437
# 4 0.005860 -0.013124 -0.008136 0.041626 -0.016118 0.002242
# 5 -0.008617 0.014156 0.010760 -0.016118 0.071182 -0.012217
# 6 0.002239 -0.003247 -0.000437 0.002242 -0.012217 0.028660
#
#
# Mechanical properties :
#
#
# Convention : Reuss Voigt Hill
#
# Bulk Modulus (GPa) = 45.62635 78.83303 62.22969
# Shear Modulus (GPa) = 24.85735 38.44020 31.64878
#
# Velocity S-wave (km/s) = 3.23221 4.01944 3.64713
# Velocity P-wave (km/s) = 5.75376 7.39416 6.62493
#
# Compressibility (1/GPa) = 0.02191716
#
# Stress axis : x y z
#
# Youngs Moduli (GPa) = 106.33156 77.65701 67.27646
#
# Poissons Ratio (x) = 0.44533 0.27760
# Poissons Ratio (y) = 0.60977 -0.15114
# Poissons Ratio (z) = 0.43875 -0.17446
#
# Static dielectric constant tensor:
#      x y z
#    x 1.862610 0.002930 -0.001700 
#    y 0.002930 1.907200 -0.030450 
#    z -0.001700 -0.030450 1.971500 
# 
# From -- ./inp_files/17648.got.cif
#   From: 2010.05.17/outbox.cif.g08.bks.cpg/sg2_9_cif.got.tgz:17648.got - 2010.06.03 11:33:40.
