data_PCOD9068868
_publ_section_title
;
Structure prediction by ZEFSAII (Michael W. Deem and Ramdas Pophale) SiO2 
 PCOD9068868
Probable space group: P -1
;
_chemical_formula_sum "Si O2"
_cell_formula_units_Z 16
_cell_length_a 9.413567
_cell_length_b 6.823654
_cell_length_c 15.870125
_cell_angle_alpha 45.081270
_cell_angle_beta 90.085980
_cell_angle_gamma 66.837066
_cell_volume 599.517801
_symmetry_space_group_name_H-M "P -1"
_symmetry_group_IT_number 2
_symmetry_cell_setting 'triclinic'
loop_
_space_group_symop_operation_xyz
x,y,z
-x,-y,-z
loop_
_atom_site_type_symbol
_atom_site_label
_atom_site_fract_x
_atom_site_fract_y
_atom_site_fract_z
Si Si1 0.333858 0.374937 0.396402
Si Si2 0.433250 0.327771 0.113523
Si Si3 0.825593 0.562991 0.016570
Si Si4 0.977338 0.481756 0.320065
Si Si5 0.190171 0.737475 0.726548
Si Si6 0.735295 0.734244 0.397777
Si Si7 0.177538 0.920034 0.988641
Si Si8 0.416838 0.787848 0.148002
O O1 0.297241 0.451213 0.472810
O O2 0.370232 0.617356 0.273374
O O3 0.165365 0.407958 0.348689
O O4 0.500000 0.000000 0.500000
O O5 0.218809 0.583446 0.028731
O O6 0.564763 0.997117 0.266557
O O7 0.500000 0.500000 0.000000
O O8 0.388094 0.128100 0.096811
O O9 0.849918 0.294084 0.167455
O O10 0.000000 0.500000 0.000000
O O11 0.780889 0.883691 0.990575
O O12 0.957095 0.230182 0.340582
O O13 0.883804 0.526203 0.394313
O O14 0.860188 0.825850 0.164257
O O15 0.377380 0.407625 0.806273
O O16 0.215682 0.034017 0.625575
O O17 0.383839 0.612085 0.112726
O O18 0.000000 0.000000 0.000000
#
# Coordination Sequence:
#
# PCOD9068868 Si02
#       8
#     2   2   2   2   2   2   2   2
#     4  12  27  52  75 102 148 205 249 299 360 450
#     4  12  22  42  71 103 143 190 237 294 375 429
#     4  12  26  41  69 116 152 178 241 315 371 438
#     4  12  27  45  77 109 141 196 253 297 379 432
#     4  12  25  46  76 110 149 189 239 316 366 437
#     4  12  26  49  76 105 150 198 249 298 365 445
#     4  12  21  38  69 104 140 183 236 297 358 433
#     4  12  24  45  74 105 149 190 237 303 378 428
#
# _framework density 26.688113000000001
#
# number of rings (size 3 to 8) (size 9 to 14) (size 15 to 20)
#    0.000    0.000    7.500    2.250    1.750    0.500 
#    0.000    2.500    0.000    0.000    0.000    0.000 
#    0.000    0.000    0.000    0.000    0.000    0.000 
#
# Total GULP energy -89643.407224 kJ/mol
# GULP energy per Si atom -5602.712951 kJ/mol
# Density = 2.662737 g / cm^3
# Si number density = 26.688113 Si / 1000 Ang^3
#
#
#
# Elastic Constant Matrix: (Units=GPa)
#
#
# Indices 1 2 3 4 5 6 
#
# 1 225.1167 55.8673 82.6069 26.9636 17.0674 9.9521
# 2 55.8673 184.3786 53.3572 15.2327 0.8285 -1.2545
# 3 82.6069 53.3572 160.3788 17.6983 -2.5142 -14.7243
# 4 26.9636 15.2327 17.6983 42.0268 -11.2913 -10.0023
# 5 17.0674 0.8285 -2.5142 -11.2913 59.6436 11.6279
# 6 9.9521 -1.2545 -14.7243 -10.0023 11.6279 69.4667
#
#
#
# Elastic Compliance Matrix: (Units=1/GPa)
#
#
# Indices 1 2 3 4 5 6 
#
# 1 0.006346 -0.000820 -0.002785 -0.003608 -0.002283 -0.001652
# 2 -0.000820 0.006212 -0.001541 -0.001160 -0.000088 -0.000249
# 3 -0.002785 -0.001541 0.008435 -0.000555 0.000686 0.001964
# 4 -0.003608 -0.001160 -0.000555 0.029192 0.005849 0.003602
# 5 -0.002283 -0.000088 0.000686 0.005849 0.018918 -0.001854
# 6 -0.001652 -0.000249 0.001964 0.003602 -0.001854 0.015873
#
#
# Mechanical properties :
#
#
# Convention : Reuss Voigt Hill
#
# Bulk Modulus (GPa) = 93.44500 105.94854 99.69677
# Shear Modulus (GPa) = 50.58946 59.43027 55.00986
#
# Velocity S-wave (km/s) = 4.35855 4.72406 4.54498
# Velocity P-wave (km/s) = 7.77297 8.33911 8.06101
#
# Compressibility (1/GPa) = 0.01070148
#
# Stress axis : x y z
#
# Youngs Moduli (GPa) = 157.58450 160.96740 118.55702
#
# Poissons Ratio (x) = 0.13195 0.33020
# Poissons Ratio (y) = 0.12918 0.18269
# Poissons Ratio (z) = 0.43889 0.24804
#
# Static dielectric constant tensor:
#      x y z
#    x 2.036890 0.174120 0.053740 
#    y 0.174120 2.299100 0.012470 
#    z 0.053740 0.012470 2.016740 
# 
# From -- ./inp_files/329461.got.cif
#   From: 2010.05.17/outbox.cif.g08.bks.cpg/sg2_165_cif.got.tgz:329461.got - 2010.06.03 11:33:40.
