data_PCOD9068662
_publ_section_title
;
Structure prediction by ZEFSAII (Michael W. Deem and Ramdas Pophale) SiO2 
 PCOD9068662
Probable space group: P -1
;
_chemical_formula_sum "Si O2"
_cell_formula_units_Z 13
_cell_length_a 9.446667
_cell_length_b 9.180499
_cell_length_c 12.445064
_cell_angle_alpha 37.732141
_cell_angle_beta 63.275561
_cell_angle_gamma 80.045954
_cell_volume 555.975861
_symmetry_space_group_name_H-M "P -1"
_symmetry_group_IT_number 2
_symmetry_cell_setting 'triclinic'
loop_
_space_group_symop_operation_xyz
x,y,z
-x,-y,-z
loop_
_atom_site_type_symbol
_atom_site_label
_atom_site_fract_x
_atom_site_fract_y
_atom_site_fract_z
Si Si1 0.000000 0.000000 0.000000
Si Si2 0.698173 0.544653 0.288118
Si Si3 0.113147 0.789728 0.293631
Si Si4 0.106605 0.105204 0.508997
Si Si5 0.803348 0.338565 0.166873
Si Si6 0.455864 0.854736 0.248708
Si Si7 0.358992 0.606433 0.033108
O O1 0.090983 0.908505 0.120040
O O2 0.125802 0.295886 0.809589
O O3 0.719842 0.482256 0.193642
O O4 0.569952 0.697831 0.257907
O O5 0.623722 0.285032 0.531552
O O6 0.303248 0.831320 0.235232
O O7 0.000000 0.500000 0.500000
O O8 0.028235 0.908388 0.344999
O O9 0.228646 0.385374 0.275934
O O10 0.210017 0.929317 0.619141
O O11 0.000000 0.000000 0.500000
O O12 0.731695 0.320456 0.082030
O O13 0.000000 0.500000 0.000000
O O14 0.558426 0.142305 0.073441
O O15 0.500000 0.500000 0.000000
#
# Coordination Sequence:
#
# PCOD9068662 Si02
#       7
#     1   2   2   2   2   2   2
#     4  12  28  48  82 110 152 206 264 306 402 462
#     4  11  27  50  80 116 157 207 261 327 391 474
#     4  12  28  51  79 114 153 207 259 325 387 474
#     4  12  27  49  82 115 153 207 265 318 388 470
#     4  12  27  50  81 113 157 204 262 325 384 472
#     4  11  28  51  77 116 163 201 264 330 395 463
#     4  12  29  50  78 119 157 209 258 326 402 460
#
# _framework density 23.382311999999999
#
# number of rings (size 3 to 8) (size 9 to 14) (size 15 to 20)
#    0.000    0.308    3.077    3.692    8.615    4.308 
#    0.000    0.000    0.000    0.000    0.000    0.000 
#    0.000    0.000    0.000    0.000    0.000    0.000 
#
# Total GULP energy -72702.617609 kJ/mol
# GULP energy per Si atom -5592.509047 kJ/mol
# Density = 2.332909 g / cm^3
# Si number density = 23.382312 Si / 1000 Ang^3
#
#
#
# Elastic Constant Matrix: (Units=GPa)
#
#
# Indices 1 2 3 4 5 6 
#
# 1 175.3688 68.1759 64.6761 -0.7327 22.8686 39.0922
# 2 68.1759 98.8555 36.5622 -14.7092 -2.3428 3.5392
# 3 64.6761 36.5622 176.8493 -28.6247 12.0726 21.9298
# 4 -0.7327 -14.7092 -28.6247 35.9586 5.5585 -7.0903
# 5 22.8686 -2.3428 12.0726 5.5585 39.3822 -5.3052
# 6 39.0922 3.5392 21.9298 -7.0903 -5.3052 32.8664
#
#
#
# Elastic Compliance Matrix: (Units=1/GPa)
#
#
# Indices 1 2 3 4 5 6 
#
# 1 0.017676 -0.012329 -0.001680 -0.008537 -0.012296 -0.022403
# 2 -0.012329 0.019908 -0.000860 0.008998 0.009571 0.016580
# 3 -0.001680 -0.000860 0.007854 0.005813 -0.002616 -0.002317
# 4 -0.008537 0.008998 0.005813 0.038621 0.000099 0.013654
# 5 -0.012296 0.009571 -0.002616 0.000099 0.036758 0.021294
# 6 -0.022403 0.016580 -0.002317 0.013654 0.021294 0.063216
#
#
# Mechanical properties :
#
#
# Convention : Reuss Voigt Hill
#
# Bulk Modulus (GPa) = 63.69188 87.76690 75.72939
# Shear Modulus (GPa) = 22.83049 40.41874 31.62462
#
# Velocity S-wave (km/s) = 3.12813 4.16216 3.68163
# Velocity P-wave (km/s) = 6.35180 7.79199 7.10847
#
# Compressibility (1/GPa) = 0.01570059
#
# Stress axis : x y z
#
# Youngs Moduli (GPa) = 56.57259 50.22981 127.32974
#
# Poissons Ratio (x) = 0.61927 0.21392
# Poissons Ratio (y) = 0.69747 0.10952
# Poissons Ratio (z) = 0.09505 0.04320
#
# Static dielectric constant tensor:
#      x y z
#    x 1.846400 -0.029110 -0.013520 
#    y -0.029110 1.939680 0.029040 
#    z -0.013520 0.029040 1.929970 
# 
# From -- ./inp_files/184990.got.cif
#   From: 2010.05.17/outbox.cif.g08.bks.cpg/sg2_93_cif.got.tgz:184990.got - 2010.06.03 11:33:40.
