data_PCOD9068647
_publ_section_title
;
Structure prediction by ZEFSAII (Michael W. Deem and Ramdas Pophale) SiO2 
 PCOD9068647
Probable space group: P -1
;
_chemical_formula_sum "Si O2"
_cell_formula_units_Z 9
_cell_length_a 15.672157
_cell_length_b 9.585611
_cell_length_c 14.415527
_cell_angle_alpha 151.981237
_cell_angle_beta 18.322107
_cell_angle_gamma 150.682261
_cell_volume 311.272926
_symmetry_space_group_name_H-M "P -1"
_symmetry_group_IT_number 2
_symmetry_cell_setting 'triclinic'
loop_
_space_group_symop_operation_xyz
x,y,z
-x,-y,-z
loop_
_atom_site_type_symbol
_atom_site_label
_atom_site_fract_x
_atom_site_fract_y
_atom_site_fract_z
Si Si1 0.731630 0.230227 0.261147
Si Si2 0.517030 0.812038 0.776706
Si Si3 0.379401 0.587685 0.079328
Si Si4 0.000000 0.500000 0.000000
Si Si5 0.198081 0.757471 0.603779
O O1 0.717788 0.571854 0.437129
O O2 0.891507 0.198695 0.172322
O O3 0.424510 0.031940 0.484888
O O4 0.883411 0.156814 0.970245
O O5 0.238280 0.602798 0.899971
O O6 0.628330 0.074053 0.741393
O O7 0.500000 0.000000 0.000000
O O8 0.070102 0.390216 0.264721
O O9 0.500000 0.500000 0.000000
O O10 0.605449 0.483259 0.718089
#
# Coordination Sequence:
#
# PCOD9068647 Si02
#       5
#     2   2   2   1   2
#     4  11  27  49  82 116 163 215 275 338 408 491
#     4  12  27  50  81 117 162 216 272 340 406 491
#     4  12  27  48  79 120 164 213 274 338 408 489
#     4  12  28  46  80 116 162 208 274 330 408 480
#     4  11  27  50  81 116 163 218 269 337 417 478
#
# _framework density 28.913533000000001
#
# number of rings (size 3 to 8) (size 9 to 14) (size 15 to 20)
#    0.000    0.444    2.222    4.000    9.333    3.556 
#    0.000    0.000    0.000    0.000    0.000    0.000 
#    0.000    0.000    0.000    0.000    0.000    0.000 
#
# Total GULP energy -50243.389602 kJ/mol
# GULP energy per Si atom -5582.598845 kJ/mol
# Density = 2.884772 g / cm^3
# Si number density = 28.913533 Si / 1000 Ang^3
#
#
#
# Elastic Constant Matrix: (Units=GPa)
#
#
# Indices 1 2 3 4 5 6 
#
# 1 214.9258 101.1025 37.5196 -32.5040 -39.9620 -12.5047
# 2 101.1025 202.5474 60.4821 -2.2289 -40.0521 -34.2977
# 3 37.5196 60.4821 142.4709 -5.5932 -35.6224 10.7028
# 4 -32.5040 -2.2289 -5.5932 69.1007 11.6538 -7.2034
# 5 -39.9620 -40.0521 -35.6224 11.6538 57.2961 -3.2094
# 6 -12.5047 -34.2977 10.7028 -7.2034 -3.2094 78.6701
#
#
#
# Elastic Compliance Matrix: (Units=1/GPa)
#
#
# Indices 1 2 3 4 5 6 
#
# 1 0.006874 -0.002971 0.000107 0.002784 0.002225 0.000129
# 2 -0.002971 0.008213 -0.002343 -0.001421 0.002693 0.003407
# 3 0.000107 -0.002343 0.009147 -0.000186 0.004044 -0.002101
# 4 0.002784 -0.001421 -0.000186 0.016255 -0.002404 0.001239
# 5 0.002225 0.002693 0.004044 -0.002404 0.023988 0.001736
# 6 0.000129 0.003407 -0.002101 0.001239 0.001736 0.014687
#
#
# Mechanical properties :
#
#
# Convention : Reuss Voigt Hill
#
# Bulk Modulus (GPa) = 72.35443 106.46139 89.40791
# Shear Modulus (GPa) = 53.08754 65.06936 59.07845
#
# Velocity S-wave (km/s) = 4.28960 4.74907 4.52517
# Velocity P-wave (km/s) = 7.04365 8.18365 7.63495
#
# Compressibility (1/GPa) = 0.01382085
#
# Stress axis : x y z
#
# Youngs Moduli (GPa) = 145.48081 121.75472 109.32466
#
# Poissons Ratio (x) = 0.36168 -0.01168
# Poissons Ratio (y) = 0.43216 0.25613
# Poissons Ratio (z) = -0.01554 0.28525
#
# Static dielectric constant tensor:
#      x y z
#    x 2.036290 0.276580 -0.245640 
#    y 0.276580 2.231770 0.398470 
#    z -0.245640 0.398470 1.680430 
# 
# From -- ./inp_files/16687.got.cif
#   From: 2010.05.17/outbox.cif.g08.bks.cpg/sg2_9_cif.got.tgz:16687.got - 2010.06.03 11:33:40.
