data_PCOD9068645
_publ_section_title
;
Structure prediction by ZEFSAII (Michael W. Deem and Ramdas Pophale) SiO2 
 PCOD9068645
Probable space group: P -1
;
_chemical_formula_sum "Si O2"
_cell_formula_units_Z 12
_cell_length_a 8.425455
_cell_length_b 5.446673
_cell_length_c 13.710721
_cell_angle_alpha 62.378895
_cell_angle_beta 81.090621
_cell_angle_gamma 61.845151
_cell_volume 489.876058
_symmetry_space_group_name_H-M "P -1"
_symmetry_group_IT_number 2
_symmetry_cell_setting 'triclinic'
loop_
_space_group_symop_operation_xyz
x,y,z
-x,-y,-z
loop_
_atom_site_type_symbol
_atom_site_label
_atom_site_fract_x
_atom_site_fract_y
_atom_site_fract_z
Si Si1 0.291827 0.175522 0.951474
Si Si2 0.315608 0.852542 0.316852
Si Si3 0.971070 0.872491 0.862287
Si Si4 0.108577 0.652342 0.521301
Si Si5 0.206304 0.157706 0.747188
Si Si6 0.507741 0.170798 0.365214
O O1 0.163223 0.554367 0.905842
O O2 0.306232 0.085621 0.853277
O O3 0.159385 0.073199 0.043087
O O4 0.500000 0.000000 0.000000
O O5 0.257924 0.673387 0.436386
O O6 0.431272 0.543184 0.299860
O O7 0.410361 0.035473 0.325172
O O8 0.150345 0.104319 0.223897
O O9 0.020832 0.151376 0.789950
O O10 0.179197 0.479652 0.647629
O O11 0.000000 0.500000 0.500000
O O12 0.000000 0.000000 0.500000
O O13 0.297334 0.950116 0.681522
O O14 0.500000 0.000000 0.500000
#
# Coordination Sequence:
#
# PCOD9068645 Si02
#       6
#     2   2   2   2   2   2
#     4  11  27  53  78 113 156 208 272 339 401 472
#     4  12  26  49  75 114 163 207 261 326 394 477
#     4  11  27  49  82 114 155 208 274 328 407 471
#     4  12  25  43  75 114 156 204 256 320 394 470
#     4  12  27  46  78 111 159 207 266 328 396 478
#     4  12  28  46  75 117 166 209 260 322 392 478
#
# _framework density 24.495992999999999
#
# number of rings (size 3 to 8) (size 9 to 14) (size 15 to 20)
#    0.000    0.333    3.333    4.000    7.000    0.667 
#    0.000    0.000    0.000    0.000    0.000    0.000 
#    0.000    0.000    0.000    0.000    0.000    0.000 
#
# Total GULP energy -67028.403295 kJ/mol
# GULP energy per Si atom -5585.700275 kJ/mol
# Density = 2.444024 g / cm^3
# Si number density = 24.495993 Si / 1000 Ang^3
#
#
#
# Elastic Constant Matrix: (Units=GPa)
#
#
# Indices 1 2 3 4 5 6 
#
# 1 94.6426 29.3420 45.2686 7.4527 11.4321 -0.2382
# 2 29.3420 136.2681 18.5929 -2.1576 17.2962 -13.8410
# 3 45.2686 18.5929 150.2581 11.5276 -2.4969 -15.9030
# 4 7.4527 -2.1576 11.5276 26.5143 -3.3659 7.2171
# 5 11.4321 17.2962 -2.4969 -3.3659 55.8607 8.7887
# 6 -0.2382 -13.8410 -15.9030 7.2171 8.7887 44.8537
#
#
#
# Elastic Compliance Matrix: (Units=1/GPa)
#
#
# Indices 1 2 3 4 5 6 
#
# 1 0.013519 -0.002274 -0.003775 -0.002303 -0.002186 -0.001169
# 2 -0.002274 0.008490 -0.000102 0.000208 -0.002636 0.003055
# 3 -0.003775 -0.000102 0.008442 -0.003493 0.000433 0.003419
# 4 -0.002303 0.000208 -0.003493 0.042862 0.004236 -0.008913
# 5 -0.002186 -0.002636 0.000433 0.004236 0.020278 -0.005326
# 6 -0.001169 0.003055 0.003419 -0.008913 -0.005326 0.026921
#
#
# Mechanical properties :
#
#
# Convention : Reuss Voigt Hill
#
# Bulk Modulus (GPa) = 55.09649 63.06399 59.08024
# Shear Modulus (GPa) = 36.00642 44.64342 40.32492
#
# Velocity S-wave (km/s) = 3.83807 4.27368 4.06172
# Velocity P-wave (km/s) = 6.49476 7.08188 6.79466
#
# Compressibility (1/GPa) = 0.01814998
#
# Stress axis : x y z
#
# Youngs Moduli (GPa) = 73.96954 117.78375 118.45274
#
# Poissons Ratio (x) = 0.26780 0.44716
# Poissons Ratio (y) = 0.16818 0.01209
# Poissons Ratio (z) = 0.27923 0.01202
#
# Static dielectric constant tensor:
#      x y z
#    x 2.102680 -0.197440 0.022120 
#    y -0.197440 2.334260 0.033040 
#    z 0.022120 0.033040 1.900010 
# 
# From -- ./inp_files/116615.got.cif
#   From: 2010.05.17/outbox.cif.g08.bks.cpg/sg2_59_cif.got.tgz:116615.got - 2010.06.03 11:33:40.
