data_PCOD9068377
_publ_section_title
;
Structure prediction by ZEFSAII (Michael W. Deem and Ramdas Pophale) SiO2 
 PCOD9068377
Probable space group: P -1
;
_chemical_formula_sum "Si O2"
_cell_formula_units_Z 16
_cell_length_a 19.113834
_cell_length_b 27.632924
_cell_length_c 4.743810
_cell_angle_alpha 104.105891
_cell_angle_beta 100.547231
_cell_angle_gamma 15.238037
_cell_volume 625.191803
_symmetry_space_group_name_H-M "P -1"
_symmetry_group_IT_number 2
_symmetry_cell_setting 'triclinic'
loop_
_space_group_symop_operation_xyz
x,y,z
-x,-y,-z
loop_
_atom_site_type_symbol
_atom_site_label
_atom_site_fract_x
_atom_site_fract_y
_atom_site_fract_z
Si Si1 0.478892 0.879941 0.303299
Si Si2 0.176448 0.323212 0.208785
Si Si3 0.214054 0.192919 0.730836
Si Si4 0.039733 0.248220 0.209649
Si Si5 0.759143 0.221661 0.359596
Si Si6 0.495872 0.444266 0.974932
Si Si7 0.655661 0.179848 0.056710
Si Si8 0.437885 0.273233 0.562345
O O1 0.819217 0.731037 0.041890
O O2 0.396290 0.883840 0.390376
O O3 0.693916 0.726280 0.990798
O O4 0.233476 0.077084 0.266539
O O5 0.367507 0.194504 0.440204
O O6 0.870711 0.537056 0.391995
O O7 0.001377 0.318268 0.512486
O O8 0.187708 0.172718 0.943484
O O9 0.500000 0.000000 0.500000
O O10 0.774572 0.399919 0.114726
O O11 0.738598 0.253392 0.708862
O O12 0.675335 0.221121 0.261333
O O13 0.549771 0.396362 0.272205
O O14 0.056153 0.025961 0.170015
O O15 0.500000 0.500000 0.000000
O O16 0.561632 0.205542 0.263590
O O17 0.448302 0.314012 0.834957
#
# Coordination Sequence:
#
# PCOD9068377 Si02
#       8
#     2   2   2   2   2   2   2   2
#     4  12  26  47  70 106 155 196 246 298 373 447
#     4  12  26  45  74 105 151 199 241 311 368 431
#     4  12  26  47  71 109 150 199 254 305 367 446
#     4  12  28  46  75 108 148 205 249 301 375 454
#     4  11  26  52  77 109 153 186 249 314 389 438
#     4  12  28  51  80 112 156 194 249 316 382 456
#     4  11  26  49  79 110 140 198 247 321 372 438
#     4  12  26  46  77 109 144 192 261 301 368 443
#
# _framework density 25.592144000000001
#
# number of rings (size 3 to 8) (size 9 to 14) (size 15 to 20)
#    0.000    0.250    1.250    6.750    7.000    2.000 
#    4.500    0.000    0.000    0.000    0.000    0.000 
#    0.000    0.000    0.000    0.000    0.000    0.000 
#
# Total GULP energy -89806.699611 kJ/mol
# GULP energy per Si atom -5612.918726 kJ/mol
# Density = 2.553390 g / cm^3
# Si number density = 25.592144 Si / 1000 Ang^3
#
#
#
# Elastic Constant Matrix: (Units=GPa)
#
#
# Indices 1 2 3 4 5 6 
#
# 1 140.1898 21.9705 30.6775 9.8307 -8.8191 -6.7921
# 2 21.9705 50.1803 15.2686 7.7099 -10.4531 -8.3754
# 3 30.6775 15.2686 145.0853 7.9863 -10.5948 -8.2849
# 4 9.8307 7.7099 7.9863 40.4253 1.3913 6.5908
# 5 -8.8191 -10.4531 -10.5948 1.3913 57.6314 -0.8003
# 6 -6.7921 -8.3754 -8.2849 6.5908 -0.8003 33.2821
#
#
#
# Elastic Compliance Matrix: (Units=1/GPa)
#
#
# Indices 1 2 3 4 5 6 
#
# 1 0.007996 -0.002638 -0.001243 -0.001369 0.000563 0.000943
# 2 -0.002638 0.024037 -0.001052 -0.004901 0.003969 0.006315
# 3 -0.001243 -0.001052 0.007506 -0.001282 0.001053 0.001629
# 4 -0.001369 -0.004901 -0.001282 0.027526 -0.002101 -0.007333
# 5 0.000563 0.003969 0.001053 -0.002101 0.018433 0.002235
# 6 0.000943 0.006315 0.001629 -0.007333 0.002235 0.033739
#
#
# Mechanical properties :
#
#
# Convention : Reuss Voigt Hill
#
# Bulk Modulus (GPa) = 33.69868 52.36541 43.03204
# Shear Modulus (GPa) = 35.97319 44.10370 40.03844
#
# Velocity S-wave (km/s) = 3.75325 4.15580 3.95964
# Velocity P-wave (km/s) = 5.65497 6.59800 6.14460
#
# Compressibility (1/GPa) = 0.02967475
#
# Stress axis : x y z
#
# Youngs Moduli (GPa) = 125.06884 41.60300 133.21908
#
# Poissons Ratio (x) = 0.10973 0.16556
# Poissons Ratio (y) = 0.32988 0.14010
# Poissons Ratio (z) = 0.15543 0.04375
#
# Static dielectric constant tensor:
#      x y z
#    x 2.039670 0.026820 0.036930 
#    y 0.026820 2.064120 0.007940 
#    z 0.036930 0.007940 1.955050 
# 
# From -- ./inp_files/112661.got.cif
#   From: 2010.05.17/outbox.cif.g08.bks.cpg/sg2_57_cif.got.tgz:112661.got - 2010.06.03 11:33:40.
