data_PCOD9068970
_publ_section_title
;
Structure prediction by ZEFSAII (Michael W. Deem and Ramdas Pophale) SiO2 
 PCOD9068970
Probable space group: P -1
;
_chemical_formula_sum "Si O2"
_cell_formula_units_Z 14
_cell_length_a 9.357451
_cell_length_b 5.116683
_cell_length_c 14.430325
_cell_angle_alpha 92.526431
_cell_angle_beta 128.483089
_cell_angle_gamma 104.127119
_cell_volume 506.705845
_symmetry_space_group_name_H-M "P -1"
_symmetry_group_IT_number 2
_symmetry_cell_setting 'triclinic'
loop_
_space_group_symop_operation_xyz
x,y,z
-x,-y,-z
loop_
_atom_site_type_symbol
_atom_site_label
_atom_site_fract_x
_atom_site_fract_y
_atom_site_fract_z
Si Si1 0.426482 0.228138 0.355107
Si Si2 0.814678 0.439956 0.246801
Si Si3 0.212439 0.717644 0.575101
Si Si4 0.507544 0.755080 0.274442
Si Si5 0.923322 0.939677 0.682044
Si Si6 0.329017 0.732473 0.013680
Si Si7 0.101862 0.128344 0.950721
O O1 0.663244 0.326137 0.461133
O O2 0.396940 0.954199 0.275759
O O3 0.310900 0.174007 0.404389
O O4 0.408440 0.472962 0.286585
O O5 0.959103 0.261643 0.298600
O O6 0.677641 0.352698 0.098896
O O7 0.958471 0.761156 0.310150
O O8 0.492417 0.746118 0.156113
O O9 0.267211 0.052910 0.606144
O O10 0.000000 0.500000 0.500000
O O11 0.302899 0.645037 0.706684
O O12 0.962367 0.998652 0.807656
O O13 0.278521 0.012620 0.003676
O O14 0.158082 0.458642 0.977408
O O15 0.000000 0.000000 0.000000
#
# Coordination Sequence:
#
# PCOD9068970 Si02
#       7
#     2   2   2   2   2   2   2
#     4  10  22  40  65  93 123 161 207 251 300 364
#     4  10  23  39  63  93 128 161 199 247 307 364
#     4  10  26  47  67  86 119 166 211 255 306 366
#     4  10  21  37  65  90 125 158 209 245 301 360
#     4  10  20  38  61  93 130 156 200 252 302 359
#     4  10  19  33  53  92 121 158 190 248 294 357
#     4  10  18  28  53  85 128 162 193 227 298 364
#
# _framework density 27.629439999999999
#
# number of rings (size 3 to 8) (size 9 to 14) (size 15 to 20)
#    0.857    1.143    0.000    3.857    2.000    3.429 
#    0.000    2.143    0.000    0.000    0.000    0.000 
#    0.000    0.000    0.000    0.000    0.000    0.000 
#
# Total GULP energy -78231.004836 kJ/mol
# GULP energy per Si atom -5587.928917 kJ/mol
# Density = 2.756655 g / cm^3
# Si number density = 27.629440 Si / 1000 Ang^3
#
#
#
# Elastic Constant Matrix: (Units=GPa)
#
#
# Indices 1 2 3 4 5 6 
#
# 1 151.0461 61.8497 20.3032 17.3958 17.2708 21.7532
# 2 61.8497 189.0583 12.5781 3.2087 7.5708 11.0953
# 3 20.3032 12.5781 60.0912 13.0724 -4.5350 -8.5096
# 4 17.3958 3.2087 13.0724 32.6987 2.0599 -5.2661
# 5 17.2708 7.5708 -4.5350 2.0599 31.7319 -2.7526
# 6 21.7532 11.0953 -8.5096 -5.2661 -2.7526 42.9619
#
#
#
# Elastic Compliance Matrix: (Units=1/GPa)
#
#
# Indices 1 2 3 4 5 6 
#
# 1 0.010059 -0.002427 -0.003194 -0.004451 -0.005584 -0.006003
# 2 -0.002427 0.006157 -0.000760 0.000946 -0.000354 -0.000419
# 3 -0.003194 -0.000760 0.020357 -0.005838 0.005685 0.005494
# 4 -0.004451 0.000946 -0.005838 0.036069 -0.000524 0.005241
# 5 -0.005584 -0.000354 0.005685 -0.000524 0.036030 0.006289
# 6 -0.006003 -0.000419 0.005494 0.005241 0.006289 0.028558
#
#
# Mechanical properties :
#
#
# Convention : Reuss Voigt Hill
#
# Bulk Modulus (GPa) = 41.99901 65.51751 53.75826
# Shear Modulus (GPa) = 31.66009 41.84281 36.75145
#
# Velocity S-wave (km/s) = 3.38876 3.89579 3.65109
# Velocity P-wave (km/s) = 5.52679 6.63330 6.10516
#
# Compressibility (1/GPa) = 0.02381009
#
# Stress axis : x y z
#
# Youngs Moduli (GPa) = 99.41147 162.42670 49.12389
#
# Poissons Ratio (x) = 0.39419 0.15689
# Poissons Ratio (y) = 0.24126 0.03736
# Poissons Ratio (z) = 0.31750 0.12352
#
# Static dielectric constant tensor:
#      x y z
#    x 2.190890 -0.021820 0.099170 
#    y -0.021820 2.200490 0.037710 
#    z 0.099170 0.037710 2.409460 
# 
# From -- ./inp_files/117741.got.cif
#   From: 2010.05.17/outbox.cif.g08.bks.cpg/sg2_59_cif.got.tgz:117741.got - 2010.06.03 11:33:40.
