data_PCOD9068638
_publ_section_title
;
Structure prediction by ZEFSAII (Michael W. Deem and Ramdas Pophale) SiO2 
 PCOD9068638
Probable space group: P -1
;
_chemical_formula_sum "Si O2"
_cell_formula_units_Z 13
_cell_length_a 8.661854
_cell_length_b 9.209649
_cell_length_c 8.067084
_cell_angle_alpha 97.868664
_cell_angle_beta 54.190379
_cell_angle_gamma 108.030665
_cell_volume 495.437795
_symmetry_space_group_name_H-M "P -1"
_symmetry_group_IT_number 2
_symmetry_cell_setting 'triclinic'
loop_
_space_group_symop_operation_xyz
x,y,z
-x,-y,-z
loop_
_atom_site_type_symbol
_atom_site_label
_atom_site_fract_x
_atom_site_fract_y
_atom_site_fract_z
Si Si1 0.029261 0.836990 0.265724
Si Si2 0.000000 0.000000 0.000000
Si Si3 0.597468 0.340665 0.325987
Si Si4 0.999303 0.494707 0.298368
Si Si5 0.329549 0.075096 0.311568
Si Si6 0.629914 0.586907 0.080422
Si Si7 0.568200 0.878236 0.298346
O O1 0.058015 0.673199 0.245935
O O2 0.849244 0.859366 0.497373
O O3 0.222541 0.978578 0.205142
O O4 0.966996 0.855837 0.122028
O O5 0.225366 0.989647 0.806268
O O6 0.798576 0.412365 0.313085
O O7 0.527941 0.217553 0.198089
O O8 0.567107 0.491113 0.276230
O O9 0.477409 0.221554 0.521755
O O10 0.000000 0.500000 0.500000
O O11 0.152856 0.414308 0.112215
O O12 0.392075 0.945970 0.360892
O O13 0.603808 0.754442 0.128635
O O14 0.500000 0.500000 0.000000
#
# Coordination Sequence:
#
# PCOD9068638 Si02
#       7
#     2   1   2   2   2   2   2
#     4  11  27  50  76 115 153 212 259 325 395 470
#     4  12  28  44  76 112 162 198 262 320 390 468
#     4  12  27  51  79 116 156 210 264 325 391 465
#     4  12  29  53  84 112 158 208 267 326 398 472
#     4  11  27  49  79 110 156 206 260 320 395 467
#     4  12  29  48  80 116 156 205 263 324 392 475
#     4  12  28  48  76 117 157 208 253 330 391 468
#
# _framework density 26.239417
#
# number of rings (size 3 to 8) (size 9 to 14) (size 15 to 20)
#    0.000    0.308    1.538    5.077   10.769    1.846 
#    0.000    0.000    0.000    0.000    0.000    0.000 
#    0.000    0.000    0.000    0.000    0.000    0.000 
#
# Total GULP energy -72431.633007 kJ/mol
# GULP energy per Si atom -5571.664077 kJ/mol
# Density = 2.617970 g / cm^3
# Si number density = 26.239417 Si / 1000 Ang^3
#
#
#
# Elastic Constant Matrix: (Units=GPa)
#
#
# Indices 1 2 3 4 5 6 
#
# 1 112.7512 32.4720 12.8660 4.9563 -5.1560 25.7596
# 2 32.4720 153.9150 35.8557 26.8377 -3.8512 14.1862
# 3 12.8660 35.8557 95.3220 9.2423 -7.9957 -4.5324
# 4 4.9563 26.8377 9.2423 50.6297 -8.1086 0.8256
# 5 -5.1560 -3.8512 -7.9957 -8.1086 34.7270 -10.1804
# 6 25.7596 14.1862 -4.5324 0.8256 -10.1804 53.7110
#
#
#
# Elastic Compliance Matrix: (Units=1/GPa)
#
#
# Indices 1 2 3 4 5 6 
#
# 1 0.010515 -0.001533 -0.001093 0.000020 -0.000257 -0.004779
# 2 -0.001533 0.008283 -0.002735 -0.003937 -0.001412 -0.001891
# 3 -0.001093 -0.002735 0.012083 -0.000198 0.003108 0.002859
# 4 0.000020 -0.003937 -0.000198 0.022695 0.005310 0.001671
# 5 -0.000257 -0.001412 0.003108 0.005310 0.032565 0.006849
# 6 -0.004779 -0.001891 0.002859 0.001671 0.006849 0.022923
#
#
# Mechanical properties :
#
#
# Convention : Reuss Voigt Hill
#
# Bulk Modulus (GPa) = 49.60977 58.26396 53.93687
# Shear Modulus (GPa) = 39.52369 46.53319 43.02844
#
# Velocity S-wave (km/s) = 3.88528 4.21575 4.05389
# Velocity P-wave (km/s) = 6.25099 6.77862 6.52014
#
# Compressibility (1/GPa) = 0.02015732
#
# Stress axis : x y z
#
# Youngs Moduli (GPa) = 95.10611 120.72800 82.76047
#
# Poissons Ratio (x) = 0.18507 0.09048
# Poissons Ratio (y) = 0.14580 0.22639
# Poissons Ratio (z) = 0.10398 0.33025
#
# Static dielectric constant tensor:
#      x y z
#    x 2.241190 0.223600 -0.108190 
#    y 0.223600 2.428680 -0.230040 
#    z -0.108190 -0.230040 2.364400 
# 
# From -- ./inp_files/159049.got.cif
#   From: 2010.05.17/outbox.cif.g08.bks.cpg/sg2_80_cif.got.tgz:159049.got - 2010.06.03 11:33:40.
