data_PCOD9068385
_publ_section_title
;
Structure prediction by ZEFSAII (Michael W. Deem and Ramdas Pophale) SiO2 
 PCOD9068385
Probable space group: P -1
;
_chemical_formula_sum "Si O2"
_cell_formula_units_Z 9
_cell_length_a 9.140627
_cell_length_b 9.672879
_cell_length_c 4.911249
_cell_angle_alpha 108.744978
_cell_angle_beta 62.030296
_cell_angle_gamma 117.137993
_cell_volume 338.089675
_symmetry_space_group_name_H-M "P -1"
_symmetry_group_IT_number 2
_symmetry_cell_setting 'triclinic'
loop_
_space_group_symop_operation_xyz
x,y,z
-x,-y,-z
loop_
_atom_site_type_symbol
_atom_site_label
_atom_site_fract_x
_atom_site_fract_y
_atom_site_fract_z
Si Si1 0.195545 0.332522 0.873009
Si Si2 0.810130 0.475561 0.519287
Si Si3 0.000000 0.000000 0.000000
Si Si4 0.630838 0.133846 0.654654
Si Si5 0.304919 0.115376 0.271825
O O1 0.170975 0.453290 0.751357
O O2 0.313098 0.251756 0.558965
O O3 0.268081 0.427358 0.145295
O O4 0.022027 0.177359 0.980116
O O5 0.707411 0.292165 0.523888
O O6 0.000000 0.500000 0.500000
O O7 0.164935 0.085845 0.131536
O O8 0.500000 0.000000 0.500000
O O9 0.761219 0.048277 0.599098
O O10 0.502628 0.152483 0.014305
#
# Coordination Sequence:
#
# PCOD9068385 Si02
#       5
#     2   2   1   2   2
#     4  12  27  48  80 111 156 208 270 323 386 479
#     4  12  29  50  77 119 159 206 267 333 393 468
#     4  12  24  50  78 120 152 212 264 316 404 470
#     4  11  28  50  80 116 166 207 262 327 408 466
#     4  11  26  49  80 115 156 218 260 322 395 485
#
# _framework density 26.620156000000001
#
# number of rings (size 3 to 8) (size 9 to 14) (size 15 to 20)
#    0.000    0.444    2.222    4.000   12.444    1.778 
#    0.000    0.000    0.000    0.000    0.000    0.000 
#    0.000    0.000    0.000    0.000    0.000    0.000 
#
# Total GULP energy -50251.222227 kJ/mol
# GULP energy per Si atom -5583.469136 kJ/mol
# Density = 2.655957 g / cm^3
# Si number density = 26.620156 Si / 1000 Ang^3
#
#
#
# Elastic Constant Matrix: (Units=GPa)
#
#
# Indices 1 2 3 4 5 6 
#
# 1 100.7524 38.6944 5.6018 -4.2186 24.3088 -14.0010
# 2 38.6944 259.8659 27.7409 -21.4201 14.1657 -25.9529
# 3 5.6018 27.7409 93.5085 11.9760 14.5506 -16.7222
# 4 -4.2186 -21.4201 11.9760 55.6803 -12.6839 14.7446
# 5 24.3088 14.1657 14.5506 -12.6839 41.9218 0.7522
# 6 -14.0010 -25.9529 -16.7222 14.7446 0.7522 39.9022
#
#
#
# Elastic Compliance Matrix: (Units=1/GPa)
#
#
# Indices 1 2 3 4 5 6 
#
# 1 0.013398 -0.001448 0.002840 -0.004106 -0.009627 0.006648
# 2 -0.001448 0.004441 -0.001240 0.001580 0.000225 0.001273
# 3 0.002840 -0.001240 0.015086 -0.008147 -0.009103 0.009694
# 4 -0.004106 0.001580 -0.008147 0.026654 0.012989 -0.013922
# 5 -0.009627 0.000225 -0.009103 0.012989 0.036675 -0.012538
# 6 0.006648 0.001273 0.009694 -0.013922 -0.012538 0.037665
#
#
# Mechanical properties :
#
#
# Convention : Reuss Voigt Hill
#
# Bulk Modulus (GPa) = 30.09514 66.46677 48.28096
# Shear Modulus (GPa) = 34.55607 52.97352 43.76479
#
# Velocity S-wave (km/s) = 3.60685 4.46576 4.05908
# Velocity P-wave (km/s) = 5.35497 7.18425 6.33598
#
# Compressibility (1/GPa) = 0.03322795
#
# Stress axis : x y z
#
# Youngs Moduli (GPa) = 74.63666 225.16249 66.28873
#
# Poissons Ratio (x) = 0.32600 -0.18825
# Poissons Ratio (y) = 0.10806 0.08223
# Poissons Ratio (z) = -0.21196 0.27931
#
# Static dielectric constant tensor:
#      x y z
#    x 2.486880 -0.332480 0.124350 
#    y -0.332480 2.213740 0.004050 
#    z 0.124350 0.004050 1.245200 
# 
# From -- ./inp_files/16873.got.cif
#   From: 2010.05.17/outbox.cif.g08.bks.cpg/sg2_9_cif.got.tgz:16873.got - 2010.06.03 11:33:40.
