data_PCOD9068628
_publ_section_title
;
Structure prediction by ZEFSAII (Michael W. Deem and Ramdas Pophale) SiO2 
 PCOD9068628
Probable space group: P -1
;
_chemical_formula_sum "Si O2"
_cell_formula_units_Z 15
_cell_length_a 9.718632
_cell_length_b 11.935280
_cell_length_c 10.960856
_cell_angle_alpha 118.719916
_cell_angle_beta 93.494459
_cell_angle_gamma 38.305204
_cell_volume 562.239704
_symmetry_space_group_name_H-M "P -1"
_symmetry_group_IT_number 2
_symmetry_cell_setting 'triclinic'
loop_
_space_group_symop_operation_xyz
x,y,z
-x,-y,-z
loop_
_atom_site_type_symbol
_atom_site_label
_atom_site_fract_x
_atom_site_fract_y
_atom_site_fract_z
Si Si1 0.781739 0.616654 0.295361
Si Si2 0.728525 0.619280 0.881706
Si Si3 0.629287 0.420962 0.768915
Si Si4 0.299015 0.546498 0.635532
Si Si5 0.000000 0.500000 0.500000
Si Si6 0.452316 0.973158 0.262171
Si Si7 0.387888 0.892529 0.760431
Si Si8 0.893201 0.097658 0.845003
O O1 0.770246 0.479213 0.260267
O O2 0.507850 0.874436 0.347075
O O3 0.030314 0.470621 0.153414
O O4 0.835053 0.648166 0.440872
O O5 0.807600 0.407476 0.762153
O O6 0.535964 0.799426 0.848217
O O7 0.569293 0.767938 0.075198
O O8 0.559555 0.419949 0.632216
O O9 0.762859 0.218010 0.766656
O O10 0.341818 0.696205 0.958458
O O11 0.836688 0.757075 0.671620
O O12 0.068741 0.829583 0.731861
O O13 0.399077 0.365923 0.442509
O O14 0.626939 0.962788 0.236870
O O15 0.111212 0.038466 0.837389
#
# Coordination Sequence:
#
# PCOD9068628 Si02
#       8
#     2   2   2   2   1   2   2   2
#     4  12  27  49  79 114 152 198 253 310 381 443
#     4  12  27  50  79 111 155 198 258 310 379 450
#     4  11  28  49  76 114 143 210 249 308 383 448
#     4  12  27  49  78 112 152 198 250 317 377 448
#     4  12  26  48  74 112 154 202 240 308 380 450
#     4  12  28  48  76 114 155 198 253 313 376 453
#     4  12  26  50  79 111 150 206 250 315 382 442
#     4  11  27  49  76 109 156 193 259 307 378 454
#
# _framework density 26.679013999999999
#
# number of rings (size 3 to 8) (size 9 to 14) (size 15 to 20)
#    0.000    0.267    4.000    2.800    7.467    0.533 
#    2.400    0.000    0.000    0.000    0.000    0.000 
#    0.000    0.000    0.000    0.000    0.000    0.000 
#
# Total GULP energy -83874.279859 kJ/mol
# GULP energy per Si atom -5591.618657 kJ/mol
# Density = 2.661829 g / cm^3
# Si number density = 26.679014 Si / 1000 Ang^3
#
#
#
# Elastic Constant Matrix: (Units=GPa)
#
#
# Indices 1 2 3 4 5 6 
#
# 1 116.3311 37.5695 11.3662 13.0299 -7.2391 23.5674
# 2 37.5695 188.3815 35.7608 -13.3871 16.3943 23.8144
# 3 11.3662 35.7608 53.7681 -5.1508 1.6412 -0.9324
# 4 13.0299 -13.3871 -5.1508 34.6355 -7.8302 -9.4842
# 5 -7.2391 16.3943 1.6412 -7.8302 43.1824 3.0045
# 6 23.5674 23.8144 -0.9324 -9.4842 3.0045 40.8601
#
#
#
# Elastic Compliance Matrix: (Units=1/GPa)
#
#
# Indices 1 2 3 4 5 6 
#
# 1 0.011820 -0.001619 -0.002294 -0.007089 0.001935 -0.007714
# 2 -0.001619 0.007090 -0.004213 0.001427 -0.002350 -0.002790
# 3 -0.002294 -0.004213 0.022350 0.004153 0.000757 0.005197
# 4 -0.007089 0.001427 0.004153 0.036782 0.003975 0.011597
# 5 0.001935 -0.002350 0.000757 0.003975 0.025111 -0.000653
# 6 -0.007714 -0.002790 0.005197 0.011597 -0.000653 0.033408
#
#
# Mechanical properties :
#
#
# Convention : Reuss Voigt Hill
#
# Bulk Modulus (GPa) = 39.98630 58.65263 49.31947
# Shear Modulus (GPa) = 31.02712 41.98790 36.50751
#
# Velocity S-wave (km/s) = 3.41395 3.97144 3.70320
# Velocity P-wave (km/s) = 5.52816 6.56217 6.06723
#
# Compressibility (1/GPa) = 0.02500857
#
# Stress axis : x y z
#
# Youngs Moduli (GPa) = 84.60053 141.05023 44.74242
#
# Poissons Ratio (x) = 0.22833 0.10264
# Poissons Ratio (y) = 0.13695 0.18850
# Poissons Ratio (z) = 0.19407 0.59425
#
# Static dielectric constant tensor:
#      x y z
#    x 2.408370 -0.199110 -0.170270 
#    y -0.199110 2.071160 -0.037580 
#    z -0.170270 -0.037580 0.555880 
# 
# From -- ./inp_files/390403.got.cif
#   From: 2010.05.17/outbox.cif.g08.bks.cpg/sg2_196_cif.got.tgz:390403.got - 2010.06.03 11:33:40.
