data_PCOD9068029
_publ_section_title
;
Structure prediction by ZEFSAII (Michael W. Deem and Ramdas Pophale) SiO2 
 PCOD9068029
Probable space group: P -1
;
_chemical_formula_sum "Si O2"
_cell_formula_units_Z 10
_cell_length_a 12.311621
_cell_length_b 7.915980
_cell_length_c 8.328970
_cell_angle_alpha 34.809245
_cell_angle_beta 60.376538
_cell_angle_gamma 75.216337
_cell_volume 383.788304
_symmetry_space_group_name_H-M "P -1"
_symmetry_group_IT_number 2
_symmetry_cell_setting 'triclinic'
loop_
_space_group_symop_operation_xyz
x,y,z
-x,-y,-z
loop_
_atom_site_type_symbol
_atom_site_label
_atom_site_fract_x
_atom_site_fract_y
_atom_site_fract_z
Si Si1 0.022052 0.258070 0.424015
Si Si2 0.385939 0.385468 0.802605
Si Si3 0.861655 0.733770 0.146165
Si Si4 0.550276 0.949307 0.700394
Si Si5 0.284803 0.444754 0.270244
O O1 0.172655 0.411856 0.244187
O O2 0.951629 0.510525 0.231890
O O3 0.000000 0.000000 0.500000
O O4 0.951706 0.082251 0.773769
O O5 0.500000 0.500000 0.500000
O O6 0.249052 0.321581 0.865569
O O7 0.414292 0.693327 0.649660
O O8 0.397977 0.099307 0.121332
O O9 0.788243 0.661668 0.425027
O O10 0.630962 0.782010 0.662308
O O11 0.394910 0.776902 0.952406
#
# Coordination Sequence:
#
# PCOD9068029 Si02
#       5
#     2   2   2   2   2
#     4  12  27  48  72 100 143 186 233 288 348 419
#     4  12  24  46  71 103 141 184 236 280 349 413
#     4  12  26  44  75 103 139 184 234 288 344 418
#     4  11  27  45  73 104 145 186 227 292 344 420
#     4  11  26  47  71 108 143 182 237 285 353 407
#
# _framework density 26.056032999999999
#
# number of rings (size 3 to 8) (size 9 to 14) (size 15 to 20)
#    0.000    0.400    2.000    6.000    2.800    8.000 
#    0.000    0.000    0.000    0.000    0.000    0.000 
#    0.000    0.000    0.000    0.000    0.000    0.000 
#
# Total GULP energy -56181.224832 kJ/mol
# GULP energy per Si atom -5618.122483 kJ/mol
# Density = 2.599673 g / cm^3
# Si number density = 26.056033 Si / 1000 Ang^3
#
#
#
# Elastic Constant Matrix: (Units=GPa)
#
#
# Indices 1 2 3 4 5 6 
#
# 1 252.4454 38.7048 50.6137 6.4970 -13.0003 -3.5791
# 2 38.7048 62.1126 24.8468 14.4830 1.0212 -2.4529
# 3 50.6137 24.8468 103.9695 12.7925 -6.4401 -18.1929
# 4 6.4970 14.4830 12.7925 45.5700 -1.4296 8.0914
# 5 -13.0003 1.0212 -6.4401 -1.4296 60.5815 2.3612
# 6 -3.5791 -2.4529 -18.1929 8.0914 2.3612 34.5920
#
#
#
# Elastic Compliance Matrix: (Units=1/GPa)
#
#
# Indices 1 2 3 4 5 6 
#
# 1 0.004733 -0.002422 -0.001941 0.000839 0.000907 -0.000961
# 2 -0.002422 0.020086 -0.002848 -0.005466 -0.001331 0.001045
# 3 -0.001941 -0.002848 0.013017 -0.003744 0.000643 0.007275
# 4 0.000839 -0.005466 -0.003744 0.026137 0.000820 -0.008440
# 5 0.000907 -0.001331 0.000643 0.000820 0.016851 -0.001004
# 6 -0.000961 0.001045 0.007275 -0.008440 -0.001004 0.034752
#
#
# Mechanical properties :
#
#
# Convention : Reuss Voigt Hill
#
# Bulk Modulus (GPa) = 42.70697 71.87312 57.29005
# Shear Modulus (GPa) = 36.28402 48.43952 42.36177
#
# Velocity S-wave (km/s) = 3.73572 4.31635 4.03649
# Velocity P-wave (km/s) = 5.91891 7.24466 6.61508
#
# Compressibility (1/GPa) = 0.02341538
#
# Stress axis : x y z
#
# Youngs Moduli (GPa) = 211.27770 49.78625 76.82209
#
# Poissons Ratio (x) = 0.12056 0.14907
# Poissons Ratio (y) = 0.51161 0.21881
# Poissons Ratio (z) = 0.40998 0.14181
#
# Static dielectric constant tensor:
#      x y z
#    x 2.049890 0.076970 0.004170 
#    y 0.076970 2.104300 0.033420 
#    z 0.004170 0.033420 1.977960 
# 
# From -- ./inp_files/18659.got.cif
#   From: 2010.05.17/outbox.cif.g08.bks.cpg/sg2_10_cif.got.tgz:18659.got - 2010.06.03 11:33:40.
