data_PCOD9068934
_publ_section_title
;
Structure prediction by ZEFSAII (Michael W. Deem and Ramdas Pophale) SiO2 
 PCOD9068934
Probable space group: P -1
;
_chemical_formula_sum "Si O2"
_cell_formula_units_Z 15
_cell_length_a 12.711824
_cell_length_b 8.791242
_cell_length_c 7.955174
_cell_angle_alpha 67.459085
_cell_angle_beta 102.670696
_cell_angle_gamma 136.233147
_cell_volume 565.669781
_symmetry_space_group_name_H-M "P -1"
_symmetry_group_IT_number 2
_symmetry_cell_setting 'triclinic'
loop_
_space_group_symop_operation_xyz
x,y,z
-x,-y,-z
loop_
_atom_site_type_symbol
_atom_site_label
_atom_site_fract_x
_atom_site_fract_y
_atom_site_fract_z
Si Si1 0.352985 0.421180 0.396076
Si Si2 0.914458 0.656527 0.656182
Si Si3 0.561521 0.703376 0.802760
Si Si4 0.049387 0.226379 0.000330
Si Si5 0.222217 0.841083 0.096508
Si Si6 0.564213 0.949017 0.185069
Si Si7 0.000000 0.500000 0.500000
Si Si8 0.697491 0.340790 0.308269
O O1 0.500000 0.500000 0.500000
O O2 0.196121 0.318319 0.464665
O O3 0.325790 0.269069 0.295530
O O4 0.439054 0.675905 0.257203
O O5 0.967850 0.786615 0.799666
O O6 0.815511 0.389255 0.794400
O O7 0.033190 0.695915 0.556795
O O8 0.422554 0.647658 0.683353
O O9 0.652571 0.940975 0.834449
O O10 0.500000 0.500000 0.000000
O O11 0.213197 0.467495 0.892958
O O12 0.935290 0.240685 0.878559
O O13 0.000000 0.000000 0.000000
O O14 0.275519 0.936730 0.885992
O O15 0.598897 0.084082 0.308183
O O16 0.500000 0.000000 0.000000
O O17 0.828984 0.402246 0.442577
#
# Coordination Sequence:
#
# PCOD9068934 Si02
#       8
#     2   2   2   2   2   2   1   2
#     4  12  26  44  69 109 152 186 236 315 382 431
#     4  12  24  49  71 102 147 198 251 300 363 455
#     4  12  23  42  73 107 142 183 245 313 370 430
#     4  12  25  44  74 109 144 186 251 317 364 428
#     4  12  22  41  75 105 132 186 255 304 357 426
#     4  12  21  43  76 107 133 190 256 312 358 432
#     4  12  28  46  70 100 154 200 238 292 372 450
#     4  12  24  46  71 107 146 196 246 298 371 458
#
# _framework density 26.517236
#
# number of rings (size 3 to 8) (size 9 to 14) (size 15 to 20)
#    0.000    0.000    6.667    4.400    0.000    1.067 
#    2.400    3.333    0.000    0.000    0.000    0.000 
#    0.000    0.000    0.000    0.000    0.000    0.000 
#
# Total GULP energy -83689.653344 kJ/mol
# GULP energy per Si atom -5579.310223 kJ/mol
# Density = 2.645688 g / cm^3
# Si number density = 26.517236 Si / 1000 Ang^3
#
#
#
# Elastic Constant Matrix: (Units=GPa)
#
#
# Indices 1 2 3 4 5 6 
#
# 1 229.4329 30.6466 29.4288 9.0660 13.3400 -24.6654
# 2 30.6466 107.9570 35.7448 13.9473 6.2093 -29.0573
# 3 29.4288 35.7448 52.7398 18.0553 12.4842 -7.9590
# 4 9.0660 13.9473 18.0553 44.7560 5.7950 -9.4984
# 5 13.3400 6.2093 12.4842 5.7950 54.1785 10.0348
# 6 -24.6654 -29.0573 -7.9590 -9.4984 10.0348 44.8879
#
#
#
# Elastic Compliance Matrix: (Units=1/GPa)
#
#
# Indices 1 2 3 4 5 6 
#
# 1 0.005000 0.000113 -0.002363 0.000675 -0.001297 0.002834
# 2 0.000113 0.014205 -0.008430 0.000874 -0.001334 0.008246
# 3 -0.002363 -0.008430 0.029553 -0.008855 -0.003846 -0.002529
# 4 0.000675 0.000874 -0.008855 0.026961 -0.002137 0.005549
# 5 -0.001297 -0.001334 -0.003846 -0.002137 0.021434 -0.007502
# 6 0.002834 0.008246 -0.002529 0.005549 -0.007502 0.031576
#
#
# Mechanical properties :
#
#
# Convention : Reuss Voigt Hill
#
# Bulk Modulus (GPa) = 36.49690 64.64111 50.56900
# Shear Modulus (GPa) = 31.40257 48.38511 39.89384
#
# Velocity S-wave (km/s) = 3.44500 4.27625 3.88293
# Velocity P-wave (km/s) = 5.44219 6.98653 6.26215
#
# Compressibility (1/GPa) = 0.02739959
#
# Stress axis : x y z
#
# Youngs Moduli (GPa) = 200.00005 70.39620 33.83704
#
# Poissons Ratio (x) = -0.00798 0.07996
# Poissons Ratio (y) = -0.02268 0.28524
# Poissons Ratio (z) = 0.47262 0.59343
#
# Static dielectric constant tensor:
#      x y z
#    x 2.213630 0.110010 -0.138100 
#    y 0.110010 2.052900 -0.039480 
#    z -0.138100 -0.039480 2.473400 
# 
# From -- ./inp_files/237924.got.cif
#   From: 2010.05.17/outbox.cif.g08.bks.cpg/sg2_119_cif.got.tgz:237924.got - 2010.06.03 11:33:40.
