data_PCOD9068383
_publ_section_title
;
Structure prediction by ZEFSAII (Michael W. Deem and Ramdas Pophale) SiO2 
 PCOD9068383
Probable space group: P -1
;
_chemical_formula_sum "Si O2"
_cell_formula_units_Z 12
_cell_length_a 22.586001
_cell_length_b 12.601120
_cell_length_c 8.153244
_cell_angle_alpha 31.985571
_cell_angle_beta 144.836196
_cell_angle_gamma 158.283350
_cell_volume 449.624582
_symmetry_space_group_name_H-M "P -1"
_symmetry_group_IT_number 2
_symmetry_cell_setting 'triclinic'
loop_
_space_group_symop_operation_xyz
x,y,z
-x,-y,-z
loop_
_atom_site_type_symbol
_atom_site_label
_atom_site_fract_x
_atom_site_fract_y
_atom_site_fract_z
Si Si1 0.620824 0.437007 0.654637
Si Si2 0.173639 0.129746 0.159116
Si Si3 0.399919 0.938181 0.578112
Si Si4 0.972939 0.515254 0.725148
Si Si5 0.520624 0.362036 0.006114
Si Si6 0.945874 0.794714 0.802402
O O1 0.711680 0.559824 0.873402
O O2 0.599998 0.645163 0.313948
O O3 0.754451 0.535232 0.714768
O O4 0.451129 0.079685 0.692016
O O5 0.304913 0.284072 0.109674
O O6 0.099942 0.846442 0.479295
O O7 0.026870 0.992196 0.896342
O O8 0.208656 0.669410 0.460536
O O9 0.485917 0.865349 0.800323
O O10 0.481489 0.242566 0.258680
O O11 0.000000 0.500000 0.000000
O O12 0.995116 0.340478 0.910094
O O13 0.000000 0.000000 0.500000
#
# Coordination Sequence:
#
# PCOD9068383 Si02
#       6
#     2   2   2   2   2   2
#     4  12  27  47  79 115 161 207 265 328 404 471
#     4  12  28  52  78 119 161 212 270 333 396 485
#     4  11  27  50  80 115 159 215 271 327 400 476
#     4  12  29  52  83 119 162 212 271 331 402 477
#     4  11  26  49  80 112 163 210 271 324 400 474
#     4  12  27  49  84 117 160 211 271 334 403 474
#
# _framework density 26.688932000000001
#
# number of rings (size 3 to 8) (size 9 to 14) (size 15 to 20)
#    0.000    0.333    0.000    7.000   14.000    0.667 
#    0.000    0.000    0.000    0.000    0.000    0.000 
#    0.000    0.000    0.000    0.000    0.000    0.000 
#
# Total GULP energy -67109.140253 kJ/mol
# GULP energy per Si atom -5592.428354 kJ/mol
# Density = 2.662819 g / cm^3
# Si number density = 26.688932 Si / 1000 Ang^3
#
#
#
# Elastic Constant Matrix: (Units=GPa)
#
#
# Indices 1 2 3 4 5 6 
#
# 1 44.3836 54.2779 63.6708 -13.2178 28.4821 12.6680
# 2 54.2779 160.7806 53.5388 18.4672 -21.9118 -23.7214
# 3 63.6708 53.5388 156.8840 20.6267 -9.4988 -22.1279
# 4 -13.2178 18.4672 20.6267 53.6387 16.2606 -2.6516
# 5 28.4821 -21.9118 -9.4988 16.2606 66.6438 -22.5133
# 6 12.6680 -23.7214 -22.1279 -2.6516 -22.5133 37.7383
#
#
#
# Elastic Compliance Matrix: (Units=1/GPa)
#
#
# Indices 1 2 3 4 5 6 
#
# 1 -0.006661 0.005668 0.004886 -0.008577 0.012803 0.015699
# 2 0.005668 0.004608 -0.004977 0.002612 -0.003559 -0.003863
# 3 0.004886 -0.004977 0.004735 0.002469 -0.005343 -0.005006
# 4 -0.008577 0.002612 0.002469 0.013695 0.004854 0.009827
# 5 0.012803 -0.003559 -0.005343 0.004854 0.004091 -0.006886
# 6 0.015699 -0.003863 -0.005006 0.009827 -0.006886 0.012447
#
#
# Mechanical properties :
#
#
# Convention : Reuss Voigt Hill
#
# Bulk Modulus (GPa) = 72.26858 78.33593 75.30226
# Shear Modulus (GPa) = 189.58159 44.30819 116.94489
#
# Velocity S-wave (km/s) = 8.43730 4.07894 6.62668
# Velocity P-wave (km/s) = 11.04782 7.18323 9.31808
#
# Compressibility (1/GPa) = 0.01383727
#
# Stress axis : x y z
#
# Youngs Moduli (GPa) = -150.12239 216.99080 211.18464
#
# Poissons Ratio (x) = -1.22987 -1.03192
# Poissons Ratio (y) = 0.85087 1.05101
# Poissons Ratio (z) = 0.73355 1.07991
#
# Static dielectric constant tensor:
#      x y z
#    x 2.209610 -0.002350 -0.071870 
#    y -0.002350 2.109870 -0.070700 
#    z -0.071870 -0.070700 2.184850 
# 
# From -- ./inp_files/357311.got.cif
#   From: 2010.05.17/outbox.cif.g08.bks.cpg/sg2_179_cif.got.tgz:357311.got - 2010.06.03 11:33:40.
