data_PCOD9068769
_publ_section_title
;
Structure prediction by ZEFSAII (Michael W. Deem and Ramdas Pophale) SiO2 
 PCOD9068769
Probable space group: P -1
;
_chemical_formula_sum "Si O2"
_cell_formula_units_Z 14
_cell_length_a 9.456005
_cell_length_b 10.591658
_cell_length_c 9.388243
_cell_angle_alpha 121.772185
_cell_angle_beta 70.408584
_cell_angle_gamma 132.813986
_cell_volume 586.009823
_symmetry_space_group_name_H-M "P -1"
_symmetry_group_IT_number 2
_symmetry_cell_setting 'triclinic'
loop_
_space_group_symop_operation_xyz
x,y,z
-x,-y,-z
loop_
_atom_site_type_symbol
_atom_site_label
_atom_site_fract_x
_atom_site_fract_y
_atom_site_fract_z
Si Si1 0.805450 0.394822 0.090488
Si Si2 0.114351 0.797325 0.480696
Si Si3 0.801711 0.295223 0.332814
Si Si4 0.484902 0.401044 0.092207
Si Si5 0.167974 0.000920 0.838054
Si Si6 0.646211 0.017544 0.769355
Si Si7 0.794887 0.798296 0.705879
O O1 0.681743 0.168563 0.964061
O O2 0.844844 0.430297 0.267029
O O3 0.684877 0.460086 0.114306
O O4 0.000000 0.500000 0.000000
O O5 0.142243 0.669357 0.497134
O O6 0.208546 0.848478 0.327220
O O7 0.909078 0.756301 0.539398
O O8 0.240034 0.994791 0.651558
O O9 0.899310 0.199228 0.196850
O O10 0.571543 0.126748 0.299256
O O11 0.363037 0.389671 0.259592
O O12 0.500000 0.500000 0.000000
O O13 0.344424 0.178556 0.964796
O O14 0.972915 0.967062 0.846046
O O15 0.700097 0.885066 0.723664
#
# Coordination Sequence:
#
# PCOD9068769 Si02
#       7
#     2   2   2   2   2   2   2
#     4  12  26  36  57  90 118 151 193 241 286 333
#     4   8  21  34  65  87 112 147 192 238 290 337
#     4   9  19  38  60  85 113 144 198 238 283 330
#     4  12  23  37  58  85 121 156 187 237 292 339
#     4   8  20  37  58  86 112 147 194 230 287 333
#     4  12  18  39  64  86 114 147 198 239 285 336
#     4   9  21  35  62  86 116 146 197 232 286 336
#
# _framework density 23.890385999999999
#
# number of rings (size 3 to 8) (size 9 to 14) (size 15 to 20)
#    1.714    0.000    2.857    2.571    6.000    0.000 
#    0.000    0.714    3.143    1.714    0.000    0.000 
#    0.000    0.000    0.000    0.000    0.000    0.000 
#
# Total GULP energy -78006.012606 kJ/mol
# GULP energy per Si atom -5571.858043 kJ/mol
# Density = 2.383601 g / cm^3
# Si number density = 23.890386 Si / 1000 Ang^3
#
#
#
# Elastic Constant Matrix: (Units=GPa)
#
#
# Indices 1 2 3 4 5 6 
#
# 1 146.5964 17.6190 49.1297 -14.8189 34.8161 4.3523
# 2 17.6190 54.0696 25.8271 -33.4336 4.3347 -2.3139
# 3 49.1297 25.8271 100.4384 -23.5285 18.0066 -1.5967
# 4 -14.8189 -33.4336 -23.5285 45.5298 -4.4925 1.5298
# 5 34.8161 4.3347 18.0066 -4.4925 37.2636 -7.6763
# 6 4.3523 -2.3139 -1.5967 1.5298 -7.6763 35.7332
#
#
#
# Elastic Compliance Matrix: (Units=1/GPa)
#
#
# Indices 1 2 3 4 5 6 
#
# 1 0.010146 -0.001232 -0.003171 0.000033 -0.008475 -0.003279
# 2 -0.001232 0.035066 -0.003121 0.023858 0.001796 0.001646
# 3 -0.003171 -0.003121 0.013624 0.003435 -0.002836 0.000037
# 4 0.000033 0.023858 0.003435 0.041319 0.000523 0.000038
# 5 -0.008475 0.001796 -0.002836 0.000523 0.037860 0.009133
# 6 -0.003279 0.001646 0.000037 0.000038 0.009133 0.030453
#
#
# Mechanical properties :
#
#
# Convention : Reuss Voigt Hill
#
# Bulk Modulus (GPa) = 22.83796 54.02845 38.43320
# Shear Modulus (GPa) = 25.23825 37.60723 31.42274
#
# Velocity S-wave (km/s) = 3.25379 3.97187 3.63062
# Velocity P-wave (km/s) = 4.86789 6.61049 5.80495
#
# Compressibility (1/GPa) = 0.04378675
#
# Stress axis : x y z
#
# Youngs Moduli (GPa) = 98.56316 28.51790 73.40102
#
# Poissons Ratio (x) = 0.03514 0.23276
# Poissons Ratio (y) = 0.12144 0.22910
# Poissons Ratio (z) = 0.31255 0.08901
#
# Static dielectric constant tensor:
#      x y z
#    x 1.891510 -0.057930 -0.034260 
#    y -0.057930 2.036290 0.038710 
#    z -0.034260 0.038710 2.099440 
# 
# From -- ./inp_files/187683.got.cif
#   From: 2010.05.17/outbox.cif.g08.bks.cpg/sg2_94_cif.got.tgz:187683.got - 2010.06.03 11:33:40.
