data_PCOD9068471
_publ_section_title
;
Structure prediction by ZEFSAII (Michael W. Deem and Ramdas Pophale) SiO2 
 PCOD9068471
Probable space group: P -1
;
_chemical_formula_sum "Si O2"
_cell_formula_units_Z 16
_cell_length_a 15.191002
_cell_length_b 8.589989
_cell_length_c 14.654194
_cell_angle_alpha 80.671179
_cell_angle_beta 26.645178
_cell_angle_gamma 96.696273
_cell_volume 682.690066
_symmetry_space_group_name_H-M "P -1"
_symmetry_group_IT_number 2
_symmetry_cell_setting 'triclinic'
loop_
_space_group_symop_operation_xyz
x,y,z
-x,-y,-z
loop_
_atom_site_type_symbol
_atom_site_label
_atom_site_fract_x
_atom_site_fract_y
_atom_site_fract_z
Si Si1 0.744631 0.210672 0.231902
Si Si2 0.760078 0.967761 0.684175
Si Si3 0.269206 0.681414 0.266804
Si Si4 0.212158 0.157306 0.522806
Si Si5 0.240297 0.546176 0.970223
Si Si6 0.922178 0.829921 0.964332
Si Si7 0.583161 0.393698 0.497212
Si Si8 0.845575 0.538285 0.432795
O O1 0.747231 0.299009 0.125245
O O2 0.743352 0.349317 0.295404
O O3 0.964253 0.196123 0.048952
O O4 0.500000 0.000000 0.500000
O O5 0.791956 0.961002 0.547124
O O6 0.750978 0.144282 0.706256
O O7 0.501187 0.771224 0.976283
O O8 0.000000 0.000000 0.500000
O O9 0.320434 0.609746 0.319401
O O10 0.000000 0.500000 0.500000
O O11 0.487692 0.347082 0.258002
O O12 0.058774 0.245158 0.644949
O O13 0.120475 0.027705 0.710574
O O14 0.152582 0.350004 0.016150
O O15 0.057379 0.512215 0.221494
O O16 0.676100 0.805699 0.216358
O O17 0.500000 0.500000 0.500000
O O18 0.716860 0.497452 0.457444
#
# Coordination Sequence:
#
# PCOD9068471 Si02
#       8
#     2   2   2   2   2   2   2   2
#     4  12  25  43  67  99 139 191 237 296 354 409
#     4  11  27  48  78 108 149 183 235 298 362 437
#     4  11  26  51  75 110 145 189 237 295 365 431
#     4  12  27  44  69 110 134 185 238 285 353 427
#     4  12  24  47  67 100 143 187 239 293 353 414
#     4  12  25  43  69  95 142 182 237 293 347 416
#     4  12  25  45  68 101 141 189 239 289 351 416
#     4  12  26  44  75 101 141 189 233 292 353 422
#
# _framework density 23.436696999999999
#
# number of rings (size 3 to 8) (size 9 to 14) (size 15 to 20)
#    0.000    0.250    5.000    3.375    3.500    4.500 
#    0.000    0.000    0.000    0.000    0.000    0.000 
#    0.000    0.000    0.000    0.000    0.000    0.000 
#
# Total GULP energy -89600.230586 kJ/mol
# GULP energy per Si atom -5600.014412 kJ/mol
# Density = 2.338335 g / cm^3
# Si number density = 23.436697 Si / 1000 Ang^3
#
#
#
# Elastic Constant Matrix: (Units=GPa)
#
#
# Indices 1 2 3 4 5 6 
#
# 1 70.5082 9.3876 18.0303 0.5183 8.8997 -3.5333
# 2 9.3876 64.1139 16.1257 1.3475 0.4441 -0.8490
# 3 18.0303 16.1257 107.8915 6.7140 -1.9801 -1.5044
# 4 0.5183 1.3475 6.7140 41.3032 -0.2501 2.9362
# 5 8.8997 0.4441 -1.9801 -0.2501 44.3332 -3.0542
# 6 -3.5333 -0.8490 -1.5044 2.9362 -3.0542 31.6433
#
#
#
# Elastic Compliance Matrix: (Units=1/GPa)
#
#
# Indices 1 2 3 4 5 6 
#
# 1 0.015465 -0.001628 -0.002389 0.000139 -0.003107 0.001257
# 2 -0.001628 0.016385 -0.002162 -0.000175 0.000077 0.000179
# 3 -0.002389 -0.002162 0.010112 -0.001565 0.000971 0.000395
# 4 0.000139 -0.000175 -0.001565 0.024637 -0.000120 -0.002361
# 5 -0.003107 0.000077 0.000971 -0.000120 0.023358 0.001967
# 6 0.001257 0.000179 0.000395 -0.002361 0.001967 0.032175
#
#
# Mechanical properties :
#
#
# Convention : Reuss Voigt Hill
#
# Bulk Modulus (GPa) = 33.78091 36.62228 35.20159
# Shear Modulus (GPa) = 34.63631 36.72061 35.67846
#
# Velocity S-wave (km/s) = 3.84847 3.96258 3.90594
# Velocity P-wave (km/s) = 5.84745 6.04946 5.94931
#
# Compressibility (1/GPa) = 0.02960252
#
# Stress axis : x y z
#
# Youngs Moduli (GPa) = 64.66356 61.03167 98.89506
#
# Poissons Ratio (x) = 0.09937 0.23628
# Poissons Ratio (y) = 0.10528 0.21381
# Poissons Ratio (z) = 0.15449 0.13195
#
# Static dielectric constant tensor:
#      x y z
#    x 1.869780 0.016210 -0.027420 
#    y 0.016210 1.879110 -0.001530 
#    z -0.027420 -0.001530 1.905160 
# 
# From -- ./inp_files/315646.got.cif
#   From: 2010.05.17/outbox.cif.g08.bks.cpg/sg2_158_cif.got.tgz:315646.got - 2010.06.03 11:33:40.
