data_PCOD9068735
_publ_section_title
;
Structure prediction by ZEFSAII (Michael W. Deem and Ramdas Pophale) SiO2 
 PCOD9068735
Probable space group: P -1
;
_chemical_formula_sum "Si O2"
_cell_formula_units_Z 10
_cell_length_a 15.177684
_cell_length_b 14.746415
_cell_length_c 5.782323
_cell_angle_alpha 112.351262
_cell_angle_beta 111.746368
_cell_angle_gamma 19.271355
_cell_volume 394.761780
_symmetry_space_group_name_H-M "P -1"
_symmetry_group_IT_number 2
_symmetry_cell_setting 'triclinic'
loop_
_space_group_symop_operation_xyz
x,y,z
-x,-y,-z
loop_
_atom_site_type_symbol
_atom_site_label
_atom_site_fract_x
_atom_site_fract_y
_atom_site_fract_z
Si Si1 0.839624 0.886165 0.110697
Si Si2 0.254132 0.746654 0.327446
Si Si3 0.500842 0.657452 0.123343
Si Si4 0.333368 0.365435 0.366055
Si Si5 0.243752 0.244155 0.324200
O O1 0.137707 0.607641 0.229462
O O2 0.641565 0.075257 0.318980
O O3 0.797414 0.821069 0.891399
O O4 0.708297 0.093331 0.017194
O O5 0.500000 0.500000 0.500000
O O6 0.323388 0.771431 0.252727
O O7 0.296211 0.614805 0.064965
O O8 0.000000 0.000000 0.500000
O O9 0.676956 0.572073 0.335232
O O10 0.260511 0.321303 0.246863
O O11 0.000000 0.500000 0.500000
O O12 0.500000 0.000000 0.500000
#
# Coordination Sequence:
#
# PCOD9068735 Si02
#       5
#     2   2   2   2   2
#     4  12  27  47  77 114 157 207 259 309 381 455
#     4  11  28  55  81 112 155 199 256 327 405 462
#     4  11  28  51  82 116 156 201 262 329 382 470
#     4  12  27  47  77 114 157 207 259 309 381 455
#     4  12  24  48  74 109 163 208 247 314 375 443
#
# _framework density 25.331734999999998
#
# number of rings (size 3 to 8) (size 9 to 14) (size 15 to 20)
#    0.000    0.400    2.000    4.800    0.000   12.800 
#    0.000    3.000    0.000    0.000    0.000    0.000 
#    0.000    0.000    0.000    0.000    0.000    0.000 
#
# Total GULP energy -56079.970697 kJ/mol
# GULP energy per Si atom -5607.997070 kJ/mol
# Density = 2.527408 g / cm^3
# Si number density = 25.331735 Si / 1000 Ang^3
#
#
#
# Elastic Constant Matrix: (Units=GPa)
#
#
# Indices 1 2 3 4 5 6 
#
# 1 116.9117 18.1004 0.9461 30.0099 -13.4299 13.8919
# 2 18.1004 148.1937 32.0107 14.8624 6.6181 -11.5475
# 3 0.9461 32.0107 100.9649 33.2862 29.3603 2.2895
# 4 30.0099 14.8624 33.2862 56.4677 6.7564 -4.6879
# 5 -13.4299 6.6181 29.3603 6.7564 54.4269 1.8776
# 6 13.8919 -11.5475 2.2895 -4.6879 1.8776 40.8915
#
#
#
# Elastic Compliance Matrix: (Units=1/GPa)
#
#
# Indices 1 2 3 4 5 6 
#
# 1 0.011922 -0.001734 0.002341 -0.008106 0.003094 -0.005742
# 2 -0.001734 0.007710 -0.002717 0.000756 -0.000097 0.003010
# 3 0.002341 -0.002717 0.015719 -0.009308 -0.006305 -0.003220
# 4 -0.008106 0.000756 -0.009308 0.027956 -0.000774 0.006729
# 5 0.003094 -0.000097 -0.006305 -0.000774 0.022710 -0.001857
# 6 -0.005742 0.003010 -0.003220 0.006729 -0.001857 0.028293
#
#
# Mechanical properties :
#
#
# Convention : Reuss Voigt Hill
#
# Bulk Modulus (GPa) = 32.12403 52.02051 42.07227
# Shear Modulus (GPa) = 38.78769 51.35811 45.07290
#
# Velocity S-wave (km/s) = 3.91729 4.50757 4.22276
# Velocity P-wave (km/s) = 5.75926 6.90444 6.35768
#
# Compressibility (1/GPa) = 0.03112935
#
# Stress axis : x y z
#
# Youngs Moduli (GPa) = 83.88171 129.70548 63.61665
#
# Poissons Ratio (x) = 0.22497 -0.14893
# Poissons Ratio (y) = 0.14549 0.17286
# Poissons Ratio (z) = -0.19638 0.35244
#
# Static dielectric constant tensor:
#      x y z
#    x 2.184160 -0.008760 0.120750 
#    y -0.008760 1.913950 0.006430 
#    z 0.120750 0.006430 2.271200 
# 
# From -- ./inp_files/3546.got.cif
#   From: 2010.05.17/outbox.cif.g08.bks.cpg/sg2_2_cif.got.tgz:3546.got - 2010.06.03 11:33:40.
