data_PCOD9068017
_publ_section_title
;
Structure prediction by ZEFSAII (Michael W. Deem and Ramdas Pophale) SiO2 
 PCOD9068017
Probable space group: P -1
;
_chemical_formula_sum "Si O2"
_cell_formula_units_Z 16
_cell_length_a 9.527035
_cell_length_b 11.924861
_cell_length_c 16.086950
_cell_angle_alpha 70.202350
_cell_angle_beta 34.256598
_cell_angle_gamma 51.751741
_cell_volume 743.506515
_symmetry_space_group_name_H-M "P -1"
_symmetry_group_IT_number 2
_symmetry_cell_setting 'triclinic'
loop_
_space_group_symop_operation_xyz
x,y,z
-x,-y,-z
loop_
_atom_site_type_symbol
_atom_site_label
_atom_site_fract_x
_atom_site_fract_y
_atom_site_fract_z
Si Si1 0.965081 0.055154 0.597793
Si Si2 0.068717 0.557136 0.871396
Si Si3 0.680910 0.570971 0.901658
Si Si4 0.833613 0.064299 0.976185
Si Si5 0.963872 0.568263 0.396002
Si Si6 0.623049 0.895756 0.047884
Si Si7 0.206773 0.628255 0.399941
Si Si8 0.346367 0.916117 0.608865
O O1 0.615990 0.127724 0.789143
O O2 0.993947 0.189079 0.548893
O O3 0.000000 0.000000 0.500000
O O4 0.198871 0.931374 0.586085
O O5 0.456575 0.446573 0.699856
O O6 0.845642 0.568452 0.905908
O O7 0.000000 0.500000 0.000000
O O8 0.947288 0.727836 0.906308
O O9 0.979150 0.460325 0.721356
O O10 0.500000 0.500000 0.000000
O O11 0.424840 0.749653 0.951581
O O12 0.081698 0.000126 0.791887
O O13 0.660392 0.990560 0.069640
O O14 0.000000 0.000000 0.000000
O O15 0.970132 0.430987 0.458928
O O16 0.624393 0.736006 0.539026
O O17 0.237199 0.568542 0.305556
O O18 0.500000 0.000000 0.000000
O O19 0.500000 0.000000 0.500000
#
# Coordination Sequence:
#
# PCOD9068017 Si02
#       8
#     2   2   2   2   2   2   2   2
#     4  12  28  45  74 104 148 189 245 296 360 440
#     4  12  25  45  74 100 146 191 238 297 365 432
#     4  12  28  47  73 112 145 186 247 300 363 443
#     4  12  30  47  77 107 147 192 250 302 361 438
#     4  11  27  45  75 103 150 187 240 300 362 438
#     4  12  25  49  72 104 144 195 244 305 360 427
#     4  11  26  47  70 104 144 190 236 290 373 426
#     4  12  25  49  75 104 145 194 239 300 366 429
#
# _framework density 21.519649999999999
#
# number of rings (size 3 to 8) (size 9 to 14) (size 15 to 20)
#    0.000    0.250    5.000    2.250   12.250    0.500 
#    0.000    0.000    0.000    0.000    0.000    0.000 
#    0.000    0.000    0.000    0.000    0.000    0.000 
#
# Total GULP energy -89371.385219 kJ/mol
# GULP energy per Si atom -5585.711576 kJ/mol
# Density = 2.147067 g / cm^3
# Si number density = 21.519650 Si / 1000 Ang^3
#
#
#
# Elastic Constant Matrix: (Units=GPa)
#
#
# Indices 1 2 3 4 5 6 
#
# 1 158.7664 45.6081 3.7716 -4.6146 2.9921 -11.0438
# 2 45.6081 123.2394 2.0380 1.4106 -3.4890 6.3616
# 3 3.7716 2.0380 50.7406 3.4089 7.0712 -2.0175
# 4 -4.6146 1.4106 3.4089 28.3838 -1.3656 -6.6774
# 5 2.9921 -3.4890 7.0712 -1.3656 32.5791 -3.6872
# 6 -11.0438 6.3616 -2.0175 -6.6774 -3.6872 43.9500
#
#
#
# Elastic Compliance Matrix: (Units=1/GPa)
#
#
# Indices 1 2 3 4 5 6 
#
# 1 0.007380 -0.002892 -0.000389 0.001954 -0.000537 0.002507
# 2 -0.002892 0.009348 -0.000299 -0.001371 0.001023 -0.002216
# 3 -0.000389 -0.000299 0.020571 -0.002716 -0.004564 0.000094
# 4 0.001954 -0.001371 -0.002716 0.037595 0.002574 0.006493
# 5 -0.000537 0.001023 -0.004564 0.002574 0.032247 0.002604
# 6 0.002507 -0.002216 0.000094 0.006493 0.002604 0.024913
#
#
# Mechanical properties :
#
#
# Convention : Reuss Voigt Hill
#
# Bulk Modulus (GPa) = 33.17885 48.39797 40.78841
# Shear Modulus (GPa) = 33.49850 39.73783 36.61816
#
# Velocity S-wave (km/s) = 3.94972 4.30185 4.12954
# Velocity P-wave (km/s) = 6.02094 6.87121 6.46008
#
# Compressibility (1/GPa) = 0.03013969
#
# Stress axis : x y z
#
# Youngs Moduli (GPa) = 135.50544 106.97005 48.61130
#
# Poissons Ratio (x) = 0.30932 0.01892
# Poissons Ratio (y) = 0.39183 0.01454
# Poissons Ratio (z) = 0.05273 0.03200
#
# Static dielectric constant tensor:
#      x y z
#    x 1.782900 -0.020530 -0.012430 
#    y -0.020530 1.746230 0.010610 
#    z -0.012430 0.010610 1.820450 
# 
# From -- ./inp_files/494580.got.cif
#   From: 2010.05.17/outbox.cif.g08.bks.cpg/sg2_248_cif.got.tgz:494580.got - 2010.06.03 11:33:40.
