data_PCOD9068073
_publ_section_title
;
Structure prediction by ZEFSAII (Michael W. Deem and Ramdas Pophale) SiO2 
 PCOD9068073
Probable space group: P -1
;
_chemical_formula_sum "Si O2"
_cell_formula_units_Z 16
_cell_length_a 15.146759
_cell_length_b 9.161976
_cell_length_c 8.730278
_cell_angle_alpha 78.435862
_cell_angle_beta 108.180292
_cell_angle_gamma 46.853976
_cell_volume 673.743426
_symmetry_space_group_name_H-M "P -1"
_symmetry_group_IT_number 2
_symmetry_cell_setting 'triclinic'
loop_
_space_group_symop_operation_xyz
x,y,z
-x,-y,-z
loop_
_atom_site_type_symbol
_atom_site_label
_atom_site_fract_x
_atom_site_fract_y
_atom_site_fract_z
Si Si1 0.274672 0.657634 0.206463
Si Si2 0.377658 0.300075 0.866687
Si Si3 0.071105 0.244811 0.699175
Si Si4 0.104441 0.689644 0.862949
Si Si5 0.436510 0.914933 0.462160
Si Si6 0.878260 0.226957 0.596439
Si Si7 0.123310 0.238892 0.400643
Si Si8 0.631933 0.132657 0.892660
O O1 0.432537 0.362575 0.347027
O O2 0.222573 0.728748 0.340021
O O3 0.318357 0.764382 0.146166
O O4 0.148549 0.719081 0.035481
O O5 0.270028 0.440067 0.928095
O O6 0.240644 0.515636 0.620610
O O7 0.491449 0.294011 0.901939
O O8 0.500000 0.000000 0.000000
O O9 0.125352 0.137067 0.578386
O O10 0.998933 0.189144 0.741308
O O11 0.937248 0.535225 0.596414
O O12 0.217154 0.125306 0.889283
O O13 0.998400 0.678255 0.801592
O O14 0.995760 0.948131 0.659396
O O15 0.410976 0.906100 0.272442
O O16 0.500000 0.000000 0.500000
O O17 0.280258 0.078388 0.434689
#
# Coordination Sequence:
#
# PCOD9068073 Si02
#       8
#     2   2   2   2   2   2   2   2
#     4  12  28  49  76 115 155 204 254 319 390 461
#     4  12  29  49  80 110 160 202 258 322 389 457
#     4  11  26  47  74 110 149 207 252 322 386 452
#     4  12  27  47  81 114 150 204 263 315 383 460
#     4  12  29  48  75 110 154 205 258 316 387 462
#     4  12  25  52  77 109 158 200 258 321 381 459
#     4  11  27  47  76 107 155 199 261 316 384 463
#     4  12  28  49  75 108 155 204 252 319 393 450
#
# _framework density 23.747910999999998
#
# number of rings (size 3 to 8) (size 9 to 14) (size 15 to 20)
#    0.000    0.250    3.750    3.375   10.500    1.000 
#    0.000    0.000    0.000    0.000    0.000    0.000 
#    0.000    0.000    0.000    0.000    0.000    0.000 
#
# Total GULP energy -89291.206366 kJ/mol
# GULP energy per Si atom -5580.700398 kJ/mol
# Density = 2.369386 g / cm^3
# Si number density = 23.747911 Si / 1000 Ang^3
#
#
#
# Elastic Constant Matrix: (Units=GPa)
#
#
# Indices 1 2 3 4 5 6 
#
# 1 126.0708 30.7189 10.7332 0.6948 19.1524 -13.2414
# 2 30.7189 97.1857 27.1089 -24.2340 4.8411 -6.1952
# 3 10.7332 27.1089 84.8057 -9.4213 15.8961 -0.3017
# 4 0.6948 -24.2340 -9.4213 27.5185 -0.5298 14.0826
# 5 19.1524 4.8411 15.8961 -0.5298 29.5134 0.8393
# 6 -13.2414 -6.1952 -0.3017 14.0826 0.8393 42.1316
#
#
#
# Elastic Compliance Matrix: (Units=1/GPa)
#
#
# Indices 1 2 3 4 5 6 
#
# 1 0.010578 -0.004555 0.000644 -0.006776 -0.006730 0.005058
# 2 -0.004555 0.016102 -0.003348 0.015389 0.002516 -0.004282
# 3 0.000644 -0.003348 0.014448 0.002236 -0.007588 -0.000783
# 4 -0.006776 0.015389 0.002236 0.061308 0.002349 -0.020390
# 5 -0.006730 0.002516 -0.007588 0.002349 0.042064 -0.003423
# 6 0.005058 -0.004282 -0.000783 -0.020390 -0.003423 0.031573
#
#
# Mechanical properties :
#
#
# Convention : Reuss Voigt Hill
#
# Bulk Modulus (GPa) = 37.57941 49.46489 43.52215
# Shear Modulus (GPa) = 25.06727 35.79943 30.43335
#
# Velocity S-wave (km/s) = 3.25246 3.88684 3.58371
# Velocity P-wave (km/s) = 5.47387 6.40451 5.95739
#
# Compressibility (1/GPa) = 0.02661031
#
# Stress axis : x y z
#
# Youngs Moduli (GPa) = 94.53406 62.10259 69.21177
#
# Poissons Ratio (x) = 0.28290 -0.04457
# Poissons Ratio (y) = 0.43063 0.23172
# Poissons Ratio (z) = -0.06088 0.20792
#
# Static dielectric constant tensor:
#      x y z
#    x 1.962190 -0.004050 -0.121700 
#    y -0.004050 1.927780 -0.012860 
#    z -0.121700 -0.012860 2.028030 
# 
# From -- ./inp_files/298294.got.cif
#   From: 2010.05.17/outbox.cif.g08.bks.cpg/sg2_150_cif.got.tgz:298294.got - 2010.06.03 11:33:40.
