data_PCOD9068296
_publ_section_title
;
Structure prediction by ZEFSAII (Michael W. Deem and Ramdas Pophale) SiO2 
 PCOD9068296
Probable space group: P -1
;
_chemical_formula_sum "Si O2"
_cell_formula_units_Z 10
_cell_length_a 10.627964
_cell_length_b 5.274083
_cell_length_c 14.135614
_cell_angle_alpha 122.873544
_cell_angle_beta 30.391738
_cell_angle_gamma 115.054797
_cell_volume 334.794613
_symmetry_space_group_name_H-M "P -1"
_symmetry_group_IT_number 2
_symmetry_cell_setting 'triclinic'
loop_
_space_group_symop_operation_xyz
x,y,z
-x,-y,-z
loop_
_atom_site_type_symbol
_atom_site_label
_atom_site_fract_x
_atom_site_fract_y
_atom_site_fract_z
Si Si1 0.762048 0.332597 0.652287
Si Si2 0.992431 0.676783 0.326536
Si Si3 0.629456 0.257471 0.413352
Si Si4 0.132354 0.778534 0.922306
Si Si5 0.358062 0.822449 0.973284
O O1 0.773807 0.373422 0.765438
O O2 0.527061 0.504278 0.790553
O O3 0.000000 0.500000 0.500000
O O4 0.819994 0.978904 0.526819
O O5 0.831485 0.401423 0.377158
O O6 0.099489 0.748342 0.170960
O O7 0.376753 0.556049 0.653252
O O8 0.853382 0.030162 0.154020
O O9 0.500000 0.000000 0.500000
O O10 0.293522 0.933621 0.931929
O O11 0.000000 0.500000 0.000000
O O12 0.500000 0.000000 0.000000
#
# Coordination Sequence:
#
# PCOD9068296 Si02
#       5
#     2   2   2   2   2
#     4  11  26  48  83 126 172 225 297 364 452 538
#     4  11  27  51  81 124 176 230 295 375 440 535
#     4  12  30  52  85 120 173 236 295 364 447 525
#     4  12  29  55  84 125 173 228 299 362 446 540
#     4  12  27  51  89 127 174 234 291 372 452 532
#
# _framework density 29.869059
#
# number of rings (size 3 to 8) (size 9 to 14) (size 15 to 20)
#    0.000    0.400    4.000    1.800    8.400    3.200 
#    0.000    0.000    0.000    0.000    0.000    0.000 
#    0.000    0.000    0.000    0.000    0.000    0.000 
#
# Total GULP energy -56057.675181 kJ/mol
# GULP energy per Si atom -5605.767518 kJ/mol
# Density = 2.980108 g / cm^3
# Si number density = 29.869059 Si / 1000 Ang^3
#
#
#
# Elastic Constant Matrix: (Units=GPa)
#
#
# Indices 1 2 3 4 5 6 
#
# 1 219.5255 85.3242 91.3449 17.9684 8.1404 -19.0750
# 2 85.3242 242.7509 90.1785 4.5750 -7.2444 -13.9695
# 3 91.3449 90.1785 226.3806 -23.4762 14.2066 0.5276
# 4 17.9684 4.5750 -23.4762 57.6098 -17.7502 -23.4022
# 5 8.1404 -7.2444 14.2066 -17.7502 62.3263 17.0621
# 6 -19.0750 -13.9695 0.5276 -23.4022 17.0621 58.6064
#
#
#
# Elastic Compliance Matrix: (Units=1/GPa)
#
#
# Indices 1 2 3 4 5 6 
#
# 1 0.006401 -0.001346 -0.002244 -0.002844 -0.001595 0.001111
# 2 -0.001346 0.005259 -0.001631 -0.000166 0.000981 0.000478
# 3 -0.002244 -0.001631 0.006354 0.003405 -0.000462 0.000318
# 4 -0.002844 -0.000166 0.003405 0.023965 0.004405 0.007291
# 5 -0.001595 0.000981 -0.000462 0.004405 0.018822 -0.004002
# 6 0.001111 0.000478 0.000318 0.007291 -0.004002 0.021612
#
#
# Mechanical properties :
#
#
# Convention : Reuss Voigt Hill
#
# Bulk Modulus (GPa) = 132.09511 135.81693 133.95602
# Shear Modulus (GPa) = 52.42203 63.82912 58.12557
#
# Velocity S-wave (km/s) = 4.19389 4.62775 4.41615
# Velocity P-wave (km/s) = 8.23240 8.60954 8.42308
#
# Compressibility (1/GPa) = 0.00757030
#
# Stress axis : x y z
#
# Youngs Moduli (GPa) = 156.23315 190.16404 157.38117
#
# Poissons Ratio (x) = 0.25602 0.35313
# Poissons Ratio (y) = 0.21033 0.25676
# Poissons Ratio (z) = 0.35055 0.31024
#
# Static dielectric constant tensor:
#      x y z
#    x 2.328470 0.049020 0.002010 
#    y 0.049020 2.586170 0.230550 
#    z 0.002010 0.230550 2.656090 
# 
# From -- ./inp_files/510543.got.cif
#   From: 2010.05.17/outbox.cif.g08.bks.cpg/sg2_256_cif.got.tgz:510543.got - 2010.06.03 11:33:40.
