data_PCOD9068168
_publ_section_title
;
Structure prediction by ZEFSAII (Michael W. Deem and Ramdas Pophale) SiO2 
 PCOD9068168
Probable space group: P -1
;
_chemical_formula_sum "Si O2"
_cell_formula_units_Z 16
_cell_length_a 11.164189
_cell_length_b 9.583245
_cell_length_c 14.432120
_cell_angle_alpha 78.893305
_cell_angle_beta 74.190970
_cell_angle_gamma 138.177860
_cell_volume 779.879659
_symmetry_space_group_name_H-M "P -1"
_symmetry_group_IT_number 2
_symmetry_cell_setting 'triclinic'
loop_
_space_group_symop_operation_xyz
x,y,z
-x,-y,-z
loop_
_atom_site_type_symbol
_atom_site_label
_atom_site_fract_x
_atom_site_fract_y
_atom_site_fract_z
Si Si1 0.291220 0.698009 0.618843
Si Si2 0.880304 0.431193 0.628834
Si Si3 0.036123 0.165565 0.401028
Si Si4 0.240088 0.000988 0.817009
Si Si5 0.286871 0.469353 0.997087
Si Si6 0.551078 0.715225 0.459206
Si Si7 0.523313 0.421514 0.866824
Si Si8 0.637383 0.192894 0.194590
O O1 0.343415 0.602483 0.565388
O O2 0.320388 0.714990 0.720664
O O3 0.047089 0.532541 0.662119
O O4 0.500000 0.000000 0.500000
O O5 0.873535 0.595883 0.610106
O O6 0.000000 0.500000 0.500000
O O7 0.627084 0.116769 0.724123
O O8 0.229414 0.305775 0.267917
O O9 0.000000 0.000000 0.500000
O O10 0.787360 0.963579 0.435588
O O11 0.388961 0.177127 0.670842
O O12 0.369437 0.188322 0.855094
O O13 0.214700 0.806743 0.852937
O O14 0.983801 0.819362 0.887254
O O15 0.395346 0.441139 0.922997
O O16 0.310180 0.630616 0.909059
O O17 0.422080 0.613649 0.047249
O O18 0.500000 0.500000 0.500000
#
# Coordination Sequence:
#
# PCOD9068168 Si02
#       8
#     2   2   2   2   2   2   2   2
#     4  12  24  44  68 104 143 177 220 284 351 408
#     4  12  24  44  69 103 144 177 221 284 348 417
#     4  12  25  43  73 104 141 181 224 286 354 411
#     4  12  23  48  72  99 136 182 233 287 342 407
#     4  11  28  48  68  98 137 186 237 284 339 405
#     4  12  26  43  71 107 142 179 226 285 354 418
#     4  11  26  48  70  97 142 180 232 289 337 410
#     4  12  26  44  74 102 138 183 231 284 343 416
#
# _framework density 20.515986999999999
#
# number of rings (size 3 to 8) (size 9 to 14) (size 15 to 20)
#    0.000    0.250    6.250    1.500    7.000    1.500 
#    0.000    0.000    0.000    0.000    0.000    0.000 
#    0.000    0.000    0.000    0.000    0.000    0.000 
#
# Total GULP energy -89539.062052 kJ/mol
# GULP energy per Si atom -5596.191378 kJ/mol
# Density = 2.046929 g / cm^3
# Si number density = 20.515987 Si / 1000 Ang^3
#
#
#
# Elastic Constant Matrix: (Units=GPa)
#
#
# Indices 1 2 3 4 5 6 
#
# 1 134.9635 45.8269 64.4242 16.1641 8.7298 -0.9720
# 2 45.8269 98.4107 46.8342 20.4206 16.3792 8.0752
# 3 64.4242 46.8342 95.5746 15.5479 13.0205 -1.1292
# 4 16.1641 20.4206 15.5479 29.8392 9.3050 0.4846
# 5 8.7298 16.3792 13.0205 9.3050 49.4000 -2.3561
# 6 -0.9720 8.0752 -1.1292 0.4846 -2.3561 36.6003
#
#
#
# Elastic Compliance Matrix: (Units=1/GPa)
#
#
# Indices 1 2 3 4 5 6 
#
# 1 0.011343 -0.002035 -0.006477 -0.001609 0.000710 0.000617
# 2 -0.002035 0.015416 -0.004901 -0.006056 -0.002495 -0.003687
# 3 -0.006477 -0.004901 0.017767 -0.001956 -0.001479 0.001388
# 4 -0.001609 -0.006056 -0.001956 0.041074 -0.004911 0.000373
# 5 0.000710 -0.002495 -0.001479 -0.004911 0.022356 0.002028
# 6 0.000617 -0.003687 0.001388 0.000373 0.002028 0.028321
#
#
# Mechanical properties :
#
#
# Convention : Reuss Voigt Hill
#
# Bulk Modulus (GPa) = 56.49569 71.45770 63.97669
# Shear Modulus (GPa) = 29.58556 34.62546 32.10551
#
# Velocity S-wave (km/s) = 3.80158 4.11266 3.96018
# Velocity P-wave (km/s) = 6.84592 7.58009 7.22234
#
# Compressibility (1/GPa) = 0.01770047
#
# Stress axis : x y z
#
# Youngs Moduli (GPa) = 88.15882 64.86781 56.28567
#
# Poissons Ratio (x) = 0.13200 0.36454
# Poissons Ratio (y) = 0.17939 0.27586
# Poissons Ratio (z) = 0.57098 0.31792
#
# Static dielectric constant tensor:
#      x y z
#    x 1.798040 0.010310 -0.061360 
#    y 0.010310 1.750450 0.011260 
#    z -0.061360 0.011260 1.736370 
# 
# From -- ./inp_files/471667.got.cif
#   From: 2010.05.17/outbox.cif.g08.bks.cpg/sg2_236_cif.got.tgz:471667.got - 2010.06.03 11:33:40.
