data_PCOD9068751
_publ_section_title
;
Structure prediction by ZEFSAII (Michael W. Deem and Ramdas Pophale) SiO2 
 PCOD9068751
Probable space group: P -1
;
_chemical_formula_sum "Si O2"
_cell_formula_units_Z 12
_cell_length_a 11.841903
_cell_length_b 8.425719
_cell_length_c 4.754928
_cell_angle_alpha 96.042406
_cell_angle_beta 82.658214
_cell_angle_gamma 75.948430
_cell_volume 451.857988
_symmetry_space_group_name_H-M "P -1"
_symmetry_group_IT_number 2
_symmetry_cell_setting 'triclinic'
loop_
_space_group_symop_operation_xyz
x,y,z
-x,-y,-z
loop_
_atom_site_type_symbol
_atom_site_label
_atom_site_fract_x
_atom_site_fract_y
_atom_site_fract_z
Si Si1 0.890087 0.478629 0.842396
Si Si2 0.056829 0.839136 0.630203
Si Si3 0.177130 0.055582 0.942423
Si Si4 0.501862 0.313125 0.396628
Si Si5 0.590663 0.096769 0.852990
Si Si6 0.764249 0.663296 0.398302
O O1 0.851219 0.607436 0.622490
O O2 0.090529 0.689938 0.371591
O O3 0.789624 0.520610 0.122144
O O4 0.000000 0.500000 0.000000
O O5 0.951762 0.845731 0.885535
O O6 0.000000 0.000000 0.500000
O O7 0.161607 0.887295 0.773934
O O8 0.215433 0.178168 0.736759
O O9 0.277282 0.005353 0.137409
O O10 0.500000 0.500000 0.500000
O O11 0.561621 0.265657 0.070435
O O12 0.366505 0.306669 0.442119
O O13 0.565644 0.163894 0.559134
O O14 0.500000 0.000000 0.000000
#
# Coordination Sequence:
#
# PCOD9068751 Si02
#       6
#     2   2   2   2   2   2
#     4  12  30  50  81 120 158 214 270 328 407 489
#     4  11  29  51  79 118 164 209 269 334 406 481
#     4  11  29  51  82 119 161 216 270 336 404 488
#     4  12  29  53  79 121 162 209 269 341 406 479
#     4  12  27  51  85 117 159 214 277 331 407 485
#     4  12  29  51  82 114 164 211 269 333 409 486
#
# _framework density 26.557015
#
# number of rings (size 3 to 8) (size 9 to 14) (size 15 to 20)
#    0.000    0.333    1.667    3.500   16.333    0.000 
#    0.000    0.000    0.000    0.000    0.000    0.000 
#    0.000    0.000    0.000    0.000    0.000    0.000 
#
# Total GULP energy -67341.576890 kJ/mol
# GULP energy per Si atom -5611.798074 kJ/mol
# Density = 2.649657 g / cm^3
# Si number density = 26.557015 Si / 1000 Ang^3
#
#
#
# Elastic Constant Matrix: (Units=GPa)
#
#
# Indices 1 2 3 4 5 6 
#
# 1 133.0921 54.2843 36.5529 -0.3781 19.7955 7.2116
# 2 54.2843 164.8304 47.4352 20.3671 19.4919 7.7680
# 3 36.5529 47.4352 140.9669 10.6349 23.1411 -1.2461
# 4 -0.3781 20.3671 10.6349 69.7862 -7.5840 -1.0363
# 5 19.7955 19.4919 23.1411 -7.5840 45.7584 2.7166
# 6 7.2116 7.7680 -1.2461 -1.0363 2.7166 38.0877
#
#
#
# Elastic Compliance Matrix: (Units=1/GPa)
#
#
# Indices 1 2 3 4 5 6 
#
# 1 0.009248 -0.002461 -0.001287 0.000718 -0.002116 -0.001121
# 2 -0.002461 0.007874 -0.001550 -0.002290 -0.001818 -0.001123
# 3 -0.001287 -0.001550 0.008609 -0.001221 -0.003401 0.001051
# 4 0.000718 -0.002290 -0.001221 0.015612 0.003843 0.000442
# 5 -0.002116 -0.001818 -0.003401 0.003843 0.025966 -0.001087
# 6 -0.001121 -0.001123 0.001051 0.000442 -0.001087 0.026820
#
#
# Mechanical properties :
#
#
# Convention : Reuss Voigt Hill
#
# Bulk Modulus (GPa) = 66.06917 79.49271 72.78094
# Shear Modulus (GPa) = 45.54951 50.76758 48.15855
#
# Velocity S-wave (km/s) = 4.14594 4.37698 4.26303
# Velocity P-wave (km/s) = 6.91742 7.45263 7.19001
#
# Compressibility (1/GPa) = 0.01513565
#
# Stress axis : x y z
#
# Youngs Moduli (GPa) = 108.12780 126.99414 116.15923
#
# Poissons Ratio (x) = 0.31255 0.14945
# Poissons Ratio (y) = 0.26612 0.18008
# Poissons Ratio (z) = 0.13911 0.19687
#
# Static dielectric constant tensor:
#      x y z
#    x 2.101510 0.022700 -0.026500 
#    y 0.022700 2.164450 0.037740 
#    z -0.026500 0.037740 2.080110 
# 
# From -- ./inp_files/57335.got.cif
#   From: 2010.05.17/outbox.cif.g08.bks.cpg/sg2_29_cif.got.tgz:57335.got - 2010.06.03 11:33:40.
