data_PCOD9068399
_publ_section_title
;
Structure prediction by ZEFSAII (Michael W. Deem and Ramdas Pophale) SiO2 
 PCOD9068399
Probable space group: P -1
;
_chemical_formula_sum "Si O2"
_cell_formula_units_Z 13
_cell_length_a 15.848057
_cell_length_b 8.640670
_cell_length_c 5.287993
_cell_angle_alpha 77.566063
_cell_angle_beta 73.899433
_cell_angle_gamma 47.051599
_cell_volume 508.889113
_symmetry_space_group_name_H-M "P -1"
_symmetry_group_IT_number 2
_symmetry_cell_setting 'triclinic'
loop_
_space_group_symop_operation_xyz
x,y,z
-x,-y,-z
loop_
_atom_site_type_symbol
_atom_site_label
_atom_site_fract_x
_atom_site_fract_y
_atom_site_fract_z
Si Si1 0.371038 0.362518 0.531988
Si Si2 0.735372 0.378879 0.981747
Si Si3 0.017428 0.638296 0.769101
Si Si4 0.000000 0.000000 0.000000
Si Si5 0.382216 0.806317 0.721712
Si Si6 0.616632 0.923884 0.057635
Si Si7 0.810755 0.762893 0.567892
O O1 0.289076 0.493660 0.791554
O O2 0.494878 0.305915 0.477821
O O3 0.383740 0.159854 0.637869
O O4 0.314477 0.484683 0.277415
O O5 0.872166 0.175900 0.923429
O O6 0.658547 0.317231 0.131223
O O7 0.128208 0.449650 0.571418
O O8 0.908951 0.758673 0.617658
O O9 0.000000 0.500000 0.000000
O O10 0.017746 0.800133 0.876908
O O11 0.400052 0.872194 0.950001
O O12 0.272839 0.020956 0.597834
O O13 0.732670 0.777342 0.846558
O O14 0.500000 0.000000 0.000000
#
# Coordination Sequence:
#
# PCOD9068399 Si02
#       7
#     2   2   2   1   2   2   2
#     4  12  29  51  81 124 172 220 286 360 434 525
#     4  12  31  53  82 122 170 229 288 364 440 520
#     4  11  27  55  82 126 168 233 294 369 435 528
#     4  12  30  54  86 122 172 224 296 366 436 520
#     4  12  27  51  82 118 168 226 282 358 437 527
#     4  12  26  47  81 124 167 222 283 349 435 526
#     4  11  26  49  90 117 174 223 294 358 446 520
#
# _framework density 25.545839000000001
#
# number of rings (size 3 to 8) (size 9 to 14) (size 15 to 20)
#    0.000    0.308    1.538    5.077   10.769    0.615 
#    2.769    0.000    0.000    0.000    0.000    0.000 
#    0.000    0.000    0.000    0.000    0.000    0.000 
#
# Total GULP energy -72519.383593 kJ/mol
# GULP energy per Si atom -5578.414123 kJ/mol
# Density = 2.548770 g / cm^3
# Si number density = 25.545839 Si / 1000 Ang^3
#
#
#
# Elastic Constant Matrix: (Units=GPa)
#
#
# Indices 1 2 3 4 5 6 
#
# 1 109.9366 44.3419 35.6605 3.6700 8.4286 -3.0236
# 2 44.3419 129.5165 79.6477 21.6144 1.8457 -17.7385
# 3 35.6605 79.6477 138.3989 14.1223 -2.7552 -8.4820
# 4 3.6700 21.6144 14.1223 17.0193 -2.1891 -1.0977
# 5 8.4286 1.8457 -2.7552 -2.1891 40.1890 -0.5313
# 6 -3.0236 -17.7385 -8.4820 -1.0977 -0.5313 68.9017
#
#
#
# Elastic Compliance Matrix: (Units=1/GPa)
#
#
# Indices 1 2 3 4 5 6 
#
# 1 0.010951 -0.003569 -0.001129 0.002807 -0.002065 -0.000549
# 2 -0.003569 0.015646 -0.006542 -0.013634 -0.001124 0.002840
# 3 -0.001129 -0.006542 0.011361 -0.000734 0.001272 -0.000337
# 4 0.002807 -0.013634 -0.000734 0.076462 0.004122 -0.002227
# 5 -0.002065 -0.001124 0.001272 0.004122 0.025679 0.000040
# 6 -0.000549 0.002840 -0.000337 -0.002227 0.000040 0.015144
#
#
# Mechanical properties :
#
#
# Convention : Reuss Voigt Hill
#
# Bulk Modulus (GPa) = 64.60576 77.46135 71.03355
# Shear Modulus (GPa) = 27.33987 39.76879 33.55433
#
# Velocity S-wave (km/s) = 3.27498 3.94986 3.62815
# Velocity P-wave (km/s) = 6.29648 7.15473 6.73928
#
# Compressibility (1/GPa) = 0.01547850
#
# Stress axis : x y z
#
# Youngs Moduli (GPa) = 91.31175 63.91273 88.02376
#
# Poissons Ratio (x) = 0.22813 0.09936
# Poissons Ratio (y) = 0.32593 0.57583
# Poissons Ratio (z) = 0.10307 0.41810
#
# Static dielectric constant tensor:
#      x y z
#    x -0.383220 -3.730520 1.403010 
#    y -3.730520 -3.733610 2.171550 
#    z 1.403010 2.171550 1.251650 
# 
# From -- ./inp_files/89077.got.cif
#   From: 2010.05.17/outbox.cif.g08.bks.cpg/sg2_45_cif.got.tgz:89077.got - 2010.06.03 11:33:40.
