data_PCOD9068447
_publ_section_title
;
Structure prediction by ZEFSAII (Michael W. Deem and Ramdas Pophale) SiO2 
 PCOD9068447
Probable space group: P -1
;
_chemical_formula_sum "Si O2"
_cell_formula_units_Z 12
_cell_length_a 5.007916
_cell_length_b 17.511990
_cell_length_c 12.584791
_cell_angle_alpha 152.204607
_cell_angle_beta 87.967629
_cell_angle_gamma 98.295900
_cell_volume 499.008535
_symmetry_space_group_name_H-M "P -1"
_symmetry_group_IT_number 2
_symmetry_cell_setting 'triclinic'
loop_
_space_group_symop_operation_xyz
x,y,z
-x,-y,-z
loop_
_atom_site_type_symbol
_atom_site_label
_atom_site_fract_x
_atom_site_fract_y
_atom_site_fract_z
Si Si1 0.251560 0.796783 0.105885
Si Si2 0.502557 0.725024 0.383815
Si Si3 0.174597 0.984674 0.676598
Si Si4 0.863088 0.613465 0.067288
Si Si5 0.916564 0.863489 0.739533
Si Si6 0.232757 0.490006 0.566807
O O1 0.571412 0.885358 0.222241
O O2 0.085176 0.936137 0.245891
O O3 0.086033 0.715716 0.110589
O O4 0.255325 0.650717 0.840740
O O5 0.712754 0.718417 0.276325
O O6 0.659012 0.814971 0.597899
O O7 0.274588 0.812303 0.445375
O O8 0.364721 0.528057 0.168253
O O9 0.155306 0.956076 0.768551
O O10 0.000000 0.500000 0.000000
O O11 0.871961 0.681699 0.574188
O O12 0.000000 0.000000 0.000000
O O13 0.500000 0.500000 0.500000
O O14 0.000000 0.500000 0.500000
#
# Coordination Sequence:
#
# PCOD9068447 Si02
#       6
#     2   2   2   2   2   2
#     4  12  27  48  78 113 157 204 263 321 391 464
#     4  11  26  50  79 114 155 210 261 316 403 458
#     4  12  27  49  76 116 157 204 260 321 395 464
#     4  11  27  50  80 113 156 210 263 324 390 466
#     4  12  27  52  80 112 161 202 259 322 396 463
#     4  12  28  47  78 113 153 205 261 320 381 467
#
# _framework density 24.047685999999999
#
# number of rings (size 3 to 8) (size 9 to 14) (size 15 to 20)
#    0.000    0.333    1.667    6.000   11.667    2.000 
#    0.000    0.000    0.000    0.000    0.000    0.000 
#    0.000    0.000    0.000    0.000    0.000    0.000 
#
# Total GULP energy -66886.686665 kJ/mol
# GULP energy per Si atom -5573.890555 kJ/mol
# Density = 2.399295 g / cm^3
# Si number density = 24.047686 Si / 1000 Ang^3
#
#
#
# Elastic Constant Matrix: (Units=GPa)
#
#
# Indices 1 2 3 4 5 6 
#
# 1 120.0376 36.9271 29.9825 -16.7868 -19.6973 2.0372
# 2 36.9271 165.7657 26.6354 7.1270 -4.8593 12.7346
# 3 29.9825 26.6354 159.8719 -2.7933 -6.4836 -19.1175
# 4 -16.7868 7.1270 -2.7933 41.1475 3.9513 -4.7747
# 5 -19.6973 -4.8593 -6.4836 3.9513 43.7055 1.8677
# 6 2.0372 12.7346 -19.1175 -4.7747 1.8677 42.7525
#
#
#
# Elastic Compliance Matrix: (Units=1/GPa)
#
#
# Indices 1 2 3 4 5 6 
#
# 1 0.010594 -0.002184 -0.001412 0.004203 0.003951 -0.000189
# 2 -0.002184 0.007022 -0.001137 -0.002504 -0.000027 -0.002774
# 3 -0.001412 -0.001137 0.007160 0.000523 0.000096 0.003662
# 4 0.004203 -0.002504 0.000523 0.027020 -0.000913 0.003837
# 5 0.003951 -0.000027 0.000096 -0.000913 0.024811 -0.001323
# 6 -0.000189 -0.002774 0.003662 0.003837 -0.001323 0.026350
#
#
# Mechanical properties :
#
#
# Convention : Reuss Voigt Hill
#
# Bulk Modulus (GPa) = 65.31186 70.30725 67.80955
# Shear Modulus (GPa) = 42.54398 48.99644 45.77021
#
# Velocity S-wave (km/s) = 4.21069 4.51873 4.36743
# Velocity P-wave (km/s) = 7.13149 7.51833 7.32746
#
# Compressibility (1/GPa) = 0.01531116
#
# Stress axis : x y z
#
# Youngs Moduli (GPa) = 94.38934 142.41582 139.66202
#
# Poissons Ratio (x) = 0.31098 0.19721
# Poissons Ratio (y) = 0.20611 0.15879
# Poissons Ratio (z) = 0.13328 0.16192
#
# Static dielectric constant tensor:
#      x y z
#    x 2.147110 0.243650 0.046850 
#    y 0.243650 2.272630 0.035650 
#    z 0.046850 0.035650 2.043600 
# 
# From -- ./inp_files/368517.got.cif
#   From: 2010.05.17/outbox.cif.g08.bks.cpg/sg2_185_cif.got.tgz:368517.got - 2010.06.03 11:33:40.
