data_PCOD9068963
_publ_section_title
;
Structure prediction by ZEFSAII (Michael W. Deem and Ramdas Pophale) SiO2 
 PCOD9068963
Probable space group: P -1
;
_chemical_formula_sum "Si O2"
_cell_formula_units_Z 16
_cell_length_a 11.123455
_cell_length_b 11.917073
_cell_length_c 8.619762
_cell_angle_alpha 98.141362
_cell_angle_beta 73.894887
_cell_angle_gamma 145.983051
_cell_volume 605.795389
_symmetry_space_group_name_H-M "P -1"
_symmetry_group_IT_number 2
_symmetry_cell_setting 'triclinic'
loop_
_space_group_symop_operation_xyz
x,y,z
-x,-y,-z
loop_
_atom_site_type_symbol
_atom_site_label
_atom_site_fract_x
_atom_site_fract_y
_atom_site_fract_z
Si Si1 0.279829 0.380751 0.977070
Si Si2 0.391391 0.893141 0.681587
Si Si3 0.832121 0.035929 0.230740
Si Si4 0.230586 0.431816 0.698659
Si Si5 0.236412 0.110271 0.435745
Si Si6 0.740101 0.076381 0.834640
Si Si7 0.801554 0.434944 0.511221
Si Si8 0.462996 0.737168 0.105023
O O1 0.322047 0.549293 0.010166
O O2 0.084392 0.204529 0.130343
O O3 0.500000 0.500000 0.000000
O O4 0.229996 0.326456 0.802430
O O5 0.221669 0.870017 0.760764
O O6 0.286722 0.691098 0.642743
O O7 0.500000 0.000000 0.500000
O O8 0.597406 0.037460 0.752606
O O9 0.761158 0.951695 0.411856
O O10 0.691585 0.859280 0.119937
O O11 0.508685 0.649689 0.629920
O O12 0.170284 0.415762 0.534472
O O13 0.990029 0.308728 0.827611
O O14 0.212189 0.006975 0.281456
O O15 0.000000 0.000000 0.500000
O O16 0.560408 0.911022 0.998863
O O17 0.662360 0.332960 0.700977
O O18 0.000000 0.500000 0.500000
#
# Coordination Sequence:
#
# PCOD9068963 Si02
#       8
#     2   2   2   2   2   2   2   2
#     4  12  28  49  72 104 146 192 247 311 363 430
#     4  12  21  46  71 105 150 187 236 299 366 440
#     4  12  26  46  74 108 142 192 243 298 372 438
#     4  12  25  48  68 107 142 188 249 292 369 438
#     4  12  26  48  73 102 144 193 248 304 362 436
#     4  12  26  45  76 105 149 191 237 307 371 440
#     4  12  25  45  76 107 148 194 241 301 366 448
#     4  12  25  47  71 106 145 184 244 297 368 425
#
# _framework density 26.411557999999999
#
# number of rings (size 3 to 8) (size 9 to 14) (size 15 to 20)
#    0.000    0.000    7.500    2.250    1.750    3.500 
#    0.000    2.500    0.000    0.000    0.000    0.000 
#    0.000    0.000    0.000    0.000    0.000    0.000 
#
# Total GULP energy -89122.986733 kJ/mol
# GULP energy per Si atom -5570.186671 kJ/mol
# Density = 2.635144 g / cm^3
# Si number density = 26.411558 Si / 1000 Ang^3
#
#
#
# Elastic Constant Matrix: (Units=GPa)
#
#
# Indices 1 2 3 4 5 6 
#
# 1 102.1843 13.5283 36.8437 6.1743 7.7675 43.7899
# 2 13.5283 111.1112 26.3952 -11.1383 -2.6685 28.5941
# 3 36.8437 26.3952 140.6804 -23.0772 26.5961 7.3625
# 4 6.1743 -11.1383 -23.0772 48.8467 1.7901 2.4227
# 5 7.7675 -2.6685 26.5961 1.7901 60.4718 1.9740
# 6 43.7899 28.5941 7.3625 2.4227 1.9740 50.9123
#
#
#
# Elastic Compliance Matrix: (Units=1/GPa)
#
#
# Indices 1 2 3 4 5 6 
#
# 1 0.018635 0.002984 -0.005239 -0.003341 0.000690 -0.016814
# 2 0.002984 0.011721 -0.002557 0.001474 0.001506 -0.008908
# 3 -0.005239 -0.002557 0.010345 0.004906 -0.004278 0.004379
# 4 -0.003341 0.001474 0.004906 0.023620 -0.002373 0.000305
# 5 0.000690 0.001506 -0.004278 -0.002373 0.018513 -0.001425
# 6 -0.016814 -0.008908 0.004379 0.000305 -0.001425 0.038514
#
#
# Mechanical properties :
#
#
# Convention : Reuss Voigt Hill
#
# Bulk Modulus (GPa) = 32.17892 56.39004 44.28448
# Shear Modulus (GPa) = 35.37813 50.52674 42.95243
#
# Velocity S-wave (km/s) = 3.66388 4.37859 4.03708
# Velocity P-wave (km/s) = 5.48715 6.85271 6.20759
#
# Compressibility (1/GPa) = 0.03107625
#
# Stress axis : x y z
#
# Youngs Moduli (GPa) = 53.66189 85.32019 96.66957
#
# Poissons Ratio (x) = -0.25463 0.50645
# Poissons Ratio (y) = -0.16015 0.24722
# Poissons Ratio (z) = 0.28114 0.21820
#
# Static dielectric constant tensor:
#      x y z
#    x 2.402910 -0.373200 -0.071250 
#    y -0.373200 2.580370 0.084360 
#    z -0.071250 0.084360 2.032400 
# 
# From -- ./inp_files/273145.got.cif
#   From: 2010.05.17/outbox.cif.g08.bks.cpg/sg2_137_cif.got.tgz:273145.got - 2010.06.03 11:33:40.
