data_PCOD9068622
_publ_section_title
;
Structure prediction by ZEFSAII (Michael W. Deem and Ramdas Pophale) SiO2 
 PCOD9068622
Probable space group: P -1
;
_chemical_formula_sum "Si O2"
_cell_formula_units_Z 16
_cell_length_a 15.597844
_cell_length_b 13.814241
_cell_length_c 7.786439
_cell_angle_alpha 140.597778
_cell_angle_beta 71.492072
_cell_angle_gamma 134.611184
_cell_volume 657.257775
_symmetry_space_group_name_H-M "P -1"
_symmetry_group_IT_number 2
_symmetry_cell_setting 'triclinic'
loop_
_space_group_symop_operation_xyz
x,y,z
-x,-y,-z
loop_
_atom_site_type_symbol
_atom_site_label
_atom_site_fract_x
_atom_site_fract_y
_atom_site_fract_z
Si Si1 0.570646 0.906345 0.682205
Si Si2 0.553367 0.556457 0.321358
Si Si3 0.031233 0.251490 0.378280
Si Si4 0.684540 0.814402 0.249385
Si Si5 0.075168 0.567549 0.359640
Si Si6 0.811238 0.811478 0.678813
Si Si7 0.945066 0.100958 0.665191
Si Si8 0.283772 0.687428 0.596751
O O1 0.563066 0.750881 0.600570
O O2 0.413310 0.755910 0.542103
O O3 0.647990 0.935707 0.508941
O O4 0.657977 0.149382 0.050528
O O5 0.618916 0.617183 0.169041
O O6 0.645817 0.590238 0.450044
O O7 0.393851 0.309561 0.048504
O O8 0.117324 0.264011 0.479975
O O9 0.149706 0.419591 0.379888
O O10 0.980073 0.355431 0.597352
O O11 0.897677 0.992918 0.030245
O O12 0.845702 0.991579 0.415341
O O13 0.962103 0.633418 0.994480
O O14 0.232177 0.741446 0.560896
O O15 0.000000 0.500000 0.500000
O O16 0.848898 0.975515 0.725917
O O17 0.000000 0.000000 0.500000
#
# Coordination Sequence:
#
# PCOD9068622 Si02
#       8
#     2   2   2   2   2   2   2   2
#     4   9  17  29  49  77 104 127 180 226 262 305
#     4   8  16  29  49  69 100 139 173 209 264 319
#     4  10  20  33  55  77 113 146 177 224 280 327
#     4   8  16  30  49  72 101 135 168 219 265 307
#     4  10  18  33  54  80 106 138 183 226 268 313
#     4  10  19  35  52  81 109 145 179 221 281 325
#     4  11  21  32  58  87 106 137 188 230 264 323
#     4  10  18  28  51  78 103 137 179 230 258 313
#
# _framework density 24.34357
#
# number of rings (size 3 to 8) (size 9 to 14) (size 15 to 20)
#    0.750    1.750    2.500    2.250    1.750    0.000 
#    0.000    1.250    0.000    6.000    0.000    0.000 
#    0.000    0.000    0.000    0.000    0.000    0.000 
#
# Total GULP energy -89180.343148 kJ/mol
# GULP energy per Si atom -5573.771447 kJ/mol
# Density = 2.428816 g / cm^3
# Si number density = 24.343570 Si / 1000 Ang^3
#
#
#
# Elastic Constant Matrix: (Units=GPa)
#
#
# Indices 1 2 3 4 5 6 
#
# 1 198.3744 14.1746 80.0315 4.3232 31.1950 20.3206
# 2 14.1746 48.0059 18.6457 -6.3884 10.1299 -9.3116
# 3 80.0315 18.6457 141.1548 -10.2888 23.7497 12.4102
# 4 4.3232 -6.3884 -10.2888 26.0017 2.8635 3.0740
# 5 31.1950 10.1299 23.7497 2.8635 57.2580 0.2816
# 6 20.3206 -9.3116 12.4102 3.0740 0.2816 30.9125
#
#
#
# Elastic Compliance Matrix: (Units=1/GPa)
#
#
# Indices 1 2 3 4 5 6 
#
# 1 0.007278 -0.001348 -0.003432 -0.002238 -0.002174 -0.003570
# 2 -0.001348 0.025212 -0.002524 0.004675 -0.002958 0.009056
# 3 -0.003432 -0.002524 0.010344 0.004651 -0.002192 -0.003100
# 4 -0.002238 0.004675 0.004651 0.042600 -0.003652 -0.003191
# 5 -0.002174 -0.002958 -0.002192 -0.003652 0.020256 0.001597
# 6 -0.003570 0.009056 -0.003100 -0.003191 0.001597 0.038971
#
#
# Mechanical properties :
#
#
# Convention : Reuss Voigt Hill
#
# Bulk Modulus (GPa) = 35.42765 68.13761 51.78263
# Shear Modulus (GPa) = 29.64246 41.14667 35.39456
#
# Velocity S-wave (km/s) = 3.49330 4.11572 3.81722
# Velocity P-wave (km/s) = 5.55479 7.11592 6.38326
#
# Compressibility (1/GPa) = 0.02822654
#
# Stress axis : x y z
#
# Youngs Moduli (GPa) = 137.39674 39.66409 96.67447
#
# Poissons Ratio (x) = 0.05345 0.33179
# Poissons Ratio (y) = 0.18515 0.24401
# Poissons Ratio (z) = 0.47155 0.10011
#
# Static dielectric constant tensor:
#      x y z
#    x 1.976920 0.060870 0.021520 
#    y 0.060870 2.184330 0.021250 
#    z 0.021520 0.021250 1.967620 
# 
# From -- ./inp_files/456243.got.cif
#   From: 2010.05.17/outbox.cif.g08.bks.cpg/sg2_229_cif.got.tgz:456243.got - 2010.06.03 11:33:40.
