data_PCOD9068434
_publ_section_title
;
Structure prediction by ZEFSAII (Michael W. Deem and Ramdas Pophale) SiO2 
 PCOD9068434
Probable space group: P -1
;
_chemical_formula_sum "Si O2"
_cell_formula_units_Z 15
_cell_length_a 12.450400
_cell_length_b 15.281298
_cell_length_c 7.538416
_cell_angle_alpha 131.914904
_cell_angle_beta 36.750571
_cell_angle_gamma 110.064022
_cell_volume 576.034040
_symmetry_space_group_name_H-M "P -1"
_symmetry_group_IT_number 2
_symmetry_cell_setting 'triclinic'
loop_
_space_group_symop_operation_xyz
x,y,z
-x,-y,-z
loop_
_atom_site_type_symbol
_atom_site_label
_atom_site_fract_x
_atom_site_fract_y
_atom_site_fract_z
Si Si1 0.000000 0.500000 0.000000
Si Si2 0.769438 0.439188 0.021237
Si Si3 0.203905 0.873515 0.025408
Si Si4 0.754173 0.989336 0.166260
Si Si5 0.996917 0.687706 0.941817
Si Si6 0.366028 0.450533 0.001846
Si Si7 0.217989 0.263053 0.068071
Si Si8 0.761007 0.168333 0.692075
O O1 0.924737 0.633085 0.132540
O O2 0.776163 0.499929 0.283268
O O3 0.629162 0.542802 0.207549
O O4 0.731693 0.312685 0.877978
O O5 0.020561 0.378148 0.587982
O O6 0.311214 0.832674 0.015199
O O7 0.127751 0.765609 0.922307
O O8 0.000000 0.000000 0.500000
O O9 0.303047 0.929278 0.826630
O O10 0.684088 0.093325 0.557799
O O11 0.706789 0.867055 0.093737
O O12 0.997701 0.915200 0.744754
O O13 0.141959 0.558345 0.471968
O O14 0.849189 0.762072 0.074404
O O15 0.372357 0.321574 0.903388
O O16 0.500000 0.500000 0.000000
#
# Coordination Sequence:
#
# PCOD9068434 Si02
#       8
#     1   2   2   2   2   2   2   2
#     4  12  18  30  56  86 106 138 178 224 284 322
#     4  10  18  33  55  77 107 137 177 227 271 321
#     4  10  18  28  50  83 110 136 170 226 283 321
#     4   9  17  28  45  77 108 135 172 217 271 328
#     4  11  20  33  56  81 110 140 180 226 272 325
#     4  11  22  37  54  77 108 148 187 221 269 327
#     4  10  18  34  53  75 106 140 178 225 265 317
#     4   9  16  28  47  76 108 136 167 221 276 319
#
# _framework density 26.040127999999999
#
# number of rings (size 3 to 8) (size 9 to 14) (size 15 to 20)
#    0.000    1.867    4.000    4.800    0.000    0.000 
#    0.000    0.667    0.000    3.200    0.000    4.667 
#    0.000    0.000    0.000    0.000    0.000    0.000 
#
# Total GULP energy -83659.623952 kJ/mol
# GULP energy per Si atom -5577.308263 kJ/mol
# Density = 2.598086 g / cm^3
# Si number density = 26.040128 Si / 1000 Ang^3
#
#
#
# Elastic Constant Matrix: (Units=GPa)
#
#
# Indices 1 2 3 4 5 6 
#
# 1 122.6460 59.8394 12.1000 -12.3079 1.1609 -10.9749
# 2 59.8394 214.8149 34.5143 19.2057 -4.8802 -23.8396
# 3 12.1000 34.5143 66.6376 10.1196 -2.0049 -7.0651
# 4 -12.3079 19.2057 10.1196 32.5475 -2.2662 -6.9810
# 5 1.1609 -4.8802 -2.0049 -2.2662 17.1148 -1.2838
# 6 -10.9749 -23.8396 -7.0651 -6.9810 -1.2838 38.2948
#
#
#
# Elastic Compliance Matrix: (Units=1/GPa)
#
#
# Indices 1 2 3 4 5 6 
#
# 1 0.010671 -0.003177 -0.001104 0.006645 -0.000724 0.002064
# 2 -0.003177 0.006460 -0.001915 -0.003864 0.001479 0.002103
# 3 -0.001104 -0.001915 0.016976 -0.004308 0.001012 0.000872
# 4 0.006645 -0.003864 -0.004308 0.038343 0.003456 0.005810
# 5 -0.000724 0.001479 0.001012 0.003456 0.059741 0.003533
# 6 0.002064 0.002103 0.000872 0.005810 0.003533 0.029353
#
#
# Mechanical properties :
#
#
# Convention : Reuss Voigt Hill
#
# Bulk Modulus (GPa) = 46.05071 68.55618 57.30345
# Shear Modulus (GPa) = 27.59773 37.43441 32.51607
#
# Velocity S-wave (km/s) = 3.25901 3.79564 3.53752
# Velocity P-wave (km/s) = 5.64663 6.75229 6.22406
#
# Compressibility (1/GPa) = 0.02171519
#
# Stress axis : x y z
#
# Youngs Moduli (GPa) = 93.71388 154.79472 58.90639
#
# Poissons Ratio (x) = 0.49171 0.06506
# Poissons Ratio (y) = 0.29769 0.11280
# Poissons Ratio (z) = 0.10350 0.29642
#
# Static dielectric constant tensor:
#      x y z
#    x 1.653010 -0.081860 -0.324640 
#    y -0.081860 2.105340 -0.159970 
#    z -0.324640 -0.159970 2.009500 
# 
# From -- ./inp_files/268741.got.cif
#   From: 2010.05.17/outbox.cif.g08.bks.cpg/sg2_135_cif.got.tgz:268741.got - 2010.06.03 11:33:40.
