data_PCOD9068705
_publ_section_title
;
Structure prediction by ZEFSAII (Michael W. Deem and Ramdas Pophale) SiO2 
 PCOD9068705
Probable space group: P -1
;
_chemical_formula_sum "Si O2"
_cell_formula_units_Z 12
_cell_length_a 22.419007
_cell_length_b 5.151410
_cell_length_c 19.994575
_cell_angle_alpha 67.084209
_cell_angle_beta 167.799316
_cell_angle_gamma 110.448456
_cell_volume 443.677416
_symmetry_space_group_name_H-M "P -1"
_symmetry_group_IT_number 2
_symmetry_cell_setting 'triclinic'
loop_
_space_group_symop_operation_xyz
x,y,z
-x,-y,-z
loop_
_atom_site_type_symbol
_atom_site_label
_atom_site_fract_x
_atom_site_fract_y
_atom_site_fract_z
Si Si1 0.415093 0.195940 0.672838
Si Si2 0.303717 0.704474 0.666727
Si Si3 0.555234 0.967044 0.642320
Si Si4 0.939258 0.734286 0.852213
Si Si5 0.098780 0.477963 0.841213
Si Si6 0.806358 0.750297 0.306592
O O1 0.272497 0.308972 0.435433
O O2 0.189703 0.333647 0.467482
O O3 0.439247 0.854119 0.737579
O O4 0.704820 0.309644 0.993284
O O5 0.280985 0.397080 0.706109
O O6 0.984600 0.749112 0.280712
O O7 0.501433 0.825775 0.927216
O O8 0.500000 0.000000 0.500000
O O9 0.252886 0.006865 0.344596
O O10 0.743284 0.687649 0.906354
O O11 0.763660 0.202790 0.858786
O O12 0.000000 0.500000 0.000000
O O13 0.000000 0.500000 0.500000
O O14 0.000000 0.000000 0.500000
#
# Coordination Sequence:
#
# PCOD9068705 Si02
#       6
#     2   2   2   2   2   2
#     4  12  27  46  75 110 153 202 260 324 395 470
#     4  11  28  46  78 112 158 198 264 320 398 485
#     4  12  24  44  69 104 151 200 262 325 389 464
#     4  12  24  44  69 104 151 200 262 325 389 464
#     4  12  27  46  75 110 153 202 260 324 395 470
#     4  11  28  51  82 116 159 206 263 327 406 486
#
# _framework density 27.046676000000001
#
# number of rings (size 3 to 8) (size 9 to 14) (size 15 to 20)
#    0.000    0.333    1.667    6.000    9.333    1.333 
#    0.000    0.000    0.000    0.000    0.000    0.000 
#    0.000    0.000    0.000    0.000    0.000    0.000 
#
# Total GULP energy -67008.665396 kJ/mol
# GULP energy per Si atom -5584.055450 kJ/mol
# Density = 2.698512 g / cm^3
# Si number density = 27.046676 Si / 1000 Ang^3
#
#
#
# Elastic Constant Matrix: (Units=GPa)
#
#
# Indices 1 2 3 4 5 6 
#
# 1 71.7566 68.0701 116.9222 -23.4397 -22.1841 13.6645
# 2 68.0701 162.6867 56.6336 48.7870 0.2653 22.1835
# 3 116.9222 56.6336 108.7572 57.8363 -3.1713 13.9719
# 4 -23.4397 48.7870 57.8363 65.3114 -1.6283 5.5310
# 5 -22.1841 0.2653 -3.1713 -1.6283 58.6833 -7.2756
# 6 13.6645 22.1835 13.9719 5.5310 -7.2756 53.5179
#
#
#
# Elastic Compliance Matrix: (Units=1/GPa)
#
#
# Indices 1 2 3 4 5 6 
#
# 1 -0.003327 0.001599 0.007716 -0.009163 -0.001232 -0.001048
# 2 0.001599 0.007713 -0.005280 -0.000326 0.000003 -0.002193
# 3 0.007716 -0.005280 0.000260 0.006569 0.003124 -0.000104
# 4 -0.009163 -0.000326 0.006569 0.006401 -0.002968 -0.000305
# 5 -0.001232 0.000003 0.003124 -0.002968 0.016922 0.002105
# 6 -0.001048 -0.002193 -0.000104 -0.000305 0.002105 0.020207
#
#
# Mechanical properties :
#
#
# Convention : Reuss Voigt Hill
#
# Bulk Modulus (GPa) = 78.64666 91.82802 85.23734
# Shear Modulus (GPa) = 112.75098 42.27417 77.51258
#
# Velocity S-wave (km/s) = 6.46359 3.95778 5.35920
# Velocity P-wave (km/s) = 9.21115 7.41018 8.35931
#
# Compressibility (1/GPa) = 0.01271510
#
# Stress axis : x y z
#
# Youngs Moduli (GPa) = -300.57777 129.65832 3838.92732
#
# Poissons Ratio (x) = -0.20730 -29.61931
# Poissons Ratio (y) = 0.48057 20.26894
# Poissons Ratio (z) = 2.31911 0.68458
#
# Static dielectric constant tensor:
#      x y z
#    x 2.158410 -0.124120 -0.013190 
#    y -0.124120 2.253390 -0.015230 
#    z -0.013190 -0.015230 2.054960 
# 
# From -- ./inp_files/614266.got.cif
#   From: 2010.05.17/outbox.cif.g08.bks.cpg/sg2_308_cif.got.tgz:614266.got - 2010.06.03 11:33:40.
