data_PCOD9068530
_publ_section_title
;
Structure prediction by ZEFSAII (Michael W. Deem and Ramdas Pophale) SiO2 
 PCOD9068530
Probable space group: P -1
;
_chemical_formula_sum "Si O2"
_cell_formula_units_Z 6
_cell_length_a 6.639483
_cell_length_b 5.062524
_cell_length_c 7.949077
_cell_angle_alpha 97.556168
_cell_angle_beta 53.574395
_cell_angle_gamma 117.532616
_cell_volume 186.772959
_symmetry_space_group_name_H-M "P -1"
_symmetry_group_IT_number 2
_symmetry_cell_setting 'triclinic'
loop_
_space_group_symop_operation_xyz
x,y,z
-x,-y,-z
loop_
_atom_site_type_symbol
_atom_site_label
_atom_site_fract_x
_atom_site_fract_y
_atom_site_fract_z
Si Si1 0.588723 0.704585 0.305307
Si Si2 0.254473 0.653996 0.037446
Si Si3 0.090355 0.842570 0.586433
O O1 0.500000 0.500000 0.500000
O O2 0.566149 0.499465 0.143175
O O3 0.398942 0.872444 0.395270
O O4 0.895420 0.966539 0.235592
O O5 0.077349 0.494548 0.281108
O O6 0.000000 0.500000 0.000000
O O7 0.500000 0.000000 0.000000
O O8 0.000000 0.000000 0.500000
#
# Coordination Sequence:
#
# PCOD9068530 Si02
#       3
#     2   2   2
#     4  11  26  57  97 135 196 255 327 395 494 586
#     4  12  29  60  99 143 195 256 328 401 489 592
#     4  11  28  57  97 144 190 254 328 409 486 577
#
# _framework density 32.124563000000002
#
# number of rings (size 3 to 8) (size 9 to 14) (size 15 to 20)
#    0.000    0.667    3.333    1.000    0.000    9.333 
#    0.000    5.000    0.000    0.000    0.000    0.000 
#    0.000    0.000    0.000    0.000    0.000    0.000 
#
# Total GULP energy -33544.262011 kJ/mol
# GULP energy per Si atom -5590.710335 kJ/mol
# Density = 3.205145 g / cm^3
# Si number density = 32.124563 Si / 1000 Ang^3
#
#
#
# Elastic Constant Matrix: (Units=GPa)
#
#
# Indices 1 2 3 4 5 6 
#
# 1 255.2225 106.8632 79.7117 7.3640 43.3442 3.1928
# 2 106.8632 301.2538 57.6655 12.4166 23.4730 30.1173
# 3 79.7117 57.6655 179.4182 -19.4177 49.7053 2.5326
# 4 7.3640 12.4166 -19.4177 87.2544 10.0613 2.1744
# 5 43.3442 23.4730 49.7053 10.0613 52.7867 -3.0323
# 6 3.1928 30.1173 2.5326 2.1744 -3.0323 89.0696
#
#
#
# Elastic Compliance Matrix: (Units=1/GPa)
#
#
# Indices 1 2 3 4 5 6 
#
# 1 0.005356 -0.001485 -0.001234 -0.000232 -0.002516 0.000265
# 2 -0.001485 0.004136 -0.000754 -0.000614 0.000132 -0.001304
# 3 -0.001234 -0.000754 0.008778 0.003038 -0.007512 -0.000280
# 4 -0.000232 -0.000614 0.003038 0.012813 -0.004860 -0.000349
# 5 -0.002516 0.000132 -0.007512 -0.004860 0.029030 0.001366
# 6 0.000265 -0.001304 -0.000280 -0.000349 0.001366 0.011722
#
#
# Mechanical properties :
#
#
# Convention : Reuss Voigt Hill
#
# Bulk Modulus (GPa) = 88.30951 136.04170 112.17560
# Shear Modulus (GPa) = 60.56560 78.59907 69.58233
#
# Velocity S-wave (km/s) = 4.34676 4.95178 4.65910
# Velocity P-wave (km/s) = 7.26235 8.66796 7.99610
#
# Compressibility (1/GPa) = 0.01132381
#
# Stress axis : x y z
#
# Youngs Moduli (GPa) = 186.71093 241.78747 113.91778
#
# Poissons Ratio (x) = 0.35894 0.14059
# Poissons Ratio (y) = 0.27718 0.08594
# Poissons Ratio (z) = 0.23043 0.18241
#
# Static dielectric constant tensor:
#      x y z
#    x 2.921430 0.130280 -0.175420 
#    y 0.130280 2.942670 -0.050390 
#    z -0.175420 -0.050390 2.541760 
# 
# From -- ./inp_files/1247.got.cif
#   From: 2010.05.17/outbox.cif.g08.bks.cpg/sg2_1_cif.got.tgz:1247.got - 2010.06.03 11:33:40.
