data_PCOD9068478
_publ_section_title
;
Structure prediction by ZEFSAII (Michael W. Deem and Ramdas Pophale) SiO2 
 PCOD9068478
Probable space group: P -1
;
_chemical_formula_sum "Si O2"
_cell_formula_units_Z 12
_cell_length_a 5.042180
_cell_length_b 14.264811
_cell_length_c 7.870874
_cell_angle_alpha 100.283062
_cell_angle_beta 62.307255
_cell_angle_gamma 77.811212
_cell_volume 464.269385
_symmetry_space_group_name_H-M "P -1"
_symmetry_group_IT_number 2
_symmetry_cell_setting 'triclinic'
loop_
_space_group_symop_operation_xyz
x,y,z
-x,-y,-z
loop_
_atom_site_type_symbol
_atom_site_label
_atom_site_fract_x
_atom_site_fract_y
_atom_site_fract_z
Si Si1 0.320837 0.208598 0.671737
Si Si2 0.137382 0.708918 0.479395
Si Si3 0.696779 0.097514 0.071275
Si Si4 0.084779 0.711025 0.867832
Si Si5 0.653794 0.019619 0.685822
Si Si6 0.643059 0.501293 0.142287
O O1 0.663067 0.215711 0.536203
O O2 0.385334 0.092027 0.664019
O O3 0.422301 0.079258 0.263007
O O4 0.186187 0.269788 0.903754
O O5 0.966462 0.711969 0.711049
O O6 0.408887 0.599579 0.337866
O O7 0.921232 0.739022 0.387487
O O8 0.627553 0.083022 0.890079
O O9 0.772512 0.198922 0.116512
O O10 0.000000 0.000000 0.000000
O O11 0.332621 0.600523 0.796771
O O12 0.000000 0.000000 0.500000
O O13 0.500000 0.500000 0.000000
O O14 0.000000 0.500000 0.000000
#
# Coordination Sequence:
#
# PCOD9068478 Si02
#       6
#     2   2   2   2   2   2
#     4  12  27  51  80 116 162 209 269 336 398 483
#     4  12  28  50  81 121 154 218 268 324 418 480
#     4  11  26  51  76 120 158 215 273 337 409 485
#     4  12  27  51  82 113 166 208 273 336 401 485
#     4  11  28  51  81 114 167 213 274 339 411 481
#     4  12  25  51  82 116 164 209 266 340 408 483
#
# _framework density 25.847062000000001
#
# number of rings (size 3 to 8) (size 9 to 14) (size 15 to 20)
#    0.000    0.333    5.000    1.500    2.333    7.333 
#    0.000    4.167    0.000    0.000    0.000    0.000 
#    0.000    0.000    0.000    0.000    0.000    0.000 
#
# Total GULP energy -67390.973936 kJ/mol
# GULP energy per Si atom -5615.914495 kJ/mol
# Density = 2.578823 g / cm^3
# Si number density = 25.847062 Si / 1000 Ang^3
#
#
#
# Elastic Constant Matrix: (Units=GPa)
#
#
# Indices 1 2 3 4 5 6 
#
# 1 142.0070 51.4193 27.6595 -20.9333 -0.7078 -23.2426
# 2 51.4193 188.2995 46.4669 10.7306 6.1976 -26.7865
# 3 27.6595 46.4669 146.2113 -26.9219 -4.2724 -17.5941
# 4 -20.9333 10.7306 -26.9219 59.7882 -4.5963 3.8760
# 5 -0.7078 6.1976 -4.2724 -4.5963 40.7695 -8.9554
# 6 -23.2426 -26.7865 -17.5941 3.8760 -8.9554 54.8994
#
#
#
# Elastic Compliance Matrix: (Units=1/GPa)
#
#
# Indices 1 2 3 4 5 6 
#
# 1 0.008808 -0.002292 0.000059 0.003465 0.001475 0.002626
# 2 -0.002292 0.006957 -0.002207 -0.003259 -0.001316 0.001732
# 3 0.000059 -0.002207 0.008600 0.004339 0.002110 0.001742
# 4 0.003465 -0.003259 0.004339 0.020717 0.003426 0.000364
# 5 0.001475 -0.001316 0.002110 0.003426 0.026398 0.004723
# 6 0.002626 0.001732 0.001742 0.000364 0.004723 0.021475
#
#
# Mechanical properties :
#
#
# Convention : Reuss Voigt Hill
#
# Bulk Modulus (GPa) = 64.58216 80.84546 72.71381
# Shear Modulus (GPa) = 46.73007 54.48957 50.60982
#
# Velocity S-wave (km/s) = 4.25661 4.59644 4.42979
# Velocity P-wave (km/s) = 7.01418 7.71466 7.37275
#
# Compressibility (1/GPa) = 0.01548415
#
# Stress axis : x y z
#
# Youngs Moduli (GPa) = 113.52862 143.74526 116.28190
#
# Poissons Ratio (x) = 0.32954 -0.00690
# Poissons Ratio (y) = 0.26026 0.25666
# Poissons Ratio (z) = -0.00674 0.31728
#
# Static dielectric constant tensor:
#      x y z
#    x 1.985410 -0.010020 -0.011650 
#    y -0.010020 2.057010 0.002710 
#    z -0.011650 0.002710 2.084110 
# 
# From -- ./inp_files/132558.got.cif
#   From: 2010.05.17/outbox.cif.g08.bks.cpg/sg2_67_cif.got.tgz:132558.got - 2010.06.03 11:33:40.
