data_PCOD9068901
_publ_section_title
;
Structure prediction by ZEFSAII (Michael W. Deem and Ramdas Pophale) SiO2 
 PCOD9068901
Probable space group: P -1
;
_chemical_formula_sum "Si O2"
_cell_formula_units_Z 14
_cell_length_a 15.735565
_cell_length_b 15.157747
_cell_length_c 12.534568
_cell_angle_alpha 18.261256
_cell_angle_beta 41.508848
_cell_angle_gamma 39.642292
_cell_volume 595.366171
_symmetry_space_group_name_H-M "P -1"
_symmetry_group_IT_number 2
_symmetry_cell_setting 'triclinic'
loop_
_space_group_symop_operation_xyz
x,y,z
-x,-y,-z
loop_
_atom_site_type_symbol
_atom_site_label
_atom_site_fract_x
_atom_site_fract_y
_atom_site_fract_z
Si Si1 0.939556 0.967063 0.711680
Si Si2 0.780718 0.614550 0.150987
Si Si3 0.628915 0.939388 0.750496
Si Si4 0.937692 0.613745 0.311967
Si Si5 0.408978 0.834020 0.711293
Si Si6 0.462335 0.496407 0.380567
Si Si7 0.229743 0.811510 0.088757
O O1 0.885804 0.297871 0.424101
O O2 0.000000 0.000000 0.500000
O O3 0.817691 0.836383 0.943231
O O4 0.009799 0.747648 0.994698
O O5 0.635864 0.580208 0.353918
O O6 0.766426 0.738413 0.901996
O O7 0.632160 0.041747 0.509694
O O8 0.580490 0.217303 0.554936
O O9 0.519327 0.760463 0.056317
O O10 0.884696 0.351063 0.618989
O O11 0.000000 0.500000 0.500000
O O12 0.814828 0.895479 0.136099
O O13 0.500000 0.000000 0.500000
O O14 0.500000 0.500000 0.000000
O O15 0.272801 0.871661 0.861327
O O16 0.364480 0.598124 0.255333
#
# Coordination Sequence:
#
# PCOD9068901 Si02
#       7
#     2   2   2   2   2   2   2
#     4  12  26  46  70  94 127 171 218 276 331 375
#     4  12  25  42  67  96 132 169 214 267 319 383
#     4  12  24  39  63 101 134 171 214 255 312 387
#     4  12  26  46  70  96 123 166 224 275 326 385
#     4  12  23  38  61  93 132 173 209 253 308 377
#     4  12  21  41  67  94 130 172 212 249 318 391
#     4  12  23  42  70  92 128 174 209 260 324 383
#
# _framework density 23.514939999999999
#
# number of rings (size 3 to 8) (size 9 to 14) (size 15 to 20)
#    0.000    0.000    5.714    5.143    0.000    2.286 
#    0.000    0.000    0.000    0.000    0.000    0.000 
#    0.000    0.000    0.000    0.000    0.000    0.000 
#
# Total GULP energy -78317.578805 kJ/mol
# GULP energy per Si atom -5594.112772 kJ/mol
# Density = 2.346142 g / cm^3
# Si number density = 23.514940 Si / 1000 Ang^3
#
#
#
# Elastic Constant Matrix: (Units=GPa)
#
#
# Indices 1 2 3 4 5 6 
#
# 1 81.7144 -5.9162 30.5210 0.4682 33.9152 14.1242
# 2 -5.9162 74.1868 34.8693 15.2584 8.1772 28.4993
# 3 30.5210 34.8693 105.4542 8.3861 27.8819 11.0052
# 4 0.4682 15.2584 8.3861 43.3428 18.4350 3.9416
# 5 33.9152 8.1772 27.8819 18.4350 37.0739 4.9680
# 6 14.1242 28.4993 11.0052 3.9416 4.9680 23.4701
#
#
#
# Elastic Compliance Matrix: (Units=1/GPa)
#
#
# Indices 1 2 3 4 5 6 
#
# 1 0.039413 0.025279 -0.006250 0.011595 -0.036574 -0.045689
# 2 0.025279 0.048388 -0.012586 -0.002957 -0.014210 -0.064563
# 3 -0.006250 -0.012586 0.015604 0.003083 -0.006460 0.012577
# 4 0.011595 -0.002957 0.003083 0.036486 -0.029793 -0.004654
# 5 -0.036574 -0.014210 -0.006460 -0.029793 0.079145 0.030545
# 6 -0.045689 -0.064563 0.012577 -0.004654 0.030545 0.136920
#
#
# Mechanical properties :
#
#
# Convention : Reuss Voigt Hill
#
# Bulk Modulus (GPa) = 8.59915 42.25595 25.42755
# Shear Modulus (GPa) = 13.09477 34.23611 23.66544
#
# Velocity S-wave (km/s) = 2.36237 3.81981 3.17582
# Velocity P-wave (km/s) = 3.33255 6.12073 4.92794
#
# Compressibility (1/GPa) = 0.11629061
#
# Stress axis : x y z
#
# Youngs Moduli (GPa) = 25.37245 20.66632 64.08791
#
# Poissons Ratio (x) = -0.52242 0.40053
# Poissons Ratio (y) = -0.64139 0.80661
# Poissons Ratio (z) = 0.15857 0.26011
#
# Static dielectric constant tensor:
#      x y z
#    x 1.898600 0.043630 0.090110 
#    y 0.043630 1.893320 0.103020 
#    z 0.090110 0.103020 1.993010 
# 
# From -- ./inp_files/101156.got.cif
#   From: 2010.05.17/outbox.cif.g08.bks.cpg/sg2_51_cif.got.tgz:101156.got - 2010.06.03 11:33:40.
