data_PCOD9068863
_publ_section_title
;
Structure prediction by ZEFSAII (Michael W. Deem and Ramdas Pophale) SiO2 
 PCOD9068863
Probable space group: P -1
;
_chemical_formula_sum "Si O2"
_cell_formula_units_Z 14
_cell_length_a 20.150234
_cell_length_b 12.506804
_cell_length_c 14.548448
_cell_angle_alpha 159.318802
_cell_angle_beta 30.383801
_cell_angle_gamma 147.044409
_cell_volume 644.317638
_symmetry_space_group_name_H-M "P -1"
_symmetry_group_IT_number 2
_symmetry_cell_setting 'triclinic'
loop_
_space_group_symop_operation_xyz
x,y,z
-x,-y,-z
loop_
_atom_site_type_symbol
_atom_site_label
_atom_site_fract_x
_atom_site_fract_y
_atom_site_fract_z
Si Si1 0.141606 0.967215 0.847465
Si Si2 0.448934 0.291990 0.981728
Si Si3 0.137061 0.988594 0.525805
Si Si4 0.038911 0.554863 0.812710
Si Si5 0.741358 0.324451 0.700126
Si Si6 0.576736 0.722389 0.664060
Si Si7 0.675473 0.401249 0.458278
O O1 0.107806 0.762615 0.813066
O O2 0.219403 0.807277 0.549661
O O3 0.219404 0.307358 0.049740
O O4 0.000000 0.000000 0.000000
O O5 0.364159 0.465515 0.290612
O O6 0.500000 0.500000 0.000000
O O7 0.582529 0.235728 0.829380
O O8 0.364160 0.966714 0.791809
O O9 0.176678 0.811506 0.427157
O O10 0.051408 0.743986 0.363275
O O11 0.275809 0.141062 0.437878
O O12 0.051409 0.243927 0.863214
O O13 0.167460 0.491175 0.662931
O O14 0.500000 0.500000 0.500000
O O15 0.591220 0.532905 0.586415
O O16 0.500000 0.000000 0.000000
#
# Coordination Sequence:
#
# PCOD9068863 Si02
#       7
#     2   2   2   2   2   2   2
#     4  12  21  38  60  95 139 171 216 268 337 395
#     4  12  25  45  70 101 139 180 228 273 339 410
#     4  12  24  41  66  98 128 173 227 272 329 400
#     4  12  25  41  65  98 135 174 220 271 338 407
#     4  12  22  38  64  94 130 174 224 277 326 393
#     4  12  27  49  74  99 132 176 232 289 341 393
#     4  12  26  47  69  99 140 180 223 284 341 398
#
# _framework density 21.728414999999998
#
# number of rings (size 3 to 8) (size 9 to 14) (size 15 to 20)
#    0.000    0.000    2.857    8.571    0.000    1.143 
#    0.000    0.000    0.000    0.000    0.000    0.000 
#    0.000    0.000    0.000    0.000    0.000    0.000 
#
# Total GULP energy -78494.915240 kJ/mol
# GULP energy per Si atom -5606.779660 kJ/mol
# Density = 2.167896 g / cm^3
# Si number density = 21.728415 Si / 1000 Ang^3
#
#
#
# Elastic Constant Matrix: (Units=GPa)
#
#
# Indices 1 2 3 4 5 6 
#
# 1 88.5340 39.3863 95.6112 9.9081 -13.4956 18.3887
# 2 39.3863 124.6165 79.2536 -2.1970 28.0235 21.8724
# 3 95.6112 79.2536 186.9410 -16.7117 60.4169 24.6839
# 4 9.9081 -2.1970 -16.7117 44.0626 12.0441 -2.9760
# 5 -13.4956 28.0235 60.4169 12.0441 34.1712 2.2636
# 6 18.3887 21.8724 24.6839 -2.9760 2.2636 55.4127
#
#
#
# Elastic Compliance Matrix: (Units=1/GPa)
#
#
# Indices 1 2 3 4 5 6 
#
# 1 -0.002862 0.000235 0.009360 0.009878 -0.021228 -0.001915
# 2 0.000235 0.011402 -0.004420 -0.001097 -0.000883 -0.002633
# 3 0.009360 -0.004420 -0.003496 -0.008212 0.016458 -0.000918
# 4 0.009878 -0.001097 -0.008212 0.013394 0.014537 0.000939
# 5 -0.021228 -0.000883 0.016458 0.014537 -0.012708 0.001361
# 6 -0.001915 -0.002633 -0.000918 0.000939 0.001361 0.020125
#
#
# Mechanical properties :
#
#
# Convention : Reuss Voigt Hill
#
# Bulk Modulus (GPa) = 64.94964 92.06594 78.50779
# Shear Modulus (GPa) = 242.29999 39.11866 140.70932
#
# Velocity S-wave (km/s) = 10.57143 4.24765 8.05598
# Velocity P-wave (km/s) = 13.37771 8.15597 11.07888
#
# Compressibility (1/GPa) = 0.01539654
#
# Stress axis : x y z
#
# Youngs Moduli (GPa) = -349.45303 87.70217 -286.02145
#
# Poissons Ratio (x) = -0.02065 2.67722
# Poissons Ratio (y) = 0.08228 -1.26410
# Poissons Ratio (z) = 3.27095 0.38761
#
# Static dielectric constant tensor:
#      x y z
#    x 2.478340 0.184650 1.269750 
#    y 0.184650 1.803160 0.402150 
#    z 1.269750 0.402150 4.462210 
# 
# From -- ./inp_files/453961.got.cif
#   From: 2010.05.17/outbox.cif.g08.bks.cpg/sg2_227_cif.got.tgz:453961.got - 2010.06.03 11:33:40.
