data_PCOD9068206
_publ_section_title
;
Structure prediction by ZEFSAII (Michael W. Deem and Ramdas Pophale) SiO2 
 PCOD9068206
Probable space group: P -1
;
_chemical_formula_sum "Si O2"
_cell_formula_units_Z 16
_cell_length_a 11.236812
_cell_length_b 5.825203
_cell_length_c 11.297945
_cell_angle_alpha 61.085851
_cell_angle_beta 98.151265
_cell_angle_gamma 86.184658
_cell_volume 632.964801
_symmetry_space_group_name_H-M "P -1"
_symmetry_group_IT_number 2
_symmetry_cell_setting 'triclinic'
loop_
_space_group_symop_operation_xyz
x,y,z
-x,-y,-z
loop_
_atom_site_type_symbol
_atom_site_label
_atom_site_fract_x
_atom_site_fract_y
_atom_site_fract_z
Si Si1 0.899760 0.705310 0.870399
Si Si2 0.907215 0.618413 0.619769
Si Si3 0.562524 0.255962 0.925242
Si Si4 0.746112 0.201682 0.757002
Si Si5 0.244314 0.630231 0.921863
Si Si6 0.571989 0.210007 0.527753
Si Si7 0.322378 0.490053 0.714464
Si Si8 0.132409 0.174436 0.684468
O O1 0.918173 0.715288 0.730651
O O2 0.871920 0.003368 0.836533
O O3 0.784659 0.578582 0.933535
O O4 0.000000 0.500000 0.000000
O O5 0.787765 0.469972 0.647192
O O6 0.893181 0.832085 0.458396
O O7 0.026285 0.402607 0.659404
O O8 0.680192 0.210352 0.870032
O O9 0.461755 0.439314 0.789522
O O10 0.619028 0.326850 0.039009
O O11 0.500000 0.000000 0.000000
O O12 0.652062 0.095487 0.679896
O O13 0.246370 0.523729 0.815593
O O14 0.150522 0.904294 0.829743
O O15 0.500000 0.500000 0.500000
O O16 0.674700 0.271855 0.434232
O O17 0.500000 0.000000 0.500000
O O18 0.265009 0.266151 0.693134
#
# Coordination Sequence:
#
# PCOD9068206 Si02
#       8
#     2   2   2   2   2   2   2   2
#     4  12  28  47  75 108 147 199 264 327 401 472
#     4  11  26  49  75 105 149 195 263 323 404 467
#     4  12  25  45  70 103 151 196 253 311 396 468
#     4  12  27  47  76 111 152 205 260 331 395 483
#     4  12  27  44  74 105 148 196 255 320 396 473
#     4  12  30  49  80 117 163 213 263 328 401 483
#     4  12  26  45  72 108 151 194 259 317 394 470
#     4  11  26  48  74 107 146 200 255 329 394 475
#
# _framework density 25.277868000000002
#
# number of rings (size 3 to 8) (size 9 to 14) (size 15 to 20)
#    0.000    0.250    5.000    2.625   10.500    1.000 
#    0.000    3.125    0.000    0.000    0.000    0.000 
#    0.000    0.000    0.000    0.000    0.000    0.000 
#
# Total GULP energy -89408.391203 kJ/mol
# GULP energy per Si atom -5588.024450 kJ/mol
# Density = 2.522033 g / cm^3
# Si number density = 25.277868 Si / 1000 Ang^3
#
#
#
# Elastic Constant Matrix: (Units=GPa)
#
#
# Indices 1 2 3 4 5 6 
#
# 1 75.0755 19.8388 14.0914 5.0648 5.7120 -6.6400
# 2 19.8388 40.4720 21.2937 11.6036 3.7828 0.0125
# 3 14.0914 21.2937 123.4898 7.5057 -6.3264 -8.7676
# 4 5.0648 11.6036 7.5057 42.4113 0.5792 1.4557
# 5 5.7120 3.7828 -6.3264 0.5792 51.3525 -1.0504
# 6 -6.6400 0.0125 -8.7676 1.4557 -1.0504 54.6761
#
#
#
# Elastic Compliance Matrix: (Units=1/GPa)
#
#
# Indices 1 2 3 4 5 6 
#
# 1 0.015583 -0.007336 -0.000459 0.000183 -0.001215 0.001792
# 2 -0.007336 0.033022 -0.004631 -0.007259 -0.002136 -0.001489
# 3 -0.000459 -0.004631 0.009154 -0.000369 0.001554 0.001453
# 4 0.000183 -0.007259 -0.000369 0.025630 0.000165 -0.000715
# 5 -0.001215 -0.002136 0.001554 0.000165 0.019965 0.000481
# 6 0.001792 -0.001489 0.001453 -0.000715 0.000481 0.018769
#
#
# Mechanical properties :
#
#
# Convention : Reuss Voigt Hill
#
# Bulk Modulus (GPa) = 30.38916 38.83166 34.61041
# Shear Modulus (GPa) = 31.65637 41.94220 36.79929
#
# Velocity S-wave (km/s) = 3.54267 4.07780 3.81962
# Velocity P-wave (km/s) = 5.36490 6.12916 5.75972
#
# Compressibility (1/GPa) = 0.03290647
#
# Stress axis : x y z
#
# Youngs Moduli (GPa) = 64.17070 30.28256 109.24242
#
# Poissons Ratio (x) = 0.22217 0.05017
# Poissons Ratio (y) = 0.47079 0.50589
# Poissons Ratio (z) = 0.02947 0.14023
#
# Static dielectric constant tensor:
#      x y z
#    x 2.010100 -0.167220 -0.142740 
#    y -0.167220 1.805930 -0.271360 
#    z -0.142740 -0.271360 1.722910 
# 
# From -- ./inp_files/95009.got.cif
#   From: 2010.05.17/outbox.cif.g08.bks.cpg/sg2_48_cif.got.tgz:95009.got - 2010.06.03 11:33:40.
