data_PCOD9068119
_publ_section_title
;
Structure prediction by ZEFSAII (Michael W. Deem and Ramdas Pophale) SiO2 
 PCOD9068119
Probable space group: P -1
;
_chemical_formula_sum "Si O2"
_cell_formula_units_Z 10
_cell_length_a 24.850798
_cell_length_b 9.192937
_cell_length_c 9.635944
_cell_angle_alpha 44.134475
_cell_angle_beta 24.912402
_cell_angle_gamma 29.519950
_cell_volume 428.921226
_symmetry_space_group_name_H-M "P -1"
_symmetry_group_IT_number 2
_symmetry_cell_setting 'triclinic'
loop_
_space_group_symop_operation_xyz
x,y,z
-x,-y,-z
loop_
_atom_site_type_symbol
_atom_site_label
_atom_site_fract_x
_atom_site_fract_y
_atom_site_fract_z
Si Si1 0.986157 0.784402 0.243817
Si Si2 0.403803 0.760580 0.668937
Si Si3 0.323421 0.256763 0.336623
Si Si4 0.960690 0.705208 0.674536
Si Si5 0.445311 0.647406 0.174171
O O1 0.097296 0.461400 0.124747
O O2 0.016954 0.739752 0.369669
O O3 0.762768 0.993871 0.595084
O O4 0.000000 0.000000 0.000000
O O5 0.500000 0.500000 0.500000
O O6 0.560183 0.535508 0.577788
O O7 0.347550 0.048110 0.536464
O O8 0.206661 0.966853 0.076920
O O9 0.131754 0.485525 0.537345
O O10 0.384486 0.402627 0.153743
O O11 0.500000 0.000000 0.000000
O O12 0.500000 0.500000 0.000000
#
# Coordination Sequence:
#
# PCOD9068119 Si02
#       5
#     2   2   2   2   2
#     4  11  26  47  77 109 152 194 245 307 379 442
#     4  12  26  46  77 108 149 195 248 304 371 437
#     4  12  26  47  75 107 152 193 251 307 364 446
#     4  11  26  48  74 113 148 195 252 305 368 448
#     4  12  27  50  71 112 150 195 248 305 373 444
#
# _framework density 23.314304
#
# number of rings (size 3 to 8) (size 9 to 14) (size 15 to 20)
#    0.000    0.400    6.000    0.600    5.600    3.200 
#    0.000    0.000    0.000    0.000    0.000    0.000 
#    0.000    0.000    0.000    0.000    0.000    0.000 
#
# Total GULP energy -55768.691718 kJ/mol
# GULP energy per Si atom -5576.869172 kJ/mol
# Density = 2.326124 g / cm^3
# Si number density = 23.314304 Si / 1000 Ang^3
#
#
#
# Elastic Constant Matrix: (Units=GPa)
#
#
# Indices 1 2 3 4 5 6 
#
# 1 148.7173 73.5080 44.6469 -11.2993 23.9619 -2.3847
# 2 73.5080 164.2562 49.5534 -16.6451 12.7169 -13.4331
# 3 44.6469 49.5534 57.3653 1.7370 26.7983 13.3852
# 4 -11.2993 -16.6451 1.7370 59.3477 -0.4485 9.4425
# 5 23.9619 12.7169 26.7983 -0.4485 37.1530 1.0932
# 6 -2.3847 -13.4331 13.3852 9.4425 1.0932 55.1688
#
#
#
# Elastic Compliance Matrix: (Units=1/GPa)
#
#
# Indices 1 2 3 4 5 6 
#
# 1 0.009870 -0.002713 -0.004517 0.001120 -0.002186 0.000714
# 2 -0.002713 0.010832 -0.011241 0.002139 0.006036 0.004762
# 3 -0.004517 -0.011241 0.045960 -0.003491 -0.026050 -0.012969
# 4 0.001120 0.002139 -0.003491 0.018045 0.001332 -0.001699
# 5 -0.002186 0.006036 -0.026050 0.001332 0.044872 0.006578
# 6 0.000714 0.004762 -0.012969 -0.001699 0.006578 0.022624
#
#
# Mechanical properties :
#
#
# Convention : Reuss Voigt Hill
#
# Bulk Modulus (GPa) = 33.64899 78.41728 56.03314
# Shear Modulus (GPa) = 25.11894 43.84260 34.48077
#
# Velocity S-wave (km/s) = 3.28595 4.34118 3.84989
# Velocity P-wave (km/s) = 5.37221 7.67044 6.62179
#
# Compressibility (1/GPa) = 0.02971857
#
# Stress axis : x y z
#
# Youngs Moduli (GPa) = 101.31486 92.31553 21.75825
#
# Poissons Ratio (x) = 0.25047 0.09829
# Poissons Ratio (y) = 0.27488 0.24459
# Poissons Ratio (z) = 0.45767 1.03775
#
# Static dielectric constant tensor:
#      x y z
#    x 1.877020 -0.079170 0.006460 
#    y -0.079170 2.188200 -0.084690 
#    z 0.006460 -0.084690 1.919520 
# 
# From -- ./inp_files/144121.got.cif
#   From: 2010.05.17/outbox.cif.g08.bks.cpg/sg2_73_cif.got.tgz:144121.got - 2010.06.03 11:33:40.
