data_PCOD9068274
_publ_section_title
;
Structure prediction by ZEFSAII (Michael W. Deem and Ramdas Pophale) SiO2 
 PCOD9068274
Probable space group: P -1
;
_chemical_formula_sum "Si O2"
_cell_formula_units_Z 14
_cell_length_a 8.129632
_cell_length_b 16.015329
_cell_length_c 18.982902
_cell_angle_alpha 21.238832
_cell_angle_beta 121.948387
_cell_angle_gamma 136.021563
_cell_volume 513.901603
_symmetry_space_group_name_H-M "P -1"
_symmetry_group_IT_number 2
_symmetry_cell_setting 'triclinic'
loop_
_space_group_symop_operation_xyz
x,y,z
-x,-y,-z
loop_
_atom_site_type_symbol
_atom_site_label
_atom_site_fract_x
_atom_site_fract_y
_atom_site_fract_z
Si Si1 0.263224 0.620611 0.071801
Si Si2 0.320407 0.371905 0.775318
Si Si3 0.659123 0.370197 0.218950
Si Si4 0.439030 0.613943 0.463281
Si Si5 0.701339 0.505851 0.962091
Si Si6 0.134489 0.728045 0.453926
Si Si7 0.832585 0.351606 0.819002
O O1 0.117481 0.409914 0.131714
O O2 0.383763 0.989772 0.805266
O O3 0.503891 0.632488 0.128305
O O4 0.128307 0.492367 0.219664
O O5 0.462217 0.484639 0.640972
O O6 0.283941 0.611913 0.587144
O O7 0.000000 0.000000 0.000000
O O8 0.779422 0.495446 0.067094
O O9 0.937807 0.656818 0.106980
O O10 0.500000 0.000000 0.500000
O O11 0.394526 0.315651 0.201588
O O12 0.500000 0.500000 0.500000
O O13 0.117054 0.431884 0.530960
O O14 0.394448 0.116975 0.189815
O O15 0.965959 0.607884 0.583639
O O16 0.500000 0.000000 0.000000
#
# Coordination Sequence:
#
# PCOD9068274 Si02
#       7
#     2   2   2   2   2   2   2
#     4  12  26  44  68 113 152 193 253 316 382 448
#     4  12  23  40  65  99 153 203 248 308 370 457
#     4  11  26  53  83 106 150 203 259 316 377 471
#     4  12  26  40  63 107 161 193 247 318 391 441
#     4  11  26  48  79 109 143 208 264 305 378 465
#     4  12  23  43  72 108 145 201 259 303 377 458
#     4  12  25  46  76 114 154 195 248 318 393 443
#
# _framework density 27.242570000000001
#
# number of rings (size 3 to 8) (size 9 to 14) (size 15 to 20)
#    0.000    0.286    5.714    3.000    4.000    0.571 
#    0.000    0.714    0.000    0.000    0.000    0.000 
#    0.000    0.000    0.000    0.000    0.000    0.000 
#
# Total GULP energy -78298.835587 kJ/mol
# GULP energy per Si atom -5592.773970 kJ/mol
# Density = 2.718056 g / cm^3
# Si number density = 27.242570 Si / 1000 Ang^3
#
#
#
# Elastic Constant Matrix: (Units=GPa)
#
#
# Indices 1 2 3 4 5 6 
#
# 1 125.9430 42.7592 35.9940 19.5024 8.6376 -23.4131
# 2 42.7592 155.6419 32.7868 39.5884 0.8893 3.8800
# 3 35.9940 32.7868 158.9145 29.0352 16.1003 -0.6213
# 4 19.5024 39.5884 29.0352 53.4135 0.6456 -13.7090
# 5 8.6376 0.8893 16.1003 0.6456 44.0579 10.0576
# 6 -23.4131 3.8800 -0.6213 -13.7090 10.0576 54.5876
#
#
#
# Elastic Compliance Matrix: (Units=1/GPa)
#
#
# Indices 1 2 3 4 5 6 
#
# 1 0.010413 -0.002767 -0.001593 0.000493 -0.002609 0.005249
# 2 -0.002767 0.008963 -0.000189 -0.006499 0.001373 -0.003711
# 3 -0.001593 -0.000189 0.007573 -0.003653 -0.002145 -0.001106
# 4 0.000493 -0.006499 -0.003653 0.027313 -0.000773 0.007634
# 5 -0.002609 0.001373 -0.002145 -0.000773 0.025371 -0.006110
# 6 0.005249 -0.003711 -0.001106 0.007634 -0.006110 0.023865
#
#
# Mechanical properties :
#
#
# Convention : Reuss Voigt Hill
#
# Bulk Modulus (GPa) = 56.01609 73.73103 64.87356
# Shear Modulus (GPa) = 42.17812 52.34243 47.26027
#
# Velocity S-wave (km/s) = 3.93904 4.38807 4.16961
# Velocity P-wave (km/s) = 6.42609 7.26615 6.85900
#
# Compressibility (1/GPa) = 0.01785201
#
# Stress axis : x y z
#
# Youngs Moduli (GPa) = 96.03281 111.57526 132.04989
#
# Poissons Ratio (x) = 0.30869 0.21036
# Poissons Ratio (y) = 0.26569 0.02491
# Poissons Ratio (z) = 0.15298 0.02105
#
# Static dielectric constant tensor:
#      x y z
#    x 2.362900 -0.107640 -0.030060 
#    y -0.107640 2.089210 -0.153690 
#    z -0.030060 -0.153690 1.712520 
# 
# From -- ./inp_files/590925.got.cif
#   From: 2010.05.17/outbox.cif.g08.bks.cpg/sg2_296_cif.got.tgz:590925.got - 2010.06.03 11:33:40.
