data_PCOD9068983
_publ_section_title
;
Structure prediction by ZEFSAII (Michael W. Deem and Ramdas Pophale) SiO2 
 PCOD9068983
Probable space group: P -1
;
_chemical_formula_sum "Si O2"
_cell_formula_units_Z 9
_cell_length_a 7.448083
_cell_length_b 9.106108
_cell_length_c 12.693339
_cell_angle_alpha 37.336442
_cell_angle_beta 144.514932
_cell_angle_gamma 130.490870
_cell_volume 303.088011
_symmetry_space_group_name_H-M "P -1"
_symmetry_group_IT_number 2
_symmetry_cell_setting 'triclinic'
loop_
_space_group_symop_operation_xyz
x,y,z
-x,-y,-z
loop_
_atom_site_type_symbol
_atom_site_label
_atom_site_fract_x
_atom_site_fract_y
_atom_site_fract_z
Si Si1 0.732420 0.353685 0.283431
Si Si2 0.000000 0.500000 0.500000
Si Si3 0.367682 0.096795 0.774256
Si Si4 0.983361 0.383858 0.171915
Si Si5 0.395461 0.853508 0.353720
O O1 0.656152 0.508200 0.259994
O O2 0.099332 0.308251 0.535313
O O3 0.797695 0.480635 0.130410
O O4 0.542401 0.105560 0.324305
O O5 0.122109 0.755598 0.348649
O O6 0.636830 0.130982 0.797018
O O7 0.154328 0.885485 0.746118
O O8 0.500000 0.000000 0.000000
O O9 0.331928 0.344374 0.397666
O O10 0.000000 0.500000 0.000000
#
# Coordination Sequence:
#
# PCOD9068983 Si02
#       5
#     2   1   2   2   2
#     4   9  21  39  56  86 114 151 185 235 286 324
#     4  12  22  34  64  78 124 152 186 216 288 364
#     4   9  19  36  63  83 110 143 197 245 270 319
#     4   9  19  36  63  83 110 143 197 245 270 319
#     4   9  21  39  56  86 114 151 185 235 286 324
#
# _framework density 29.694344999999998
#
# number of rings (size 3 to 8) (size 9 to 14) (size 15 to 20)
#    0.000    2.667    0.000    3.333    6.222    1.778 
#    0.000    2.222    0.000    0.000    0.000    0.000 
#    0.000    0.000    0.000    0.000    0.000    0.000 
#
# Total GULP energy -50281.125969 kJ/mol
# GULP energy per Si atom -5586.791774 kJ/mol
# Density = 2.962676 g / cm^3
# Si number density = 29.694345 Si / 1000 Ang^3
#
#
#
# Elastic Constant Matrix: (Units=GPa)
#
#
# Indices 1 2 3 4 5 6 
#
# 1 184.3656 66.5521 64.2974 -19.3933 -40.7967 31.2869
# 2 66.5521 210.7428 29.4085 -3.5851 -26.3979 15.7594
# 3 64.2974 29.4085 161.7405 -22.2748 -66.7016 -0.0270
# 4 -19.3933 -3.5851 -22.2748 29.1156 -1.2721 -9.5851
# 5 -40.7967 -26.3979 -66.7016 -1.2721 83.6052 -16.1641
# 6 31.2869 15.7594 -0.0270 -9.5851 -16.1641 59.6691
#
#
#
# Elastic Compliance Matrix: (Units=1/GPa)
#
#
# Indices 1 2 3 4 5 6 
#
# 1 0.007752 -0.001775 -0.001917 0.002588 0.001179 -0.002862
# 2 -0.001775 0.005424 -0.000101 -0.000705 0.000672 -0.000433
# 3 -0.001917 -0.000101 0.012763 0.010777 0.010462 0.005603
# 4 0.002588 -0.000705 0.010777 0.048014 0.012277 0.009873
# 5 0.001179 0.000672 0.010462 0.012277 0.022700 0.007330
# 6 -0.002862 -0.000433 0.005603 0.009873 0.007330 0.021948
#
#
# Mechanical properties :
#
#
# Convention : Reuss Voigt Hill
#
# Bulk Modulus (GPa) = 54.48324 97.48498 75.98411
# Shear Modulus (GPa) = 37.79182 60.91738 49.35460
#
# Velocity S-wave (km/s) = 3.57135 4.53424 4.08129
# Velocity P-wave (km/s) = 5.94928 7.76616 6.91763
#
# Compressibility (1/GPa) = 0.01835427
#
# Stress axis : x y z
#
# Youngs Moduli (GPa) = 129.00042 184.35798 78.35265
#
# Poissons Ratio (x) = 0.32721 0.15018
# Poissons Ratio (y) = 0.22895 0.00790
# Poissons Ratio (z) = 0.24725 0.01859
#
# Static dielectric constant tensor:
#      x y z
#    x 2.572710 -0.141410 0.098660 
#    y -0.141410 2.343030 0.226630 
#    z 0.098660 0.226630 2.743300 
# 
# From -- ./inp_files/144057.got.cif
#   From: 2010.05.17/outbox.cif.g08.bks.cpg/sg2_73_cif.got.tgz:144057.got - 2010.06.03 11:33:40.
