data_PCOD9068535
_publ_section_title
;
Structure prediction by ZEFSAII (Michael W. Deem and Ramdas Pophale) SiO2 
 PCOD9068535
Probable space group: P -1
;
_chemical_formula_sum "Si O2"
_cell_formula_units_Z 13
_cell_length_a 12.484455
_cell_length_b 9.856522
_cell_length_c 9.501915
_cell_angle_alpha 29.394295
_cell_angle_beta 115.882191
_cell_angle_gamma 113.385158
_cell_volume 515.955325
_symmetry_space_group_name_H-M "P -1"
_symmetry_group_IT_number 2
_symmetry_cell_setting 'triclinic'
loop_
_space_group_symop_operation_xyz
x,y,z
-x,-y,-z
loop_
_atom_site_type_symbol
_atom_site_label
_atom_site_fract_x
_atom_site_fract_y
_atom_site_fract_z
Si Si1 0.320229 0.498785 0.239822
Si Si2 0.187202 0.964907 0.606150
Si Si3 0.705170 0.281359 0.679690
Si Si4 0.510884 0.287055 0.326340
Si Si5 0.146771 0.227404 0.765911
Si Si6 0.000000 0.500000 0.000000
Si Si7 0.921249 0.856709 0.881474
O O1 0.355566 0.586258 0.338094
O O2 0.409343 0.337832 0.338934
O O3 0.202337 0.287357 0.374309
O O4 0.292584 0.779934 0.888392
O O5 0.076228 0.798275 0.760310
O O6 0.174529 0.993302 0.406693
O O7 0.628969 0.301971 0.476506
O O8 0.824408 0.469766 0.550814
O O9 0.742689 0.972514 0.016872
O O10 0.500000 0.000000 0.500000
O O11 0.500000 0.500000 0.000000
O O12 0.131093 0.236270 0.915918
O O13 0.030674 0.071790 0.778191
O O14 0.956099 0.594199 0.047601
#
# Coordination Sequence:
#
# PCOD9068535 Si02
#       7
#     2   2   2   2   2   1   2
#     4  12  27  49  76 110 146 200 237 304 371 433
#     4  12  27  42  77 106 153 187 256 290 356 433
#     4  12  27  51  74 107 147 193 243 305 363 447
#     4  12  29  49  81 112 143 185 246 310 373 437
#     4  11  29  44  74 103 154 193 245 293 378 408
#     4  12  24  42  70 104 144 196 242 290 354 412
#     4  11  27  45  69 110 150 198 244 302 347 450
#
# _framework density 25.195982000000001
#
# number of rings (size 3 to 8) (size 9 to 14) (size 15 to 20)
#    0.000    0.308    1.538    5.538   12.923    1.231 
#    0.000    4.615    0.000    0.000    0.000    0.000 
#    0.000    0.000    0.000    0.000    0.000    0.000 
#
# Total GULP energy -72675.228567 kJ/mol
# GULP energy per Si atom -5590.402197 kJ/mol
# Density = 2.513863 g / cm^3
# Si number density = 25.195982 Si / 1000 Ang^3
#
#
#
# Elastic Constant Matrix: (Units=GPa)
#
#
# Indices 1 2 3 4 5 6 
#
# 1 64.4327 46.8300 6.9504 0.8701 -8.0719 -32.1229
# 2 46.8300 173.9742 44.7401 3.7768 11.0395 -33.8849
# 3 6.9504 44.7401 122.9365 -21.3583 8.9475 1.1502
# 4 0.8701 3.7768 -21.3583 31.6736 9.3375 7.7146
# 5 -8.0719 11.0395 8.9475 9.3375 18.1585 1.2942
# 6 -32.1229 -33.8849 1.1502 7.7146 1.2942 47.5182
#
#
#
# Elastic Compliance Matrix: (Units=1/GPa)
#
#
# Indices 1 2 3 4 5 6 
#
# 1 0.034675 -0.005036 -0.005569 -0.018017 0.028908 0.022122
# 2 -0.005036 0.008961 -0.003022 -0.002282 -0.005278 0.003573
# 3 -0.005569 -0.003022 0.013515 0.016100 -0.014974 -0.008453
# 4 -0.018017 -0.002282 0.016100 0.062017 -0.044803 -0.023046
# 5 0.028908 -0.005278 -0.014974 -0.044803 0.100072 0.020689
# 6 0.022122 0.003573 -0.008453 -0.023046 0.020689 0.041930
#
#
# Mechanical properties :
#
#
# Convention : Reuss Voigt Hill
#
# Bulk Modulus (GPa) = 33.44852 62.04270 47.74561
# Shear Modulus (GPa) = 16.75656 36.99160 26.87408
#
# Velocity S-wave (km/s) = 2.58165 3.83581 3.26943
# Velocity P-wave (km/s) = 4.71070 6.65548 5.76568
#
# Compressibility (1/GPa) = 0.02989669
#
# Stress axis : x y z
#
# Youngs Moduli (GPa) = 28.83951 111.59132 73.99118
#
# Poissons Ratio (x) = 0.56198 0.41204
# Poissons Ratio (y) = 0.14524 0.22363
# Poissons Ratio (z) = 0.16060 0.33727
#
# Static dielectric constant tensor:
#      x y z
#    x 2.994240 0.460640 0.658860 
#    y 0.460640 2.117910 0.266380 
#    z 0.658860 0.266380 2.270050 
# 
# From -- ./inp_files/291402.got.cif
#   From: 2010.05.17/outbox.cif.g08.bks.cpg/sg2_146_cif.got.tgz:291402.got - 2010.06.03 11:33:40.
