data_PCOD9068728
_publ_section_title
;
Structure prediction by ZEFSAII (Michael W. Deem and Ramdas Pophale) SiO2 
 PCOD9068728
Probable space group: P -1
;
_chemical_formula_sum "Si O2"
_cell_formula_units_Z 8
_cell_length_a 13.820922
_cell_length_b 11.853083
_cell_length_c 5.880122
_cell_angle_alpha 103.924889
_cell_angle_beta 101.169986
_cell_angle_gamma 21.068756
_cell_volume 334.796973
_symmetry_space_group_name_H-M "P -1"
_symmetry_group_IT_number 2
_symmetry_cell_setting 'triclinic'
loop_
_space_group_symop_operation_xyz
x,y,z
-x,-y,-z
loop_
_atom_site_type_symbol
_atom_site_label
_atom_site_fract_x
_atom_site_fract_y
_atom_site_fract_z
Si Si1 0.572503 0.292258 0.022638
Si Si2 0.596987 0.709020 0.403003
Si Si3 0.739306 0.760692 0.166550
Si Si4 0.937307 0.197932 0.657872
O O1 0.325548 0.523255 0.174367
O O2 0.500000 0.500000 0.000000
O O3 0.564844 0.210693 0.772996
O O4 0.827921 0.016135 0.172063
O O5 0.738168 0.649296 0.274990
O O6 0.840351 0.384112 0.497469
O O7 0.374349 0.013122 0.612469
O O8 0.000000 0.500000 0.000000
O O9 0.500000 0.000000 0.000000
O O10 0.000000 0.000000 0.500000
#
# Coordination Sequence:
#
# PCOD9068728 Si02
#       4
#     2   2   2   2
#     4  12  27  48  76 118 162 205 256 314 395 478
#     4  11  28  50  84 114 162 209 258 334 392 463
#     4  11  28  55  79 114 153 209 274 325 391 460
#     4  12  27  48  76 118 162 205 256 314 395 478
#
# _framework density 23.895076
#
# number of rings (size 3 to 8) (size 9 to 14) (size 15 to 20)
#    0.000    0.500    2.500    3.000    0.000   16.000 
#    0.000    3.750    0.000    0.000    0.000    0.000 
#    0.000    0.000    0.000    0.000    0.000    0.000 
#
# Total GULP energy -44864.150917 kJ/mol
# GULP energy per Si atom -5608.018865 kJ/mol
# Density = 2.384069 g / cm^3
# Si number density = 23.895076 Si / 1000 Ang^3
#
#
#
# Elastic Constant Matrix: (Units=GPa)
#
#
# Indices 1 2 3 4 5 6 
#
# 1 176.2503 131.6057 128.7475 -13.0015 -0.4103 5.3823
# 2 131.6057 203.4461 130.4430 -33.8604 0.9727 -14.2577
# 3 128.7475 130.4430 227.8787 -7.5266 30.0321 4.9444
# 4 -13.0015 -33.8604 -7.5266 71.1099 7.0486 -4.9986
# 5 -0.4103 0.9727 30.0321 7.0486 74.9748 -4.3321
# 6 5.3823 -14.2577 4.9444 -4.9986 -4.3321 75.2467
#
#
#
# Elastic Compliance Matrix: (Units=1/GPa)
#
#
# Indices 1 2 3 4 5 6 
#
# 1 0.013478 -0.006382 -0.004210 -0.001337 0.001860 -0.001878
# 2 -0.006382 0.012216 -0.003440 0.004426 0.000962 0.003347
# 3 -0.004210 -0.003440 0.009203 -0.001161 -0.003627 -0.001241
# 4 -0.001337 0.004426 -0.001161 0.016043 -0.000991 0.002019
# 5 0.001860 0.000962 -0.003627 -0.000991 0.014944 0.001082
# 6 -0.001878 0.003347 -0.001241 0.002019 0.001082 0.014336
#
#
# Mechanical properties :
#
#
# Convention : Reuss Voigt Hill
#
# Bulk Modulus (GPa) = 146.37122 154.35192 150.36157
# Shear Modulus (GPa) = 45.22380 58.71820 51.97100
#
# Velocity S-wave (km/s) = 4.35512 4.96253 4.66871
# Velocity P-wave (km/s) = 9.31011 9.87783 9.59817
#
# Compressibility (1/GPa) = 0.00683194
#
# Stress axis : x y z
#
# Youngs Moduli (GPa) = 74.19690 81.85888 108.66582
#
# Poissons Ratio (x) = 0.52245 0.45746
# Poissons Ratio (y) = 0.47355 0.37382
# Poissons Ratio (z) = 0.31235 0.28160
#
# Static dielectric constant tensor:
#      x y z
#    x 1.833360 -0.007390 0.020190 
#    y -0.007390 1.826920 0.044720 
#    z 0.020190 0.044720 1.629900 
# 
# From -- ./inp_files/4552.got.cif
#   From: 2010.05.17/outbox.cif.g08.bks.cpg/sg2_3_cif.got.tgz:4552.got - 2010.06.03 11:33:40.
