data_PCOD9068871
_publ_section_title
;
Structure prediction by ZEFSAII (Michael W. Deem and Ramdas Pophale) SiO2 
 PCOD9068871
Probable space group: P -1
;
_chemical_formula_sum "Si O2"
_cell_formula_units_Z 16
_cell_length_a 14.546115
_cell_length_b 16.025983
_cell_length_c 13.929637
_cell_angle_alpha 39.492723
_cell_angle_beta 19.648024
_cell_angle_gamma 39.212887
_cell_volume 676.653012
_symmetry_space_group_name_H-M "P -1"
_symmetry_group_IT_number 2
_symmetry_cell_setting 'triclinic'
loop_
_space_group_symop_operation_xyz
x,y,z
-x,-y,-z
loop_
_atom_site_type_symbol
_atom_site_label
_atom_site_fract_x
_atom_site_fract_y
_atom_site_fract_z
Si Si1 0.417453 0.981560 0.353099
Si Si2 0.399068 0.253937 0.046990
Si Si3 0.921394 0.965107 0.999813
Si Si4 0.465348 0.585519 0.839701
Si Si5 0.890771 0.307841 0.629687
Si Si6 0.084571 0.286947 0.657905
Si Si7 0.844678 0.488448 0.064008
Si Si8 0.419549 0.327537 0.561542
O O1 0.620686 0.026041 0.194092
O O2 0.547133 0.832561 0.316458
O O3 0.366858 0.099122 0.218235
O O4 0.145780 0.970387 0.691740
O O5 0.309731 0.362021 0.953891
O O6 0.178472 0.320541 0.287022
O O7 0.714931 0.248605 0.775462
O O8 0.901958 0.812216 0.178168
O O9 0.000000 0.000000 0.000000
O O10 0.676778 0.443851 0.748267
O O11 0.465213 0.647905 0.678980
O O12 0.616373 0.677272 0.676784
O O13 0.162144 0.588392 0.177441
O O14 0.985166 0.233908 0.703002
O O15 0.100617 0.412498 0.810975
O O16 0.617649 0.395593 0.374217
O O17 0.000000 0.500000 0.000000
#
# Coordination Sequence:
#
# PCOD9068871 Si02
#       8
#     2   2   2   2   2   2   2   2
#     4  12  25  41  65  94 132 180 215 265 325 378
#     4  12  24  44  64  95 130 169 215 262 331 385
#     4  12  23  38  57  87 133 184 232 263 300 361
#     4  12  21  39  61  90 128 170 220 267 314 377
#     4  12  24  38  61  90 133 175 217 270 310 366
#     4  12  22  36  55  92 129 171 229 269 301 355
#     4  12  26  48  77 101 124 160 213 274 341 416
#     4  12  23  46  72  99 131 169 215 268 334 396
#
# _framework density 23.645797000000002
#
# number of rings (size 3 to 8) (size 9 to 14) (size 15 to 20)
#    0.000    0.000    5.000    6.750    0.000    0.000 
#    0.000    1.250    0.000    0.000    0.000    0.000 
#    0.000    0.000    0.000    0.000    0.000    0.000 
#
# Total GULP energy -89457.734391 kJ/mol
# GULP energy per Si atom -5591.108399 kJ/mol
# Density = 2.359198 g / cm^3
# Si number density = 23.645797 Si / 1000 Ang^3
#
#
#
# Elastic Constant Matrix: (Units=GPa)
#
#
# Indices 1 2 3 4 5 6 
#
# 1 100.0226 42.4934 20.8431 -20.1475 -15.4151 -19.9899
# 2 42.4934 110.7094 -6.3585 -21.6463 -3.7194 -24.9169
# 3 20.8431 -6.3585 99.6460 1.1872 -27.1526 0.6126
# 4 -20.1475 -21.6463 1.1872 37.4881 0.4674 2.8600
# 5 -15.4151 -3.7194 -27.1526 0.4674 31.6741 -0.1081
# 6 -19.9899 -24.9169 0.6126 2.8600 -0.1081 24.9174
#
#
#
# Elastic Compliance Matrix: (Units=1/GPa)
#
#
# Indices 1 2 3 4 5 6 
#
# 1 0.015412 -0.002610 -0.002054 0.006077 0.005375 0.009131
# 2 -0.002610 0.013776 0.001791 0.005633 0.001837 0.010999
# 3 -0.002054 0.001791 0.013537 -0.000628 0.010824 -0.000071
# 4 0.006077 0.005633 -0.000628 0.032664 0.002622 0.006786
# 5 0.005375 0.001837 0.010824 0.002622 0.043663 0.005771
# 6 0.009131 0.010999 -0.000071 0.006786 0.005771 0.057705
#
#
# Mechanical properties :
#
#
# Convention : Reuss Voigt Hill
#
# Bulk Modulus (GPa) = 27.04278 47.14821 37.09549
# Shear Modulus (GPa) = 25.66369 35.70927 30.68648
#
# Velocity S-wave (km/s) = 3.29802 3.89031 3.60635
# Velocity P-wave (km/s) = 5.09549 6.33735 5.75005
#
# Compressibility (1/GPa) = 0.03697845
#
# Stress axis : x y z
#
# Youngs Moduli (GPa) = 64.88555 72.59059 73.87236
#
# Poissons Ratio (x) = 0.18943 0.15175
# Poissons Ratio (y) = 0.16932 -0.13229
# Poissons Ratio (z) = 0.13329 -0.12999
#
# Static dielectric constant tensor:
#      x y z
#    x 1.897680 -0.000670 -0.023430 
#    y -0.000670 2.014850 -0.060960 
#    z -0.023430 -0.060960 1.879590 
# 
# From -- ./inp_files/452100.got.cif
#   From: 2010.05.17/outbox.cif.g08.bks.cpg/sg2_227_cif.got.tgz:452100.got - 2010.06.03 11:33:40.
