data_PCOD9068780
_publ_section_title
;
Structure prediction by ZEFSAII (Michael W. Deem and Ramdas Pophale) SiO2 
 PCOD9068780
Probable space group: P -1
;
_chemical_formula_sum "Si O2"
_cell_formula_units_Z 14
_cell_length_a 6.935131
_cell_length_b 9.230768
_cell_length_c 16.492079
_cell_angle_alpha 137.236697
_cell_angle_beta 117.969006
_cell_angle_gamma 47.078784
_cell_volume 523.912670
_symmetry_space_group_name_H-M "P -1"
_symmetry_group_IT_number 2
_symmetry_cell_setting 'triclinic'
loop_
_space_group_symop_operation_xyz
x,y,z
-x,-y,-z
loop_
_atom_site_type_symbol
_atom_site_label
_atom_site_fract_x
_atom_site_fract_y
_atom_site_fract_z
Si Si1 0.472849 0.711720 0.713006
Si Si2 0.048917 0.293802 0.528725
Si Si3 0.231843 0.387223 0.108884
Si Si4 0.574458 0.205525 0.539047
Si Si5 0.157887 0.887210 0.278391
Si Si6 0.747155 0.889213 0.762258
Si Si7 0.170878 0.946552 0.908065
O O1 0.714885 0.625903 0.789670
O O2 0.558653 0.433274 0.580956
O O3 0.477587 0.927822 0.753079
O O4 0.234633 0.833101 0.780938
O O5 0.293343 0.247518 0.503101
O O6 0.944877 0.157883 0.394791
O O7 0.893567 0.589221 0.641213
O O8 0.189958 0.092207 0.548881
O O9 0.534811 0.220264 0.064251
O O10 0.095797 0.673598 0.167924
O O11 0.098022 0.233819 0.006556
O O12 0.623977 0.242911 0.658602
O O13 0.286631 0.928319 0.243229
O O14 0.935512 0.917122 0.873157
#
# Coordination Sequence:
#
# PCOD9068780 Si02
#       7
#     2   2   2   2   2   2   2
#     4   9  18  34  51  81  97 127 177 208 235 312
#     4   9  16  33  57  70  98 147 163 197 252 303
#     4   8  17  39  56  65 103 138 171 201 248 295
#     4   8  16  34  56  64 105 136 174 194 241 301
#     4   9  18  31  52  78 101 137 163 207 250 306
#     4  12  20  28  57  78 106 127 163 212 265 280
#     4   9  18  36  58  69  98 141 165 207 251 297
#
# _framework density 26.722010999999998
#
# number of rings (size 3 to 8) (size 9 to 14) (size 15 to 20)
#    1.714    1.143    1.429    0.429    0.000    1.714 
#    0.000    1.429   12.571    0.000    0.000    0.000 
#    0.000    0.000    0.000    0.000    0.000    0.000 
#
# Total GULP energy -78029.471318 kJ/mol
# GULP energy per Si atom -5573.533666 kJ/mol
# Density = 2.666119 g / cm^3
# Si number density = 26.722011 Si / 1000 Ang^3
#
#
#
# Elastic Constant Matrix: (Units=GPa)
#
#
# Indices 1 2 3 4 5 6 
#
# 1 98.5230 19.1695 16.0458 30.2215 24.3134 15.2090
# 2 19.1695 91.1248 19.8396 34.9400 1.4319 19.5823
# 3 16.0458 19.8396 123.7205 49.8547 27.4809 9.3214
# 4 30.2215 34.9400 49.8547 46.1473 14.6814 10.8242
# 5 24.3134 1.4319 27.4809 14.6814 40.0414 14.4887
# 6 15.2090 19.5823 9.3214 10.8242 14.4887 30.1131
#
#
#
# Elastic Compliance Matrix: (Units=1/GPa)
#
#
# Indices 1 2 3 4 5 6 
#
# 1 0.015383 0.001597 0.005174 -0.014178 -0.007056 -0.001918
# 2 0.001597 0.019588 0.003889 -0.019684 0.006846 -0.010967
# 3 0.005174 0.003889 0.017811 -0.023550 -0.007358 0.001350
# 4 -0.014178 -0.019684 -0.023550 0.071221 -0.001495 0.002370
# 5 -0.007056 0.006846 -0.007358 -0.001495 0.041064 -0.017831
# 6 -0.001918 -0.010967 0.001350 0.002370 -0.017831 0.048618
#
#
# Mechanical properties :
#
#
# Convention : Reuss Voigt Hill
#
# Bulk Modulus (GPa) = 13.49492 47.05310 30.27401
# Shear Modulus (GPa) = 23.03464 40.48125 31.75794
#
# Velocity S-wave (km/s) = 2.93919 3.89640 3.45114
# Velocity P-wave (km/s) = 4.07179 6.15542 5.21865
#
# Compressibility (1/GPa) = 0.07410194
#
# Stress axis : x y z
#
# Youngs Moduli (GPa) = 65.00656 51.05204 56.14624
#
# Poissons Ratio (x) = -0.08152 -0.29050
# Poissons Ratio (y) = -0.10381 -0.21837
# Poissons Ratio (z) = -0.33634 -0.19856
#
# Static dielectric constant tensor:
#      x y z
#    x 2.200290 -0.081080 0.010980 
#    y -0.081080 2.253600 -0.073930 
#    z 0.010980 -0.073930 2.140890 
# 
# From -- ./inp_files/587011.got.cif
#   From: 2010.05.17/outbox.cif.g08.bks.cpg/sg2_294_cif.got.tgz:587011.got - 2010.06.03 11:33:40.
