data_PCOD9068666
_publ_section_title
;
Structure prediction by ZEFSAII (Michael W. Deem and Ramdas Pophale) SiO2 
 PCOD9068666
Probable space group: P -1
;
_chemical_formula_sum "Si O2"
_cell_formula_units_Z 8
_cell_length_a 8.518745
_cell_length_b 8.850378
_cell_length_c 8.414597
_cell_angle_alpha 117.093613
_cell_angle_beta 126.409422
_cell_angle_gamma 34.494765
_cell_volume 288.358856
_symmetry_space_group_name_H-M "P -1"
_symmetry_group_IT_number 2
_symmetry_cell_setting 'triclinic'
loop_
_space_group_symop_operation_xyz
x,y,z
-x,-y,-z
loop_
_atom_site_type_symbol
_atom_site_label
_atom_site_fract_x
_atom_site_fract_y
_atom_site_fract_z
Si Si1 0.491245 0.371545 0.792582
Si Si2 0.090736 0.047619 0.417367
Si Si3 0.329938 0.250316 0.909237
Si Si4 0.640774 0.589223 0.680668
O O1 0.800139 0.136694 0.758963
O O2 0.446115 0.229690 0.798435
O O3 0.500000 0.500000 0.000000
O O4 0.173124 0.642530 0.641086
O O5 0.429955 0.869432 0.597124
O O6 0.000000 0.000000 0.500000
O O7 0.987453 0.408004 0.765519
O O8 0.364344 0.386220 0.119821
O O9 0.500000 0.000000 0.000000
O O10 0.500000 0.500000 0.500000
#
# Coordination Sequence:
#
# PCOD9068666 Si02
#       4
#     2   2   2   2
#     4  12  28  49  85 124 170 225 289 351 433 519
#     4  12  27  49  82 120 165 227 284 348 429 509
#     4  11  29  51  83 125 172 222 284 357 430 516
#     4  11  27  50  85 117 172 228 278 350 439 507
#
# _framework density 27.743209
#
# number of rings (size 3 to 8) (size 9 to 14) (size 15 to 20)
#    0.000    0.500    0.000    6.000   17.500    2.000 
#    0.000    0.000    0.000    0.000    0.000    0.000 
#    0.000    0.000    0.000    0.000    0.000    0.000 
#
# Total GULP energy -44641.429353 kJ/mol
# GULP energy per Si atom -5580.178669 kJ/mol
# Density = 2.768006 g / cm^3
# Si number density = 27.743209 Si / 1000 Ang^3
#
#
#
# Elastic Constant Matrix: (Units=GPa)
#
#
# Indices 1 2 3 4 5 6 
#
# 1 142.9538 78.7414 59.2985 2.4199 -34.4310 2.9215
# 2 78.7414 178.3273 58.5727 -16.0944 -9.1559 -6.5318
# 3 59.2985 58.5727 208.8351 -2.0441 4.7226 8.1908
# 4 2.4199 -16.0944 -2.0441 74.3904 -3.8292 3.2474
# 5 -34.4310 -9.1559 4.7226 -3.8292 69.7322 4.9531
# 6 2.9215 -6.5318 8.1908 3.2474 4.9531 52.9080
#
#
#
# Elastic Compliance Matrix: (Units=1/GPa)
#
#
# Indices 1 2 3 4 5 6 
#
# 1 0.011571 -0.004261 -0.002172 -0.001028 0.005334 -0.001265
# 2 -0.004261 0.007988 -0.001045 0.001728 -0.000987 0.001370
# 3 -0.002172 -0.001045 0.005762 -0.000044 -0.001549 -0.000753
# 4 -0.001028 0.001728 -0.000044 0.013903 0.000530 -0.000626
# 5 0.005334 -0.000987 -0.001549 0.000530 0.017108 -0.001811
# 6 -0.001265 0.001370 -0.000753 -0.000626 -0.001811 0.019464
#
#
# Mechanical properties :
#
#
# Convention : Reuss Voigt Hill
#
# Bulk Modulus (GPa) = 96.46982 102.59348 99.53165
# Shear Modulus (GPa) = 53.07433 61.63968 57.35701
#
# Velocity S-wave (km/s) = 4.37860 4.71870 4.55183
# Velocity P-wave (km/s) = 7.77243 8.16996 7.97367
#
# Compressibility (1/GPa) = 0.01036594
#
# Stress axis : x y z
#
# Youngs Moduli (GPa) = 86.42015 125.18923 173.54265
#
# Poissons Ratio (x) = 0.53348 0.37686
# Poissons Ratio (y) = 0.36827 0.18133
# Poissons Ratio (z) = 0.18767 0.13081
#
# Static dielectric constant tensor:
#      x y z
#    x 2.332480 0.119280 -0.027360 
#    y 0.119280 3.197360 0.261290 
#    z -0.027360 0.261290 2.347860 
# 
# From -- ./inp_files/147046.got.cif
#   From: 2010.05.17/outbox.cif.g08.bks.cpg/sg2_74_cif.got.tgz:147046.got - 2010.06.03 11:33:40.
