data_PCOD9068466
_publ_section_title
;
Structure prediction by ZEFSAII (Michael W. Deem and Ramdas Pophale) SiO2 
 PCOD9068466
Probable space group: P -1
;
_chemical_formula_sum "Si O2"
_cell_formula_units_Z 14
_cell_length_a 7.335340
_cell_length_b 9.145515
_cell_length_c 11.585924
_cell_angle_alpha 77.063014
_cell_angle_beta 110.760014
_cell_angle_gamma 54.085741
_cell_volume 483.567579
_symmetry_space_group_name_H-M "P -1"
_symmetry_group_IT_number 2
_symmetry_cell_setting 'triclinic'
loop_
_space_group_symop_operation_xyz
x,y,z
-x,-y,-z
loop_
_atom_site_type_symbol
_atom_site_label
_atom_site_fract_x
_atom_site_fract_y
_atom_site_fract_z
Si Si1 0.113205 0.056051 0.610306
Si Si2 0.439034 0.179535 0.611700
Si Si3 0.510980 0.568636 0.815259
Si Si4 0.199237 0.588641 0.340953
Si Si5 0.296379 0.923091 0.083712
Si Si6 0.243613 0.273171 0.940427
Si Si7 0.047656 0.688365 0.833384
O O1 0.860781 0.242252 0.612085
O O2 0.233528 0.149672 0.578708
O O3 0.000000 0.000000 0.500000
O O4 0.385956 0.807284 0.762093
O O5 0.315985 0.373069 0.464592
O O6 0.756316 0.938755 0.699708
O O7 0.632584 0.478645 0.729554
O O8 0.013838 0.529429 0.867858
O O9 0.242649 0.616607 0.779152
O O10 0.500008 0.769880 0.262653
O O11 0.879771 0.735137 0.200603
O O12 0.262037 0.123362 0.055503
O O13 0.463651 0.818149 0.019662
O O14 0.000000 0.000000 0.000000
O O15 0.748253 0.393889 0.995729
#
# Coordination Sequence:
#
# PCOD9068466 Si02
#       7
#     2   2   2   2   2   2   2
#     4  12  30  56  90 128 182 235 300 371 456 537
#     4  12  28  57  86 128 182 232 297 376 455 534
#     4  11  29  55  87 130 177 233 307 364 456 537
#     4  12  29  56  89 125 179 239 297 378 450 538
#     4  11  27  50  86 129 172 232 296 366 450 539
#     4  11  26  50  85 124 177 229 300 366 453 532
#     4  11  28  54  85 127 180 236 295 381 443 542
#
# _framework density 28.951488000000001
#
# number of rings (size 3 to 8) (size 9 to 14) (size 15 to 20)
#    0.000    0.571    1.429    3.000   12.000    3.429 
#    2.571    1.429    0.000    0.857    0.000    0.000 
#    0.000    0.000    0.000    0.000    0.000    0.000 
#
# Total GULP energy -78492.953539 kJ/mol
# GULP energy per Si atom -5606.639538 kJ/mol
# Density = 2.888559 g / cm^3
# Si number density = 28.951488 Si / 1000 Ang^3
#
#
#
# Elastic Constant Matrix: (Units=GPa)
#
#
# Indices 1 2 3 4 5 6 
#
# 1 190.2530 78.2749 72.3976 8.2278 -13.0717 -11.2391
# 2 78.2749 220.4644 69.2302 -10.2749 -24.8324 -10.5038
# 3 72.3976 69.2302 178.7881 -4.9929 -23.7593 -5.3247
# 4 8.2278 -10.2749 -4.9929 67.9565 18.4239 -4.9440
# 5 -13.0717 -24.8324 -23.7593 18.4239 51.7523 -8.2548
# 6 -11.2391 -10.5038 -5.3247 -4.9440 -8.2548 69.9061
#
#
#
# Elastic Compliance Matrix: (Units=1/GPa)
#
#
# Indices 1 2 3 4 5 6 
#
# 1 0.006903 -0.001778 -0.002054 -0.001353 0.000533 0.000654
# 2 -0.001778 0.005817 -0.001273 0.000605 0.001659 0.000730
# 3 -0.002054 -0.001273 0.007224 0.000003 0.002232 0.000292
# 4 -0.001353 0.000605 0.000003 0.016596 -0.005903 0.000350
# 5 0.000533 0.001659 0.002232 -0.005903 0.023842 0.002903
# 6 0.000654 0.000730 0.000292 0.000350 0.002903 0.014909
#
#
# Mechanical properties :
#
#
# Convention : Reuss Voigt Hill
#
# Bulk Modulus (GPa) = 102.75030 114.36787 108.55908
# Shear Modulus (GPa) = 56.34018 62.56317 59.45168
#
# Velocity S-wave (km/s) = 4.41616 4.65366 4.53646
# Velocity P-wave (km/s) = 7.84671 8.27433 8.06335
#
# Compressibility (1/GPa) = 0.00973233
#
# Stress axis : x y z
#
# Youngs Moduli (GPa) = 144.86433 171.91961 138.43464
#
# Poissons Ratio (x) = 0.30560 0.28440
# Poissons Ratio (y) = 0.25751 0.17630
# Poissons Ratio (z) = 0.29761 0.21894
#
# Static dielectric constant tensor:
#      x y z
#    x 2.270170 -0.003310 0.037050 
#    y -0.003310 2.390870 0.021270 
#    z 0.037050 0.021270 2.249620 
# 
# From -- ./inp_files/65511.got.cif
#   From: 2010.05.17/outbox.cif.g08.bks.cpg/sg2_33_cif.got.tgz:65511.got - 2010.06.03 11:33:40.
