data_PCOD9068213
_publ_section_title
;
Structure prediction by ZEFSAII (Michael W. Deem and Ramdas Pophale) SiO2 
 PCOD9068213
Probable space group: P -1
;
_chemical_formula_sum "Si O2"
_cell_formula_units_Z 10
_cell_length_a 10.918899
_cell_length_b 4.944763
_cell_length_c 7.521827
_cell_angle_alpha 112.359862
_cell_angle_beta 89.991522
_cell_angle_gamma 67.911122
_cell_volume 343.118491
_symmetry_space_group_name_H-M "P -1"
_symmetry_group_IT_number 2
_symmetry_cell_setting 'triclinic'
loop_
_space_group_symop_operation_xyz
x,y,z
-x,-y,-z
loop_
_atom_site_type_symbol
_atom_site_label
_atom_site_fract_x
_atom_site_fract_y
_atom_site_fract_z
Si Si1 0.918691 0.778285 0.935741
Si Si2 0.646880 0.822829 0.538661
Si Si3 0.121642 0.033060 0.410474
Si Si4 0.354747 0.710922 0.803223
Si Si5 0.638094 0.437995 0.855185
O O1 0.916692 0.749004 0.713407
O O2 0.000000 0.500000 0.000000
O O3 0.770163 0.968968 0.066303
O O4 0.000000 0.000000 0.000000
O O5 0.667345 0.457413 0.415583
O O6 0.500000 0.000000 0.500000
O O7 0.779770 0.840198 0.453198
O O8 0.635843 0.080339 0.757858
O O9 0.217344 0.665008 0.256932
O O10 0.000000 0.000000 0.500000
O O11 0.508850 0.676867 0.807299
O O12 0.359844 0.488922 0.920680
#
# Coordination Sequence:
#
# PCOD9068213 Si02
#       5
#     2   2   2   2   2
#     4  11  26  48  74 113 163 218 272 332 411 496
#     4   8  15  31  65 120 150 198 261 329 400 481
#     4   9  19  40  74 116 165 198 261 341 406 473
#     4   9  15  35  69 103 148 205 263 325 395 476
#     4   7  15  30  64 111 151 191 263 321 402 467
#
# _framework density 29.144449000000002
#
# number of rings (size 3 to 8) (size 9 to 14) (size 15 to 20)
#    1.200    2.000    0.000    0.000    0.000    1.600 
#    0.000    8.000    0.000   21.600    0.000    0.000 
#    0.000    0.000    0.000    0.000    0.000    0.000 
#
# Total GULP energy -55816.267482 kJ/mol
# GULP energy per Si atom -5581.626748 kJ/mol
# Density = 2.907812 g / cm^3
# Si number density = 29.144449 Si / 1000 Ang^3
#
#
#
# Elastic Constant Matrix: (Units=GPa)
#
#
# Indices 1 2 3 4 5 6 
#
# 1 219.7722 89.2485 56.7246 -10.8776 -34.5727 -25.6307
# 2 89.2485 199.3921 61.7206 -8.9499 -9.3139 -15.8211
# 3 56.7246 61.7206 148.0495 -17.6918 -18.3324 -14.0449
# 4 -10.8776 -8.9499 -17.6918 42.0695 -9.9000 -5.7527
# 5 -34.5727 -9.3139 -18.3324 -9.9000 65.0366 13.0225
# 6 -25.6307 -15.8211 -14.0449 -5.7527 13.0225 56.8539
#
#
#
# Elastic Compliance Matrix: (Units=1/GPa)
#
#
# Indices 1 2 3 4 5 6 
#
# 1 0.006390 -0.002281 -0.000799 0.001704 0.002787 0.001583
# 2 -0.002281 0.006640 -0.001981 -0.000161 -0.000951 0.000532
# 3 -0.000799 -0.001981 0.008689 0.003669 0.002073 0.001132
# 4 0.001704 -0.000161 0.003669 0.027436 0.005461 0.003155
# 5 0.002787 -0.000951 0.002073 0.005461 0.018577 -0.002198
# 6 0.001583 0.000532 0.001132 0.003155 -0.002198 0.019553
#
#
# Mechanical properties :
#
#
# Convention : Reuss Voigt Hill
#
# Bulk Modulus (GPa) = 86.22062 109.17792 97.69927
# Shear Modulus (GPa) = 49.37294 56.76002 53.06648
#
# Velocity S-wave (km/s) = 4.12038 4.41788 4.27172
# Velocity P-wave (km/s) = 7.23083 7.97282 7.61087
#
# Compressibility (1/GPa) = 0.01159815
#
# Stress axis : x y z
#
# Youngs Moduli (GPa) = 156.49840 150.60796 115.09264
#
# Poissons Ratio (x) = 0.34349 0.09191
# Poissons Ratio (y) = 0.35692 0.22797
# Poissons Ratio (z) = 0.12498 0.29832
#
# Static dielectric constant tensor:
#      x y z
#    x 2.286570 0.016860 -0.113700 
#    y 0.016860 2.650260 -0.233510 
#    z -0.113700 -0.233510 2.488840 
# 
# From -- ./inp_files/228770.got.cif
#   From: 2010.05.17/outbox.cif.g08.bks.cpg/sg2_115_cif.got.tgz:228770.got - 2010.06.03 11:33:40.
