data_PCOD9068511
_publ_section_title
;
Structure prediction by ZEFSAII (Michael W. Deem and Ramdas Pophale) SiO2 
 PCOD9068511
Probable space group: P -1
;
_chemical_formula_sum "Si O2"
_cell_formula_units_Z 13
_cell_length_a 12.336008
_cell_length_b 12.573714
_cell_length_c 13.015752
_cell_angle_alpha 138.716472
_cell_angle_beta 40.230473
_cell_angle_gamma 154.645510
_cell_volume 544.360025
_symmetry_space_group_name_H-M "P -1"
_symmetry_group_IT_number 2
_symmetry_cell_setting 'triclinic'
loop_
_space_group_symop_operation_xyz
x,y,z
-x,-y,-z
loop_
_atom_site_type_symbol
_atom_site_label
_atom_site_fract_x
_atom_site_fract_y
_atom_site_fract_z
Si Si1 0.153285 0.004667 0.474366
Si Si2 0.000000 0.000000 0.000000
Si Si3 0.967014 0.523476 0.294739
Si Si4 0.295848 0.718912 0.490093
Si Si5 0.678857 0.719702 0.233350
Si Si6 0.393272 0.871077 0.873634
Si Si7 0.493211 0.247862 0.944216
O O1 0.984797 0.728513 0.440321
O O2 0.243460 0.175567 0.631023
O O3 0.392279 0.090581 0.304943
O O4 0.000000 0.000000 0.500000
O O5 0.910677 0.929030 0.135846
O O6 0.700330 0.834438 0.063580
O O7 0.753760 0.292817 0.360974
O O8 0.885006 0.422776 0.163888
O O9 0.242969 0.644393 0.210940
O O10 0.428010 0.643750 0.330412
O O11 0.000000 0.500000 0.500000
O O12 0.500000 0.000000 0.500000
O O13 0.597024 0.475151 0.099722
O O14 0.500000 0.000000 0.000000
O O15 0.364254 0.018717 0.943204
#
# Coordination Sequence:
#
# PCOD9068511 Si02
#       7
#     2   1   2   2   2   2   2
#     4  11  28  49  81 114 154 211 271 341 404 484
#     4  12  28  46  74 114 158 204 260 326 402 476
#     4  11  26  53  74 116 156 210 270 329 415 485
#     4  12  28  47  81 111 161 212 265 335 407 489
#     4  12  28  48  76 117 154 207 269 329 402 483
#     4  11  27  49  78 110 155 208 263 334 410 484
#     4  11  28  48  78 113 159 209 266 333 404 490
#
# _framework density 23.881252
#
# number of rings (size 3 to 8) (size 9 to 14) (size 15 to 20)
#    0.000    0.615    1.538    3.231   17.231    1.846 
#    0.000    0.000    0.000    0.000    0.000    0.000 
#    0.000    0.000    0.000    0.000    0.000    0.000 
#
# Total GULP energy -72547.721879 kJ/mol
# GULP energy per Si atom -5580.593991 kJ/mol
# Density = 2.382690 g / cm^3
# Si number density = 23.881252 Si / 1000 Ang^3
#
#
#
# Elastic Constant Matrix: (Units=GPa)
#
#
# Indices 1 2 3 4 5 6 
#
# 1 186.9230 58.3713 95.0102 11.8028 7.9344 31.7905
# 2 58.3713 80.4857 34.8429 13.1033 -12.7300 11.2731
# 3 95.0102 34.8429 120.9181 18.9498 10.1851 -2.8303
# 4 11.8028 13.1033 18.9498 40.0773 -0.7336 -11.4841
# 5 7.9344 -12.7300 10.1851 -0.7336 42.7036 4.4955
# 6 31.7905 11.2731 -2.8303 -11.4841 4.4955 26.1490
#
#
#
# Elastic Compliance Matrix: (Units=1/GPa)
#
#
# Indices 1 2 3 4 5 6 
#
# 1 0.016185 -0.002522 -0.011894 -0.004639 0.001329 -0.022143
# 2 -0.002522 0.019568 -0.003518 -0.006737 0.008088 -0.010099
# 3 -0.011894 -0.003518 0.019398 0.000950 -0.005496 0.019439
# 4 -0.004639 -0.006737 0.000950 0.035066 -0.003363 0.024625
# 5 0.001329 0.008088 -0.005496 -0.003363 0.028098 -0.012005
# 6 -0.022143 -0.010099 0.019439 0.024625 -0.012005 0.084499
#
#
# Mechanical properties :
#
#
# Convention : Reuss Voigt Hill
#
# Bulk Modulus (GPa) = 51.86182 84.97508 68.41845
# Shear Modulus (GPa) = 20.39885 35.12616 27.76250
#
# Velocity S-wave (km/s) = 2.92580 3.83935 3.41328
# Velocity P-wave (km/s) = 5.75999 7.43732 6.65174
#
# Compressibility (1/GPa) = 0.01928201
#
# Stress axis : x y z
#
# Youngs Moduli (GPa) = 61.78407 51.10437 51.55080
#
# Poissons Ratio (x) = 0.12891 0.61314
# Poissons Ratio (y) = 0.15585 0.18137
# Poissons Ratio (z) = 0.73485 0.17980
#
# Static dielectric constant tensor:
#      x y z
#    x 1.920780 0.031190 0.058250 
#    y 0.031190 1.986360 0.004330 
#    z 0.058250 0.004330 1.938440 
# 
# From -- ./inp_files/429026.got.cif
#   From: 2010.05.17/outbox.cif.g08.bks.cpg/sg2_215_cif.got.tgz:429026.got - 2010.06.03 11:33:40.
