data_PCOD9068454
_publ_section_title
;
Structure prediction by ZEFSAII (Michael W. Deem and Ramdas Pophale) SiO2 
 PCOD9068454
Probable space group: P -1
;
_chemical_formula_sum "Si O2"
_cell_formula_units_Z 11
_cell_length_a 13.144612
_cell_length_b 9.338859
_cell_length_c 8.882228
_cell_angle_alpha 119.295508
_cell_angle_beta 135.426417
_cell_angle_gamma 35.168988
_cell_volume 428.941897
_symmetry_space_group_name_H-M "P -1"
_symmetry_group_IT_number 2
_symmetry_cell_setting 'triclinic'
loop_
_space_group_symop_operation_xyz
x,y,z
-x,-y,-z
loop_
_atom_site_type_symbol
_atom_site_label
_atom_site_fract_x
_atom_site_fract_y
_atom_site_fract_z
Si Si1 0.935577 0.628713 0.159115
Si Si2 0.000000 0.000000 0.500000
Si Si3 0.235563 0.855430 0.370761
Si Si4 0.178213 0.615530 0.954151
Si Si5 0.626541 0.192021 0.028544
Si Si6 0.559011 0.753985 0.452823
O O1 0.857894 0.544075 0.130480
O O2 0.168549 0.507960 0.403565
O O3 0.739281 0.928362 0.078743
O O4 0.000000 0.500000 0.000000
O O5 0.793895 0.138633 0.479075
O O6 0.824439 0.144900 0.249897
O O7 0.461850 0.754051 0.501056
O O8 0.208003 0.705091 0.178190
O O9 0.043744 0.135092 0.238260
O O10 0.398062 0.435809 0.993049
O O11 0.573067 0.211825 0.807717
O O12 0.500000 0.000000 0.500000
#
# Coordination Sequence:
#
# PCOD9068454 Si02
#       6
#     2   1   2   2   2   2
#     4  12  25  48  82 118 160 210 266 321 396 477
#     4  12  30  50  78 120 152 208 280 318 396 474
#     4  11  26  51  80 114 156 215 262 329 397 470
#     4  11  26  50  80 114 165 207 263 328 399 469
#     4  12  29  48  77 120 161 211 263 325 394 477
#     4  12  26  52  83 116 164 208 259 332 400 463
#
# _framework density 25.644499
#
# number of rings (size 3 to 8) (size 9 to 14) (size 15 to 20)
#    0.000    0.364    3.636    3.818    7.636    4.364 
#    0.000    0.000    0.000    0.000    0.000    0.000 
#    0.000    0.000    0.000    0.000    0.000    0.000 
#
# Total GULP energy -61528.694273 kJ/mol
# GULP energy per Si atom -5593.517661 kJ/mol
# Density = 2.558613 g / cm^3
# Si number density = 25.644499 Si / 1000 Ang^3
#
#
#
# Elastic Constant Matrix: (Units=GPa)
#
#
# Indices 1 2 3 4 5 6 
#
# 1 130.5419 18.0580 29.9808 12.3220 0.1737 13.3827
# 2 18.0580 125.1537 24.7930 -12.5969 -11.5642 20.0841
# 3 29.9808 24.7930 131.5194 -5.0752 -4.2247 5.2646
# 4 12.3220 -12.5969 -5.0752 43.8549 -3.1847 -8.5453
# 5 0.1737 -11.5642 -4.2247 -3.1847 47.1229 0.9965
# 6 13.3827 20.0841 5.2646 -8.5453 0.9965 44.3881
#
#
#
# Elastic Compliance Matrix: (Units=1/GPa)
#
#
# Indices 1 2 3 4 5 6 
#
# 1 0.008827 -0.000874 -0.001894 -0.003521 -0.000598 -0.002706
# 2 -0.000874 0.009373 -0.001264 0.002297 0.002418 -0.003440
# 3 -0.001894 -0.001264 0.008323 0.001245 0.000519 0.000384
# 4 -0.003521 0.002297 0.001245 0.025694 0.002324 0.004769
# 5 -0.000598 0.002418 0.000519 0.002324 0.022042 -0.001023
# 6 -0.002706 -0.003440 0.000384 0.004769 -0.001023 0.025796
#
#
# Mechanical properties :
#
#
# Convention : Reuss Voigt Hill
#
# Bulk Modulus (GPa) = 54.17291 59.20874 56.69082
# Shear Modulus (GPa) = 43.75561 48.03206 45.89384
#
# Velocity S-wave (km/s) = 4.13514 4.33251 4.23498
# Velocity P-wave (km/s) = 6.63096 6.94017 6.78733
#
# Compressibility (1/GPa) = 0.01845941
#
# Stress axis : x y z
#
# Youngs Moduli (GPa) = 113.29174 106.68676 120.15165
#
# Poissons Ratio (x) = 0.09322 0.22759
# Poissons Ratio (y) = 0.09899 0.15185
# Poissons Ratio (z) = 0.21459 0.13483
#
# Static dielectric constant tensor:
#      x y z
#    x 2.450880 0.206770 0.052580 
#    y 0.206770 2.137100 -0.010850 
#    z 0.052580 -0.010850 1.922760 
# 
# From -- ./inp_files/153221.got.cif
#   From: 2010.05.17/outbox.cif.g08.bks.cpg/sg2_77_cif.got.tgz:153221.got - 2010.06.03 11:33:40.
