data_PCOD9068234
_publ_section_title
;
Structure prediction by ZEFSAII (Michael W. Deem and Ramdas Pophale) SiO2 
 PCOD9068234
Probable space group: P -1
;
_chemical_formula_sum "Si O2"
_cell_formula_units_Z 12
_cell_length_a 12.111588
_cell_length_b 7.333829
_cell_length_c 9.602067
_cell_angle_alpha 121.603989
_cell_angle_beta 38.092111
_cell_angle_gamma 112.590051
_cell_volume 447.488330
_symmetry_space_group_name_H-M "P -1"
_symmetry_group_IT_number 2
_symmetry_cell_setting 'triclinic'
loop_
_space_group_symop_operation_xyz
x,y,z
-x,-y,-z
loop_
_atom_site_type_symbol
_atom_site_label
_atom_site_fract_x
_atom_site_fract_y
_atom_site_fract_z
Si Si1 0.419230 0.239885 0.056707
Si Si2 0.158943 0.630711 0.451708
Si Si3 0.038643 0.262528 0.808108
Si Si4 0.230399 0.843237 0.750434
Si Si5 0.778310 0.136330 0.779511
Si Si6 0.417168 0.121112 0.458954
O O1 0.329861 0.466810 0.195372
O O2 0.265065 0.097129 0.216811
O O3 0.578160 0.250831 0.017245
O O4 0.499792 0.089722 0.790687
O O5 0.164726 0.695604 0.632094
O O6 0.158911 0.833961 0.429671
O O7 0.000000 0.500000 0.500000
O O8 0.932452 0.115814 0.965396
O O9 0.254103 0.234279 0.581041
O O10 0.924600 0.237222 0.770980
O O11 0.000000 0.500000 0.000000
O O12 0.312642 0.044755 0.670509
O O13 0.407717 0.754432 0.623173
#
# Coordination Sequence:
#
# PCOD9068234 Si02
#       6
#     2   2   2   2   2   2
#     4  11  26  49  79 110 153 208 252 319 387 448
#     4  12  28  48  80 114 154 203 258 317 384 459
#     4  12  28  47  76 115 156 198 258 317 385 460
#     4  11  26  50  75 111 153 197 259 318 378 464
#     4  11  26  48  76 111 154 197 262 313 374 464
#     4  11  26  49  81 105 152 212 247 316 392 446
#
# _framework density 26.816343
#
# number of rings (size 3 to 8) (size 9 to 14) (size 15 to 20)
#    0.000    0.667    3.333    2.000    4.667   11.333 
#    0.000    0.000    0.000    0.000    0.000    0.000 
#    0.000    0.000    0.000    0.000    0.000    0.000 
#
# Total GULP energy -67209.321696 kJ/mol
# GULP energy per Si atom -5600.776808 kJ/mol
# Density = 2.675531 g / cm^3
# Si number density = 26.816343 Si / 1000 Ang^3
#
#
#
# Elastic Constant Matrix: (Units=GPa)
#
#
# Indices 1 2 3 4 5 6 
#
# 1 271.8758 35.4432 84.3056 21.6350 -18.4695 34.0356
# 2 35.4432 57.4558 20.4080 1.8683 -1.9331 -0.4956
# 3 84.3056 20.4080 160.1038 2.9274 -4.3787 2.4908
# 4 21.6350 1.8683 2.9274 43.3246 -6.0958 -6.0647
# 5 -18.4695 -1.9331 -4.3787 -6.0958 62.1877 -5.8122
# 6 34.0356 -0.4956 2.4908 -6.0647 -5.8122 40.9555
#
#
#
# Elastic Compliance Matrix: (Units=1/GPa)
#
#
# Indices 1 2 3 4 5 6 
#
# 1 0.005721 -0.002547 -0.002534 -0.003184 0.000661 -0.005009
# 2 -0.002547 0.019393 -0.001185 0.000888 0.000090 0.002567
# 3 -0.002534 -0.001185 0.007685 0.001050 0.000021 0.001782
# 4 -0.003184 0.000888 0.001050 0.025833 0.002319 0.006747
# 5 0.000661 0.000090 0.000021 0.002319 0.016711 0.002165
# 6 -0.005009 0.002567 0.001782 0.006747 0.002165 0.029808
#
#
# Mechanical properties :
#
#
# Convention : Reuss Voigt Hill
#
# Bulk Modulus (GPa) = 49.33747 85.52767 67.43257
# Shear Modulus (GPa) = 40.18086 52.57882 46.37984
#
# Velocity S-wave (km/s) = 3.87508 4.43278 4.16328
# Velocity P-wave (km/s) = 6.20160 7.62644 6.95063
#
# Compressibility (1/GPa) = 0.02026857
#
# Stress axis : x y z
#
# Youngs Moduli (GPa) = 174.78854 51.56561 130.12704
#
# Poissons Ratio (x) = 0.13132 0.32971
# Poissons Ratio (y) = 0.44514 0.15415
# Poissons Ratio (z) = 0.44287 0.06109
#
# Static dielectric constant tensor:
#      x y z
#    x 2.126660 -0.034100 -0.000470 
#    y -0.034100 2.195560 -0.065800 
#    z -0.000470 -0.065800 2.138130 
# 
# From -- ./inp_files/159085.got.cif
#   From: 2010.05.17/outbox.cif.g08.bks.cpg/sg2_80_cif.got.tgz:159085.got - 2010.06.03 11:33:40.
