data_PCOD9068918
_publ_section_title
;
Structure prediction by ZEFSAII (Michael W. Deem and Ramdas Pophale) SiO2 
 PCOD9068918
Probable space group: P -1
;
_chemical_formula_sum "Si O2"
_cell_formula_units_Z 14
_cell_length_a 8.750012
_cell_length_b 7.925476
_cell_length_c 9.068160
_cell_angle_alpha 103.332855
_cell_angle_beta 92.849963
_cell_angle_gamma 110.886261
_cell_volume 565.648009
_symmetry_space_group_name_H-M "P -1"
_symmetry_group_IT_number 2
_symmetry_cell_setting 'triclinic'
loop_
_space_group_symop_operation_xyz
x,y,z
-x,-y,-z
loop_
_atom_site_type_symbol
_atom_site_label
_atom_site_fract_x
_atom_site_fract_y
_atom_site_fract_z
Si Si1 0.840314 0.066113 0.797560
Si Si2 0.890301 0.556456 0.127119
Si Si3 0.336810 0.014858 0.925119
Si Si4 0.377278 0.787575 0.395124
Si Si5 0.149515 0.676316 0.634051
Si Si6 0.876294 0.804432 0.522684
Si Si7 0.616628 0.647278 0.214177
O O1 0.735917 0.163324 0.720760
O O2 0.026296 0.217616 0.826827
O O3 0.807329 0.870520 0.676738
O O4 0.789942 0.031181 0.956100
O O5 0.913083 0.468849 0.264575
O O6 0.690550 0.504210 0.109279
O O7 0.000000 0.500000 0.000000
O O8 0.258747 0.865384 0.763460
O O9 0.367618 0.208829 0.887534
O O10 0.500000 0.000000 0.000000
O O11 0.273148 0.677026 0.508303
O O12 0.453971 0.652129 0.290130
O O13 0.500000 0.000000 0.500000
O O14 0.990918 0.697243 0.557385
O O15 0.738877 0.710190 0.375435
O O16 0.000000 0.000000 0.500000
#
# Coordination Sequence:
#
# PCOD9068918 Si02
#       7
#     2   2   2   2   2   2   2
#     4  12  23  41  71 101 138 176 226 288 338 400
#     4  12  28  46  63 100 147 186 219 274 345 419
#     4  12  23  41  72 105 130 180 229 284 342 392
#     4  12  21  43  72 102 132 171 231 292 332 390
#     4  12  25  44  69  98 141 180 226 276 344 410
#     4  12  21  42  71 103 125 173 237 292 328 383
#     4  12  25  44  71 102 137 176 233 285 336 400
#
# _framework density 24.750374999999998
#
# number of rings (size 3 to 8) (size 9 to 14) (size 15 to 20)
#    0.000    0.000   10.000    0.000    2.000    4.000 
#    0.000    2.857    0.000    0.000    0.000    0.000 
#    0.000    0.000    0.000    0.000    0.000    0.000 
#
# Total GULP energy -78231.586700 kJ/mol
# GULP energy per Si atom -5587.970479 kJ/mol
# Density = 2.469404 g / cm^3
# Si number density = 24.750375 Si / 1000 Ang^3
#
#
#
# Elastic Constant Matrix: (Units=GPa)
#
#
# Indices 1 2 3 4 5 6 
#
# 1 134.2654 30.3687 69.5038 -9.8011 -28.8047 -24.1250
# 2 30.3687 69.3569 47.1602 -30.6914 -10.3545 -5.3132
# 3 69.5038 47.1602 143.4645 -29.0236 -42.2453 -8.3940
# 4 -9.8011 -30.6914 -29.0236 57.9189 3.4844 -0.0750
# 5 -28.8047 -10.3545 -42.2453 3.4844 67.0589 4.7073
# 6 -24.1250 -5.3132 -8.3940 -0.0750 4.7073 42.1412
#
#
#
# Elastic Compliance Matrix: (Units=1/GPa)
#
#
# Indices 1 2 3 4 5 6 
#
# 1 0.011308 -0.001986 -0.004362 -0.001409 0.001512 0.005183
# 2 -0.001986 0.022595 -0.004813 0.009283 -0.000940 0.000875
# 3 -0.004362 -0.004813 0.012731 0.002768 0.005341 -0.001160
# 4 -0.001409 0.009283 0.002768 0.023256 0.001307 0.000811
# 5 0.001512 -0.000940 0.005341 0.001307 0.018733 -0.000279
# 6 0.005183 0.000875 -0.001160 0.000811 -0.000279 0.026609
#
#
# Mechanical properties :
#
#
# Convention : Reuss Voigt Hill
#
# Bulk Modulus (GPa) = 41.13301 71.23913 56.18607
# Shear Modulus (GPa) = 34.32735 46.76075 40.54405
#
# Velocity S-wave (km/s) = 3.72821 4.35132 4.05176
# Velocity P-wave (km/s) = 5.93194 7.35465 6.68127
#
# Compressibility (1/GPa) = 0.02431138
#
# Stress axis : x y z
#
# Youngs Moduli (GPa) = 88.43288 44.25780 78.55132
#
# Poissons Ratio (x) = 0.08790 0.34265
# Poissons Ratio (y) = 0.17563 0.37806
# Poissons Ratio (z) = 0.38575 0.21301
#
# Static dielectric constant tensor:
#      x y z
#    x 2.053000 -0.025770 -0.078480 
#    y -0.025770 2.100630 0.173310 
#    z -0.078480 0.173310 2.005620 
# 
# From -- ./inp_files/155472.got.cif
#   From: 2010.05.17/outbox.cif.g08.bks.cpg/sg2_78_cif.got.tgz:155472.got - 2010.06.03 11:33:40.
