data_PCOD9068798
_publ_section_title
;
Structure prediction by ZEFSAII (Michael W. Deem and Ramdas Pophale) SiO2 
 PCOD9068798
Probable space group: P -1
;
_chemical_formula_sum "Si O2"
_cell_formula_units_Z 14
_cell_length_a 8.113442
_cell_length_b 12.227905
_cell_length_c 11.725446
_cell_angle_alpha 50.192838
_cell_angle_beta 143.081482
_cell_angle_gamma 122.926684
_cell_volume 535.520465
_symmetry_space_group_name_H-M "P -1"
_symmetry_group_IT_number 2
_symmetry_cell_setting 'triclinic'
loop_
_space_group_symop_operation_xyz
x,y,z
-x,-y,-z
loop_
_atom_site_type_symbol
_atom_site_label
_atom_site_fract_x
_atom_site_fract_y
_atom_site_fract_z
Si Si1 0.071545 0.281211 0.597739
Si Si2 0.822451 0.549328 0.649154
Si Si3 0.761725 0.073995 0.388613
Si Si4 0.150774 0.308335 0.094534
Si Si5 0.383929 0.846982 0.988027
Si Si6 0.988756 0.828176 0.107316
Si Si7 0.562397 0.767868 0.495618
O O1 0.047388 0.429687 0.418842
O O2 0.395506 0.258548 0.777174
O O3 0.881247 0.168292 0.494792
O O4 0.030729 0.241514 0.732690
O O5 0.500000 0.500000 0.500000
O O6 0.798827 0.704027 0.592208
O O7 0.012725 0.454616 0.893242
O O8 0.594409 0.933417 0.437423
O O9 0.607927 0.144548 0.150969
O O10 0.000000 0.000000 0.500000
O O11 0.410428 0.321874 0.313518
O O12 0.917387 0.203567 0.098819
O O13 0.217900 0.234096 0.062099
O O14 0.500000 0.000000 0.000000
O O15 0.280275 0.768081 0.269676
O O16 0.000000 0.000000 0.000000
#
# Coordination Sequence:
#
# PCOD9068798 Si02
#       7
#     2   2   2   2   2   2   2
#     4  12  25  42  65 100 137 176 223 274 334 403
#     4  12  23  46  72  98 131 180 233 280 327 389
#     4  12  21  37  68 101 127 166 223 287 334 379
#     4  12  25  43  69  98 134 180 224 279 334 394
#     4  12  20  37  67  96 126 167 227 281 329 380
#     4  12  27  44  67 101 142 181 215 271 348 413
#     4  12  24  45  70 101 138 171 227 285 333 398
#
# _framework density 26.142790999999999
#
# number of rings (size 3 to 8) (size 9 to 14) (size 15 to 20)
#    0.000    0.000    7.143    3.857    0.000    4.000 
#    0.000    0.714    0.000    0.000    0.000    0.000 
#    0.000    0.000    0.000    0.000    0.000    0.000 
#
# Total GULP energy -78332.780609 kJ/mol
# GULP energy per Si atom -5595.198615 kJ/mol
# Density = 2.608329 g / cm^3
# Si number density = 26.142791 Si / 1000 Ang^3
#
#
#
# Elastic Constant Matrix: (Units=GPa)
#
#
# Indices 1 2 3 4 5 6 
#
# 1 88.0629 13.5783 23.8951 -8.9706 -34.0831 -13.6831
# 2 13.5783 62.9370 22.0313 -3.5902 -9.3462 -6.7727
# 3 23.8951 22.0313 180.7255 -4.9344 -26.8886 -9.3935
# 4 -8.9706 -3.5902 -4.9344 47.6125 -1.3812 -10.5644
# 5 -34.0831 -9.3462 -26.8886 -1.3812 53.6687 2.6062
# 6 -13.6831 -6.7727 -9.3935 -10.5644 2.6062 33.5325
#
#
#
# Elastic Compliance Matrix: (Units=1/GPa)
#
#
# Indices 1 2 3 4 5 6 
#
# 1 0.017338 -0.001032 -0.000055 0.005191 0.010565 0.007665
# 2 -0.001032 0.017296 -0.001548 0.001669 0.001476 0.003050
# 3 -0.000055 -0.001548 0.006245 0.000932 0.002776 0.001492
# 4 0.005191 0.001669 0.000932 0.024573 0.004194 0.010132
# 5 0.010565 0.001476 0.002776 0.004194 0.026874 0.004620
# 6 0.007665 0.003050 0.001492 0.010132 0.004620 0.036817
#
#
# Mechanical properties :
#
#
# Convention : Reuss Voigt Hill
#
# Bulk Modulus (GPa) = 28.08168 50.08164 39.08166
# Shear Modulus (GPa) = 34.18041 45.11080 39.64560
#
# Velocity S-wave (km/s) = 3.61979 4.15849 3.89845
# Velocity P-wave (km/s) = 5.31371 6.50045 5.93681
#
# Compressibility (1/GPa) = 0.03561040
#
# Stress axis : x y z
#
# Youngs Moduli (GPa) = 57.67586 57.81669 160.12101
#
# Poissons Ratio (x) = 0.05964 0.00874
# Poissons Ratio (y) = 0.05950 0.24793
# Poissons Ratio (z) = 0.00315 0.08952
#
# Static dielectric constant tensor:
#      x y z
#    x 2.166290 0.035690 0.043620 
#    y 0.035690 2.173730 0.023800 
#    z 0.043620 0.023800 2.071010 
# 
# From -- ./inp_files/188504.got.cif
#   From: 2010.05.17/outbox.cif.g08.bks.cpg/sg2_95_cif.got.tgz:188504.got - 2010.06.03 11:33:40.
