data_PCOD9068433
_publ_section_title
;
Structure prediction by ZEFSAII (Michael W. Deem and Ramdas Pophale) SiO2 
 PCOD9068433
Probable space group: P -1
;
_chemical_formula_sum "Si O2"
_cell_formula_units_Z 16
_cell_length_a 5.574880
_cell_length_b 22.141464
_cell_length_c 16.240538
_cell_angle_alpha 156.673664
_cell_angle_beta 71.351011
_cell_angle_gamma 97.264280
_cell_volume 673.301744
_symmetry_space_group_name_H-M "P -1"
_symmetry_group_IT_number 2
_symmetry_cell_setting 'triclinic'
loop_
_space_group_symop_operation_xyz
x,y,z
-x,-y,-z
loop_
_atom_site_type_symbol
_atom_site_label
_atom_site_fract_x
_atom_site_fract_y
_atom_site_fract_z
Si Si1 0.878850 0.779884 0.532334
Si Si2 0.041404 0.025766 0.898570
Si Si3 0.734015 0.373808 0.151626
Si Si4 0.366732 0.421612 0.983737
Si Si5 0.285445 0.219158 0.009210
Si Si6 0.148594 0.799870 0.246273
Si Si7 0.433623 0.777558 0.684669
Si Si8 0.684586 0.850918 0.469058
O O1 0.707117 0.805715 0.668095
O O2 0.671843 0.815291 0.521480
O O3 0.100149 0.585833 0.252750
O O4 0.008170 0.915055 0.688240
O O5 0.191391 0.143377 0.003784
O O6 0.209968 0.886525 0.775326
O O7 0.730570 0.150410 0.122743
O O8 0.548071 0.575292 0.413027
O O9 0.505399 0.298677 0.101490
O O10 0.893886 0.285375 0.938536
O O11 0.987595 0.331566 0.136716
O O12 0.500000 0.500000 0.000000
O O13 0.528654 0.320328 0.920034
O O14 0.347648 0.276569 0.749531
O O15 0.475163 0.046659 0.720486
O O16 0.011093 0.798219 0.347891
O O17 0.000000 0.000000 0.500000
#
# Coordination Sequence:
#
# PCOD9068433 Si02
#       8
#     2   2   2   2   2   2   2   2
#     4  12  24  45  74 109 147 191 252 313 377 438
#     4  11  26  50  78 104 143 195 255 313 383 447
#     4  12  29  48  74 114 153 201 248 312 371 443
#     4  12  26  40  69 104 144 193 244 301 363 441
#     4  12  27  50  76 106 156 204 247 302 382 449
#     4  12  26  43  66 104 148 195 241 290 361 443
#     4  11  27  47  77 111 141 191 254 322 375 443
#     4  12  25  43  71 105 145 196 243 299 367 446
#
# _framework density 23.763491999999999
#
# number of rings (size 3 to 8) (size 9 to 14) (size 15 to 20)
#    0.000    0.250    3.750    4.500    7.000    2.000 
#    0.000    0.000    0.000    0.000    0.000    0.000 
#    0.000    0.000    0.000    0.000    0.000    0.000 
#
# Total GULP energy -89334.665092 kJ/mol
# GULP energy per Si atom -5583.416568 kJ/mol
# Density = 2.370941 g / cm^3
# Si number density = 23.763492 Si / 1000 Ang^3
#
#
#
# Elastic Constant Matrix: (Units=GPa)
#
#
# Indices 1 2 3 4 5 6 
#
# 1 84.8916 29.8131 24.1343 9.1517 -15.0794 9.9395
# 2 29.8131 84.9603 42.8151 -1.4020 -14.7313 11.9097
# 3 24.1343 42.8151 142.9299 11.8421 -20.9106 9.2385
# 4 9.1517 -1.4020 11.8421 40.0826 -5.5177 -8.5209
# 5 -15.0794 -14.7313 -20.9106 -5.5177 36.0401 7.4877
# 6 9.9395 11.9097 9.2385 -8.5209 7.4877 45.5202
#
#
#
# Elastic Compliance Matrix: (Units=1/GPa)
#
#
# Indices 1 2 3 4 5 6 
#
# 1 0.014836 -0.003868 -0.000112 -0.003612 0.004770 -0.003665
# 2 -0.003868 0.016039 -0.003620 0.002444 0.003790 -0.002783
# 3 -0.000112 -0.003620 0.008986 -0.002665 0.003686 -0.001957
# 4 -0.003612 0.002444 -0.002665 0.028013 0.001033 0.005764
# 5 0.004770 0.003790 0.003686 0.001033 0.035334 -0.008400
# 6 -0.003665 -0.002783 -0.001957 0.005764 -0.008400 0.026355
#
#
# Mechanical properties :
#
#
# Convention : Reuss Voigt Hill
#
# Bulk Modulus (GPa) = 40.54971 56.25633 48.40302
# Shear Modulus (GPa) = 32.68322 38.72985 35.70653
#
# Velocity S-wave (km/s) = 3.71260 4.04146 3.88052
# Velocity P-wave (km/s) = 5.95641 6.74557 6.36323
#
# Compressibility (1/GPa) = 0.02466109
#
# Stress axis : x y z
#
# Youngs Moduli (GPa) = 67.40386 62.34728 111.28156
#
# Poissons Ratio (x) = 0.24117 0.01251
# Poissons Ratio (y) = 0.26073 0.40279
# Poissons Ratio (z) = 0.00758 0.22567
#
# Static dielectric constant tensor:
#      x y z
#    x 1.986070 0.069480 0.012230 
#    y 0.069480 1.948410 0.015710 
#    z 0.012230 0.015710 1.784030 
# 
# From -- ./inp_files/369318.got.cif
#   From: 2010.05.17/outbox.cif.g08.bks.cpg/sg2_185_cif.got.tgz:369318.got - 2010.06.03 11:33:40.
