data_PCOD9068330
_publ_section_title
;
Structure prediction by ZEFSAII (Michael W. Deem and Ramdas Pophale) SiO2 
 PCOD9068330
Probable space group: P -1
;
_chemical_formula_sum "Si O2"
_cell_formula_units_Z 14
_cell_length_a 16.449017
_cell_length_b 7.286239
_cell_length_c 9.812682
_cell_angle_alpha 120.277744
_cell_angle_beta 35.273405
_cell_angle_gamma 115.064490
_cell_volume 586.339828
_symmetry_space_group_name_H-M "P -1"
_symmetry_group_IT_number 2
_symmetry_cell_setting 'triclinic'
loop_
_space_group_symop_operation_xyz
x,y,z
-x,-y,-z
loop_
_atom_site_type_symbol
_atom_site_label
_atom_site_fract_x
_atom_site_fract_y
_atom_site_fract_z
Si Si1 0.169065 0.370854 0.728781
Si Si2 0.164330 0.719289 0.626323
Si Si3 0.066680 0.997499 0.074763
Si Si4 0.279692 0.071893 0.034663
Si Si5 0.367165 0.546105 0.049037
Si Si6 0.618656 0.830784 0.792205
Si Si7 0.645563 0.384505 0.224536
O O1 0.158911 0.516286 0.660428
O O2 0.299171 0.216004 0.472914
O O3 0.220693 0.515296 0.838336
O O4 0.963991 0.788691 0.141762
O O5 0.270244 0.660520 0.337308
O O6 0.186864 0.921422 0.774743
O O7 0.020826 0.801844 0.782099
O O8 0.134705 0.046096 0.144009
O O9 0.366528 0.862121 0.809082
O O10 0.351466 0.293037 0.976596
O O11 0.270956 0.095448 0.217845
O O12 0.471261 0.379074 0.123559
O O13 0.328561 0.608461 0.970157
O O14 0.500000 0.000000 0.000000
O O15 0.500000 0.500000 0.500000
#
# Coordination Sequence:
#
# PCOD9068330 Si02
#       7
#     2   2   2   2   2   2   2
#     4  12  25  50  77 102 156 197 238 312 369 434
#     4  11  26  49  74 106 146 200 243 303 370 428
#     4  11  28  49  74 108 149 197 255 295 366 449
#     4  12  27  47  75 112 146 198 247 302 375 433
#     4  12  27  48  76 111 152 186 252 312 368 438
#     4  12  24  50  75 110 145 193 243 309 377 434
#     4  12  27  49  75 115 148 196 248 302 374 446
#
# _framework density 23.876940000000001
#
# number of rings (size 3 to 8) (size 9 to 14) (size 15 to 20)
#    0.000    0.286    5.714    1.714    4.000    1.714 
#    0.000    0.000    0.000    0.000    0.000    0.000 
#    0.000    0.000    0.000    0.000    0.000    0.000 
#
# Total GULP energy -78251.840334 kJ/mol
# GULP energy per Si atom -5589.417167 kJ/mol
# Density = 2.382259 g / cm^3
# Si number density = 23.876940 Si / 1000 Ang^3
#
#
#
# Elastic Constant Matrix: (Units=GPa)
#
#
# Indices 1 2 3 4 5 6 
#
# 1 195.7765 46.5654 39.5434 -1.5770 16.4904 -1.3695
# 2 46.5654 108.3624 51.4357 6.1367 4.5821 4.2848
# 3 39.5434 51.4357 130.1203 8.4637 5.6012 1.9249
# 4 -1.5770 6.1367 8.4637 39.2028 -7.5585 2.3397
# 5 16.4904 4.5821 5.6012 -7.5585 27.1312 4.6601
# 6 -1.3695 4.2848 1.9249 2.3397 4.6601 46.9795
#
#
#
# Elastic Compliance Matrix: (Units=1/GPa)
#
#
# Indices 1 2 3 4 5 6 
#
# 1 0.006062 -0.002075 -0.000899 0.000094 -0.003246 0.000720
# 2 -0.002075 0.012162 -0.004091 -0.001064 -0.000083 -0.000941
# 3 -0.000899 -0.004091 0.009743 -0.001758 -0.001292 0.000163
# 4 0.000094 -0.001064 -0.001758 0.027839 0.008596 -0.002067
# 5 -0.003246 -0.000083 -0.001292 0.008596 0.042307 -0.004659
# 6 0.000720 -0.000941 0.000163 -0.002067 -0.004659 0.021951
#
#
# Mechanical properties :
#
#
# Convention : Reuss Voigt Hill
#
# Bulk Modulus (GPa) = 72.26100 78.81647 75.53873
# Shear Modulus (GPa) = 36.02138 42.44369 39.23254
#
# Velocity S-wave (km/s) = 3.88832 4.22074 4.05793
# Velocity P-wave (km/s) = 7.10551 7.53883 7.32538
#
# Compressibility (1/GPa) = 0.01383872
#
# Stress axis : x y z
#
# Youngs Moduli (GPa) = 164.95722 82.22017 102.63820
#
# Poissons Ratio (x) = 0.17059 0.09229
# Poissons Ratio (y) = 0.34225 0.41984
# Poissons Ratio (z) = 0.14833 0.33632
#
# Static dielectric constant tensor:
#      x y z
#    x 1.922020 -0.045170 -0.005300 
#    y -0.045170 2.007220 -0.004470 
#    z -0.005300 -0.004470 1.947420 
# 
# From -- ./inp_files/460108.got.cif
#   From: 2010.05.17/outbox.cif.g08.bks.cpg/sg2_231_cif.got.tgz:460108.got - 2010.06.03 11:33:40.
