data_PCOD9068506
_publ_section_title
;
Structure prediction by ZEFSAII (Michael W. Deem and Ramdas Pophale) SiO2 
 PCOD9068506
Probable space group: P -1
;
_chemical_formula_sum "Si O2"
_cell_formula_units_Z 10
_cell_length_a 9.047964
_cell_length_b 5.040083
_cell_length_c 12.836938
_cell_angle_alpha 74.528613
_cell_angle_beta 77.571874
_cell_angle_gamma 126.265420
_cell_volume 399.058412
_symmetry_space_group_name_H-M "P -1"
_symmetry_group_IT_number 2
_symmetry_cell_setting 'triclinic'
loop_
_space_group_symop_operation_xyz
x,y,z
-x,-y,-z
loop_
_atom_site_type_symbol
_atom_site_label
_atom_site_fract_x
_atom_site_fract_y
_atom_site_fract_z
Si Si1 0.854233 0.115278 0.128673
Si Si2 0.094848 0.416926 0.742773
Si Si3 0.150888 0.440795 0.323021
Si Si4 0.295000 0.421702 0.516229
Si Si5 0.468861 0.656885 0.086753
O O1 0.819399 0.249208 0.224295
O O2 0.942217 0.922105 0.159907
O O3 0.648111 0.810526 0.125950
O O4 0.000000 0.500000 0.000000
O O5 0.252008 0.553276 0.610206
O O6 0.890110 0.302220 0.736885
O O7 0.284581 0.580182 0.393563
O O8 0.264904 0.426643 0.214037
O O9 0.916271 0.028388 0.416328
O O10 0.500000 0.500000 0.500000
O O11 0.500000 0.500000 0.000000
O O12 0.500000 0.000000 0.000000
#
# Coordination Sequence:
#
# PCOD9068506 Si02
#       5
#     2   2   2   2   2
#     4  12  27  48  81 115 158 214 267 321 398 476
#     4  12  25  50  77 116 158 201 269 329 390 471
#     4  11  27  49  82 118 159 210 267 326 398 476
#     4  11  26  52  82 116 160 210 266 332 397 471
#     4  12  29  51  78 116 163 207 260 329 398 472
#
# _framework density 25.058990999999999
#
# number of rings (size 3 to 8) (size 9 to 14) (size 15 to 20)
#    0.000    0.400    2.000    4.800    5.600    0.800 
#    3.600    0.000    0.000    0.000    0.000    0.000 
#    0.000    0.000    0.000    0.000    0.000    0.000 
#
# Total GULP energy -56057.402409 kJ/mol
# GULP energy per Si atom -5605.740241 kJ/mol
# Density = 2.500196 g / cm^3
# Si number density = 25.058991 Si / 1000 Ang^3
#
#
#
# Elastic Constant Matrix: (Units=GPa)
#
#
# Indices 1 2 3 4 5 6 
#
# 1 267.0386 89.6294 106.7981 19.1117 17.1380 -0.9115
# 2 89.6294 95.4909 50.5081 25.6502 8.0401 -24.5600
# 3 106.7981 50.5081 148.0490 34.5665 1.6910 -5.4674
# 4 19.1117 25.6502 34.5665 54.3201 0.8171 -4.6319
# 5 17.1380 8.0401 1.6910 0.8171 57.6310 2.2189
# 6 -0.9115 -24.5600 -5.4674 -4.6319 2.2189 58.1417
#
#
#
# Elastic Compliance Matrix: (Units=1/GPa)
#
#
# Indices 1 2 3 4 5 6 
#
# 1 0.007126 -0.005902 -0.003789 0.002495 -0.001124 -0.002496
# 2 -0.005902 0.020325 -0.000910 -0.006244 -0.001272 0.007958
# 3 -0.003789 -0.000910 0.011018 -0.005252 0.001000 0.000136
# 4 0.002495 -0.006244 -0.005252 0.023720 -0.000007 -0.001202
# 5 -0.001124 -0.001272 0.001000 -0.000007 0.017878 -0.001144
# 6 -0.002496 0.007958 0.000136 -0.001202 -0.001144 0.020483
#
#
# Mechanical properties :
#
#
# Convention : Reuss Voigt Hill
#
# Bulk Modulus (GPa) = 57.91514 111.60553 84.76033
# Shear Modulus (GPa) = 39.21360 51.59475 45.40418
#
# Velocity S-wave (km/s) = 3.96011 4.54247 4.26125
# Velocity P-wave (km/s) = 6.63865 8.49387 7.62291
#
# Compressibility (1/GPa) = 0.01726664
#
# Stress axis : x y z
#
# Youngs Moduli (GPa) = 140.32808 49.20145 90.76093
#
# Poissons Ratio (x) = 0.29040 0.34388
# Poissons Ratio (y) = 0.82825 0.08259
# Poissons Ratio (z) = 0.53168 0.04477
#
# Static dielectric constant tensor:
#      x y z
#    x 1.950420 0.006700 0.041490 
#    y 0.006700 2.020190 -0.048150 
#    z 0.041490 -0.048150 1.968830 
# 
# From -- ./inp_files/371722.got.cif
#   From: 2010.05.17/outbox.cif.g08.bks.cpg/sg2_186_cif.got.tgz:371722.got - 2010.06.03 11:33:40.
