data_PCOD9068411
_publ_section_title
;
Structure prediction by ZEFSAII (Michael W. Deem and Ramdas Pophale) SiO2 
 PCOD9068411
Probable space group: P -1
;
_chemical_formula_sum "Si O2"
_cell_formula_units_Z 16
_cell_length_a 8.696884
_cell_length_b 15.592741
_cell_length_c 14.786294
_cell_angle_alpha 152.775394
_cell_angle_beta 95.442564
_cell_angle_gamma 101.882255
_cell_volume 703.701891
_symmetry_space_group_name_H-M "P -1"
_symmetry_group_IT_number 2
_symmetry_cell_setting 'triclinic'
loop_
_space_group_symop_operation_xyz
x,y,z
-x,-y,-z
loop_
_atom_site_type_symbol
_atom_site_label
_atom_site_fract_x
_atom_site_fract_y
_atom_site_fract_z
Si Si1 0.321880 0.308678 0.527797
Si Si2 0.652359 0.089019 0.508734
Si Si3 0.681748 0.355552 0.585501
Si Si4 0.351829 0.599973 0.972391
Si Si5 0.907195 0.238169 0.943385
Si Si6 0.925733 0.748811 0.712394
Si Si7 0.047058 0.246695 0.762764
Si Si8 0.309756 0.788684 0.732509
O O1 0.553227 0.442921 0.644718
O O2 0.316494 0.422530 0.726246
O O3 0.195938 0.300477 0.432357
O O4 0.225751 0.031666 0.279980
O O5 0.637314 0.235930 0.569796
O O6 0.876051 0.241339 0.700331
O O7 0.500000 0.000000 0.500000
O O8 0.579615 0.839601 0.224198
O O9 0.628574 0.167783 0.328290
O O10 0.919203 0.572153 0.799877
O O11 0.258749 0.461959 0.932796
O O12 0.230106 0.691732 0.022878
O O13 0.017336 0.250595 0.870631
O O14 0.776502 0.487912 0.511276
O O15 0.126990 0.788007 0.739489
O O16 0.000000 0.000000 0.000000
O O17 0.000000 0.000000 0.500000
O O18 0.500000 0.000000 0.000000
#
# Coordination Sequence:
#
# PCOD9068411 Si02
#       8
#     2   2   2   2   2   2   2   2
#     4  12  27  43  71 107 135 182 239 288 349 428
#     4  12  25  45  69 100 143 190 235 291 352 409
#     4  12  26  45  73 104 140 189 235 288 353 424
#     4  12  25  43  68  95 140 184 230 292 348 410
#     4  12  24  47  66  99 144 184 237 291 352 412
#     4  11  26  50  75 107 147 183 235 302 362 430
#     4  12  25  43  67  99 138 189 240 291 348 417
#     4  11  27  49  77 108 147 189 235 295 368 430
#
# _framework density 22.736899999999999
#
# number of rings (size 3 to 8) (size 9 to 14) (size 15 to 20)
#    0.000    0.250    5.000    3.375    3.500    5.500 
#    0.000    0.000    0.000    0.000    0.000    0.000 
#    0.000    0.000    0.000    0.000    0.000    0.000 
#
# Total GULP energy -89606.335235 kJ/mol
# GULP energy per Si atom -5600.395952 kJ/mol
# Density = 2.268515 g / cm^3
# Si number density = 22.736900 Si / 1000 Ang^3
#
#
#
# Elastic Constant Matrix: (Units=GPa)
#
#
# Indices 1 2 3 4 5 6 
#
# 1 66.4567 20.6662 13.0993 -2.2393 -6.4037 1.4820
# 2 20.6662 74.4600 16.4569 -8.2576 0.0227 -2.1380
# 3 13.0993 16.4569 108.6166 -7.7162 3.0574 -3.2229
# 4 -2.2393 -8.2576 -7.7162 44.7978 -3.8636 -4.7744
# 5 -6.4037 0.0227 3.0574 -3.8636 39.5824 -6.8566
# 6 1.4820 -2.1380 -3.2229 -4.7744 -6.8566 28.5570
#
#
#
# Elastic Compliance Matrix: (Units=1/GPa)
#
#
# Indices 1 2 3 4 5 6 
#
# 1 0.016991 -0.004417 -0.001483 -0.000063 0.002733 -0.000734
# 2 -0.004417 0.015324 -0.001562 0.002498 -0.000082 0.001598
# 3 -0.001483 -0.001562 0.009773 0.001385 -0.000662 0.001136
# 4 -0.000063 0.002498 0.001385 0.023825 0.003085 0.005071
# 5 0.002733 -0.000082 -0.000662 0.003085 0.027242 0.006834
# 6 -0.000734 0.001598 0.001136 0.005071 0.006834 0.037792
#
#
# Mechanical properties :
#
#
# Convention : Reuss Voigt Hill
#
# Bulk Modulus (GPa) = 36.81326 38.88645 37.84986
# Shear Modulus (GPa) = 32.27362 35.87485 34.07423
#
# Velocity S-wave (km/s) = 3.77163 3.97649 3.87542
# Velocity P-wave (km/s) = 5.93237 6.18250 6.05873
#
# Compressibility (1/GPa) = 0.02716412
#
# Stress axis : x y z
#
# Youngs Moduli (GPa) = 58.85543 65.25680 102.32325
#
# Poissons Ratio (x) = 0.28823 0.15175
# Poissons Ratio (y) = 0.25996 0.15982
# Poissons Ratio (z) = 0.08729 0.10193
#
# Static dielectric constant tensor:
#      x y z
#    x 1.818670 -0.001610 0.002660 
#    y -0.001610 1.843780 0.014440 
#    z 0.002660 0.014440 1.866330 
# 
# From -- ./inp_files/505934.got.cif
#   From: 2010.05.17/outbox.cif.g08.bks.cpg/sg2_253_cif.got.tgz:505934.got - 2010.06.03 11:33:40.
