data_PCOD9068579
_publ_section_title
;
Structure prediction by ZEFSAII (Michael W. Deem and Ramdas Pophale) SiO2 
 PCOD9068579
Probable space group: P -1
;
_chemical_formula_sum "Si O2"
_cell_formula_units_Z 16
_cell_length_a 17.831470
_cell_length_b 9.931804
_cell_length_c 4.954951
_cell_angle_alpha 80.352909
_cell_angle_beta 125.298889
_cell_angle_gamma 114.575190
_cell_volume 648.173299
_symmetry_space_group_name_H-M "P -1"
_symmetry_group_IT_number 2
_symmetry_cell_setting 'triclinic'
loop_
_space_group_symop_operation_xyz
x,y,z
-x,-y,-z
loop_
_atom_site_type_symbol
_atom_site_label
_atom_site_fract_x
_atom_site_fract_y
_atom_site_fract_z
Si Si1 0.989036 0.168078 0.668822
Si Si2 0.478744 0.583612 0.178559
Si Si3 0.347252 0.092429 0.555406
Si Si4 0.753592 0.531715 0.340707
Si Si5 0.225841 0.628332 0.047360
Si Si6 0.385189 0.942521 0.191601
Si Si7 0.838367 0.854607 0.594927
Si Si8 0.050274 0.672598 0.960685
O O1 0.850042 0.310080 0.997162
O O2 0.940524 0.237298 0.775174
O O3 0.910070 0.998552 0.528214
O O4 0.088820 0.170043 0.019704
O O5 0.500000 0.500000 0.500000
O O6 0.554918 0.754236 0.279089
O O7 0.500000 0.500000 0.000000
O O8 0.362540 0.551341 0.945461
O O9 0.336411 0.029242 0.252875
O O10 0.250829 0.116468 0.453167
O O11 0.368660 0.978708 0.838604
O O12 0.806829 0.457295 0.273813
O O13 0.788987 0.708255 0.356937
O O14 0.766531 0.489650 0.686527
O O15 0.996137 0.738816 0.606525
O O16 0.329511 0.768409 0.185509
O O17 0.500000 0.000000 0.500000
O O18 0.000000 0.500000 0.000000
#
# Coordination Sequence:
#
# PCOD9068579 Si02
#       8
#     2   2   2   2   2   2   2   2
#     4  11  27  49  75 108 150 185 247 312 364 445
#     4  12  24  45  66 107 147 186 235 289 356 439
#     4  12  25  44  75 105 144 190 241 295 365 434
#     4  12  26  45  73 107 150 190 241 300 361 439
#     4  12  26  46  73 107 143 193 249 298 361 434
#     4  12  25  46  73 105 146 190 240 299 357 429
#     4  11  27  47  75 111 146 195 240 302 381 430
#     4  12  26  50  75 106 144 194 249 305 373 426
#
# _framework density 24.684756
#
# number of rings (size 3 to 8) (size 9 to 14) (size 15 to 20)
#    0.000    0.250    1.250    7.500    0.000    7.000 
#    0.000    0.000    0.000    0.000    0.000    0.000 
#    0.000    0.000    0.000    0.000    0.000    0.000 
#
# Total GULP energy -89815.974805 kJ/mol
# GULP energy per Si atom -5613.498425 kJ/mol
# Density = 2.462857 g / cm^3
# Si number density = 24.684756 Si / 1000 Ang^3
#
#
#
# Elastic Constant Matrix: (Units=GPa)
#
#
# Indices 1 2 3 4 5 6 
#
# 1 104.2600 40.9460 33.9191 8.3487 4.4078 0.6913
# 2 40.9460 143.4257 27.5929 26.0268 -2.0789 19.0107
# 3 33.9191 27.5929 72.5766 -4.5265 -2.2998 19.6030
# 4 8.3487 26.0268 -4.5265 49.9166 1.2105 -2.1444
# 5 4.4078 -2.0789 -2.2998 1.2105 62.6846 -0.5349
# 6 0.6913 19.0107 19.6030 -2.1444 -0.5349 44.8231
#
#
#
# Elastic Compliance Matrix: (Units=1/GPa)
#
#
# Indices 1 2 3 4 5 6 
#
# 1 0.012727 -0.002786 -0.005941 -0.001036 -0.001155 0.003520
# 2 -0.002786 0.009406 -0.001620 -0.004747 0.000511 -0.003459
# 3 -0.005941 -0.001620 0.019445 0.003254 0.000950 -0.007559
# 4 -0.001036 -0.004747 0.003254 0.023059 -0.000396 0.001705
# 5 -0.001155 0.000511 0.000950 -0.000396 0.016090 -0.000441
# 6 0.003520 -0.003459 -0.007559 0.001705 -0.000441 0.027105
#
#
# Mechanical properties :
#
#
# Convention : Reuss Voigt Hill
#
# Bulk Modulus (GPa) = 47.87920 58.35316 53.11618
# Shear Modulus (GPa) = 36.90396 46.00513 41.45454
#
# Velocity S-wave (km/s) = 3.87073 4.32175 4.10244
# Velocity P-wave (km/s) = 6.27815 6.97094 6.63359
#
# Compressibility (1/GPa) = 0.02088590
#
# Stress axis : x y z
#
# Youngs Moduli (GPa) = 78.57575 106.31055 51.42593
#
# Poissons Ratio (x) = 0.29616 0.30550
# Poissons Ratio (y) = 0.21889 0.08330
# Poissons Ratio (z) = 0.46679 0.17220
#
# Static dielectric constant tensor:
#      x y z
#    x 1.991040 -0.018320 0.048250 
#    y -0.018320 1.903870 -0.019870 
#    z 0.048250 -0.019870 1.894120 
# 
# From -- ./inp_files/107053.got.cif
#   From: 2010.05.17/outbox.cif.g08.bks.cpg/sg2_54_cif.got.tgz:107053.got - 2010.06.03 11:33:40.
