data_PCOD9068273
_publ_section_title
;
Structure prediction by ZEFSAII (Michael W. Deem and Ramdas Pophale) SiO2 
 PCOD9068273
Probable space group: P -1
;
_chemical_formula_sum "Si O2"
_cell_formula_units_Z 12
_cell_length_a 4.953712
_cell_length_b 14.103831
_cell_length_c 14.201426
_cell_angle_alpha 150.700015
_cell_angle_beta 94.585067
_cell_angle_gamma 77.755397
_cell_volume 462.938653
_symmetry_space_group_name_H-M "P -1"
_symmetry_group_IT_number 2
_symmetry_cell_setting 'triclinic'
loop_
_space_group_symop_operation_xyz
x,y,z
-x,-y,-z
loop_
_atom_site_type_symbol
_atom_site_label
_atom_site_fract_x
_atom_site_fract_y
_atom_site_fract_z
Si Si1 0.828378 0.859270 0.781726
Si Si2 0.105184 0.332855 0.010633
Si Si3 0.503577 0.435276 0.837041
Si Si4 0.785587 0.033210 0.434678
Si Si5 0.349051 0.743754 0.566694
Si Si6 0.413411 0.277351 0.160298
O O1 0.629007 0.810228 0.651719
O O2 0.765298 0.739638 0.766825
O O3 0.142219 0.798618 0.698018
O O4 0.703233 0.095540 0.008939
O O5 0.211730 0.527002 0.161161
O O6 0.246812 0.240981 0.031652
O O7 0.770155 0.405339 0.075486
O O8 0.206281 0.184023 0.795677
O O9 0.512697 0.204934 0.616731
O O10 0.500000 0.500000 0.000000
O O11 0.820306 0.140808 0.428853
O O12 0.000000 0.000000 0.500000
O O13 0.439971 0.502039 0.349168
#
# Coordination Sequence:
#
# PCOD9068273 Si02
#       6
#     2   2   2   2   2   2
#     4  11  28  48  75 113 143 193 246 303 364 437
#     4  12  28  47  74 108 148 192 241 304 365 433
#     4  12  28  49  75 105 146 196 247 302 365 427
#     4  12  28  49  76 110 148 196 246 303 361 437
#     4  12  27  48  74 108 150 192 243 303 367 430
#     4  11  26  48  79 106 151 191 244 302 368 434
#
# _framework density 25.921361999999998
#
# number of rings (size 3 to 8) (size 9 to 14) (size 15 to 20)
#    0.000    0.333    5.000    1.500    4.667    7.333 
#    0.000    0.000    0.000    0.000    0.000    0.000 
#    0.000    0.000    0.000    0.000    0.000    0.000 
#
# Total GULP energy -67253.395444 kJ/mol
# GULP energy per Si atom -5604.449620 kJ/mol
# Density = 2.586236 g / cm^3
# Si number density = 25.921362 Si / 1000 Ang^3
#
#
#
# Elastic Constant Matrix: (Units=GPa)
#
#
# Indices 1 2 3 4 5 6 
#
# 1 64.1288 7.6738 32.9199 -4.8174 3.9145 3.9664
# 2 7.6738 112.9777 24.5136 -15.7583 12.1599 -13.4136
# 3 32.9199 24.5136 171.8711 -5.5019 4.9697 -12.0511
# 4 -4.8174 -15.7583 -5.5019 56.9128 3.8390 3.7214
# 5 3.9145 12.1599 4.9697 3.8390 34.6496 -5.4902
# 6 3.9664 -13.4136 -12.0511 3.7214 -5.4902 32.0409
#
#
#
# Elastic Compliance Matrix: (Units=1/GPa)
#
#
# Indices 1 2 3 4 5 6 
#
# 1 0.017999 -0.000524 -0.003566 0.001465 -0.002187 -0.004334
# 2 -0.000524 0.010182 -0.000956 0.002694 -0.003183 0.003110
# 3 -0.003566 -0.000956 0.006815 -0.000094 0.000191 0.002648
# 4 0.001465 0.002694 -0.000094 0.018788 -0.003475 -0.001866
# 5 -0.002187 -0.003183 0.000191 -0.003475 0.031340 0.004784
# 6 -0.004334 0.003110 0.002648 -0.001866 0.004784 0.035081
#
#
# Mechanical properties :
#
#
# Convention : Reuss Voigt Hill
#
# Bulk Modulus (GPa) = 40.15419 53.24359 46.69889
# Shear Modulus (GPa) = 36.07594 43.64537 39.86065
#
# Velocity S-wave (km/s) = 3.73466 4.10782 3.92567
# Velocity P-wave (km/s) = 5.84134 6.56383 6.21310
#
# Compressibility (1/GPa) = 0.02490400
#
# Stress axis : x y z
#
# Youngs Moduli (GPa) = 55.55980 98.21541 146.73737
#
# Poissons Ratio (x) = 0.05142 0.52334
# Poissons Ratio (y) = 0.02909 0.14023
# Poissons Ratio (z) = 0.19815 0.09386
#
# Static dielectric constant tensor:
#      x y z
#    x 1.945220 -0.014460 0.019530 
#    y -0.014460 2.056100 0.011780 
#    z 0.019530 0.011780 2.017460 
# 
# From -- ./inp_files/484621.got.cif
#   From: 2010.05.17/outbox.cif.g08.bks.cpg/sg2_243_cif.got.tgz:484621.got - 2010.06.03 11:33:40.
