data_PCOD9068062
_publ_section_title
;
Structure prediction by ZEFSAII (Michael W. Deem and Ramdas Pophale) SiO2 
 PCOD9068062
Probable space group: P -1
;
_chemical_formula_sum "Si O2"
_cell_formula_units_Z 16
_cell_length_a 10.872403
_cell_length_b 11.568012
_cell_length_c 12.619184
_cell_angle_alpha 102.575083
_cell_angle_beta 99.697703
_cell_angle_gamma 25.300878
_cell_volume 660.493289
_symmetry_space_group_name_H-M "P -1"
_symmetry_group_IT_number 2
_symmetry_cell_setting 'triclinic'
loop_
_space_group_symop_operation_xyz
x,y,z
-x,-y,-z
loop_
_atom_site_type_symbol
_atom_site_label
_atom_site_fract_x
_atom_site_fract_y
_atom_site_fract_z
Si Si1 0.863927 0.048506 0.389129
Si Si2 0.469079 0.395314 0.022503
Si Si3 0.181537 0.121196 0.010933
Si Si4 0.453185 0.518282 0.266236
Si Si5 0.306883 0.440864 0.648475
Si Si6 0.088300 0.399701 0.693714
Si Si7 0.465048 0.090396 0.175575
Si Si8 0.833785 0.866237 0.498792
O O1 0.114551 0.829122 0.294721
O O2 0.806240 0.967889 0.409313
O O3 0.000000 0.000000 0.500000
O O4 0.589199 0.346460 0.358067
O O5 0.508101 0.385745 0.150820
O O6 0.157072 0.605113 0.998874
O O7 0.700047 0.099874 0.961716
O O8 0.500000 0.500000 0.000000
O O9 0.275219 0.157880 0.095445
O O10 0.345934 0.997381 0.897574
O O11 0.597634 0.522822 0.271214
O O12 0.103687 0.526518 0.700564
O O13 0.132753 0.628757 0.556210
O O14 0.584314 0.127053 0.591319
O O15 0.167565 0.266351 0.569006
O O16 0.770074 0.637644 0.735151
O O17 0.319497 0.163962 0.767364
#
# Coordination Sequence:
#
# PCOD9068062 Si02
#       8
#     2   2   2   2   2   2   2   2
#     4  12  23  44  66 101 139 185 231 281 342 418
#     4  12  28  48  75 108 143 183 231 297 357 424
#     4  11  26  50  72 101 146 173 236 291 360 408
#     4  12  26  42  70 102 137 187 230 278 352 421
#     4  12  24  45  65 100 144 185 225 282 347 420
#     4  12  26  43  73 102 135 182 245 280 346 411
#     4  11  26  47  74 102 132 190 229 300 345 409
#     4  12  25  42  69  98 144 182 228 288 345 403
#
# _framework density 24.224321
#
# number of rings (size 3 to 8) (size 9 to 14) (size 15 to 20)
#    0.000    0.250    2.500    6.000    8.750    2.000 
#    0.000    0.000    0.000    0.000    0.000    0.000 
#    0.000    0.000    0.000    0.000    0.000    0.000 
#
# Total GULP energy -89712.025949 kJ/mol
# GULP energy per Si atom -5607.001622 kJ/mol
# Density = 2.416918 g / cm^3
# Si number density = 24.224321 Si / 1000 Ang^3
#
#
#
# Elastic Constant Matrix: (Units=GPa)
#
#
# Indices 1 2 3 4 5 6 
#
# 1 71.3404 -6.9126 6.6273 -10.3593 9.7884 3.7366
# 2 -6.9126 103.5194 14.2987 -9.7309 8.9006 -4.5710
# 3 6.6273 14.2987 47.5012 -6.6320 6.1820 -0.2409
# 4 -10.3593 -9.7309 -6.6320 34.9651 0.9421 1.6971
# 5 9.7884 8.9006 6.1820 0.9421 30.1037 -2.5595
# 6 3.7366 -4.5710 -0.2409 1.6971 -2.5595 31.7949
#
#
#
# Elastic Compliance Matrix: (Units=1/GPa)
#
#
# Indices 1 2 3 4 5 6 
#
# 1 0.016079 0.002179 -0.001385 0.005382 -0.005957 -0.002354
# 2 0.002179 0.010802 -0.002665 0.003197 -0.003384 0.000834
# 3 -0.001385 -0.002665 0.022982 0.003330 -0.003630 -0.000516
# 4 0.005382 0.003197 0.003330 0.031947 -0.004568 -0.002221
# 5 -0.005957 -0.003384 -0.003630 -0.004568 0.037336 0.003435
# 6 -0.002354 0.000834 -0.000516 -0.002221 0.003435 0.032239
#
#
# Mechanical properties :
#
#
# Convention : Reuss Voigt Hill
#
# Bulk Modulus (GPa) = 21.68098 27.82087 24.75093
# Shear Modulus (GPa) = 29.32550 33.26259 31.29404
#
# Velocity S-wave (km/s) = 3.48311 3.70957 3.59812
# Velocity P-wave (km/s) = 5.01454 5.46420 5.24419
#
# Compressibility (1/GPa) = 0.04612338
#
# Stress axis : x y z
#
# Youngs Moduli (GPa) = 62.19195 92.57632 43.51222
#
# Poissons Ratio (x) = -0.20174 0.06024
# Poissons Ratio (y) = -0.13552 0.11594
# Poissons Ratio (z) = 0.08611 0.24667
#
# Static dielectric constant tensor:
#      x y z
#    x 1.945600 0.013860 -0.014280 
#    y 0.013860 1.861630 0.005760 
#    z -0.014280 0.005760 1.960280 
# 
# From -- ./inp_files/434011.got.cif
#   From: 2010.05.17/outbox.cif.g08.bks.cpg/sg2_218_cif.got.tgz:434011.got - 2010.06.03 11:33:40.
