data_PCOD9068754
_publ_section_title
;
Structure prediction by ZEFSAII (Michael W. Deem and Ramdas Pophale) SiO2 
 PCOD9068754
Probable space group: P -1
;
_chemical_formula_sum "Si O2"
_cell_formula_units_Z 16
_cell_length_a 6.865472
_cell_length_b 4.794363
_cell_length_c 18.031553
_cell_angle_alpha 87.685621
_cell_angle_beta 75.964285
_cell_angle_gamma 69.009567
_cell_volume 536.880520
_symmetry_space_group_name_H-M "P -1"
_symmetry_group_IT_number 2
_symmetry_cell_setting 'triclinic'
loop_
_space_group_symop_operation_xyz
x,y,z
-x,-y,-z
loop_
_atom_site_type_symbol
_atom_site_label
_atom_site_fract_x
_atom_site_fract_y
_atom_site_fract_z
Si Si1 0.917271 0.879377 0.338482
Si Si2 0.101846 0.987064 0.826292
Si Si3 0.385620 0.360991 0.802726
Si Si4 0.143589 0.195606 0.033076
Si Si5 0.406661 0.420408 0.354241
Si Si6 0.492786 0.317533 0.075094
Si Si7 0.976265 0.622149 0.585636
Si Si8 0.521194 0.881358 0.416411
O O1 0.990048 0.873105 0.245271
O O2 0.636459 0.096020 0.344808
O O3 0.794048 0.664524 0.392838
O O4 0.957280 0.114287 0.388872
O O5 0.160847 0.633607 0.812883
O O6 0.969788 0.014461 0.914539
O O7 0.319294 0.070504 0.814855
O O8 0.508710 0.398701 0.718678
O O9 0.483462 0.473313 0.862986
O O10 0.677622 0.003711 0.038526
O O11 0.268953 0.270048 0.090533
O O12 0.000000 0.500000 0.000000
O O13 0.141274 0.571244 0.348237
O O14 0.427168 0.614711 0.420570
O O15 0.500000 0.500000 0.000000
O O16 0.699725 0.839156 0.602148
O O17 0.000000 0.500000 0.500000
O O18 0.500000 0.000000 0.500000
#
# Coordination Sequence:
#
# PCOD9068754 Si02
#       8
#     2   2   2   2   2   2   2   2
#     4  12  24  46  70 110 147 198 267 315 394 482
#     4  12  28  49  81 113 158 210 268 337 416 492
#     4  12  27  49  77 115 159 207 264 340 413 498
#     4  11  29  57  86 125 166 221 278 349 426 508
#     4  12  24  46  68 109 150 200 254 320 403 460
#     4  11  29  53  84 125 165 213 283 337 426 510
#     4  12  26  44  71 107 155 205 262 333 399 473
#     4  12  23  44  73 102 144 197 258 318 382 469
#
# _framework density 29.801791999999999
#
# number of rings (size 3 to 8) (size 9 to 14) (size 15 to 20)
#    0.000    0.250    2.500    5.250    8.750    2.500 
#    0.000    0.000    0.000    0.000    0.000    0.000 
#    0.000    0.000    0.000    0.000    0.000    0.000 
#
# Total GULP energy -89496.973444 kJ/mol
# GULP energy per Si atom -5593.560840 kJ/mol
# Density = 2.973396 g / cm^3
# Si number density = 29.801792 Si / 1000 Ang^3
#
#
#
# Elastic Constant Matrix: (Units=GPa)
#
#
# Indices 1 2 3 4 5 6 
#
# 1 237.6843 51.4722 30.1332 -14.7276 -1.6365 12.7091
# 2 51.4722 199.4803 42.3485 -2.6639 12.2852 -10.2848
# 3 30.1332 42.3485 138.7462 -15.1364 24.9215 10.3129
# 4 -14.7276 -2.6639 -15.1364 49.3716 3.4134 7.5557
# 5 -1.6365 12.2852 24.9215 3.4134 73.3796 -0.0869
# 6 12.7091 -10.2848 10.3129 7.5557 -0.0869 89.2907
#
#
#
# Elastic Compliance Matrix: (Units=1/GPa)
#
#
# Indices 1 2 3 4 5 6 
#
# 1 0.004647 -0.001137 -0.000538 0.001259 0.000417 -0.000836
# 2 -0.001137 0.005711 -0.001570 -0.000645 -0.000417 0.001055
# 3 -0.000538 -0.001570 0.008724 0.002834 -0.002846 -0.001355
# 4 0.001259 -0.000645 0.002834 0.021966 -0.001851 -0.002441
# 5 0.000417 -0.000417 -0.002846 -0.001851 0.014760 0.000392
# 6 -0.000836 0.001055 -0.001355 -0.002441 0.000392 0.011803
#
#
# Mechanical properties :
#
#
# Convention : Reuss Voigt Hill
#
# Bulk Modulus (GPa) = 79.40740 91.53540 85.47140
# Shear Modulus (GPa) = 63.85767 72.53884 68.19825
#
# Velocity S-wave (km/s) = 4.63400 4.93895 4.78891
# Velocity P-wave (km/s) = 7.43875 7.95649 7.70197
#
# Compressibility (1/GPa) = 0.01259328
#
# Stress axis : x y z
#
# Youngs Moduli (GPa) = 215.17991 175.09406 114.62192
#
# Poissons Ratio (x) = 0.19908 0.06162
# Poissons Ratio (y) = 0.24466 0.17997
# Poissons Ratio (z) = 0.11568 0.27492
#
# Static dielectric constant tensor:
#      x y z
#    x 2.753310 -0.095080 0.037180 
#    y -0.095080 2.389870 0.021760 
#    z 0.037180 0.021760 2.286190 
# 
# From -- ./inp_files/12836.got.cif
#   From: 2010.05.17/outbox.cif.g08.bks.cpg/sg2_7_cif.got.tgz:12836.got - 2010.06.03 11:33:40.
