data_PCOD9068127
_publ_section_title
;
Structure prediction by ZEFSAII (Michael W. Deem and Ramdas Pophale) SiO2 
 PCOD9068127
Probable space group: P -1
;
_chemical_formula_sum "Si O2"
_cell_formula_units_Z 13
_cell_length_a 15.813055
_cell_length_b 9.068147
_cell_length_c 15.119697
_cell_angle_alpha 152.114056
_cell_angle_beta 32.657346
_cell_angle_gamma 135.633868
_cell_volume 543.501311
_symmetry_space_group_name_H-M "P -1"
_symmetry_group_IT_number 2
_symmetry_cell_setting 'triclinic'
loop_
_space_group_symop_operation_xyz
x,y,z
-x,-y,-z
loop_
_atom_site_type_symbol
_atom_site_label
_atom_site_fract_x
_atom_site_fract_y
_atom_site_fract_z
Si Si1 0.500000 0.500000 0.000000
Si Si2 0.106643 0.143388 0.554893
Si Si3 0.430048 0.346041 0.779033
Si Si4 0.684845 0.080405 0.118067
Si Si5 0.573138 0.624444 0.636444
Si Si6 0.089772 0.195987 0.952474
Si Si7 0.034789 0.862658 0.654473
O O1 0.491207 0.431279 0.865096
O O2 0.359802 0.269655 0.015096
O O3 0.285063 0.159199 0.375062
O O4 0.000000 0.000000 0.500000
O O5 0.110238 0.956543 0.545592
O O6 0.022920 0.502578 0.825310
O O7 0.496099 0.579423 0.773950
O O8 0.241895 0.332676 0.931818
O O9 0.500000 0.000000 0.500000
O O10 0.648674 0.288168 0.348869
O O11 0.564604 0.243163 0.238174
O O12 0.862450 0.063297 0.919320
O O13 0.130508 0.966851 0.710592
O O14 0.000000 0.000000 0.000000
O O15 0.000000 0.500000 0.500000
#
# Coordination Sequence:
#
# PCOD9068127 Si02
#       7
#     1   2   2   2   2   2   2
#     4  12  28  46  80 108 154 194 268 306 394 466
#     4  12  28  48  73 113 151 204 261 321 397 466
#     4  12  27  48  76 113 151 204 252 325 386 461
#     4  11  26  47  77 112 149 203 255 321 386 472
#     4  11  26  49  76 110 156 197 259 325 393 458
#     4  12  26  50  76 109 154 202 260 325 390 464
#     4  12  28  48  77 110 155 207 261 321 394 473
#
# _framework density 23.918984999999999
#
# number of rings (size 3 to 8) (size 9 to 14) (size 15 to 20)
#    0.000    0.308    3.077    4.154   12.923    0.615 
#    0.000    0.000    0.000    0.000    0.000    0.000 
#    0.000    0.000    0.000    0.000    0.000    0.000 
#
# Total GULP energy -72627.912286 kJ/mol
# GULP energy per Si atom -5586.762484 kJ/mol
# Density = 2.386454 g / cm^3
# Si number density = 23.918985 Si / 1000 Ang^3
#
#
#
# Elastic Constant Matrix: (Units=GPa)
#
#
# Indices 1 2 3 4 5 6 
#
# 1 166.0932 80.6216 44.2741 -15.6960 49.6343 4.3672
# 2 80.6216 186.2624 42.0509 -29.6361 27.1621 -7.1741
# 3 44.2741 42.0509 78.9999 -9.2236 -2.2155 5.5832
# 4 -15.6960 -29.6361 -9.2236 45.1639 -0.9693 1.3695
# 5 49.6343 27.1621 -2.2155 -0.9693 44.0823 -4.8089
# 6 4.3672 -7.1741 5.5832 1.3695 -4.8089 58.7665
#
#
#
# Elastic Compliance Matrix: (Units=1/GPa)
#
#
# Indices 1 2 3 4 5 6 
#
# 1 0.013040 -0.001985 -0.006317 0.001694 -0.013934 -0.001791
# 2 -0.001985 0.007879 -0.002783 0.003825 -0.002558 0.001075
# 3 -0.006317 -0.002783 0.017993 -0.000116 0.009643 -0.000788
# 4 0.001694 0.003825 -0.000116 0.025152 -0.003776 -0.000543
# 5 -0.013934 -0.002558 0.009643 -0.003776 0.040704 0.003226
# 6 -0.001791 0.001075 -0.000788 -0.000543 0.003226 0.017632
#
#
# Mechanical properties :
#
#
# Convention : Reuss Voigt Hill
#
# Bulk Modulus (GPa) = 59.73512 85.02763 72.38138
# Shear Modulus (GPa) = 33.30003 47.22979 40.26491
#
# Velocity S-wave (km/s) = 3.73527 4.44844 4.10736
# Velocity P-wave (km/s) = 6.60539 7.87465 7.26778
#
# Compressibility (1/GPa) = 0.01674057
#
# Stress axis : x y z
#
# Youngs Moduli (GPa) = 76.68986 126.91545 55.57866
#
# Poissons Ratio (x) = 0.25196 0.35112
# Poissons Ratio (y) = 0.15225 0.15466
# Poissons Ratio (z) = 0.48449 0.35316
#
# Static dielectric constant tensor:
#      x y z
#    x 1.862270 0.007010 -0.028170 
#    y 0.007010 1.922320 0.013290 
#    z -0.028170 0.013290 2.042600 
# 
# From -- ./inp_files/159707.got.cif
#   From: 2010.05.17/outbox.cif.g08.bks.cpg/sg2_80_cif.got.tgz:159707.got - 2010.06.03 11:33:40.
