data_PCOD9068259
_publ_section_title
;
Structure prediction by ZEFSAII (Michael W. Deem and Ramdas Pophale) SiO2 
 PCOD9068259
Probable space group: P -1
;
_chemical_formula_sum "Si O2"
_cell_formula_units_Z 14
_cell_length_a 8.192540
_cell_length_b 10.294108
_cell_length_c 11.253705
_cell_angle_alpha 37.694908
_cell_angle_beta 110.804190
_cell_angle_gamma 121.297286
_cell_volume 493.031094
_symmetry_space_group_name_H-M "P -1"
_symmetry_group_IT_number 2
_symmetry_cell_setting 'triclinic'
loop_
_space_group_symop_operation_xyz
x,y,z
-x,-y,-z
loop_
_atom_site_type_symbol
_atom_site_label
_atom_site_fract_x
_atom_site_fract_y
_atom_site_fract_z
Si Si1 0.097527 0.227596 0.393158
Si Si2 0.140080 0.723356 0.873538
Si Si3 0.490109 0.091861 0.301619
Si Si4 0.252396 0.245786 0.982390
Si Si5 0.868417 0.536156 0.543366
Si Si6 0.201180 0.906333 0.010612
Si Si7 0.449958 0.605507 0.598813
O O1 0.020280 0.266519 0.474058
O O2 0.329666 0.348290 0.368852
O O3 0.070210 0.449404 0.129246
O O4 0.919554 0.065554 0.371890
O O5 0.310386 0.727145 0.831030
O O6 0.233625 0.889496 0.892395
O O7 0.648724 0.492844 0.228544
O O8 0.436359 0.848526 0.393964
O O9 0.500000 0.000000 0.500000
O O10 0.334845 0.192401 0.162521
O O11 0.301278 0.112307 0.981761
O O12 0.025981 0.151475 0.002262
O O13 0.782611 0.311574 0.765795
O O14 0.693074 0.566580 0.412091
O O15 0.000000 0.500000 0.500000
#
# Coordination Sequence:
#
# PCOD9068259 Si02
#       7
#     2   2   2   2   2   2   2
#     4  12  28  48  75 116 160 209 269 335 407 477
#     4  12  27  49  76 108 158 209 261 332 405 476
#     4  12  30  50  79 117 159 210 274 339 405 484
#     4  11  27  50  80 114 159 208 266 338 404 483
#     4  12  26  50  82 116 159 216 274 332 407 489
#     4  11  26  48  77 115 156 208 270 328 406 487
#     4  12  27  50  79 117 157 214 270 334 400 487
#
# _framework density 28.395776999999999
#
# number of rings (size 3 to 8) (size 9 to 14) (size 15 to 20)
#    0.000    0.286    5.714    1.286    8.000    2.286 
#    0.000    0.000    0.000    0.000    0.000    0.000 
#    0.000    0.000    0.000    0.000    0.000    0.000 
#
# Total GULP energy -78360.919662 kJ/mol
# GULP energy per Si atom -5597.208547 kJ/mol
# Density = 2.833115 g / cm^3
# Si number density = 28.395777 Si / 1000 Ang^3
#
#
#
# Elastic Constant Matrix: (Units=GPa)
#
#
# Indices 1 2 3 4 5 6 
#
# 1 97.5596 43.4674 32.2811 25.3649 -3.9350 11.8967
# 2 43.4674 160.5596 52.4471 32.2200 -11.0162 -11.4215
# 3 32.2811 52.4471 179.3391 35.8069 11.3149 12.8347
# 4 25.3649 32.2200 35.8069 71.0108 5.1384 8.3571
# 5 -3.9350 -11.0162 11.3149 5.1384 64.0322 11.0501
# 6 11.8967 -11.4215 12.8347 8.3571 11.0501 46.5784
#
#
#
# Elastic Compliance Matrix: (Units=1/GPa)
#
#
# Indices 1 2 3 4 5 6 
#
# 1 0.012974 -0.002910 -0.000789 -0.002579 0.001273 -0.003649
# 2 -0.002910 0.008397 -0.001780 -0.002363 0.001177 0.003437
# 3 -0.000789 -0.001780 0.006835 -0.002102 -0.001140 -0.001471
# 4 -0.002579 -0.002363 -0.002102 0.017481 -0.001219 -0.002189
# 5 0.001273 0.001177 -0.001140 -0.001219 0.016799 -0.003489
# 6 -0.003649 0.003437 -0.001471 -0.002189 -0.003489 0.024870
#
#
# Mechanical properties :
#
#
# Convention : Reuss Voigt Hill
#
# Bulk Modulus (GPa) = 57.97314 77.09437 67.53376
# Shear Modulus (GPa) = 48.04734 56.94180 52.49457
#
# Velocity S-wave (km/s) = 4.11793 4.48291 4.30429
# Velocity P-wave (km/s) = 6.56279 7.34875 6.96686
#
# Compressibility (1/GPa) = 0.01724937
#
# Stress axis : x y z
#
# Youngs Moduli (GPa) = 77.07520 119.09221 146.29515
#
# Poissons Ratio (x) = 0.34650 0.11538
# Poissons Ratio (y) = 0.22425 0.26047
# Poissons Ratio (z) = 0.06079 0.21204
#
# Static dielectric constant tensor:
#      x y z
#    x 2.139870 -0.107840 0.145350 
#    y -0.107840 2.359490 -0.177050 
#    z 0.145350 -0.177050 2.683710 
# 
# From -- ./inp_files/383928.got.cif
#   From: 2010.05.17/outbox.cif.g08.bks.cpg/sg2_192_cif.got.tgz:383928.got - 2010.06.03 11:33:40.
