data_PCOD9068277
_publ_section_title
;
Structure prediction by ZEFSAII (Michael W. Deem and Ramdas Pophale) SiO2 
 PCOD9068277
Probable space group: P -1
;
_chemical_formula_sum "Si O2"
_cell_formula_units_Z 11
_cell_length_a 15.685494
_cell_length_b 9.325876
_cell_length_c 9.192923
_cell_angle_alpha 134.478778
_cell_angle_beta 44.943255
_cell_angle_gamma 150.868395
_cell_volume 448.984300
_symmetry_space_group_name_H-M "P -1"
_symmetry_group_IT_number 2
_symmetry_cell_setting 'triclinic'
loop_
_space_group_symop_operation_xyz
x,y,z
-x,-y,-z
loop_
_atom_site_type_symbol
_atom_site_label
_atom_site_fract_x
_atom_site_fract_y
_atom_site_fract_z
Si Si1 0.623855 0.596048 0.246195
Si Si2 0.396598 0.669088 0.432840
Si Si3 0.258198 0.019782 0.350284
Si Si4 0.857587 0.773230 0.826145
Si Si5 0.974618 0.701227 0.212996
Si Si6 0.000000 0.500000 0.500000
O O1 0.536081 0.690990 0.354840
O O2 0.458861 0.231198 0.191016
O O3 0.693979 0.744372 0.425282
O O4 0.787125 0.742112 0.047674
O O5 0.316469 0.468334 0.241717
O O6 0.224419 0.509056 0.629034
O O7 0.500000 0.000000 0.500000
O O8 0.122886 0.924852 0.320201
O O9 0.168866 0.725443 0.336375
O O10 0.950130 0.670849 0.641872
O O11 0.974121 0.096011 0.840991
O O12 0.000000 0.500000 0.000000
#
# Coordination Sequence:
#
# PCOD9068277 Si02
#       6
#     2   2   2   2   2   1
#     4  11  26  48  79 111 155 206 256 329 389 454
#     4  12  24  46  76 115 154 201 261 325 382 466
#     4  11  26  51  71 114 158 201 261 317 391 463
#     4  12  26  49  81 111 158 204 265 313 394 465
#     4  12  27  51  81 113 157 210 260 319 391 468
#     4  12  26  48  74 112 154 206 254 320 378 466
#
# _framework density 24.499744
#
# number of rings (size 3 to 8) (size 9 to 14) (size 15 to 20)
#    0.000    0.364    3.636    4.364    5.091    1.455 
#    6.545    0.000    0.000    0.000    0.000    0.000 
#    0.000    0.000    0.000    0.000    0.000    0.000 
#
# Total GULP energy -61436.575806 kJ/mol
# GULP energy per Si atom -5585.143255 kJ/mol
# Density = 2.444398 g / cm^3
# Si number density = 24.499744 Si / 1000 Ang^3
#
#
#
# Elastic Constant Matrix: (Units=GPa)
#
#
# Indices 1 2 3 4 5 6 
#
# 1 135.2070 63.8157 58.4241 7.6223 -15.9384 -15.5294
# 2 63.8157 180.1532 27.5106 -30.0238 -0.9058 -40.6288
# 3 58.4241 27.5106 118.0054 -12.7766 1.0871 2.8171
# 4 7.6223 -30.0238 -12.7766 37.4075 -10.2605 -0.6991
# 5 -15.9384 -0.9058 1.0871 -10.2605 33.9963 -3.4665
# 6 -15.5294 -40.6288 2.8171 -0.6991 -3.4665 58.3029
#
#
#
# Elastic Compliance Matrix: (Units=1/GPa)
#
#
# Indices 1 2 3 4 5 6 
#
# 1 0.013494 -0.004932 -0.006424 -0.007760 0.004122 0.000620
# 2 -0.004932 0.010165 0.001004 0.010046 0.001564 0.005935
# 3 -0.006424 0.001004 0.012096 0.005718 -0.001813 -0.001635
# 4 -0.007760 0.010046 0.005718 0.041017 0.009408 0.005709
# 5 0.004122 0.001564 -0.001813 0.009408 0.034741 0.004454
# 6 0.000620 0.005935 -0.001635 0.005709 0.004454 0.021865
#
#
# Mechanical properties :
#
#
# Convention : Reuss Voigt Hill
#
# Bulk Modulus (GPa) = 66.44399 81.42959 73.93679
# Shear Modulus (GPa) = 31.42680 44.84905 38.13793
#
# Velocity S-wave (km/s) = 3.58542 4.28318 3.94974
# Velocity P-wave (km/s) = 6.65729 7.60066 7.14456
#
# Compressibility (1/GPa) = 0.01505027
#
# Stress axis : x y z
#
# Youngs Moduli (GPa) = 74.10547 98.37473 82.67429
#
# Poissons Ratio (x) = 0.48516 0.53112
# Poissons Ratio (y) = 0.36547 -0.08297
# Poissons Ratio (z) = 0.47607 -0.09872
#
# Static dielectric constant tensor:
#      x y z
#    x 1.898960 0.043530 0.022580 
#    y 0.043530 2.030020 -0.051540 
#    z 0.022580 -0.051540 1.993790 
# 
# From -- ./inp_files/296624.got.cif
#   From: 2010.05.17/outbox.cif.g08.bks.cpg/sg2_149_cif.got.tgz:296624.got - 2010.06.03 11:33:40.
