data_PCOD9068793
_publ_section_title
;
Structure prediction by ZEFSAII (Michael W. Deem and Ramdas Pophale) SiO2 
 PCOD9068793
Probable space group: P -1
;
_chemical_formula_sum "Si O2"
_cell_formula_units_Z 16
_cell_length_a 13.516334
_cell_length_b 15.285966
_cell_length_c 9.534346
_cell_angle_alpha 39.576823
_cell_angle_beta 81.730126
_cell_angle_gamma 51.750205
_cell_volume 735.010279
_symmetry_space_group_name_H-M "P -1"
_symmetry_group_IT_number 2
_symmetry_cell_setting 'triclinic'
loop_
_space_group_symop_operation_xyz
x,y,z
-x,-y,-z
loop_
_atom_site_type_symbol
_atom_site_label
_atom_site_fract_x
_atom_site_fract_y
_atom_site_fract_z
Si Si1 0.150928 0.519988 0.776230
Si Si2 0.659076 0.257457 0.432352
Si Si3 0.761082 0.873460 0.760506
Si Si4 0.174230 0.787993 0.307128
Si Si5 0.245624 0.115308 0.585428
Si Si6 0.840884 0.493229 0.875319
Si Si7 0.822222 0.211893 0.195272
Si Si8 0.348893 0.717417 0.103033
O O1 0.193788 0.611840 0.575380
O O2 0.951958 0.704239 0.574522
O O3 0.249124 0.274149 0.012149
O O4 0.183610 0.499991 0.960631
O O5 0.811951 0.125712 0.669684
O O6 0.691191 0.303384 0.225249
O O7 0.500872 0.489478 0.262912
O O8 0.656588 0.100544 0.587315
O O9 0.719830 0.927013 0.536827
O O10 0.958697 0.700042 0.946191
O O11 0.314162 0.675755 0.303543
O O12 0.000000 0.000000 0.000000
O O13 0.259053 0.258594 0.452657
O O14 0.354523 0.874603 0.929925
O O15 0.793669 0.402021 0.928330
O O16 0.808201 0.135451 0.154426
O O17 0.000000 0.000000 0.500000
#
# Coordination Sequence:
#
# PCOD9068793 Si02
#       8
#     2   2   2   2   2   2   2   2
#     4   9  17  36  59  90 113 157 198 246 285 344
#     4  12  24  40  59  90 125 159 191 246 308 351
#     4   9  18  33  62  88 121 148 195 246 301 340
#     4  12  24  41  63  86 116 160 211 241 285 360
#     4   9  17  34  58  91 121 149 192 246 299 340
#     4   9  17  32  61  92 116 146 200 253 282 339
#     4  12  20  37  64  93 115 149 212 245 278 345
#     4  12  25  39  58  91 129 155 190 247 310 351
#
# _framework density 21.768401000000001
#
# number of rings (size 3 to 8) (size 9 to 14) (size 15 to 20)
#    0.000    1.500    5.000    3.750    0.000    0.000 
#    0.000    4.375    0.000    0.000    0.000    0.000 
#    0.000    0.000    0.000    0.000    0.000    0.000 
#
# Total GULP energy -89458.017787 kJ/mol
# GULP energy per Si atom -5591.126112 kJ/mol
# Density = 2.171886 g / cm^3
# Si number density = 21.768401 Si / 1000 Ang^3
#
#
#
# Elastic Constant Matrix: (Units=GPa)
#
#
# Indices 1 2 3 4 5 6 
#
# 1 53.7065 18.2294 39.7105 -5.5553 -32.2858 8.5932
# 2 18.2294 73.9972 34.2034 -2.0410 -26.8757 -12.2271
# 3 39.7105 34.2034 87.8678 -13.5309 -46.7870 -7.9189
# 4 -5.5553 -2.0410 -13.5309 38.9417 10.4728 -6.7500
# 5 -32.2858 -26.8757 -46.7870 10.4728 57.7630 -3.3482
# 6 8.5932 -12.2271 -7.9189 -6.7500 -3.3482 29.4937
#
#
#
# Elastic Compliance Matrix: (Units=1/GPa)
#
#
# Indices 1 2 3 4 5 6 
#
# 1 0.035968 -0.002445 -0.012766 -0.004320 0.008543 -0.014940
# 2 -0.002445 0.018763 -0.002224 -0.000305 0.006111 0.008517
# 3 -0.012766 -0.002224 0.027450 0.006193 0.013703 0.013141
# 4 -0.004320 -0.000305 0.006193 0.029434 -0.002340 0.009266
# 5 0.008543 0.006111 0.013703 -0.002340 0.036881 0.007375
# 6 -0.014940 0.008517 0.013141 0.009266 0.007375 0.048275
#
#
# Mechanical properties :
#
#
# Convention : Reuss Voigt Hill
#
# Bulk Modulus (GPa) = 21.13693 44.42870 32.78281
# Shear Modulus (GPa) = 20.20912 33.46823 26.83867
#
# Velocity S-wave (km/s) = 3.05022 3.92531 3.51510
# Velocity P-wave (km/s) = 4.70490 6.40298 5.61846
#
# Compressibility (1/GPa) = 0.04731057
#
# Stress axis : x y z
#
# Youngs Moduli (GPa) = 27.80234 53.29673 36.42951
#
# Poissons Ratio (x) = 0.13030 0.46507
# Poissons Ratio (y) = 0.06797 0.08103
# Poissons Ratio (z) = 0.35493 0.11855
#
# Static dielectric constant tensor:
#      x y z
#    x 1.862230 -0.030690 0.061130 
#    y -0.030690 1.756150 -0.041110 
#    z 0.061130 -0.041110 1.851170 
# 
# From -- ./inp_files/182596.got.cif
#   From: 2010.05.17/outbox.cif.g08.bks.cpg/sg2_92_cif.got.tgz:182596.got - 2010.06.03 11:33:40.
