data_PCOD9068846
_publ_section_title
;
Structure prediction by ZEFSAII (Michael W. Deem and Ramdas Pophale) SiO2 
 PCOD9068846
Probable space group: P -1
;
_chemical_formula_sum "Si O2"
_cell_formula_units_Z 12
_cell_length_a 8.724692
_cell_length_b 15.628411
_cell_length_c 11.771035
_cell_angle_alpha 152.534806
_cell_angle_beta 143.143743
_cell_angle_gamma 40.507989
_cell_volume 436.590712
_symmetry_space_group_name_H-M "P -1"
_symmetry_group_IT_number 2
_symmetry_cell_setting 'triclinic'
loop_
_space_group_symop_operation_xyz
x,y,z
-x,-y,-z
loop_
_atom_site_type_symbol
_atom_site_label
_atom_site_fract_x
_atom_site_fract_y
_atom_site_fract_z
Si Si1 0.008322 0.250059 0.341773
Si Si2 0.830337 0.044109 0.720380
Si Si3 0.641263 0.611942 0.129387
Si Si4 0.763834 0.893709 0.259226
Si Si5 0.321659 0.197378 0.237840
Si Si6 0.567123 0.540829 0.756433
O O1 0.087180 0.377628 0.640074
O O2 0.169746 0.282802 0.363709
O O3 0.706018 0.314982 0.222157
O O4 0.092607 0.051387 0.223081
O O5 0.568187 0.193018 0.757843
O O6 0.775823 0.912659 0.427785
O O7 0.087197 0.135261 0.954336
O O8 0.500000 0.500000 0.000000
O O9 0.671883 0.507818 0.906531
O O10 0.522084 0.021091 0.200302
O O11 0.000000 0.000000 0.500000
O O12 0.747416 0.675768 0.967181
O O13 0.482591 0.341455 0.440611
#
# Coordination Sequence:
#
# PCOD9068846 Si02
#       6
#     2   2   2   2   2   2
#     4  12  21  37  67 103 134 160 198 264 337 397
#     4  12  23  40  66  96 135 172 210 264 326 384
#     4  12  21  35  64 103 136 165 204 258 333 403
#     4  12  28  48  65  88 128 182 231 267 305 369
#     4  12  24  42  68 102 134 164 209 267 330 393
#     4  12  24  42  68  99 135 168 207 267 331 390
#
# _framework density 27.485696999999998
#
# number of rings (size 3 to 8) (size 9 to 14) (size 15 to 20)
#    0.000    0.000    8.333    3.500    0.000    1.333 
#    0.000    0.833    0.000    0.000    0.000    0.000 
#    0.000    0.000    0.000    0.000    0.000    0.000 
#
# Total GULP energy -67117.577719 kJ/mol
# GULP energy per Si atom -5593.131477 kJ/mol
# Density = 2.742314 g / cm^3
# Si number density = 27.485697 Si / 1000 Ang^3
#
#
#
# Elastic Constant Matrix: (Units=GPa)
#
#
# Indices 1 2 3 4 5 6 
#
# 1 70.5901 33.9199 35.7559 -4.5537 23.3878 3.9944
# 2 33.9199 91.5429 26.5576 7.4563 11.9373 -1.9004
# 3 35.7559 26.5576 173.0069 -5.2369 29.0417 14.3592
# 4 -4.5537 7.4563 -5.2369 55.6949 16.3556 15.2409
# 5 23.3878 11.9373 29.0417 16.3556 58.2717 -3.6363
# 6 3.9944 -1.9004 14.3592 15.2409 -3.6363 37.3790
#
#
#
# Elastic Compliance Matrix: (Units=1/GPa)
#
#
# Indices 1 2 3 4 5 6 
#
# 1 0.022121 -0.007355 -0.001201 0.007004 -0.009115 -0.006019
# 2 -0.007355 0.014242 -0.001533 -0.004465 0.002310 0.004144
# 3 -0.001201 -0.001533 0.007425 0.003247 -0.004098 -0.004525
# 4 0.007004 -0.004465 0.003247 0.026864 -0.011950 -0.014339
# 5 -0.009115 0.002310 -0.004098 -0.011950 0.026373 0.010104
# 6 -0.006019 0.004144 -0.004525 -0.014339 0.010104 0.036174
#
#
# Mechanical properties :
#
#
# Convention : Reuss Voigt Hill
#
# Bulk Modulus (GPa) = 42.35446 58.62295 50.48871
# Shear Modulus (GPa) = 31.00794 46.19621 38.60208
#
# Velocity S-wave (km/s) = 3.36244 4.10413 3.75165
# Velocity P-wave (km/s) = 5.52428 6.62067 6.09717
#
# Compressibility (1/GPa) = 0.02361026
#
# Stress axis : x y z
#
# Youngs Moduli (GPa) = 45.20531 70.21299 134.67117
#
# Poissons Ratio (x) = 0.51643 0.16177
# Poissons Ratio (y) = 0.33249 0.20647
# Poissons Ratio (z) = 0.05430 0.10764
#
# Static dielectric constant tensor:
#      x y z
#    x 2.192370 0.098780 -0.011100 
#    y 0.098780 2.124470 0.071770 
#    z -0.011100 0.071770 2.027020 
# 
# From -- ./inp_files/231379.got.cif
#   From: 2010.05.17/outbox.cif.g08.bks.cpg/sg2_116_cif.got.tgz:231379.got - 2010.06.03 11:33:40.
