data_PCOD9068446
_publ_section_title
;
Structure prediction by ZEFSAII (Michael W. Deem and Ramdas Pophale) SiO2 
 PCOD9068446
Probable space group: P -1
;
_chemical_formula_sum "Si O2"
_cell_formula_units_Z 11
_cell_length_a 5.358908
_cell_length_b 8.788504
_cell_length_c 16.222738
_cell_angle_alpha 142.054512
_cell_angle_beta 73.364628
_cell_angle_gamma 119.650866
_cell_volume 400.512840
_symmetry_space_group_name_H-M "P -1"
_symmetry_group_IT_number 2
_symmetry_cell_setting 'triclinic'
loop_
_space_group_symop_operation_xyz
x,y,z
-x,-y,-z
loop_
_atom_site_type_symbol
_atom_site_label
_atom_site_fract_x
_atom_site_fract_y
_atom_site_fract_z
Si Si1 0.791695 0.361925 0.145463
Si Si2 0.500000 0.500000 0.500000
Si Si3 0.674837 0.661346 0.133358
Si Si4 0.422621 0.917984 0.568609
Si Si5 0.149609 0.034199 0.131329
Si Si6 0.911084 0.484332 0.350635
O O1 0.712927 0.469348 0.116300
O O2 0.933890 0.593079 0.301748
O O3 0.494029 0.158232 0.134229
O O4 0.970071 0.199762 0.029854
O O5 0.542757 0.716624 0.509454
O O6 0.600616 0.319526 0.353186
O O7 0.995933 0.873035 0.159552
O O8 0.538737 0.833730 0.269075
O O9 0.500000 0.500000 0.000000
O O10 0.071617 0.711526 0.503967
O O11 0.500000 0.000000 0.500000
O O12 0.062341 0.282658 0.241553
#
# Coordination Sequence:
#
# PCOD9068446 Si02
#       6
#     2   1   2   2   2   2
#     4  11  28  49  81 117 153 211 260 328 408 457
#     4  12  26  48  80 110 154 214 248 318 406 456
#     4  12  29  50  78 116 161 207 264 326 393 481
#     4  12  29  52  78 119 161 202 270 329 393 481
#     4  11  26  50  79 112 156 202 262 325 387 477
#     4  12  26  50  81 112 156 203 264 330 393 470
#
# _framework density 27.464787000000001
#
# number of rings (size 3 to 8) (size 9 to 14) (size 15 to 20)
#    0.000    0.364    1.818    4.909   12.727    4.364 
#    0.000    0.000    0.000    0.000    0.000    0.000 
#    0.000    0.000    0.000    0.000    0.000    0.000 
#
# Total GULP energy -61349.487112 kJ/mol
# GULP energy per Si atom -5577.226101 kJ/mol
# Density = 2.740228 g / cm^3
# Si number density = 27.464787 Si / 1000 Ang^3
#
#
#
# Elastic Constant Matrix: (Units=GPa)
#
#
# Indices 1 2 3 4 5 6 
#
# 1 72.4294 42.1154 43.1070 -8.5641 -8.3901 -11.6483
# 2 42.1154 194.0093 31.5934 -30.5249 -1.6045 -15.6159
# 3 43.1070 31.5934 195.9541 -42.4427 -3.3370 -9.4007
# 4 -8.5641 -30.5249 -42.4427 48.4376 10.7957 -15.7967
# 5 -8.3901 -1.6045 -3.3370 10.7957 49.7999 -0.9931
# 6 -11.6483 -15.6159 -9.4007 -15.7967 -0.9931 48.7273
#
#
#
# Elastic Compliance Matrix: (Units=1/GPa)
#
#
# Indices 1 2 3 4 5 6 
#
# 1 0.018632 -0.003652 -0.003943 -0.002646 0.003365 0.001734
# 2 -0.003652 0.007039 0.001202 0.006396 -0.001622 0.003655
# 3 -0.003943 0.001202 0.007751 0.008455 -0.001867 0.003641
# 4 -0.002646 0.006396 0.008455 0.038323 -0.007675 0.015316
# 5 0.003365 -0.001622 -0.001867 -0.007675 0.022092 -0.002113
# 6 0.001734 0.003655 0.003641 0.015316 -0.002113 0.027733
#
#
# Mechanical properties :
#
#
# Convention : Reuss Voigt Hill
#
# Bulk Modulus (GPa) = 48.45774 77.33605 62.89690
# Shear Modulus (GPa) = 35.40242 52.43143 43.91693
#
# Velocity S-wave (km/s) = 3.59418 4.37400 4.00312
# Velocity P-wave (km/s) = 5.90813 7.32998 6.65712
#
# Compressibility (1/GPa) = 0.02063654
#
# Stress axis : x y z
#
# Youngs Moduli (GPa) = 53.67058 142.07403 129.01341
#
# Poissons Ratio (x) = 0.51879 0.50867
# Poissons Ratio (y) = 0.19598 -0.15503
# Poissons Ratio (z) = 0.21161 -0.17072
#
# Static dielectric constant tensor:
#      x y z
#    x 3.025440 0.386710 0.548880 
#    y 0.386710 2.250840 0.225790 
#    z 0.548880 0.225790 2.606230 
# 
# From -- ./inp_files/480142.got.cif
#   From: 2010.05.17/outbox.cif.g08.bks.cpg/sg2_241_cif.got.tgz:480142.got - 2010.06.03 11:33:40.
