data_PCOD9068627
_publ_section_title
;
Structure prediction by ZEFSAII (Michael W. Deem and Ramdas Pophale) SiO2 
 PCOD9068627
Probable space group: P -1
;
_chemical_formula_sum "Si O2"
_cell_formula_units_Z 15
_cell_length_a 6.272648
_cell_length_b 10.961010
_cell_length_c 9.528494
_cell_angle_alpha 88.549024
_cell_angle_beta 103.337807
_cell_angle_gamma 79.202312
_cell_volume 624.558224
_symmetry_space_group_name_H-M "P -1"
_symmetry_group_IT_number 2
_symmetry_cell_setting 'triclinic'
loop_
_space_group_symop_operation_xyz
x,y,z
-x,-y,-z
loop_
_atom_site_type_symbol
_atom_site_label
_atom_site_fract_x
_atom_site_fract_y
_atom_site_fract_z
Si Si1 0.125289 0.629908 0.724788
Si Si2 0.623495 0.356365 0.505266
Si Si3 0.001682 0.381060 0.766260
Si Si4 0.572389 0.807717 0.085640
Si Si5 0.303579 0.183836 0.438376
Si Si6 0.000000 0.000000 0.500000
Si Si7 0.396455 0.937776 0.766577
Si Si8 0.686215 0.396284 0.955738
O O1 0.314198 0.660388 0.649128
O O2 0.128328 0.482742 0.718931
O O3 0.885098 0.700920 0.639730
O O4 0.158721 0.658288 0.890176
O O5 0.500000 0.500000 0.500000
O O6 0.856289 0.334786 0.624864
O O7 0.487180 0.252379 0.534555
O O8 0.826069 0.446516 0.854979
O O9 0.175935 0.272632 0.870459
O O10 0.422528 0.712620 0.121263
O O11 0.573679 0.927967 0.175791
O O12 0.474762 0.849635 0.915987
O O13 0.430493 0.107961 0.330521
O O14 0.179301 0.091524 0.505705
O O15 0.146990 0.940667 0.667497
O O16 0.500000 0.500000 0.000000
#
# Coordination Sequence:
#
# PCOD9068627 Si02
#       8
#     2   2   2   2   2   1   2   2
#     4  12  26  46  76 116 156 200 256 318 393 463
#     4  12  27  46  75 119 159 200 254 323 392 463
#     4  12  27  44  76 116 157 203 249 317 395 465
#     4  11  27  49  76 108 158 195 265 307 392 455
#     4  12  27  48  79 108 157 195 264 316 388 452
#     4  12  28  50  78 106 146 204 266 310 380 450
#     4  11  28  51  76 110 147 211 254 327 364 470
#     4  12  25  43  76 112 152 199 252 312 389 466
#
# _framework density 24.016976
#
# number of rings (size 3 to 8) (size 9 to 14) (size 15 to 20)
#    0.000    0.267    2.667    5.200    7.467    1.067 
#    0.000    3.333    0.000    0.000    0.000    0.000 
#    0.000    0.000    0.000    0.000    0.000    0.000 
#
# Total GULP energy -83786.117661 kJ/mol
# GULP energy per Si atom -5585.741177 kJ/mol
# Density = 2.396231 g / cm^3
# Si number density = 24.016976 Si / 1000 Ang^3
#
#
#
# Elastic Constant Matrix: (Units=GPa)
#
#
# Indices 1 2 3 4 5 6 
#
# 1 89.6853 52.5521 43.0615 -4.8151 18.2222 27.3218
# 2 52.5521 126.6067 32.6383 -0.8393 4.5267 16.0186
# 3 43.0615 32.6383 123.7572 -7.2360 21.2483 2.4117
# 4 -4.8151 -0.8393 -7.2360 33.1304 -4.0711 1.8451
# 5 18.2222 4.5267 21.2483 -4.0711 41.2353 -0.1331
# 6 27.3218 16.0186 2.4117 1.8451 -0.1331 57.0096
#
#
#
# Elastic Compliance Matrix: (Units=1/GPa)
#
#
# Indices 1 2 3 4 5 6 
#
# 1 0.020586 -0.006213 -0.004226 0.001607 -0.006105 -0.008008
# 2 -0.006213 0.010661 -0.001039 -0.000611 0.002050 0.000051
# 3 -0.004226 -0.001039 0.010416 0.001131 -0.003268 0.001832
# 4 0.001607 -0.000611 0.001131 0.030965 0.001826 -0.001644
# 5 -0.006105 0.002050 -0.003268 0.001826 0.028596 0.002495
# 6 -0.008008 0.000051 0.001832 -0.001644 0.002495 0.021346
#
#
# Mechanical properties :
#
#
# Convention : Reuss Voigt Hill
#
# Bulk Modulus (GPa) = 53.45384 66.28368 59.86876
# Shear Modulus (GPa) = 32.94617 40.39487 36.67052
#
# Velocity S-wave (km/s) = 3.70778 4.10558 3.91174
# Velocity P-wave (km/s) = 6.37457 7.08047 6.73677
#
# Compressibility (1/GPa) = 0.01870773
#
# Stress axis : x y z
#
# Youngs Moduli (GPa) = 48.57649 93.79544 96.00348
#
# Poissons Ratio (x) = 0.58279 0.40573
# Poissons Ratio (y) = 0.30182 0.09970
# Poissons Ratio (z) = 0.20529 0.09741
#
# Static dielectric constant tensor:
#      x y z
#    x 1.919420 -0.022470 0.048540 
#    y -0.022470 1.947320 -0.028410 
#    z 0.048540 -0.028410 1.950200 
# 
# From -- ./inp_files/131660.got.cif
#   From: 2010.05.17/outbox.cif.g08.bks.cpg/sg2_66_cif.got.tgz:131660.got - 2010.06.03 11:33:40.
