data_PCOD9068291
_publ_section_title
;
Structure prediction by ZEFSAII (Michael W. Deem and Ramdas Pophale) SiO2 
 PCOD9068291
Probable space group: P -1
;
_chemical_formula_sum "Si O2"
_cell_formula_units_Z 10
_cell_length_a 16.134131
_cell_length_b 9.461286
_cell_length_c 5.274823
_cell_angle_alpha 116.933712
_cell_angle_beta 83.763114
_cell_angle_gamma 141.609912
_cell_volume 399.221511
_symmetry_space_group_name_H-M "P -1"
_symmetry_group_IT_number 2
_symmetry_cell_setting 'triclinic'
loop_
_space_group_symop_operation_xyz
x,y,z
-x,-y,-z
loop_
_atom_site_type_symbol
_atom_site_label
_atom_site_fract_x
_atom_site_fract_y
_atom_site_fract_z
Si Si1 0.110893 0.750397 0.370633
Si Si2 0.404477 0.381027 0.680238
Si Si3 0.957675 0.833105 0.628994
Si Si4 0.724281 0.277101 0.523514
Si Si5 0.406256 0.743182 0.017519
O O1 0.163922 0.694426 0.493437
O O2 0.051021 0.817593 0.566313
O O3 0.264074 0.045340 0.430839
O O4 0.000000 0.500000 0.000000
O O5 0.500000 0.500000 0.500000
O O6 0.500000 0.500000 0.000000
O O7 0.353998 0.484252 0.765682
O O8 0.788174 0.501512 0.474663
O O9 0.000000 0.000000 0.500000
O O10 0.000000 0.000000 0.000000
O O11 0.716661 0.359171 0.858318
O O12 0.556233 0.946376 0.303567
O O13 0.500000 0.000000 0.000000
#
# Coordination Sequence:
#
# PCOD9068291 Si02
#       5
#     2   2   2   2   2
#     4  12  28  51  84 120 168 215 271 342 415 495
#     4  12  28  50  79 117 162 213 277 331 404 489
#     4  12  29  51  78 115 164 213 272 332 413 488
#     4  11  26  49  77 116 156 212 271 334 408 478
#     4  11  26  48  82 112 162 210 275 338 399 484
#
# _framework density 25.048750999999999
#
# number of rings (size 3 to 8) (size 9 to 14) (size 15 to 20)
#    0.000    0.400    2.000    4.200   14.000    3.200 
#    0.000    0.000    0.000    0.000    0.000    0.000 
#    0.000    0.000    0.000    0.000    0.000    0.000 
#
# Total GULP energy -55934.293727 kJ/mol
# GULP energy per Si atom -5593.429373 kJ/mol
# Density = 2.499174 g / cm^3
# Si number density = 25.048751 Si / 1000 Ang^3
#
#
#
# Elastic Constant Matrix: (Units=GPa)
#
#
# Indices 1 2 3 4 5 6 
#
# 1 155.3926 31.6502 19.9336 -14.2752 -38.8033 -26.0245
# 2 31.6502 218.5597 50.7585 6.5131 -7.6999 -17.8358
# 3 19.9336 50.7585 110.4649 2.3052 -20.6410 -8.6476
# 4 -14.2752 6.5131 2.3052 64.3852 10.5206 0.6895
# 5 -38.8033 -7.6999 -20.6410 10.5206 33.1267 8.1089
# 6 -26.0245 -17.8358 -8.6476 0.6895 8.1089 50.5068
#
#
#
# Elastic Compliance Matrix: (Units=1/GPa)
#
#
# Indices 1 2 3 4 5 6 
#
# 1 0.009817 -0.001023 0.000985 0.000417 0.010985 0.003097
# 2 -0.001023 0.005353 -0.002482 -0.000421 -0.001664 0.001211
# 3 0.000985 -0.002482 0.011585 -0.001276 0.008120 0.000328
# 4 0.000417 -0.000421 -0.001276 0.016659 -0.005831 0.000557
# 5 0.010985 -0.001664 0.008120 -0.005831 0.049941 -0.001475
# 6 0.003097 0.001211 0.000328 0.000557 -0.001475 0.022108
#
#
# Mechanical properties :
#
#
# Convention : Reuss Voigt Hill
#
# Bulk Modulus (GPa) = 46.05259 76.56686 61.30972
# Shear Modulus (GPa) = 39.14136 55.07539 47.10838
#
# Velocity S-wave (km/s) = 3.95727 4.69415 4.34137
# Velocity P-wave (km/s) = 6.26938 7.74684 7.04694
#
# Compressibility (1/GPa) = 0.02171431
#
# Stress axis : x y z
#
# Youngs Moduli (GPa) = 101.86016 186.81814 86.31753
#
# Poissons Ratio (x) = 0.19114 -0.08502
# Poissons Ratio (y) = 0.10422 0.21427
# Poissons Ratio (z) = -0.10032 0.46374
#
# Static dielectric constant tensor:
#      x y z
#    x 2.085720 -0.064820 0.227260 
#    y -0.064820 1.981950 -0.006850 
#    z 0.227260 -0.006850 2.182890 
# 
# From -- ./inp_files/22902.got.cif
#   From: 2010.05.17/outbox.cif.g08.bks.cpg/sg2_12_cif.got.tgz:22902.got - 2010.06.03 11:33:40.
