data_PCOD9068567
_publ_section_title
;
Structure prediction by ZEFSAII (Michael W. Deem and Ramdas Pophale) SiO2 
 PCOD9068567
Probable space group: P -1
;
_chemical_formula_sum "Si O2"
_cell_formula_units_Z 16
_cell_length_a 27.009466
_cell_length_b 14.840815
_cell_length_c 17.760067
_cell_angle_alpha 22.001230
_cell_angle_beta 20.812348
_cell_angle_gamma 19.874127
_cell_volume 788.778162
_symmetry_space_group_name_H-M "P -1"
_symmetry_group_IT_number 2
_symmetry_cell_setting 'triclinic'
loop_
_space_group_symop_operation_xyz
x,y,z
-x,-y,-z
loop_
_atom_site_type_symbol
_atom_site_label
_atom_site_fract_x
_atom_site_fract_y
_atom_site_fract_z
Si Si1 0.607073 0.629497 0.721844
Si Si2 0.426524 0.310196 0.454732
Si Si3 0.849343 0.738708 0.579260
Si Si4 0.647819 0.388503 0.316610
Si Si5 0.867991 0.439705 0.200440
Si Si6 0.774041 0.734348 0.946557
Si Si7 0.557162 0.629261 0.095437
Si Si8 0.010329 0.783291 0.469858
O O1 0.626882 0.616123 0.613291
O O2 0.790858 0.440796 0.643172
O O3 0.511931 0.969954 0.611625
O O4 0.500000 0.500000 0.000000
O O5 0.271258 0.484703 0.597353
O O6 0.551952 0.410713 0.215350
O O7 0.000000 0.500000 0.500000
O O8 0.916914 0.765464 0.543263
O O9 0.761921 0.045816 0.424279
O O10 0.712145 0.660753 0.842699
O O11 0.500000 0.500000 0.500000
O O12 0.567089 0.508634 0.257706
O O13 0.750632 0.523189 0.091464
O O14 0.786439 0.638446 0.088956
O O15 0.960368 0.109248 0.298316
O O16 0.000000 0.500000 0.000000
O O17 0.936209 0.718715 0.698360
O O18 0.612209 0.056366 0.916330
#
# Coordination Sequence:
#
# PCOD9068567 Si02
#       8
#     2   2   2   2   2   2   2   2
#     4  11  28  49  73  97 148 189 230 289 355 415
#     4  11  27  47  70 109 134 188 239 283 350 430
#     4  12  29  45  69 106 147 188 230 288 355 424
#     4  12  23  44  71 101 139 186 232 281 347 420
#     4  12  26  44  74 106 139 181 241 297 350 409
#     4  12  24  43  74 102 140 181 231 298 347 406
#     4  12  26  43  74 104 142 181 236 288 350 416
#     4  12  26  47  71 107 139 183 238 293 351 418
#
# _framework density 20.284537
#
# number of rings (size 3 to 8) (size 9 to 14) (size 15 to 20)
#    0.000    0.250    5.000    3.375    7.000    3.500 
#    0.000    0.000    0.000    0.000    0.000    0.000 
#    0.000    0.000    0.000    0.000    0.000    0.000 
#
# Total GULP energy -89590.857374 kJ/mol
# GULP energy per Si atom -5599.428586 kJ/mol
# Density = 2.023837 g / cm^3
# Si number density = 20.284537 Si / 1000 Ang^3
#
#
#
# Elastic Constant Matrix: (Units=GPa)
#
#
# Indices 1 2 3 4 5 6 
#
# 1 70.2887 16.1718 13.4786 -18.7739 -14.6824 -4.9653
# 2 16.1718 114.2290 44.5350 -16.5429 -3.0546 -5.8512
# 3 13.4786 44.5350 115.3420 -12.3003 -21.8015 -6.4292
# 4 -18.7739 -16.5429 -12.3003 39.5732 -1.8452 -2.2245
# 5 -14.6824 -3.0546 -21.8015 -1.8452 45.2196 -4.1014
# 6 -4.9653 -5.8512 -6.4292 -2.2245 -4.1014 33.3396
#
#
#
# Elastic Compliance Matrix: (Units=1/GPa)
#
#
# Indices 1 2 3 4 5 6 
#
# 1 0.018566 -0.001237 0.000859 0.009126 0.007112 0.004198
# 2 -0.001237 0.010886 -0.003976 0.002718 -0.001384 0.000971
# 3 0.000859 -0.003976 0.011682 0.002802 0.005993 0.002607
# 4 0.009126 0.002718 0.002802 0.032198 0.006292 0.005299
# 5 0.007112 -0.001384 0.005993 0.006292 0.028006 0.005837
# 6 0.004198 0.000971 0.002607 0.005299 0.005837 0.032364
#
#
# Mechanical properties :
#
#
# Convention : Reuss Voigt Hill
#
# Bulk Modulus (GPa) = 30.83873 49.80337 40.32105
# Shear Modulus (GPa) = 32.63317 38.67146 35.65232
#
# Velocity S-wave (km/s) = 4.01530 4.37103 4.19693
# Velocity P-wave (km/s) = 6.06077 7.07674 6.58837
#
# Compressibility (1/GPa) = 0.03242675
#
# Stress axis : x y z
#
# Youngs Moduli (GPa) = 53.86060 91.86042 85.60324
#
# Poissons Ratio (x) = 0.11361 -0.07357
# Poissons Ratio (y) = 0.06661 0.34040
# Poissons Ratio (z) = -0.04629 0.36528
#
# Static dielectric constant tensor:
#      x y z
#    x 1.751270 -0.002930 -0.018650 
#    y -0.002930 1.677010 0.004260 
#    z -0.018650 0.004260 1.723690 
# 
# From -- ./inp_files/124345.got.cif
#   From: 2010.05.17/outbox.cif.g08.bks.cpg/sg2_63_cif.got.tgz:124345.got - 2010.06.03 11:33:40.
