data_PCOD9068198
_publ_section_title
;
Structure prediction by ZEFSAII (Michael W. Deem and Ramdas Pophale) SiO2 
 PCOD9068198
Probable space group: P -1
;
_chemical_formula_sum "Si O2"
_cell_formula_units_Z 16
_cell_length_a 5.624745
_cell_length_b 11.396063
_cell_length_c 25.357575
_cell_angle_alpha 146.269747
_cell_angle_beta 116.465801
_cell_angle_gamma 52.462384
_cell_volume 708.781729
_symmetry_space_group_name_H-M "P -1"
_symmetry_group_IT_number 2
_symmetry_cell_setting 'triclinic'
loop_
_space_group_symop_operation_xyz
x,y,z
-x,-y,-z
loop_
_atom_site_type_symbol
_atom_site_label
_atom_site_fract_x
_atom_site_fract_y
_atom_site_fract_z
Si Si1 0.987933 0.575747 0.723103
Si Si2 0.060117 0.993264 0.170577
Si Si3 0.235907 0.131325 0.804311
Si Si4 0.440366 0.022473 0.564999
Si Si5 0.587568 0.416865 0.560610
Si Si6 0.859394 0.702765 0.971082
Si Si7 0.917911 0.199041 0.402487
Si Si8 0.766469 0.910937 0.927189
O O1 0.723543 0.561947 0.659319
O O2 0.864089 0.733992 0.821933
O O3 0.222705 0.302755 0.658098
O O4 0.114039 0.723382 0.756166
O O5 0.412030 0.930412 0.186235
O O6 0.902373 0.944595 0.187336
O O7 0.043918 0.831372 0.060531
O O8 0.176917 0.998721 0.699419
O O9 0.038194 0.419939 0.890473
O O10 0.500000 0.000000 0.500000
O O11 0.332077 0.827586 0.493058
O O12 0.729976 0.932615 0.598495
O O13 0.759087 0.329514 0.489555
O O14 0.232683 0.591823 0.578658
O O15 0.544680 0.849189 0.025642
O O16 0.757606 0.767055 0.924367
O O17 0.000000 0.000000 0.000000
#
# Coordination Sequence:
#
# PCOD9068198 Si02
#       8
#     2   2   2   2   2   2   2   2
#     4  12  26  48  79 105 155 205 256 319 398 465
#     4  12  27  50  74 117 151 213 256 323 394 463
#     4  12  29  46  83 112 156 206 264 321 392 469
#     4  12  28  44  77 113 148 202 260 324 387 473
#     4  11  26  52  71 108 152 201 258 327 388 467
#     4  11  27  47  76 110 157 200 263 323 385 471
#     4  11  27  47  75 110 150 201 259 322 393 458
#     4  11  26  48  73 112 152 205 254 323 393 464
#
# _framework density 22.573944999999998
#
# number of rings (size 3 to 8) (size 9 to 14) (size 15 to 20)
#    0.000    0.500    3.750    2.250    8.750    0.000 
#    0.000    0.000    0.000    0.000    0.000    0.000 
#    0.000    0.000    0.000    0.000    0.000    0.000 
#
# Total GULP energy -89494.030102 kJ/mol
# GULP energy per Si atom -5593.376881 kJ/mol
# Density = 2.252257 g / cm^3
# Si number density = 22.573945 Si / 1000 Ang^3
#
#
#
# Elastic Constant Matrix: (Units=GPa)
#
#
# Indices 1 2 3 4 5 6 
#
# 1 79.8211 38.9636 39.4953 -0.1486 3.5901 -8.6830
# 2 38.9636 117.9025 62.1054 19.0059 6.8026 -14.6071
# 3 39.4953 62.1054 185.6881 -4.1587 5.6383 -18.4681
# 4 -0.1486 19.0059 -4.1587 61.4716 2.4502 -0.1458
# 5 3.5901 6.8026 5.6383 2.4502 37.2264 -0.3025
# 6 -8.6830 -14.6071 -18.4681 -0.1458 -0.3025 39.2474
#
#
#
# Elastic Compliance Matrix: (Units=1/GPa)
#
#
# Indices 1 2 3 4 5 6 
#
# 1 0.015623 -0.004292 -0.001739 0.001271 -0.000534 0.001041
# 2 -0.004292 0.012533 -0.003114 -0.004046 -0.001120 0.002226
# 3 -0.001739 -0.003114 0.007017 0.001454 -0.000407 0.001760
# 4 0.001271 -0.004046 0.001454 0.017650 -0.000769 -0.000481
# 5 -0.000534 -0.001120 -0.000407 -0.000769 0.027227 -0.000520
# 6 0.001041 0.002226 0.001760 -0.000481 -0.000520 0.027361
#
#
# Mechanical properties :
#
#
# Convention : Reuss Voigt Hill
#
# Bulk Modulus (GPa) = 59.23318 73.83781 66.53550
# Shear Modulus (GPa) = 38.07243 43.77891 40.92567
#
# Velocity S-wave (km/s) = 4.11124 4.40859 4.26251
# Velocity P-wave (km/s) = 6.98806 7.66124 7.33238
#
# Compressibility (1/GPa) = 0.01688243
#
# Stress axis : x y z
#
# Youngs Moduli (GPa) = 64.00684 79.78965 142.51374
#
# Poissons Ratio (x) = 0.34245 0.24788
# Poissons Ratio (y) = 0.27471 0.44380
# Poissons Ratio (z) = 0.11133 0.24847
#
# Static dielectric constant tensor:
#      x y z
#    x 1.888030 -0.000960 0.001450 
#    y -0.000960 1.878870 -0.015170 
#    z 0.001450 -0.015170 1.817990 
# 
# From -- ./inp_files/551301.got.cif
#   From: 2010.05.17/outbox.cif.g08.bks.cpg/sg2_276_cif.got.tgz:551301.got - 2010.06.03 11:33:40.
