data_PCOD9068474
_publ_section_title
;
Structure prediction by ZEFSAII (Michael W. Deem and Ramdas Pophale) SiO2 
 PCOD9068474
Probable space group: P -1
;
_chemical_formula_sum "Si O2"
_cell_formula_units_Z 15
_cell_length_a 12.803727
_cell_length_b 6.484984
_cell_length_c 15.754672
_cell_angle_alpha 131.332718
_cell_angle_beta 44.890673
_cell_angle_gamma 127.532235
_cell_volume 668.136108
_symmetry_space_group_name_H-M "P -1"
_symmetry_group_IT_number 2
_symmetry_cell_setting 'triclinic'
loop_
_space_group_symop_operation_xyz
x,y,z
-x,-y,-z
loop_
_atom_site_type_symbol
_atom_site_label
_atom_site_fract_x
_atom_site_fract_y
_atom_site_fract_z
Si Si1 0.753538 0.105725 0.228960
Si Si2 0.417454 0.845500 0.089882
Si Si3 0.784211 0.752881 0.409864
Si Si4 0.000000 0.500000 0.500000
Si Si5 0.437974 0.859204 0.408873
Si Si6 0.016559 0.895468 0.748121
Si Si7 0.780586 0.768898 0.613043
Si Si8 0.720563 0.813544 0.001070
O O1 0.720430 0.414436 0.342498
O O2 0.874292 0.083045 0.225925
O O3 0.589117 0.878256 0.273333
O O4 0.798490 0.031269 0.089467
O O5 0.322735 0.519286 0.038483
O O6 0.301956 0.999153 0.243130
O O7 0.558904 0.857416 0.075496
O O8 0.500000 0.000000 0.000000
O O9 0.828990 0.811308 0.498428
O O10 0.669255 0.953971 0.516348
O O11 0.907072 0.845870 0.288700
O O12 0.976106 0.386192 0.384179
O O13 0.910882 0.740805 0.595276
O O14 0.343220 0.538086 0.390298
O O15 0.500000 0.000000 0.500000
O O16 0.843988 0.865675 0.868444
#
# Coordination Sequence:
#
# PCOD9068474 Si02
#       8
#     2   2   2   1   2   2   2   2
#     4  12  25  46  73 106 149 194 241 302 368 433
#     4  11  26  51  76 108 138 204 247 297 369 432
#     4  12  24  43  71 112 142 197 240 293 384 428
#     4  12  24  50  70 106 150 182 244 314 358 438
#     4  12  22  43  68 109 149 180 247 300 355 444
#     4  12  27  46  70 110 150 190 244 304 365 438
#     4  12  26  45  77 107 147 190 245 311 370 429
#     4  11  28  49  75 106 153 189 252 299 355 450
#
# _framework density 22.450513999999998
#
# number of rings (size 3 to 8) (size 9 to 14) (size 15 to 20)
#    0.000    0.267    5.333    3.200    3.733    6.400 
#    0.000    0.000    0.000    0.000    0.000    0.000 
#    0.000    0.000    0.000    0.000    0.000    0.000 
#
# Total GULP energy -83670.973381 kJ/mol
# GULP energy per Si atom -5578.064892 kJ/mol
# Density = 2.239942 g / cm^3
# Si number density = 22.450514 Si / 1000 Ang^3
#
#
#
# Elastic Constant Matrix: (Units=GPa)
#
#
# Indices 1 2 3 4 5 6 
#
# 1 96.2334 14.3503 38.3399 17.1138 5.9019 -17.9872
# 2 14.3503 69.4462 31.3613 1.5768 -6.9727 -3.5377
# 3 38.3399 31.3613 123.8842 5.0002 4.9799 -4.8637
# 4 17.1138 1.5768 5.0002 41.5296 2.7386 -1.7224
# 5 5.9019 -6.9727 4.9799 2.7386 46.9241 1.3153
# 6 -17.9872 -3.5377 -4.8637 -1.7224 1.3153 27.3972
#
#
#
# Elastic Compliance Matrix: (Units=1/GPa)
#
#
# Indices 1 2 3 4 5 6 
#
# 1 0.014594 -0.000960 -0.003671 -0.005080 -0.001532 0.008560
# 2 -0.000960 0.016760 -0.004043 0.000075 0.003017 0.000676
# 3 -0.003671 -0.004043 0.010221 0.000474 -0.001223 -0.001029
# 4 -0.005080 0.000075 0.000474 0.026106 -0.000880 -0.001558
# 5 -0.001532 0.003017 -0.001223 -0.000880 0.022188 -0.001954
# 6 0.008560 0.000676 -0.001029 -0.001558 -0.001954 0.042021
#
#
# Mechanical properties :
#
#
# Convention : Reuss Voigt Hill
#
# Bulk Modulus (GPa) = 41.27763 50.85187 46.06475
# Shear Modulus (GPa) = 31.78342 36.87097 34.32720
#
# Velocity S-wave (km/s) = 3.76667 4.05695 3.91451
# Velocity P-wave (km/s) = 6.11090 6.68169 6.40266
#
# Compressibility (1/GPa) = 0.02422620
#
# Stress axis : x y z
#
# Youngs Moduli (GPa) = 68.51909 59.66717 97.83479
#
# Poissons Ratio (x) = 0.05731 0.35914
# Poissons Ratio (y) = 0.06581 0.39557
# Poissons Ratio (z) = 0.25153 0.24125
#
# Static dielectric constant tensor:
#      x y z
#    x 1.832940 0.019770 -0.013240 
#    y 0.019770 1.857230 -0.045970 
#    z -0.013240 -0.045970 1.844360 
# 
# From -- ./inp_files/363463.got.cif
#   From: 2010.05.17/outbox.cif.g08.bks.cpg/sg2_182_cif.got.tgz:363463.got - 2010.06.03 11:33:40.
