data_PCOD9068056
_publ_section_title
;
Structure prediction by ZEFSAII (Michael W. Deem and Ramdas Pophale) SiO2 
 PCOD9068056
Probable space group: P -1
;
_chemical_formula_sum "Si O2"
_cell_formula_units_Z 15
_cell_length_a 11.738137
_cell_length_b 9.112876
_cell_length_c 7.955046
_cell_angle_alpha 98.737658
_cell_angle_beta 54.968225
_cell_angle_gamma 119.667390
_cell_volume 594.892798
_symmetry_space_group_name_H-M "P -1"
_symmetry_group_IT_number 2
_symmetry_cell_setting 'triclinic'
loop_
_space_group_symop_operation_xyz
x,y,z
-x,-y,-z
loop_
_atom_site_type_symbol
_atom_site_label
_atom_site_fract_x
_atom_site_fract_y
_atom_site_fract_z
Si Si1 0.963651 0.455218 0.799753
Si Si2 0.587955 0.707764 0.976456
Si Si3 0.839701 0.227264 0.533778
Si Si4 0.058176 0.100454 0.215669
Si Si5 0.615340 0.287207 0.148312
Si Si6 0.886710 0.730398 0.171566
Si Si7 0.479053 0.058964 0.713642
Si Si8 0.500000 0.500000 0.500000
O O1 0.918587 0.334729 0.652067
O O2 0.098769 0.640593 0.652301
O O3 0.036390 0.387003 0.866707
O O4 0.791898 0.440179 0.977592
O O5 0.776612 0.789953 0.804987
O O6 0.503906 0.758975 0.914512
O O7 0.500000 0.500000 0.000000
O O8 0.568021 0.794390 0.181776
O O9 0.649627 0.130931 0.672582
O O10 0.909642 0.103949 0.424290
O O11 0.093465 0.194865 0.020847
O O12 0.002329 0.903866 0.206369
O O13 0.541256 0.353679 0.364625
O O14 0.639859 0.126812 0.138925
O O15 0.698654 0.637014 0.365494
O O16 0.500000 0.000000 0.500000
#
# Coordination Sequence:
#
# PCOD9068056 Si02
#       8
#     2   2   2   2   2   2   2   1
#     4  11  26  49  76 107 148 203 256 315 378 467
#     4  12  27  50  81 112 159 206 258 321 388 468
#     4  11  26  47  73 110 148 199 259 310 386 456
#     4  11  27  47  75 112 151 202 251 327 382 458
#     4  12  28  51  79 111 156 205 261 315 391 465
#     4  11  27  48  75 108 157 195 260 315 394 450
#     4  12  30  49  79 115 157 204 261 324 386 461
#     4  12  28  46  78 116 150 202 262 318 384 466
#
# _framework density 25.214625999999999
#
# number of rings (size 3 to 8) (size 9 to 14) (size 15 to 20)
#    0.000    0.533    1.333    4.400   16.800    1.600 
#    0.000    0.000    0.000    0.000    0.000    0.000 
#    0.000    0.000    0.000    0.000    0.000    0.000 
#
# Total GULP energy -83741.553289 kJ/mol
# GULP energy per Si atom -5582.770219 kJ/mol
# Density = 2.515724 g / cm^3
# Si number density = 25.214626 Si / 1000 Ang^3
#
#
#
# Elastic Constant Matrix: (Units=GPa)
#
#
# Indices 1 2 3 4 5 6 
#
# 1 80.6441 17.3286 2.1480 -8.4873 -11.2289 -6.9969
# 2 17.3286 149.3891 27.8060 15.7116 -9.8940 -0.4495
# 3 2.1480 27.8060 66.2863 7.3886 -26.5659 -27.8690
# 4 -8.4873 15.7116 7.3886 45.6530 1.8525 -17.7280
# 5 -11.2289 -9.8940 -26.5659 1.8525 51.7814 2.5717
# 6 -6.9969 -0.4495 -27.8690 -17.7280 2.5717 31.5794
#
#
#
# Elastic Compliance Matrix: (Units=1/GPa)
#
#
# Indices 1 2 3 4 5 6 
#
# 1 0.016481 -0.004294 0.010230 0.009328 0.006809 0.017301
# 2 -0.004294 0.009649 -0.010261 -0.007732 -0.003383 -0.013935
# 3 0.010230 -0.010261 0.047621 0.017029 0.021500 0.051956
# 4 0.009328 -0.007732 0.017029 0.037983 0.006045 0.037816
# 5 0.006809 -0.003383 0.021500 0.006045 0.029894 0.021394
# 6 0.017301 -0.013935 0.051956 0.037816 0.021394 0.100639
#
#
# Mechanical properties :
#
#
# Convention : Reuss Voigt Hill
#
# Bulk Modulus (GPa) = 15.36053 43.43162 29.39608
# Shear Modulus (GPa) = 18.34065 42.40522 30.37294
#
# Velocity S-wave (km/s) = 2.69993 4.10539 3.47447
# Velocity P-wave (km/s) = 3.97802 6.30353 5.27063
#
# Compressibility (1/GPa) = 0.06510190
#
# Stress axis : x y z
#
# Youngs Moduli (GPa) = 60.67499 103.63588 20.99894
#
# Poissons Ratio (x) = 0.44501 -0.21482
# Poissons Ratio (y) = 0.26054 0.21548
# Poissons Ratio (z) = -0.62072 1.06343
#
# Static dielectric constant tensor:
#      x y z
#    x 1.932650 -0.038560 0.085820 
#    y -0.038560 2.109960 0.115710 
#    z 0.085820 0.115710 2.072500 
# 
# From -- ./inp_files/242390.got.cif
#   From: 2010.05.17/outbox.cif.g08.bks.cpg/sg2_122_cif.got.tgz:242390.got - 2010.06.03 11:33:40.
