data_PCOD9068033
_publ_section_title
;
Structure prediction by ZEFSAII (Michael W. Deem and Ramdas Pophale) SiO2 
 PCOD9068033
Probable space group: P -1
;
_chemical_formula_sum "Si O2"
_cell_formula_units_Z 16
_cell_length_a 8.862649
_cell_length_b 18.001367
_cell_length_c 12.571284
_cell_angle_alpha 129.008825
_cell_angle_beta 148.767765
_cell_angle_gamma 59.723027
_cell_volume 805.188343
_symmetry_space_group_name_H-M "P -1"
_symmetry_group_IT_number 2
_symmetry_cell_setting 'triclinic'
loop_
_space_group_symop_operation_xyz
x,y,z
-x,-y,-z
loop_
_atom_site_type_symbol
_atom_site_label
_atom_site_fract_x
_atom_site_fract_y
_atom_site_fract_z
Si Si1 0.215814 0.639719 0.510937
Si Si2 0.129744 0.752349 0.976137
Si Si3 0.211049 0.095296 0.698475
Si Si4 0.850596 0.742392 0.018461
Si Si5 0.785159 0.403650 0.776980
Si Si6 0.808742 0.806564 0.453452
Si Si7 0.106250 0.908471 0.921703
Si Si8 0.128945 0.454258 0.432150
O O1 0.206810 0.633648 0.372788
O O2 0.145687 0.534606 0.422895
O O3 0.992278 0.713692 0.483697
O O4 0.539770 0.680230 0.777335
O O5 0.070335 0.818373 0.899309
O O6 0.062337 0.641430 0.804607
O O7 0.466615 0.775756 0.231604
O O8 0.926738 0.773548 0.972435
O O9 0.162628 0.169262 0.830462
O O10 0.149659 0.145092 0.593795
O O11 0.550845 0.074672 0.883681
O O12 0.000000 0.000000 0.500000
O O13 0.094825 0.674921 0.144518
O O14 0.456668 0.426004 0.624669
O O15 0.000000 0.500000 0.000000
O O16 0.924987 0.879925 0.680953
O O17 0.000000 0.000000 0.000000
O O18 0.000000 0.500000 0.500000
#
# Coordination Sequence:
#
# PCOD9068033 Si02
#       8
#     2   2   2   2   2   2   2   2
#     4  12  24  47  69  99 141 185 233 284 338 404
#     4  11  28  45  68 106 141 183 233 281 345 411
#     4  11  27  46  74 106 134 179 235 287 345 412
#     4  12  25  46  71 103 141 179 236 287 338 412
#     4  12  25  43  69  99 138 187 229 285 343 392
#     4  11  26  47  72 101 143 185 222 286 350 407
#     4  11  27  48  72 101 143 181 225 286 350 415
#     4  12  27  43  68 102 142 182 236 280 334 415
#
# _framework density 19.871127000000001
#
# number of rings (size 3 to 8) (size 9 to 14) (size 15 to 20)
#    0.000    0.500    5.000    1.875   10.500    3.000 
#    0.000    0.000    0.000    0.000    0.000    0.000 
#    0.000    0.000    0.000    0.000    0.000    0.000 
#
# Total GULP energy -89590.357056 kJ/mol
# GULP energy per Si atom -5599.397316 kJ/mol
# Density = 1.982590 g / cm^3
# Si number density = 19.871127 Si / 1000 Ang^3
#
#
#
# Elastic Constant Matrix: (Units=GPa)
#
#
# Indices 1 2 3 4 5 6 
#
# 1 103.2167 23.0355 45.3312 23.4787 -8.4018 -6.2299
# 2 23.0355 66.2947 47.8150 22.5567 11.0523 -9.4800
# 3 45.3312 47.8150 132.5830 27.9278 -12.5325 2.4106
# 4 23.4787 22.5567 27.9278 38.1246 -2.5506 1.5907
# 5 -8.4018 11.0523 -12.5325 -2.5506 36.6318 11.2577
# 6 -6.2299 -9.4800 2.4106 1.5907 11.2577 39.6481
#
#
#
# Elastic Compliance Matrix: (Units=1/GPa)
#
#
# Indices 1 2 3 4 5 6 
#
# 1 0.012478 -0.000161 -0.003027 -0.005401 0.000860 0.002079
# 2 -0.000161 0.032853 -0.011105 -0.013085 -0.019102 0.014454
# 3 -0.003027 -0.011105 0.013738 -0.000730 0.009330 -0.006586
# 4 -0.005401 -0.013085 -0.000730 0.038651 0.007489 -0.007610
# 5 0.000860 -0.019102 0.009330 0.007489 0.042291 -0.017308
# 6 0.002079 0.014454 -0.006586 -0.007610 -0.017308 0.034625
#
#
# Mechanical properties :
#
#
# Convention : Reuss Voigt Hill
#
# Bulk Modulus (GPa) = 32.80617 59.38420 46.09519
# Shear Modulus (GPa) = 23.43207 35.27510 29.35358
#
# Velocity S-wave (km/s) = 3.43768 4.21788 3.84760
# Velocity P-wave (km/s) = 5.68350 7.32599 6.55638
#
# Compressibility (1/GPa) = 0.03048207
#
# Stress axis : x y z
#
# Youngs Moduli (GPa) = 80.14305 30.43843 72.79149
#
# Poissons Ratio (x) = 0.00489 0.22035
# Poissons Ratio (y) = 0.01289 0.80838
# Poissons Ratio (z) = 0.24260 0.33803
#
# Static dielectric constant tensor:
#      x y z
#    x 1.687650 0.010330 -0.008320 
#    y 0.010330 1.672470 -0.014600 
#    z -0.008320 -0.014600 1.671890 
# 
# From -- ./inp_files/37280.got.cif
#   From: 2010.05.17/outbox.cif.g08.bks.cpg/sg2_19_cif.got.tgz:37280.got - 2010.06.03 11:33:40.
