data_PCOD9068523
_publ_section_title
;
Structure prediction by ZEFSAII (Michael W. Deem and Ramdas Pophale) SiO2 
 PCOD9068523
Probable space group: P -1
;
_chemical_formula_sum "Si O2"
_cell_formula_units_Z 13
_cell_length_a 9.435728
_cell_length_b 7.566156
_cell_length_c 9.298510
_cell_angle_alpha 100.792028
_cell_angle_beta 43.891023
_cell_angle_gamma 99.478713
_cell_volume 451.662278
_symmetry_space_group_name_H-M "P -1"
_symmetry_group_IT_number 2
_symmetry_cell_setting 'triclinic'
loop_
_space_group_symop_operation_xyz
x,y,z
-x,-y,-z
loop_
_atom_site_type_symbol
_atom_site_label
_atom_site_fract_x
_atom_site_fract_y
_atom_site_fract_z
Si Si1 0.246601 0.601760 0.085393
Si Si2 0.644729 0.178615 0.399040
Si Si3 0.312673 0.526915 0.345710
Si Si4 0.000000 0.000000 0.500000
Si Si5 0.710072 0.986355 0.932126
Si Si6 0.261173 0.230843 0.549121
Si Si7 0.886589 0.764874 0.013974
O O1 0.215182 0.589356 0.278213
O O2 0.203829 0.806196 0.104783
O O3 0.134432 0.439361 0.058166
O O4 0.484866 0.568517 0.872911
O O5 0.637649 0.302968 0.562987
O O6 0.507159 0.264519 0.388028
O O7 0.879643 0.165408 0.177175
O O8 0.500000 0.000000 0.500000
O O9 0.194776 0.391154 0.519931
O O10 0.181711 0.051158 0.498386
O O11 0.865848 0.887751 0.700212
O O12 0.732875 0.882904 0.047987
O O13 0.500000 0.000000 0.000000
O O14 0.176283 0.237635 0.773979
#
# Coordination Sequence:
#
# PCOD9068523 Si02
#       7
#     2   2   2   1   2   2   2
#     4  11  26  54  90 128 179 240 302 370 445 536
#     4  12  30  53  89 128 183 232 296 382 447 532
#     4  11  26  56  85 128 180 236 300 366 449 535
#     4  12  30  52  88 126 160 230 300 354 456 528
#     4  12  29  54  88 128 180 235 302 373 435 532
#     4  12  29  57  85 129 181 230 296 377 450 542
#     4  12  30  57  88 136 178 237 306 364 458 544
#
# _framework density 28.782568000000001
#
# number of rings (size 3 to 8) (size 9 to 14) (size 15 to 20)
#    0.000    0.308    1.538    5.077    6.462    7.385 
#    8.308    0.000    0.000    0.000    0.000    0.000 
#    0.000    0.000    0.000    0.000    0.000    0.000 
#
# Total GULP energy -72744.588040 kJ/mol
# GULP energy per Si atom -5595.737542 kJ/mol
# Density = 2.871706 g / cm^3
# Si number density = 28.782568 Si / 1000 Ang^3
#
#
#
# Elastic Constant Matrix: (Units=GPa)
#
#
# Indices 1 2 3 4 5 6 
#
# 1 227.2114 75.9274 103.9086 -5.1751 14.5599 11.8295
# 2 75.9274 183.1008 37.4304 -9.0429 25.3230 0.1744
# 3 103.9086 37.4304 148.2785 -39.0101 35.2823 -17.0384
# 4 -5.1751 -9.0429 -39.0101 46.4962 0.9054 2.6624
# 5 14.5599 25.3230 35.2823 0.9054 74.7724 -0.7139
# 6 11.8295 0.1744 -17.0384 2.6624 -0.7139 56.9279
#
#
#
# Elastic Compliance Matrix: (Units=1/GPa)
#
#
# Indices 1 2 3 4 5 6 
#
# 1 0.009212 -0.002814 -0.008791 -0.006723 0.003349 -0.004180
# 2 -0.002814 0.006767 0.001573 0.002320 -0.002506 0.000895
# 3 -0.008791 0.001573 0.019181 0.015189 -0.007991 0.006752
# 4 -0.006723 0.002320 0.015189 0.033846 -0.007013 0.004265
# 5 0.003349 -0.002506 -0.007991 -0.007013 0.017402 -0.002534
# 6 -0.004180 0.000895 0.006752 0.004265 -0.002534 0.020222
#
#
# Mechanical properties :
#
#
# Convention : Reuss Voigt Hill
#
# Bulk Modulus (GPa) = 66.24235 110.34706 88.29471
# Shear Modulus (GPa) = 37.95797 58.39426 48.17612
#
# Velocity S-wave (km/s) = 3.63545 4.50911 4.09564
# Velocity P-wave (km/s) = 6.37861 8.09511 7.28758
#
# Compressibility (1/GPa) = 0.01509608
#
# Stress axis : x y z
#
# Youngs Moduli (GPa) = 108.55678 147.77484 52.13558
#
# Poissons Ratio (x) = 0.41584 0.45832
# Poissons Ratio (y) = 0.30548 -0.08202
# Poissons Ratio (z) = 0.95432 -0.23249
#
# Static dielectric constant tensor:
#      x y z
#    x 2.548830 -0.109340 -0.207620 
#    y -0.109340 2.364630 0.175200 
#    z -0.207620 0.175200 2.450320 
# 
# From -- ./inp_files/159489.got.cif
#   From: 2010.05.17/outbox.cif.g08.bks.cpg/sg2_80_cif.got.tgz:159489.got - 2010.06.03 11:33:40.
