data_PCOD9068889
_publ_section_title
;
Structure prediction by ZEFSAII (Michael W. Deem and Ramdas Pophale) SiO2 
 PCOD9068889
Probable space group: P -1
;
_chemical_formula_sum "Si O2"
_cell_formula_units_Z 16
_cell_length_a 12.123960
_cell_length_b 7.971828
_cell_length_c 14.836593
_cell_angle_alpha 127.273428
_cell_angle_beta 137.607897
_cell_angle_gamma 51.225769
_cell_volume 725.246443
_symmetry_space_group_name_H-M "P -1"
_symmetry_group_IT_number 2
_symmetry_cell_setting 'triclinic'
loop_
_space_group_symop_operation_xyz
x,y,z
-x,-y,-z
loop_
_atom_site_type_symbol
_atom_site_label
_atom_site_fract_x
_atom_site_fract_y
_atom_site_fract_z
Si Si1 0.945204 0.442793 0.638284
Si Si2 0.723863 0.905124 0.366496
Si Si3 0.861635 0.839567 0.028433
Si Si4 0.632783 0.645121 0.955588
Si Si5 0.535245 0.237896 0.929163
Si Si6 0.969064 0.259513 0.077127
Si Si7 0.716087 0.275831 0.332188
Si Si8 0.049297 0.927756 0.328006
O O1 0.961287 0.662418 0.764861
O O2 0.785356 0.457384 0.481387
O O3 0.940501 0.274955 0.663104
O O4 0.118733 0.308341 0.644194
O O5 0.553322 0.837012 0.233722
O O6 0.701301 0.107452 0.347748
O O7 0.791895 0.985814 0.524624
O O8 0.023013 0.856177 0.188668
O O9 0.743721 0.745024 0.989766
O O10 0.924512 0.696297 0.930329
O O11 0.733166 0.086664 0.007281
O O12 0.462480 0.632857 0.799235
O O13 0.567311 0.797828 0.054377
O O14 0.769791 0.410935 0.993367
O O15 0.500000 0.500000 0.000000
O O16 0.000000 0.000000 0.000000
O O17 0.871706 0.125946 0.313275
#
# Coordination Sequence:
#
# PCOD9068889 Si02
#       8
#     2   2   2   2   2   2   2   2
#     4   9  18  35  61  85 123 156 195 239 307 350
#     4   9  17  34  60  91 121 149 191 251 306 343
#     4  12  23  38  63  93 117 154 213 245 287 356
#     4  12  21  40  64  88 116 156 214 248 283 352
#     4  12  23  37  60  94 127 154 192 251 309 350
#     4  12  26  42  57  86 128 165 192 244 311 363
#     4   9  17  34  62  95 110 150 201 258 287 342
#     4   9  17  33  61  94 116 144 202 255 289 345
#
# _framework density 22.061467
#
# number of rings (size 3 to 8) (size 9 to 14) (size 15 to 20)
#    0.000    1.500    5.000    3.750    0.000    0.000 
#    0.000    4.375    0.000    0.000    0.000    0.000 
#    0.000    0.000    0.000    0.000    0.000    0.000 
#
# Total GULP energy -89459.250131 kJ/mol
# GULP energy per Si atom -5591.203133 kJ/mol
# Density = 2.201125 g / cm^3
# Si number density = 22.061467 Si / 1000 Ang^3
#
#
#
# Elastic Constant Matrix: (Units=GPa)
#
#
# Indices 1 2 3 4 5 6 
#
# 1 37.7319 0.8832 -7.1820 -1.8028 -4.0501 -3.8875
# 2 0.8832 84.3127 38.8367 5.8581 4.8773 -7.8025
# 3 -7.1820 38.8367 188.2595 -0.0545 9.2601 -3.0783
# 4 -1.8028 5.8581 -0.0545 33.0039 -3.4522 3.3371
# 5 -4.0501 4.8773 9.2601 -3.4522 17.4383 6.9373
# 6 -3.8875 -7.8025 -3.0783 3.3371 6.9373 21.9309
#
#
#
# Elastic Compliance Matrix: (Units=1/GPa)
#
#
# Indices 1 2 3 4 5 6 
#
# 1 0.027681 -0.000974 0.001031 0.001991 0.005487 0.002666
# 2 -0.000974 0.014387 -0.002563 -0.004036 -0.006586 0.007283
# 3 0.001031 -0.002563 0.006021 0.000161 -0.002569 0.000904
# 4 0.001991 -0.004036 0.000161 0.033396 0.012081 -0.009964
# 5 0.005487 -0.006586 -0.002569 0.012081 0.075086 -0.027321
# 6 0.002666 0.007283 0.000904 -0.009964 -0.027321 0.058947
#
#
# Mechanical properties :
#
#
# Convention : Reuss Voigt Hill
#
# Bulk Modulus (GPa) = 23.21442 41.70888 32.46165
# Shear Modulus (GPa) = 21.28668 32.99235 27.13952
#
# Velocity S-wave (km/s) = 3.10962 3.87133 3.51119
# Velocity P-wave (km/s) = 4.84133 6.23937 5.58427
#
# Compressibility (1/GPa) = 0.04307667
#
# Stress axis : x y z
#
# Youngs Moduli (GPa) = 36.12631 69.50752 166.08226
#
# Poissons Ratio (x) = 0.06770 -0.17126
# Poissons Ratio (y) = 0.03519 0.42571
# Poissons Ratio (z) = -0.03725 0.17816
#
# Static dielectric constant tensor:
#      x y z
#    x 1.901180 0.096670 0.007910 
#    y 0.096670 1.820720 -0.000030 
#    z 0.007910 -0.000030 1.814080 
# 
# From -- ./inp_files/182595.got.cif
#   From: 2010.05.17/outbox.cif.g08.bks.cpg/sg2_92_cif.got.tgz:182595.got - 2010.06.03 11:33:40.
