data_PCOD9068205
_publ_section_title
;
Structure prediction by ZEFSAII (Michael W. Deem and Ramdas Pophale) SiO2 
 PCOD9068205
Probable space group: P -1
;
_chemical_formula_sum "Si O2"
_cell_formula_units_Z 16
_cell_length_a 9.195151
_cell_length_b 11.335906
_cell_length_c 12.292596
_cell_angle_alpha 99.563600
_cell_angle_beta 126.324334
_cell_angle_gamma 48.208702
_cell_volume 711.761970
_symmetry_space_group_name_H-M "P -1"
_symmetry_group_IT_number 2
_symmetry_cell_setting 'triclinic'
loop_
_space_group_symop_operation_xyz
x,y,z
-x,-y,-z
loop_
_atom_site_type_symbol
_atom_site_label
_atom_site_fract_x
_atom_site_fract_y
_atom_site_fract_z
Si Si1 0.273710 0.938011 0.612738
Si Si2 0.215487 0.656661 0.084669
Si Si3 0.049344 0.906522 0.891557
Si Si4 0.518206 0.718157 0.904886
Si Si5 0.318974 0.398824 0.648178
Si Si6 0.905075 0.718195 0.376113
Si Si7 0.203119 0.194896 0.897695
Si Si8 0.444797 0.885137 0.450577
O O1 0.409489 0.833095 0.766456
O O2 0.415764 0.840949 0.549194
O O3 0.251516 0.092700 0.622181
O O4 0.000000 0.000000 0.500000
O O5 0.377129 0.459927 0.110546
O O6 0.422130 0.658678 0.211634
O O7 0.982914 0.765866 0.085069
O O8 0.098248 0.749279 0.931270
O O9 0.298603 0.824387 0.917729
O O10 0.810544 0.017558 0.720273
O O11 0.000000 0.000000 0.000000
O O12 0.755315 0.685575 0.043280
O O13 0.230115 0.348703 0.695187
O O14 0.342526 0.290768 0.545575
O O15 0.136661 0.586176 0.543244
O O16 0.943400 0.743180 0.272897
O O17 0.500000 0.000000 0.000000
O O18 0.500000 0.000000 0.500000
#
# Coordination Sequence:
#
# PCOD9068205 Si02
#       8
#     2   2   2   2   2   2   2   2
#     4  12  25  46  72 105 148 188 246 303 379 439
#     4  12  28  47  76 109 149 198 255 313 374 450
#     4  12  26  48  77 108 152 201 252 304 379 457
#     4  12  27  49  74 109 150 195 249 314 377 449
#     4  11  26  48  74 108 147 196 257 308 378 446
#     4  11  26  48  74 106 151 198 241 316 375 449
#     4  12  27  46  74 109 153 198 247 310 383 452
#     4  12  27  44  74 110 147 197 248 312 370 451
#
# _framework density 22.479427000000001
#
# number of rings (size 3 to 8) (size 9 to 14) (size 15 to 20)
#    0.000    0.250    5.000    3.000    7.000    1.500 
#    0.000    0.000    0.000    0.000    0.000    0.000 
#    0.000    0.000    0.000    0.000    0.000    0.000 
#
# Total GULP energy -89350.602255 kJ/mol
# GULP energy per Si atom -5584.412641 kJ/mol
# Density = 2.242826 g / cm^3
# Si number density = 22.479427 Si / 1000 Ang^3
#
#
#
# Elastic Constant Matrix: (Units=GPa)
#
#
# Indices 1 2 3 4 5 6 
#
# 1 109.9460 5.2811 28.2295 -6.4120 -20.8286 -13.5182
# 2 5.2811 87.1310 16.8730 -16.6135 -13.5681 14.0310
# 3 28.2295 16.8730 82.0563 -7.5434 -24.8506 -9.1574
# 4 -6.4120 -16.6135 -7.5434 36.7538 7.5590 -4.3429
# 5 -20.8286 -13.5681 -24.8506 7.5590 53.0170 5.9283
# 6 -13.5182 14.0310 -9.1574 -4.3429 5.9283 33.9870
#
#
#
# Elastic Compliance Matrix: (Units=1/GPa)
#
#
# Indices 1 2 3 4 5 6 
#
# 1 0.010674 -0.000103 -0.002411 0.001205 0.002489 0.003358
# 2 -0.000103 0.014270 -0.002422 0.004654 0.002532 -0.006431
# 3 -0.002411 -0.002422 0.015568 0.001020 0.005198 0.003459
# 4 0.001205 0.004654 0.001020 0.030641 -0.002584 0.003199
# 5 0.002489 0.002532 0.005198 -0.002584 0.023640 -0.003108
# 6 0.003358 -0.006431 0.003459 0.003199 -0.003108 0.035297
#
#
# Mechanical properties :
#
#
# Convention : Reuss Voigt Hill
#
# Bulk Modulus (GPa) = 32.63814 42.21117 37.42466
# Shear Modulus (GPa) = 33.29420 40.00153 36.64786
#
# Velocity S-wave (km/s) = 3.85268 4.22296 4.04206
# Velocity P-wave (km/s) = 5.86016 6.52658 6.20233
#
# Compressibility (1/GPa) = 0.03063900
#
# Stress axis : x y z
#
# Youngs Moduli (GPa) = 93.68268 70.07911 64.23308
#
# Poissons Ratio (x) = 0.00724 0.15490
# Poissons Ratio (y) = 0.00968 0.15556
# Poissons Ratio (z) = 0.22591 0.16972
#
# Static dielectric constant tensor:
#      x y z
#    x 2.079190 0.015840 -0.284600 
#    y 0.015840 1.903970 -0.039560 
#    z -0.284600 -0.039560 2.167410 
# 
# From -- ./inp_files/392616.got.cif
#   From: 2010.05.17/outbox.cif.g08.bks.cpg/sg2_197_cif.got.tgz:392616.got - 2010.06.03 11:33:40.
