data_PCOD9068150
_publ_section_title
;
Structure prediction by ZEFSAII (Michael W. Deem and Ramdas Pophale) SiO2 
 PCOD9068150
Probable space group: P -1
;
_chemical_formula_sum "Si O2"
_cell_formula_units_Z 14
_cell_length_a 7.739164
_cell_length_b 10.417185
_cell_length_c 10.799874
_cell_angle_alpha 139.486539
_cell_angle_beta 62.570294
_cell_angle_gamma 116.033858
_cell_volume 496.059959
_symmetry_space_group_name_H-M "P -1"
_symmetry_group_IT_number 2
_symmetry_cell_setting 'triclinic'
loop_
_space_group_symop_operation_xyz
x,y,z
-x,-y,-z
loop_
_atom_site_type_symbol
_atom_site_label
_atom_site_fract_x
_atom_site_fract_y
_atom_site_fract_z
Si Si1 0.341394 0.878828 0.868624
Si Si2 0.459395 0.376502 0.582785
Si Si3 0.913237 0.862990 0.591270
Si Si4 0.591048 0.813804 0.277372
Si Si5 0.220338 0.276023 0.209036
Si Si6 0.211571 0.773865 0.238267
Si Si7 0.055271 0.351579 0.069980
O O1 0.418341 0.760879 0.642277
O O2 0.582755 0.598340 0.703058
O O3 0.500000 0.000000 0.000000
O O4 0.246694 0.065498 0.986155
O O5 0.242889 0.310292 0.550082
O O6 0.441192 0.330426 0.699606
O O7 0.170073 0.737093 0.894108
O O8 0.918243 0.792904 0.678881
O O9 0.117323 0.871971 0.459625
O O10 0.826218 0.067891 0.738265
O O11 0.438137 0.754462 0.171584
O O12 0.500000 0.000000 0.500000
O O13 0.809925 0.799335 0.146643
O O14 0.139387 0.400341 0.217770
O O15 0.099236 0.549120 0.116897
#
# Coordination Sequence:
#
# PCOD9068150 Si02
#       7
#     2   2   2   2   2   2   2
#     4  12  29  51  79 123 168 210 275 348 410 490
#     4  12  26  49  81 119 160 224 267 339 411 490
#     4  11  26  47  80 121 162 218 268 339 409 491
#     4  12  26  49  84 114 168 215 275 334 415 492
#     4  12  27  48  82 115 169 207 281 333 414 479
#     4  11  26  49  79 117 169 211 276 330 413 487
#     4  12  29  51  82 126 159 217 278 341 409 492
#
# _framework density 28.222393
#
# number of rings (size 3 to 8) (size 9 to 14) (size 15 to 20)
#    0.000    0.286    4.286    3.000    6.000    1.143 
#    0.000    1.429    0.000    0.000    0.000    0.000 
#    0.000    0.000    0.000    0.000    0.000    0.000 
#
# Total GULP energy -78463.851270 kJ/mol
# GULP energy per Si atom -5604.560805 kJ/mol
# Density = 2.815816 g / cm^3
# Si number density = 28.222393 Si / 1000 Ang^3
#
#
#
# Elastic Constant Matrix: (Units=GPa)
#
#
# Indices 1 2 3 4 5 6 
#
# 1 164.9763 37.2439 41.7294 -10.1900 -0.7601 19.9552
# 2 37.2439 146.2706 39.5531 -3.0333 13.4309 7.3722
# 3 41.7294 39.5531 162.5721 -5.8528 -5.6063 7.2489
# 4 -10.1900 -3.0333 -5.8528 55.7437 14.3992 2.4654
# 5 -0.7601 13.4309 -5.6063 14.3992 33.9749 -14.3479
# 6 19.9552 7.3722 7.2489 2.4654 -14.3479 54.5958
#
#
#
# Elastic Compliance Matrix: (Units=1/GPa)
#
#
# Indices 1 2 3 4 5 6 
#
# 1 0.007091 -0.001120 -0.001420 0.001579 -0.001443 -0.002703
# 2 -0.001120 0.008161 -0.001736 0.001402 -0.004898 -0.001813
# 3 -0.001420 -0.001736 0.006986 -0.000161 0.002030 0.000367
# 4 0.001579 0.001402 -0.000161 0.021518 -0.011688 -0.004788
# 5 -0.001443 -0.004898 0.002030 -0.011688 0.041886 0.012455
# 6 -0.002703 -0.001813 0.000367 -0.004788 0.012455 0.022990
#
#
# Mechanical properties :
#
#
# Convention : Reuss Voigt Hill
#
# Bulk Modulus (GPa) = 73.06420 78.98574 76.02497
# Shear Modulus (GPa) = 41.06921 52.54906 46.80913
#
# Velocity S-wave (km/s) = 3.81885 4.31973 4.07699
# Velocity P-wave (km/s) = 6.73719 7.27514 7.01133
#
# Compressibility (1/GPa) = 0.01368659
#
# Stress axis : x y z
#
# Youngs Moduli (GPa) = 141.01740 122.52873 143.14792
#
# Poissons Ratio (x) = 0.13725 0.20329
# Poissons Ratio (y) = 0.15796 0.24846
# Poissons Ratio (z) = 0.20026 0.21267
#
# Static dielectric constant tensor:
#      x y z
#    x 2.251290 -0.043350 0.006540 
#    y -0.043350 2.156020 0.080390 
#    z 0.006540 0.080390 2.244680 
# 
# From -- ./inp_files/383444.got.cif
#   From: 2010.05.17/outbox.cif.g08.bks.cpg/sg2_192_cif.got.tgz:383444.got - 2010.06.03 11:33:40.
