data_PCOD9068167
_publ_section_title
;
Structure prediction by ZEFSAII (Michael W. Deem and Ramdas Pophale) SiO2 
 PCOD9068167
Probable space group: P -1
;
_chemical_formula_sum "Si O2"
_cell_formula_units_Z 12
_cell_length_a 9.976228
_cell_length_b 8.118160
_cell_length_c 9.525743
_cell_angle_alpha 116.145461
_cell_angle_beta 134.748060
_cell_angle_gamma 75.152002
_cell_volume 490.081981
_symmetry_space_group_name_H-M "P -1"
_symmetry_group_IT_number 2
_symmetry_cell_setting 'triclinic'
loop_
_space_group_symop_operation_xyz
x,y,z
-x,-y,-z
loop_
_atom_site_type_symbol
_atom_site_label
_atom_site_fract_x
_atom_site_fract_y
_atom_site_fract_z
Si Si1 0.080205 0.873964 0.890263
Si Si2 0.484592 0.084913 0.213450
Si Si3 0.837655 0.641313 0.457236
Si Si4 0.308024 0.222665 0.866980
Si Si5 0.509275 0.642883 0.434958
Si Si6 0.123515 0.514358 0.958848
O O1 0.952624 0.840626 0.644654
O O2 0.067680 0.669421 0.870079
O O3 0.290914 0.949898 0.030752
O O4 0.000000 0.000000 0.000000
O O5 0.504069 0.170437 0.415110
O O6 0.656794 0.971672 0.248943
O O7 0.446493 0.220974 0.105315
O O8 0.692163 0.644391 0.219774
O O9 0.698710 0.622154 0.480541
O O10 0.000000 0.500000 0.500000
O O11 0.123443 0.303262 0.827759
O O12 0.500000 0.500000 0.500000
O O13 0.332871 0.595884 0.187326
O O14 0.000000 0.500000 0.000000
#
# Coordination Sequence:
#
# PCOD9068167 Si02
#       6
#     2   2   2   2   2   2
#     4  12  25  45  72 105 150 188 246 297 363 440
#     4  11  26  49  71 108 147 196 243 305 368 436
#     4  12  27  45  75 113 144 195 246 302 368 435
#     4  11  26  48  70 109 147 186 249 304 370 425
#     4  12  26  48  76 103 148 196 247 296 373 442
#     4  12  26  48  75 105 147 198 247 304 370 441
#
# _framework density 24.485700000000001
#
# number of rings (size 3 to 8) (size 9 to 14) (size 15 to 20)
#    0.000    0.333    5.000    3.000    4.667    3.333 
#    0.000    0.000    0.000    0.000    0.000    0.000 
#    0.000    0.000    0.000    0.000    0.000    0.000 
#
# Total GULP energy -66911.952299 kJ/mol
# GULP energy per Si atom -5575.996025 kJ/mol
# Density = 2.442997 g / cm^3
# Si number density = 24.485700 Si / 1000 Ang^3
#
#
#
# Elastic Constant Matrix: (Units=GPa)
#
#
# Indices 1 2 3 4 5 6 
#
# 1 172.3587 64.2484 48.5539 13.4023 -29.0654 -35.7851
# 2 64.2484 110.0552 38.4286 -11.9401 -12.4619 -36.2454
# 3 48.5539 38.4286 102.5360 -7.0136 0.5530 2.8552
# 4 13.4023 -11.9401 -7.0136 42.4436 2.4710 -3.7647
# 5 -29.0654 -12.4619 0.5530 2.4710 44.0279 10.2108
# 6 -35.7851 -36.2454 2.8552 -3.7647 10.2108 37.7095
#
#
#
# Elastic Compliance Matrix: (Units=1/GPa)
#
#
# Indices 1 2 3 4 5 6 
#
# 1 0.010469 -0.002407 -0.004561 -0.004491 0.005117 0.006133
# 2 -0.002407 0.018859 -0.005948 0.006629 -0.000513 0.017094
# 3 -0.004561 -0.005948 0.014539 0.001404 -0.002564 -0.010311
# 4 -0.004491 0.006629 0.001404 0.027831 -0.004030 0.005873
# 5 0.005117 -0.000513 -0.002564 -0.004030 0.026932 -0.003138
# 6 0.006133 0.017094 -0.010311 0.005873 -0.003138 0.050985
#
#
# Mechanical properties :
#
#
# Convention : Reuss Voigt Hill
#
# Bulk Modulus (GPa) = 55.44828 76.37907 65.91368
# Shear Modulus (GPa) = 27.55444 40.41746 33.98595
#
# Velocity S-wave (km/s) = 3.35823 4.06723 3.72962
# Velocity P-wave (km/s) = 6.14258 7.30189 6.74718
#
# Compressibility (1/GPa) = 0.01803482
#
# Stress axis : x y z
#
# Youngs Moduli (GPa) = 95.51631 53.02430 68.78255
#
# Poissons Ratio (x) = 0.12765 0.31371
# Poissons Ratio (y) = 0.22994 0.40912
# Poissons Ratio (z) = 0.43564 0.31539
#
# Static dielectric constant tensor:
#      x y z
#    x 1.914020 -0.049860 -0.057380 
#    y -0.049860 2.007250 -0.016110 
#    z -0.057380 -0.016110 2.172890 
# 
# From -- ./inp_files/160031.got.cif
#   From: 2010.05.17/outbox.cif.g08.bks.cpg/sg2_81_cif.got.tgz:160031.got - 2010.06.03 11:33:40.
