data_PCOD9068396
_publ_section_title
;
Structure prediction by ZEFSAII (Michael W. Deem and Ramdas Pophale) SiO2 
 PCOD9068396
Probable space group: P -1
;
_chemical_formula_sum "Si O2"
_cell_formula_units_Z 12
_cell_length_a 4.859347
_cell_length_b 13.409368
_cell_length_c 8.254924
_cell_angle_alpha 128.256012
_cell_angle_beta 97.260345
_cell_angle_gamma 97.385360
_cell_volume 403.963749
_symmetry_space_group_name_H-M "P -1"
_symmetry_group_IT_number 2
_symmetry_cell_setting 'triclinic'
loop_
_space_group_symop_operation_xyz
x,y,z
-x,-y,-z
loop_
_atom_site_type_symbol
_atom_site_label
_atom_site_fract_x
_atom_site_fract_y
_atom_site_fract_z
Si Si1 0.214889 0.443516 0.718766
Si Si2 0.562968 0.715710 0.664369
Si Si3 0.293496 0.307958 0.899194
Si Si4 0.644820 0.095221 0.352780
Si Si5 0.000000 0.500000 0.500000
Si Si6 0.000000 0.000000 0.000000
Si Si7 0.733385 0.133311 0.762405
O O1 0.247325 0.383781 0.479295
O O2 0.161652 0.336518 0.745770
O O3 0.956631 0.499191 0.697866
O O4 0.488199 0.555588 0.901566
O O5 0.430604 0.767593 0.545834
O O6 0.302693 0.633598 0.669555
O O7 0.758006 0.855098 0.878909
O O8 0.481020 0.204011 0.800551
O O9 0.026601 0.240401 0.921390
O O10 0.755915 0.079987 0.527133
O O11 0.847861 0.073840 0.204373
O O12 0.339529 0.978443 0.215760
#
# Coordination Sequence:
#
# PCOD9068396 Si02
#       7
#     2   2   2   2   1   1   2
#     4  11  27  47  80 115 166 214 283 347 424 498
#     4  12  26  50  72 112 164 220 276 348 422 504
#     4  11  26  49  85 121 163 217 284 348 425 506
#     4  11  27  47  80 115 166 214 283 347 424 498
#     4  12  28  48  76 114 162 226 270 348 414 512
#     4  12  28  48  76 114 162 226 270 348 414 512
#     4  11  26  49  85 121 163 217 284 348 425 506
#
# _framework density 29.705632999999999
#
# number of rings (size 3 to 8) (size 9 to 14) (size 15 to 20)
#    0.000    0.667    1.667    4.000    7.000    2.667 
#    0.000    0.000    0.000    0.000    0.000    0.000 
#    0.000    0.000    0.000    0.000    0.000    0.000 
#
# Total GULP energy -66976.646704 kJ/mol
# GULP energy per Si atom -5581.387225 kJ/mol
# Density = 2.963802 g / cm^3
# Si number density = 29.705633 Si / 1000 Ang^3
#
#
#
# Elastic Constant Matrix: (Units=GPa)
#
#
# Indices 1 2 3 4 5 6 
#
# 1 114.4697 68.4063 29.3364 9.9112 6.4632 5.4517
# 2 68.4063 279.9625 49.0057 20.5244 15.4520 1.8183
# 3 29.3364 49.0057 99.8455 20.7870 -3.8119 5.6297
# 4 9.9112 20.5244 20.7870 72.6745 5.4743 21.8951
# 5 6.4632 15.4520 -3.8119 5.4743 42.2569 1.7175
# 6 5.4517 1.8183 5.6297 21.8951 1.7175 49.8173
#
#
#
# Elastic Compliance Matrix: (Units=1/GPa)
#
#
# Indices 1 2 3 4 5 6 
#
# 1 0.010663 -0.002190 -0.002066 0.000089 -0.000993 -0.000858
# 2 -0.002190 0.004490 -0.001520 -0.000598 -0.001389 0.000558
# 3 -0.002066 -0.001520 0.012066 -0.002958 0.002338 0.000137
# 4 0.000089 -0.000598 -0.002958 0.017044 -0.001982 -0.007076
# 5 -0.000993 -0.001389 0.002338 -0.001982 0.024796 -0.000089
# 6 -0.000858 0.000558 0.000137 -0.007076 -0.000089 0.023244
#
#
# Mechanical properties :
#
#
# Convention : Reuss Voigt Hill
#
# Bulk Modulus (GPa) = 63.83043 87.53048 75.68046
# Shear Modulus (GPa) = 45.83829 56.11835 50.97832
#
# Velocity S-wave (km/s) = 3.93247 4.35115 4.14710
# Velocity P-wave (km/s) = 6.49257 7.40090 6.96156
#
# Compressibility (1/GPa) = 0.01566651
#
# Stress axis : x y z
#
# Youngs Moduli (GPa) = 93.77833 222.71605 82.87733
#
# Poissons Ratio (x) = 0.48773 0.17124
# Poissons Ratio (y) = 0.20537 0.12600
# Poissons Ratio (z) = 0.19377 0.33860
#
# Static dielectric constant tensor:
#      x y z
#    x 4.680210 -1.162470 0.215730 
#    y -1.162470 2.732780 -0.120600 
#    z 0.215730 -0.120600 1.845710 
# 
# From -- ./inp_files/135913.got.cif
#   From: 2010.05.17/outbox.cif.g08.bks.cpg/sg2_68_cif.got.tgz:135913.got - 2010.06.03 11:33:40.
