data_PCOD9068748
_publ_section_title
;
Structure prediction by ZEFSAII (Michael W. Deem and Ramdas Pophale) SiO2 
 PCOD9068748
Probable space group: P -1
;
_chemical_formula_sum "Si O2"
_cell_formula_units_Z 11
_cell_length_a 15.534691
_cell_length_b 5.169301
_cell_length_c 15.615163
_cell_angle_alpha 101.457077
_cell_angle_beta 161.474756
_cell_angle_gamma 78.731187
_cell_volume 390.369282
_symmetry_space_group_name_H-M "P -1"
_symmetry_group_IT_number 2
_symmetry_cell_setting 'triclinic'
loop_
_space_group_symop_operation_xyz
x,y,z
-x,-y,-z
loop_
_atom_site_type_symbol
_atom_site_label
_atom_site_fract_x
_atom_site_fract_y
_atom_site_fract_z
Si Si1 0.255093 0.683376 0.249696
Si Si2 0.000000 0.500000 0.500000
Si Si3 0.500000 0.000000 0.000000
Si Si4 0.935113 0.088588 0.085847
Si Si5 0.000000 0.000000 0.500000
Si Si6 0.298308 0.204116 0.000576
Si Si7 0.809395 0.526765 0.510495
O O1 0.500000 0.500000 0.500000
O O2 0.251820 0.787532 0.156824
O O3 0.171564 0.920939 0.249705
O O4 0.000000 0.500000 0.000000
O O5 0.921154 0.620924 0.531294
O O6 0.220687 0.228411 0.734379
O O7 0.558463 0.981204 0.946133
O O8 0.227926 0.773658 0.717117
O O9 0.089101 0.289888 0.305738
O O10 0.744954 0.914827 0.955017
O O11 0.494815 0.454820 0.207613
O O12 0.989943 0.258942 0.680716
#
# Coordination Sequence:
#
# PCOD9068748 Si02
#       7
#     2   1   1   2   1   2   2
#     4  11  28  57  91 121 165 216 283 365 465 538
#     4  12  26  52  74 120 166 246 284 360 404 522
#     4  12  22  50  70 112 162 236 276 350 398 508
#     4  11  29  53  87 128 169 222 285 370 443 533
#     4  12  26  44  78 102 164 220 302 340 426 472
#     4  12  27  50  78 121 172 226 290 349 421 517
#     4  12  29  47  81 120 174 227 290 349 428 516
#
# _framework density 28.178443000000001
#
# number of rings (size 3 to 8) (size 9 to 14) (size 15 to 20)
#    0.000    0.364    3.636    2.182    0.000   17.455 
#    0.000    2.727    0.000    0.000    0.000    0.000 
#    0.000    0.000    0.000    0.000    0.000    0.000 
#
# Total GULP energy -61368.822266 kJ/mol
# GULP energy per Si atom -5578.983842 kJ/mol
# Density = 2.811431 g / cm^3
# Si number density = 28.178443 Si / 1000 Ang^3
#
#
#
# Elastic Constant Matrix: (Units=GPa)
#
#
# Indices 1 2 3 4 5 6 
#
# 1 233.8097 41.3321 57.3321 -11.8823 -39.5732 9.0011
# 2 41.3321 134.3731 44.0957 -9.7071 -19.8202 -15.5362
# 3 57.3321 44.0957 259.2775 -13.0134 5.7975 3.8015
# 4 -11.8823 -9.7071 -13.0134 61.6225 8.1344 -9.4544
# 5 -39.5732 -19.8202 5.7975 8.1344 37.6882 8.0694
# 6 9.0011 -15.5362 3.8015 -9.4544 8.0694 78.8600
#
#
#
# Elastic Compliance Matrix: (Units=1/GPa)
#
#
# Indices 1 2 3 4 5 6 
#
# 1 0.005825 -0.000603 -0.001323 -0.000308 0.006371 -0.001409
# 2 -0.000603 0.008896 -0.001451 0.000725 0.003771 0.001593
# 3 -0.001323 -0.001451 0.004508 0.000881 -0.003049 0.000065
# 4 -0.000308 0.000725 0.000881 0.017464 -0.004421 0.002682
# 5 0.006371 0.003771 -0.003049 -0.004421 0.037530 -0.004208
# 6 -0.001409 0.001593 0.000065 0.002682 -0.004208 0.013904
#
#
# Mechanical properties :
#
#
# Convention : Reuss Voigt Hill
#
# Bulk Modulus (GPa) = 80.15869 101.44223 90.80046
# Shear Modulus (GPa) = 50.48552 67.94750 59.21651
#
# Velocity S-wave (km/s) = 4.23736 4.91586 4.58917
# Velocity P-wave (km/s) = 7.24216 8.26432 7.77007
#
# Compressibility (1/GPa) = 0.01247525
#
# Stress axis : x y z
#
# Youngs Moduli (GPa) = 171.68203 112.40558 221.85026
#
# Poissons Ratio (x) = 0.06779 0.29344
# Poissons Ratio (y) = 0.10354 0.32189
# Poissons Ratio (z) = 0.22708 0.16309
#
# Static dielectric constant tensor:
#      x y z
#    x 1.375710 0.028270 0.081670 
#    y 0.028270 2.452070 -0.082800 
#    z 0.081670 -0.082800 2.316430 
# 
# From -- ./inp_files/525410.got.cif
#   From: 2010.05.17/outbox.cif.g08.bks.cpg/sg2_263_cif.got.tgz:525410.got - 2010.06.03 11:33:40.
