data_PCOD9068614
_publ_section_title
;
Structure prediction by ZEFSAII (Michael W. Deem and Ramdas Pophale) SiO2 
 PCOD9068614
Probable space group: P -1
;
_chemical_formula_sum "Si O2"
_cell_formula_units_Z 14
_cell_length_a 14.548047
_cell_length_b 16.048761
_cell_length_c 7.599348
_cell_angle_alpha 71.194484
_cell_angle_beta 77.239715
_cell_angle_gamma 19.707926
_cell_volume 547.102698
_symmetry_space_group_name_H-M "P -1"
_symmetry_group_IT_number 2
_symmetry_cell_setting 'triclinic'
loop_
_space_group_symop_operation_xyz
x,y,z
-x,-y,-z
loop_
_atom_site_type_symbol
_atom_site_label
_atom_site_fract_x
_atom_site_fract_y
_atom_site_fract_z
Si Si1 0.723973 0.752901 0.193502
Si Si2 0.862260 0.461237 0.820814
Si Si3 0.562903 0.046956 0.480008
Si Si4 0.894067 0.424865 0.224525
Si Si5 0.533232 0.583417 0.326427
Si Si6 0.863298 0.172140 0.180065
Si Si7 0.348632 0.531023 0.247903
O O1 0.876908 0.545405 0.153245
O O2 0.919541 0.657066 0.256584
O O3 0.599302 0.802770 0.367341
O O4 0.500000 0.000000 0.000000
O O5 0.792547 0.437750 0.753817
O O6 0.570876 0.773725 0.733724
O O7 0.970339 0.336443 0.050821
O O8 0.875707 0.797946 0.572825
O O9 0.500000 0.000000 0.500000
O O10 0.616088 0.612936 0.247870
O O11 0.707234 0.376729 0.244504
O O12 0.644409 0.457584 0.556469
O O13 0.195270 0.873334 0.271925
O O14 0.675857 0.249287 0.235178
O O15 0.807398 0.260209 0.949900
#
# Coordination Sequence:
#
# PCOD9068614 Si02
#       7
#     2   2   2   2   2   2   2
#     4  12  25  44  71  99 149 193 244 308 377 446
#     4  12  25  47  71 107 145 197 252 310 379 453
#     4  12  26  45  69 101 146 196 253 303 378 449
#     4  12  27  47  69 107 148 198 246 317 376 455
#     4  12  28  50  82 112 158 200 258 316 394 458
#     4  11  28  55  77 116 155 201 256 327 388 460
#     4  11  27  48  82 111 152 201 260 317 390 464
#
# _framework density 25.589344000000001
#
# number of rings (size 3 to 8) (size 9 to 14) (size 15 to 20)
#    0.000    0.286    4.286    3.429    8.000    4.571 
#    0.000    0.000    0.000    0.000    0.000    0.000 
#    0.000    0.000    0.000    0.000    0.000    0.000 
#
# Total GULP energy -78425.121444 kJ/mol
# GULP energy per Si atom -5601.794389 kJ/mol
# Density = 2.553110 g / cm^3
# Si number density = 25.589344 Si / 1000 Ang^3
#
#
#
# Elastic Constant Matrix: (Units=GPa)
#
#
# Indices 1 2 3 4 5 6 
#
# 1 149.8766 60.0081 33.1074 -6.3889 20.7723 -27.1650
# 2 60.0081 108.4617 39.6311 -12.1388 16.2292 -22.1191
# 3 33.1074 39.6311 142.4321 -5.7450 21.6854 1.5178
# 4 -6.3889 -12.1388 -5.7450 47.0062 -8.6780 3.2431
# 5 20.7723 16.2292 21.6854 -8.6780 43.9927 4.0359
# 6 -27.1650 -22.1191 1.5178 3.2431 4.0359 41.5202
#
#
#
# Elastic Compliance Matrix: (Units=1/GPa)
#
#
# Indices 1 2 3 4 5 6 
#
# 1 0.009599 -0.003623 -0.000787 -0.000679 -0.003379 0.004760
# 2 -0.003623 0.013776 -0.002638 0.001993 -0.002148 0.005118
# 3 -0.000787 -0.002638 0.008352 -0.000115 -0.002615 -0.001962
# 4 -0.000679 0.001993 -0.000115 0.022572 0.004237 -0.001553
# 5 -0.003379 -0.002148 -0.002615 0.004237 0.027821 -0.006294
# 6 0.004760 0.005118 -0.001962 -0.001553 -0.006294 0.030731
#
#
# Mechanical properties :
#
#
# Convention : Reuss Voigt Hill
#
# Bulk Modulus (GPa) = 56.71684 74.02928 65.37306
# Shear Modulus (GPa) = 37.64402 44.37208 41.00805
#
# Velocity S-wave (km/s) = 3.83963 4.16866 4.00752
# Velocity P-wave (km/s) = 6.47065 7.22238 6.85683
#
# Compressibility (1/GPa) = 0.01763145
#
# Stress axis : x y z
#
# Youngs Moduli (GPa) = 104.18249 72.58774 119.72767
#
# Poissons Ratio (x) = 0.26297 0.09421
# Poissons Ratio (y) = 0.37743 0.31588
# Poissons Ratio (z) = 0.08197 0.19151
#
# Static dielectric constant tensor:
#      x y z
#    x 2.024590 0.037900 0.011640 
#    y 0.037900 2.139990 0.021710 
#    z 0.011640 0.021710 1.985910 
# 
# From -- ./inp_files/317612.got.cif
#   From: 2010.05.17/outbox.cif.g08.bks.cpg/sg2_159_cif.got.tgz:317612.got - 2010.06.03 11:33:40.
