data_PCOD9068300
_publ_section_title
;
Structure prediction by ZEFSAII (Michael W. Deem and Ramdas Pophale) SiO2 
 PCOD9068300
Probable space group: P -1
;
_chemical_formula_sum "Si O2"
_cell_formula_units_Z 16
_cell_length_a 9.486540
_cell_length_b 5.264294
_cell_length_c 15.283668
_cell_angle_alpha 84.591388
_cell_angle_beta 79.641147
_cell_angle_gamma 69.674134
_cell_volume 703.654177
_symmetry_space_group_name_H-M "P -1"
_symmetry_group_IT_number 2
_symmetry_cell_setting 'triclinic'
loop_
_space_group_symop_operation_xyz
x,y,z
-x,-y,-z
loop_
_atom_site_type_symbol
_atom_site_label
_atom_site_fract_x
_atom_site_fract_y
_atom_site_fract_z
Si Si1 0.058338 0.304417 0.280374
Si Si2 0.920987 0.303157 0.476156
Si Si3 0.927729 0.904168 0.232788
Si Si4 0.391229 0.044235 0.655265
Si Si5 0.398620 0.971020 0.214152
Si Si6 0.608312 0.629893 0.529526
Si Si7 0.616651 0.488856 0.907020
Si Si8 0.964581 0.286446 0.948850
O O1 0.939511 0.309748 0.370299
O O2 0.042804 0.620871 0.268723
O O3 0.233961 0.115877 0.274831
O O4 0.996393 0.148165 0.217065
O O5 0.760455 0.391278 0.537176
O O6 0.000000 0.500000 0.500000
O O7 0.000000 0.000000 0.500000
O O8 0.764862 0.986348 0.294519
O O9 0.916916 0.792721 0.141690
O O10 0.468803 0.148849 0.723812
O O11 0.355906 0.193001 0.559147
O O12 0.527750 0.778409 0.619255
O O13 0.390752 0.737470 0.155607
O O14 0.422063 0.219204 0.146975
O O15 0.500000 0.500000 0.500000
O O16 0.790665 0.402175 0.927924
O O17 0.500000 0.500000 0.000000
O O18 0.000000 0.500000 0.000000
O O19 0.000000 0.000000 0.000000
#
# Coordination Sequence:
#
# PCOD9068300 Si02
#       8
#     2   2   2   2   2   2   2   2
#     4  12  23  46  70  98 141 184 236 293 348 415
#     4  12  27  44  73 102 139 193 243 295 354 419
#     4  12  25  47  72 104 139 187 238 292 356 421
#     4  11  28  44  74 107 146 200 238 305 364 434
#     4  12  26  48  72 106 145 191 240 292 367 435
#     4  11  26  49  69 106 154 188 250 304 365 425
#     4  12  28  49  72 107 148 185 235 303 364 438
#     4  12  26  47  77 105 140 185 238 295 362 429
#
# _framework density 22.738441999999999
#
# number of rings (size 3 to 8) (size 9 to 14) (size 15 to 20)
#    0.000    0.250    3.750    4.125   10.500    0.000 
#    0.000    0.000    0.000    0.000    0.000    0.000 
#    0.000    0.000    0.000    0.000    0.000    0.000 
#
# Total GULP energy -89350.444244 kJ/mol
# GULP energy per Si atom -5584.402765 kJ/mol
# Density = 2.268669 g / cm^3
# Si number density = 22.738442 Si / 1000 Ang^3
#
#
#
# Elastic Constant Matrix: (Units=GPa)
#
#
# Indices 1 2 3 4 5 6 
#
# 1 114.9006 27.8436 16.5699 28.7965 1.5416 4.0814
# 2 27.8436 120.7245 16.1352 19.6309 5.9014 9.2289
# 3 16.5699 16.1352 81.0943 31.4387 -5.3163 7.4618
# 4 28.7965 19.6309 31.4387 39.0255 3.0896 -0.7412
# 5 1.5416 5.9014 -5.3163 3.0896 49.6257 14.7697
# 6 4.0814 9.2289 7.4618 -0.7412 14.7697 38.4152
#
#
#
# Elastic Compliance Matrix: (Units=1/GPa)
#
#
# Indices 1 2 3 4 5 6 
#
# 1 0.011074 -0.001225 0.001739 -0.009077 0.001093 -0.001815
# 2 -0.001225 0.009361 0.000083 -0.003898 -0.000187 -0.002138
# 3 0.001739 0.000083 0.019757 -0.017760 0.005040 -0.006323
# 4 -0.009077 -0.003898 -0.017760 0.049305 -0.006891 0.008951
# 5 0.001093 -0.000187 0.005040 -0.006891 0.024233 -0.010500
# 6 -0.001815 -0.002138 -0.006323 0.008951 -0.010500 0.032176
#
#
# Mechanical properties :
#
#
# Convention : Reuss Voigt Hill
#
# Bulk Modulus (GPa) = 24.16292 48.64631 36.40461
# Shear Modulus (GPa) = 31.54414 42.49134 37.01774
#
# Velocity S-wave (km/s) = 3.72864 4.32754 4.03920
# Velocity P-wave (km/s) = 5.40245 6.81252 6.14804
#
# Compressibility (1/GPa) = 0.04138572
#
# Stress axis : x y z
#
# Youngs Moduli (GPa) = 90.30176 106.82418 50.61527
#
# Poissons Ratio (x) = 0.13088 -0.08800
# Poissons Ratio (y) = 0.11063 -0.00422
# Poissons Ratio (z) = -0.15700 -0.00890
#
# Static dielectric constant tensor:
#      x y z
#    x 1.821880 -0.037790 0.065640 
#    y -0.037790 1.920610 -0.064830 
#    z 0.065640 -0.064830 1.723260 
# 
# From -- ./inp_files/488409.got.cif
#   From: 2010.05.17/outbox.cif.g08.bks.cpg/sg2_245_cif.got.tgz:488409.got - 2010.06.03 11:33:40.
