data_PCOD9068765
_publ_section_title
;
Structure prediction by ZEFSAII (Michael W. Deem and Ramdas Pophale) SiO2 
 PCOD9068765
Probable space group: P -1
;
_chemical_formula_sum "Si O2"
_cell_formula_units_Z 16
_cell_length_a 13.589901
_cell_length_b 8.941193
_cell_length_c 10.852496
_cell_angle_alpha 91.871018
_cell_angle_beta 147.804520
_cell_angle_gamma 78.382468
_cell_volume 663.804657
_symmetry_space_group_name_H-M "P -1"
_symmetry_group_IT_number 2
_symmetry_cell_setting 'triclinic'
loop_
_space_group_symop_operation_xyz
x,y,z
-x,-y,-z
loop_
_atom_site_type_symbol
_atom_site_label
_atom_site_fract_x
_atom_site_fract_y
_atom_site_fract_z
Si Si1 0.442303 0.183880 0.170886
Si Si2 0.024496 0.747078 0.735667
Si Si3 0.107663 0.430501 0.962610
Si Si4 0.781100 0.306916 0.540822
Si Si5 0.642303 0.123005 0.871662
Si Si6 0.348922 0.219015 0.786485
Si Si7 0.394417 0.413073 0.475914
Si Si8 0.735384 0.434906 0.243179
O O1 0.654900 0.193791 0.430970
O O2 0.382868 0.046815 0.169690
O O3 0.285593 0.347256 0.054635
O O4 0.419942 0.164630 0.998758
O O5 0.016289 0.612612 0.822301
O O6 0.167321 0.644336 0.779415
O O7 0.812388 0.839398 0.455578
O O8 0.140737 0.865170 0.903514
O O9 0.974337 0.316375 0.811188
O O10 0.203041 0.421666 0.197238
O O11 0.642807 0.484344 0.436398
O O12 0.814141 0.307753 0.430765
O O13 0.531008 0.187428 0.885858
O O14 0.522336 0.238542 0.641720
O O15 0.223145 0.404468 0.675200
O O16 0.500000 0.500000 0.500000
O O17 0.500000 0.500000 0.000000
#
# Coordination Sequence:
#
# PCOD9068765 Si02
#       8
#     2   2   2   2   2   2   2   2
#     4  12  26  42  64  95 138 170 200 253 328 391
#     4  12  22  39  69  98 126 163 215 265 309 372
#     4  12  24  41  68  98 122 165 219 268 311 367
#     4  12  23  42  67  96 125 163 214 270 313 368
#     4  12  26  44  63  93 134 174 206 256 320 381
#     4  12  23  39  66 100 130 164 210 258 317 379
#     4  12  23  45  70  91 122 165 223 273 309 358
#     4  12  18  35  67  96 125 158 206 266 313 363
#
# _framework density 24.103477000000002
#
# number of rings (size 3 to 8) (size 9 to 14) (size 15 to 20)
#    0.000    0.000    8.750    1.875    0.000    2.000 
#    0.000    0.625    0.000    0.000    0.000    0.000 
#    0.000    0.000    0.000    0.000    0.000    0.000 
#
# Total GULP energy -89469.695179 kJ/mol
# GULP energy per Si atom -5591.855949 kJ/mol
# Density = 2.404862 g / cm^3
# Si number density = 24.103477 Si / 1000 Ang^3
#
#
#
# Elastic Constant Matrix: (Units=GPa)
#
#
# Indices 1 2 3 4 5 6 
#
# 1 78.9086 19.9184 28.3084 4.4567 -9.4933 17.7778
# 2 19.9184 114.9461 50.2615 28.9098 2.4925 38.0271
# 3 28.3084 50.2615 149.4221 48.4066 8.0271 34.8532
# 4 4.4567 28.9098 48.4066 42.2963 12.5402 8.3917
# 5 -9.4933 2.4925 8.0271 12.5402 39.0326 3.0167
# 6 17.7778 38.0271 34.8532 8.3917 3.0167 37.1775
#
#
#
# Elastic Compliance Matrix: (Units=1/GPa)
#
#
# Indices 1 2 3 4 5 6 
#
# 1 0.015191 -0.000074 -0.001854 0.000441 0.004396 -0.005907
# 2 -0.000074 0.015639 0.001478 -0.010279 0.003163 -0.015283
# 3 -0.001854 0.001478 0.013734 -0.015179 0.002300 -0.010261
# 4 0.000441 -0.010279 -0.015179 0.048954 -0.012966 0.014535
# 5 0.004396 0.003163 0.002300 -0.012966 0.030725 -0.007060
# 6 -0.005907 -0.015283 -0.010261 0.014535 -0.007060 0.052267
#
#
# Mechanical properties :
#
#
# Convention : Reuss Voigt Hill
#
# Bulk Modulus (GPa) = 22.90176 60.02815 41.46496
# Shear Modulus (GPa) = 26.04658 40.02051 33.03355
#
# Velocity S-wave (km/s) = 3.29084 4.07918 3.70603
# Velocity P-wave (km/s) = 4.89505 6.86620 5.96264
#
# Compressibility (1/GPa) = 0.04366476
#
# Stress axis : x y z
#
# Youngs Moduli (GPa) = 65.82640 63.94339 72.81406
#
# Poissons Ratio (x) = 0.00471 0.13503
# Poissons Ratio (y) = 0.00485 -0.10765
# Poissons Ratio (z) = 0.12207 -0.09454
#
# Static dielectric constant tensor:
#      x y z
#    x 1.969130 -0.018600 0.047630 
#    y -0.018600 2.022940 0.073920 
#    z 0.047630 0.073920 1.977910 
# 
# From -- ./inp_files/188943.got.cif
#   From: 2010.05.17/outbox.cif.g08.bks.cpg/sg2_95_cif.got.tgz:188943.got - 2010.06.03 11:33:40.
