data_PCOD9068870
_publ_section_title
;
Structure prediction by ZEFSAII (Michael W. Deem and Ramdas Pophale) SiO2 
 PCOD9068870
Probable space group: P -1
;
_chemical_formula_sum "Si O2"
_cell_formula_units_Z 14
_cell_length_a 17.673575
_cell_length_b 6.828986
_cell_length_c 11.004397
_cell_angle_alpha 56.979787
_cell_angle_beta 140.172100
_cell_angle_gamma 137.500257
_cell_volume 573.998284
_symmetry_space_group_name_H-M "P -1"
_symmetry_group_IT_number 2
_symmetry_cell_setting 'triclinic'
loop_
_space_group_symop_operation_xyz
x,y,z
-x,-y,-z
loop_
_atom_site_type_symbol
_atom_site_label
_atom_site_fract_x
_atom_site_fract_y
_atom_site_fract_z
Si Si1 0.720908 0.876760 0.904157
Si Si2 0.584051 0.198069 0.657004
Si Si3 0.900785 0.109593 0.825462
Si Si4 0.760267 0.783990 0.530861
Si Si5 0.860783 0.262906 0.324481
Si Si6 0.001109 0.736638 0.744654
Si Si7 0.591406 0.254496 0.929132
O O1 0.687005 0.091960 0.840006
O O2 0.753903 0.926768 0.785441
O O3 0.603161 0.537276 0.891641
O O4 0.876499 0.995252 0.114462
O O5 0.652678 0.514013 0.578139
O O6 0.500000 0.000000 0.500000
O O7 0.533447 0.179913 0.741736
O O8 0.980095 0.439000 0.850877
O O9 0.856717 0.050088 0.652643
O O10 0.000000 0.000000 0.000000
O O11 0.850141 0.686810 0.605087
O O12 0.740049 0.955133 0.345553
O O13 0.938351 0.200041 0.337561
O O14 0.760282 0.351550 0.112866
O O15 0.000000 0.500000 0.500000
O O16 0.500000 0.000000 0.000000
#
# Coordination Sequence:
#
# PCOD9068870 Si02
#       7
#     2   2   2   2   2   2   2
#     4  12  24  45  76 105 142 187 249 305 367 444
#     4  12  29  50  76 107 144 202 261 307 366 446
#     4  12  21  38  71 107 146 181 237 298 372 441
#     4  12  25  43  73 110 147 189 244 306 369 447
#     4  12  26  47  73 113 154 193 241 310 377 444
#     4  12  23  42  73 111 146 193 235 297 384 444
#     4  12  30  52  77 107 152 204 252 309 378 445
#
# _framework density 24.390317
#
# number of rings (size 3 to 8) (size 9 to 14) (size 15 to 20)
#    0.000    0.000    7.143    3.429    2.000    4.571 
#    0.000    0.000    0.000    0.000    0.000    0.000 
#    0.000    0.000    0.000    0.000    0.000    0.000 
#
# Total GULP energy -78142.558591 kJ/mol
# GULP energy per Si atom -5581.611328 kJ/mol
# Density = 2.433480 g / cm^3
# Si number density = 24.390317 Si / 1000 Ang^3
#
#
#
# Elastic Constant Matrix: (Units=GPa)
#
#
# Indices 1 2 3 4 5 6 
#
# 1 109.5388 44.1376 23.3964 -6.1800 -29.5688 7.5558
# 2 44.1376 161.8072 31.9523 -9.5799 -24.7560 16.1059
# 3 23.3964 31.9523 72.7458 1.7675 -13.3899 -3.4353
# 4 -6.1800 -9.5799 1.7675 39.2277 -3.1484 -6.4400
# 5 -29.5688 -24.7560 -13.3899 -3.1484 39.6364 -10.7474
# 6 7.5558 16.1059 -3.4353 -6.4400 -10.7474 47.9901
#
#
#
# Elastic Compliance Matrix: (Units=1/GPa)
#
#
# Indices 1 2 3 4 5 6 
#
# 1 0.012452 -0.001745 -0.001807 0.002350 0.007935 0.000588
# 2 -0.001745 0.007794 -0.002553 0.001641 0.002352 -0.001777
# 3 -0.001807 -0.002553 0.016206 -0.000900 0.003249 0.002908
# 4 0.002350 0.001641 -0.000900 0.027417 0.005730 0.003977
# 5 0.007935 0.002352 0.003249 0.005730 0.036081 0.007043
# 6 0.000588 -0.001777 0.002908 0.003977 0.007043 0.023661
#
#
# Mechanical properties :
#
#
# Convention : Reuss Voigt Hill
#
# Bulk Modulus (GPa) = 41.25007 60.34049 50.79528
# Shear Modulus (GPa) = 34.74576 41.67788 38.21182
#
# Velocity S-wave (km/s) = 3.77845 4.13823 3.96242
# Velocity P-wave (km/s) = 5.99873 6.90120 6.46573
#
# Compressibility (1/GPa) = 0.02424238
#
# Stress axis : x y z
#
# Youngs Moduli (GPa) = 80.30540 128.29897 61.70429
#
# Poissons Ratio (x) = 0.22391 0.11151
# Poissons Ratio (y) = 0.14015 0.15753
# Poissons Ratio (z) = 0.14512 0.32755
#
# Static dielectric constant tensor:
#      x y z
#    x 2.396160 0.211960 -0.401610 
#    y 0.211960 2.030780 -0.217640 
#    z -0.401610 -0.217640 2.541320 
# 
# From -- ./inp_files/409905.got.cif
#   From: 2010.05.17/outbox.cif.g08.bks.cpg/sg2_205_cif.got.tgz:409905.got - 2010.06.03 11:33:40.
