data_PCOD9068957
_publ_section_title
;
Structure prediction by ZEFSAII (Michael W. Deem and Ramdas Pophale) SiO2 
 PCOD9068957
Probable space group: P -1
;
_chemical_formula_sum "Si O2"
_cell_formula_units_Z 16
_cell_length_a 23.807425
_cell_length_b 18.869298
_cell_length_c 8.224321
_cell_angle_alpha 145.670920
_cell_angle_beta 32.422109
_cell_angle_gamma 158.701003
_cell_volume 704.684126
_symmetry_space_group_name_H-M "P -1"
_symmetry_group_IT_number 2
_symmetry_cell_setting 'triclinic'
loop_
_space_group_symop_operation_xyz
x,y,z
-x,-y,-z
loop_
_atom_site_type_symbol
_atom_site_label
_atom_site_fract_x
_atom_site_fract_y
_atom_site_fract_z
Si Si1 0.031229 0.162399 0.646781
Si Si2 0.618928 0.191160 0.684581
Si Si3 0.597563 0.459143 0.701468
Si Si4 0.893558 0.288029 0.282411
Si Si5 0.377207 0.121392 0.358072
Si Si6 0.844440 0.881552 0.273343
Si Si7 0.765988 0.542151 0.774024
Si Si8 0.926597 0.296957 0.828361
O O1 0.222068 0.362105 0.495474
O O2 0.000000 0.000000 0.500000
O O3 0.907082 0.026408 0.539914
O O4 0.965961 0.219183 0.022763
O O5 0.710684 0.173723 0.539775
O O6 0.731630 0.385729 0.664872
O O7 0.500000 0.000000 0.500000
O O8 0.518841 0.199502 0.045632
O O9 0.470930 0.240022 0.519337
O O10 0.634975 0.454165 0.785742
O O11 0.500000 0.500000 0.000000
O O12 0.000000 0.500000 0.500000
O O13 0.897127 0.276617 0.055303
O O14 0.295756 0.173652 0.586882
O O15 0.231008 0.883539 0.240644
O O16 0.783957 0.687189 0.107411
O O17 0.000000 0.000000 0.000000
O O18 0.933360 0.669173 0.507221
O O19 0.000000 0.500000 0.000000
#
# Coordination Sequence:
#
# PCOD9068957 Si02
#       8
#     2   2   2   2   2   2   2   2
#     4  12  27  46  73 104 141 188 239 284 347 429
#     4  12  26  47  69 100 142 183 232 293 358 412
#     4  12  25  45  66 108 144 174 232 301 350 409
#     4  12  25  47  69 100 141 182 233 289 343 421
#     4  12  24  45  70 103 145 179 229 299 354 408
#     4  12  21  45  74  99 140 189 237 286 348 426
#     4  12  25  44  74 101 137 193 237 284 354 428
#     4  12  23  48  74  98 132 191 241 278 346 437
#
# _framework density 22.705207999999999
#
# number of rings (size 3 to 8) (size 9 to 14) (size 15 to 20)
#    0.000    0.000    8.750    0.750    3.500    2.500 
#    2.250    1.250    0.000    0.000    0.000    0.000 
#    0.000    0.000    0.000    0.000    0.000    0.000 
#
# Total GULP energy -89324.683784 kJ/mol
# GULP energy per Si atom -5582.792736 kJ/mol
# Density = 2.265353 g / cm^3
# Si number density = 22.705208 Si / 1000 Ang^3
#
#
#
# Elastic Constant Matrix: (Units=GPa)
#
#
# Indices 1 2 3 4 5 6 
#
# 1 48.5156 31.5741 26.3292 8.9522 -18.3694 8.5804
# 2 31.5741 105.8531 42.7218 30.8583 -5.4956 21.5763
# 3 26.3292 42.7218 151.8195 14.4234 -24.5500 6.5134
# 4 8.9522 30.8583 14.4234 60.7138 8.8854 -5.6164
# 5 -18.3694 -5.4956 -24.5500 8.8854 38.2249 13.2096
# 6 8.5804 21.5763 6.5134 -5.6164 13.2096 44.3654
#
#
#
# Elastic Compliance Matrix: (Units=1/GPa)
#
#
# Indices 1 2 3 4 5 6 
#
# 1 0.035708 -0.004978 -0.000006 -0.007099 0.022239 -0.012005
# 2 -0.004978 0.016103 -0.001911 -0.008339 0.003651 -0.008731
# 3 -0.000006 -0.001911 0.008519 -0.002257 0.006607 -0.002573
# 4 -0.007099 -0.008339 -0.002257 0.026087 -0.017005 0.014125
# 5 0.022239 0.003651 0.006607 -0.017005 0.054339 -0.025379
# 6 -0.012005 -0.008731 -0.002573 0.014125 -0.025379 0.038830
#
#
# Mechanical properties :
#
#
# Convention : Reuss Voigt Hill
#
# Bulk Modulus (GPa) = 21.48680 56.38204 38.93442
# Shear Modulus (GPa) = 23.93604 42.36504 33.15054
#
# Velocity S-wave (km/s) = 3.25038 4.32426 3.82519
# Velocity P-wave (km/s) = 4.85495 7.05822 6.05760
#
# Compressibility (1/GPa) = 0.04654020
#
# Stress axis : x y z
#
# Youngs Moduli (GPa) = 28.00489 62.09955 117.38781
#
# Poissons Ratio (x) = 0.30910 0.00075
# Poissons Ratio (y) = 0.13940 0.22432
# Poissons Ratio (z) = 0.00018 0.11867
#
# Static dielectric constant tensor:
#      x y z
#    x 1.918100 -0.012760 -0.033340 
#    y -0.012760 1.940100 -0.037880 
#    z -0.033340 -0.037880 1.900810 
# 
# From -- ./inp_files/355312.got.cif
#   From: 2010.05.17/outbox.cif.g08.bks.cpg/sg2_178_cif.got.tgz:355312.got - 2010.06.03 11:33:40.
