data_PCOD9068831
_publ_section_title
;
Structure prediction by ZEFSAII (Michael W. Deem and Ramdas Pophale) SiO2 
 PCOD9068831
Probable space group: P -1
;
_chemical_formula_sum "Si O2"
_cell_formula_units_Z 15
_cell_length_a 9.568383
_cell_length_b 13.611619
_cell_length_c 12.221108
_cell_angle_alpha 52.699794
_cell_angle_beta 129.391389
_cell_angle_gamma 86.257337
_cell_volume 666.940308
_symmetry_space_group_name_H-M "P -1"
_symmetry_group_IT_number 2
_symmetry_cell_setting 'triclinic'
loop_
_space_group_symop_operation_xyz
x,y,z
-x,-y,-z
loop_
_atom_site_type_symbol
_atom_site_label
_atom_site_fract_x
_atom_site_fract_y
_atom_site_fract_z
Si Si1 0.988265 0.982791 0.877351
Si Si2 0.105514 0.648494 0.127056
Si Si3 0.337681 0.031350 0.999948
Si Si4 0.275714 0.514261 0.903028
Si Si5 0.612868 0.652509 0.695889
Si Si6 0.256516 0.186200 0.470055
Si Si7 0.500000 0.000000 0.500000
Si Si8 0.073820 0.403677 0.719914
O O1 0.675553 0.134100 0.589632
O O2 0.125422 0.034069 0.858508
O O3 0.135533 0.780534 0.068884
O O4 0.000000 0.000000 0.000000
O O5 0.328099 0.491018 0.258313
O O6 0.116405 0.559651 0.303237
O O7 0.800751 0.799164 0.828026
O O8 0.220294 0.206620 0.886987
O O9 0.500000 0.000000 0.000000
O O10 0.535866 0.876340 0.292418
O O11 0.222893 0.440160 0.832628
O O12 0.004350 0.722303 0.657438
O O13 0.500000 0.500000 0.000000
O O14 0.351559 0.406092 0.124171
O O15 0.800248 0.661000 0.728765
O O16 0.376059 0.038461 0.536784
O O17 0.000000 0.500000 0.500000
#
# Coordination Sequence:
#
# PCOD9068831 Si02
#       8
#     2   2   2   2   2   2   1   2
#     4  12  25  48  73 114 149 200 260 322 368 464
#     4  12  25  45  81 114 147 200 264 320 387 460
#     4  12  28  49  71 105 156 202 249 310 393 463
#     4  12  29  47  74 115 154 200 259 322 391 467
#     4  12  25  45  80 111 152 196 261 329 383 455
#     4  12  23  46  77 104 146 203 250 316 390 448
#     4  12  20  44  74 108 146 192 256 320 380 446
#     4  12  26  47  75 107 156 205 247 312 394 464
#
# _framework density 22.490769
#
# number of rings (size 3 to 8) (size 9 to 14) (size 15 to 20)
#    0.000    0.000    8.000    2.000    3.733    1.600 
#    2.400    0.667    0.000    0.000    0.000    0.000 
#    0.000    0.000    0.000    0.000    0.000    0.000 
#
# Total GULP energy -83501.653142 kJ/mol
# GULP energy per Si atom -5566.776876 kJ/mol
# Density = 2.243958 g / cm^3
# Si number density = 22.490769 Si / 1000 Ang^3
#
#
#
# Elastic Constant Matrix: (Units=GPa)
#
#
# Indices 1 2 3 4 5 6 
#
# 1 152.6566 56.0700 29.0581 9.3208 -1.4026 4.7736
# 2 56.0700 153.8985 6.2613 -22.2573 -15.8507 -3.2380
# 3 29.0581 6.2613 69.9907 0.2691 -22.7441 -9.2880
# 4 9.3208 -22.2573 0.2691 36.2402 -11.7029 -12.3754
# 5 -1.4026 -15.8507 -22.7441 -11.7029 38.1287 9.4177
# 6 4.7736 -3.2380 -9.2880 -12.3754 9.4177 27.0367
#
#
#
# Elastic Compliance Matrix: (Units=1/GPa)
#
#
# Indices 1 2 3 4 5 6 
#
# 1 0.011685 -0.006968 -0.008360 -0.013165 -0.009388 -0.008525
# 2 -0.006968 0.012466 0.006630 0.016008 0.011761 0.008231
# 3 -0.008360 0.006630 0.024961 0.016256 0.019488 0.011498
# 4 -0.013165 0.016008 0.016256 0.058776 0.027173 0.027264
# 5 -0.009388 0.011761 0.019488 0.027173 0.049513 0.004952
# 6 -0.008525 0.008231 0.011498 0.027264 0.004952 0.054182
#
#
# Mechanical properties :
#
#
# Convention : Reuss Voigt Hill
#
# Bulk Modulus (GPa) = 31.52723 62.14719 46.83721
# Shear Modulus (GPa) = 20.87249 39.29152 30.08201
#
# Velocity S-wave (km/s) = 3.04969 4.18426 3.66119
# Velocity P-wave (km/s) = 5.14287 7.14397 6.22436
#
# Compressibility (1/GPa) = 0.03171861
#
# Stress axis : x y z
#
# Youngs Moduli (GPa) = 85.57817 80.21715 40.06221
#
# Poissons Ratio (x) = 0.55892 0.33490
# Poissons Ratio (y) = 0.59627 -0.26562
# Poissons Ratio (z) = 0.71540 -0.53185
#
# Static dielectric constant tensor:
#      x y z
#    x 1.752280 -0.017200 -0.033700 
#    y -0.017200 1.962930 0.299740 
#    z -0.033700 0.299740 3.194350 
# 
# From -- ./inp_files/397120.got.cif
#   From: 2010.05.17/outbox.cif.g08.bks.cpg/sg2_199_cif.got.tgz:397120.got - 2010.06.03 11:33:40.
