data_PCOD9068854
_publ_section_title
;
Structure prediction by ZEFSAII (Michael W. Deem and Ramdas Pophale) SiO2 
 PCOD9068854
Probable space group: P -1
;
_chemical_formula_sum "Si O2"
_cell_formula_units_Z 14
_cell_length_a 12.283984
_cell_length_b 15.813368
_cell_length_c 14.961056
_cell_angle_alpha 161.058252
_cell_angle_beta 134.920450
_cell_angle_gamma 41.810522
_cell_volume 628.909105
_symmetry_space_group_name_H-M "P -1"
_symmetry_group_IT_number 2
_symmetry_cell_setting 'triclinic'
loop_
_space_group_symop_operation_xyz
x,y,z
-x,-y,-z
loop_
_atom_site_type_symbol
_atom_site_label
_atom_site_fract_x
_atom_site_fract_y
_atom_site_fract_z
Si Si1 0.630120 0.512095 0.763279
Si Si2 0.859486 0.369138 0.029339
Si Si3 0.305378 0.574809 0.476974
Si Si4 0.540199 0.888706 0.678695
Si Si5 0.821020 0.852798 0.919126
Si Si6 0.942610 0.281777 0.801676
Si Si7 0.634697 0.997605 0.503195
O O1 0.741520 0.392526 0.622156
O O2 0.747152 0.407106 0.810223
O O3 0.490956 0.378688 0.565825
O O4 0.562732 0.841972 0.053770
O O5 0.980119 0.252331 0.897973
O O6 0.724531 0.218120 0.799306
O O7 0.773730 0.695210 0.288626
O O8 0.983181 0.289574 0.105400
O O9 0.500000 0.500000 0.500000
O O10 0.230592 0.844066 0.763324
O O11 0.256164 0.329733 0.246047
O O12 0.461269 0.943835 0.589252
O O13 0.727059 0.866059 0.783206
O O14 0.000000 0.000000 0.500000
O O15 0.000000 0.500000 0.000000
O O16 0.500000 0.000000 0.500000
#
# Coordination Sequence:
#
# PCOD9068854 Si02
#       7
#     2   2   2   2   2   2   2
#     4  12  22  36  61  87 130 173 222 254 300 377
#     4  12  25  46  67 100 134 168 221 280 332 394
#     4  12  21  37  58  95 136 185 221 250 305 396
#     4  12  22  42  64  92 122 167 216 268 317 388
#     4  12  24  40  64  94 137 174 213 271 325 374
#     4  12  22  37  58  91 135 173 208 253 315 384
#     4  12  26  49  74  95 124 172 224 286 349 393
#
# _framework density 22.260767000000001
#
# number of rings (size 3 to 8) (size 9 to 14) (size 15 to 20)
#    0.000    0.000    5.714    6.000    0.000    0.000 
#    0.000    1.429    0.000    0.000    0.000    0.000 
#    0.000    0.000    0.000    0.000    0.000    0.000 
#
# Total GULP energy -78239.553884 kJ/mol
# GULP energy per Si atom -5588.539563 kJ/mol
# Density = 2.221010 g / cm^3
# Si number density = 22.260767 Si / 1000 Ang^3
#
#
#
# Elastic Constant Matrix: (Units=GPa)
#
#
# Indices 1 2 3 4 5 6 
#
# 1 52.6550 4.3780 7.3814 -3.1236 16.8335 5.7456
# 2 4.3780 141.0570 12.9824 -21.3626 8.7383 -17.6222
# 3 7.3814 12.9824 87.9644 7.8326 23.2399 8.1687
# 4 -3.1236 -21.3626 7.8326 40.8865 -5.4743 8.3200
# 5 16.8335 8.7383 23.2399 -5.4743 26.2277 -0.1376
# 6 5.7456 -17.6222 8.1687 8.3200 -0.1376 17.9307
#
#
#
# Elastic Compliance Matrix: (Units=1/GPa)
#
#
# Indices 1 2 3 4 5 6 
#
# 1 0.026364 -0.001470 0.004540 0.000108 -0.020495 -0.012168
# 2 -0.001470 0.008930 -0.002586 0.003380 0.001012 0.008864
# 3 0.004540 -0.002586 0.017695 -0.004891 -0.018804 -0.009932
# 4 0.000108 0.003380 -0.004891 0.030134 0.009383 -0.008395
# 5 -0.020495 0.001012 -0.018804 0.009383 0.069629 0.012309
# 6 -0.012168 0.008864 -0.009932 -0.008395 0.012309 0.076896
#
#
# Mechanical properties :
#
#
# Convention : Reuss Voigt Hill
#
# Bulk Modulus (GPa) = 18.53409 36.79558 27.66484
# Shear Modulus (GPa) = 20.27039 34.13796 27.20417
#
# Velocity S-wave (km/s) = 3.02087 3.92030 3.49960
# Velocity P-wave (km/s) = 4.52896 6.08744 5.36509
#
# Compressibility (1/GPa) = 0.05395463
#
# Stress axis : x y z
#
# Youngs Moduli (GPa) = 37.93104 111.98630 56.51406
#
# Poissons Ratio (x) = 0.16465 -0.25655
# Poissons Ratio (y) = 0.05577 0.14615
# Poissons Ratio (z) = -0.17219 0.28961
#
# Static dielectric constant tensor:
#      x y z
#    x 1.759900 -0.009470 -0.008150 
#    y -0.009470 2.006850 -0.094590 
#    z -0.008150 -0.094590 1.829490 
# 
# From -- ./inp_files/522059.got.cif
#   From: 2010.05.17/outbox.cif.g08.bks.cpg/sg2_262_cif.got.tgz:522059.got - 2010.06.03 11:33:40.
