data_PCOD9068587
_publ_section_title
;
Structure prediction by ZEFSAII (Michael W. Deem and Ramdas Pophale) SiO2 
 PCOD9068587
Probable space group: P -1
;
_chemical_formula_sum "Si O2"
_cell_formula_units_Z 16
_cell_length_a 19.410183
_cell_length_b 11.514978
_cell_length_c 25.196047
_cell_angle_alpha 149.151756
_cell_angle_beta 167.264213
_cell_angle_gamma 31.367987
_cell_volume 629.833314
_symmetry_space_group_name_H-M "P -1"
_symmetry_group_IT_number 2
_symmetry_cell_setting 'triclinic'
loop_
_space_group_symop_operation_xyz
x,y,z
-x,-y,-z
loop_
_atom_site_type_symbol
_atom_site_label
_atom_site_fract_x
_atom_site_fract_y
_atom_site_fract_z
Si Si1 0.348895 0.966768 0.453182
Si Si2 0.351301 0.188928 0.921447
Si Si3 0.814157 0.345565 0.952686
Si Si4 0.282656 0.540197 0.767085
Si Si5 0.754599 0.245535 0.072276
Si Si6 0.705027 0.071243 0.375161
Si Si7 0.475502 0.772368 0.579483
Si Si8 0.316154 0.506570 0.205619
O O1 0.261797 0.892507 0.418290
O O2 0.489873 0.720779 0.438127
O O3 0.565752 0.165167 0.699580
O O4 0.055847 0.049194 0.225177
O O5 0.231887 0.438568 0.956866
O O6 0.600658 0.244289 0.087978
O O7 0.067052 0.076676 0.639411
O O8 0.500000 0.000000 0.000000
O O9 0.766088 0.461866 0.904687
O O10 0.167580 0.206216 0.162210
O O11 0.149199 0.582848 0.743143
O O12 0.000000 0.500000 0.500000
O O13 0.600725 0.355754 0.945759
O O14 0.461099 0.149300 0.841542
O O15 0.635725 0.125513 0.407356
O O16 0.528353 0.273642 0.287171
O O17 0.500000 0.500000 0.500000
O O18 0.000000 0.500000 0.000000
#
# Coordination Sequence:
#
# PCOD9068587 Si02
#       8
#     2   2   2   2   2   2   2   2
#     4  12  25  43  75 110 149 193 244 313 374 447
#     4  12  29  47  74 106 141 195 252 307 364 442
#     4  12  26  45  71 108 151 192 252 306 376 439
#     4  11  27  54  75 104 146 192 254 304 377 436
#     4  11  27  47  78 106 143 197 243 310 372 439
#     4  12  26  44  74 107 148 191 247 303 369 447
#     4  12  23  45  73 105 150 199 244 294 382 446
#     4  12  23  45  70 107 149 193 242 299 369 455
#
# _framework density 25.403547
#
# number of rings (size 3 to 8) (size 9 to 14) (size 15 to 20)
#    0.000    0.250    5.000    2.250    8.750    1.500 
#    2.250    0.000    0.000    0.000    0.000    0.000 
#    0.000    0.000    0.000    0.000    0.000    0.000 
#
# Total GULP energy -89520.098889 kJ/mol
# GULP energy per Si atom -5595.006181 kJ/mol
# Density = 2.534573 g / cm^3
# Si number density = 25.403547 Si / 1000 Ang^3
#
#
#
# Elastic Constant Matrix: (Units=GPa)
#
#
# Indices 1 2 3 4 5 6 
#
# 1 97.6296 24.3066 15.9486 -4.6012 -28.5261 21.5555
# 2 24.3066 123.2404 45.2924 -16.1783 -1.9004 44.4008
# 3 15.9486 45.2924 145.9700 -4.1195 -3.8895 27.0301
# 4 -4.6012 -16.1783 -4.1195 48.3599 9.2526 -12.2924
# 5 -28.5261 -1.9004 -3.8895 9.2526 43.1145 -0.4726
# 6 21.5555 44.4008 27.0301 -12.2924 -0.4726 49.8370
#
#
#
# Elastic Compliance Matrix: (Units=1/GPa)
#
#
# Indices 1 2 3 4 5 6 
#
# 1 0.014626 -0.000858 -0.000011 -0.002361 0.010079 -0.006042
# 2 -0.000858 0.012621 -0.002063 0.001720 -0.000669 -0.009336
# 3 -0.000011 -0.002063 0.007987 -0.000842 0.000774 -0.002690
# 4 -0.002361 0.001720 -0.000842 0.023670 -0.006579 0.005722
# 5 0.010079 -0.000669 0.000774 -0.006579 0.031254 -0.005509
# 6 -0.006042 -0.009336 -0.002690 0.005722 -0.005509 0.033814
#
#
# Mechanical properties :
#
#
# Convention : Reuss Voigt Hill
#
# Bulk Modulus (GPa) = 34.04886 59.77057 46.90972
# Shear Modulus (GPa) = 35.80994 47.01511 41.41253
#
# Velocity S-wave (km/s) = 3.75859 4.30668 4.04194
# Velocity P-wave (km/s) = 5.68052 6.95050 6.34735
#
# Compressibility (1/GPa) = 0.02936956
#
# Stress axis : x y z
#
# Youngs Moduli (GPa) = 68.37217 79.23547 125.20535
#
# Poissons Ratio (x) = 0.06801 0.00137
# Poissons Ratio (y) = 0.05868 0.25826
# Poissons Ratio (z) = 0.00075 0.16344
#
# Static dielectric constant tensor:
#      x y z
#    x 2.056490 -0.072690 -0.046790 
#    y -0.072690 2.049490 0.022500 
#    z -0.046790 0.022500 2.073250 
# 
# From -- ./inp_files/418591.got.cif
#   From: 2010.05.17/outbox.cif.g08.bks.cpg/sg2_210_cif.got.tgz:418591.got - 2010.06.03 11:33:40.
