data_PCOD9068318
_publ_section_title
;
Structure prediction by ZEFSAII (Michael W. Deem and Ramdas Pophale) SiO2 
 PCOD9068318
Probable space group: P -1
;
_chemical_formula_sum "Si O2"
_cell_formula_units_Z 12
_cell_length_a 12.200089
_cell_length_b 12.348640
_cell_length_c 8.819846
_cell_angle_alpha 133.216846
_cell_angle_beta 92.473616
_cell_angle_gamma 126.195759
_cell_volume 506.998978
_symmetry_space_group_name_H-M "P -1"
_symmetry_group_IT_number 2
_symmetry_cell_setting 'triclinic'
loop_
_space_group_symop_operation_xyz
x,y,z
-x,-y,-z
loop_
_atom_site_type_symbol
_atom_site_label
_atom_site_fract_x
_atom_site_fract_y
_atom_site_fract_z
Si Si1 0.629306 0.028951 0.435129
Si Si2 0.751721 0.624361 0.230445
Si Si3 0.597651 0.210031 0.337595
Si Si4 0.915042 0.137486 0.731890
Si Si5 0.054825 0.216445 0.284368
Si Si6 0.853342 0.209581 0.115396
O O1 0.500000 0.000000 0.500000
O O2 0.678837 0.185634 0.442029
O O3 0.824530 0.170853 0.660924
O O4 0.470591 0.710579 0.087719
O O5 0.880895 0.725301 0.483392
O O6 0.871849 0.687052 0.155775
O O7 0.761981 0.815589 0.408761
O O8 0.756428 0.497603 0.531059
O O9 0.500000 0.000000 0.000000
O O10 0.376537 0.027113 0.196897
O O11 0.947164 0.235738 0.997112
O O12 0.849698 0.081065 0.121625
O O13 0.000000 0.000000 0.000000
O O14 0.000000 0.500000 0.500000
#
# Coordination Sequence:
#
# PCOD9068318 Si02
#       6
#     2   2   2   2   2   2
#     4  12  26  45  73 109 148 192 247 307 372 437
#     4  11  26  49  73 106 151 199 247 301 372 449
#     4  12  26  46  73 108 147 190 246 305 370 438
#     4  11  27  48  74 109 150 198 245 304 374 445
#     4  12  27  49  76 106 147 196 250 305 372 445
#     4  12  25  46  76 111 146 192 247 305 373 439
#
# _framework density 23.668685
#
# number of rings (size 3 to 8) (size 9 to 14) (size 15 to 20)
#    0.000    0.333    6.667    0.500    4.667    2.667 
#    3.000    0.000    0.000    0.000    0.000    0.000 
#    0.000    0.000    0.000    0.000    0.000    0.000 
#
# Total GULP energy -66891.051051 kJ/mol
# GULP energy per Si atom -5574.254254 kJ/mol
# Density = 2.361481 g / cm^3
# Si number density = 23.668685 Si / 1000 Ang^3
#
#
#
# Elastic Constant Matrix: (Units=GPa)
#
#
# Indices 1 2 3 4 5 6 
#
# 1 98.6057 25.4760 16.9955 -1.8728 -12.7002 -27.5902
# 2 25.4760 110.3316 35.6758 4.3660 -19.7678 -7.9690
# 3 16.9955 35.6758 106.2458 22.8753 -24.2678 -0.5251
# 4 -1.8728 4.3660 22.8753 56.6524 -3.7887 -2.9624
# 5 -12.7002 -19.7678 -24.2678 -3.7887 34.8357 -9.6690
# 6 -27.5902 -7.9690 -0.5251 -2.9624 -9.6690 51.1261
#
#
#
# Elastic Compliance Matrix: (Units=1/GPa)
#
#
# Indices 1 2 3 4 5 6 
#
# 1 0.013846 -0.001285 -0.000634 0.001692 0.006443 0.008582
# 2 -0.001285 0.011147 -0.002585 0.000554 0.004652 0.001930
# 3 -0.000634 -0.002585 0.012954 -0.004565 0.006952 0.000439
# 4 0.001692 0.000554 -0.004565 0.019655 0.000496 0.002185
# 5 0.006443 0.004652 0.006952 0.000496 0.041991 0.012244
# 6 0.008582 0.001930 0.000439 0.002185 0.012244 0.026938
#
#
# Mechanical properties :
#
#
# Convention : Reuss Voigt Hill
#
# Bulk Modulus (GPa) = 34.55317 52.38641 43.46979
# Shear Modulus (GPa) = 34.43909 44.32524 39.38216
#
# Velocity S-wave (km/s) = 3.81865 4.33221 4.08351
# Velocity P-wave (km/s) = 5.83722 6.87061 6.37489
#
# Compressibility (1/GPa) = 0.02894090
#
# Stress axis : x y z
#
# Youngs Moduli (GPa) = 72.22424 89.71041 77.19487
#
# Poissons Ratio (x) = 0.11527 0.04891
# Poissons Ratio (y) = 0.09280 0.19952
# Poissons Ratio (z) = 0.04576 0.23186
#
# Static dielectric constant tensor:
#      x y z
#    x 1.754350 0.046350 -0.085310 
#    y 0.046350 1.897220 0.022830 
#    z -0.085310 0.022830 1.866130 
# 
# From -- ./inp_files/183197.got.cif
#   From: 2010.05.17/outbox.cif.g08.bks.cpg/sg2_92_cif.got.tgz:183197.got - 2010.06.03 11:33:40.
