data_PCOD9068121
_publ_section_title
;
Structure prediction by ZEFSAII (Michael W. Deem and Ramdas Pophale) SiO2 
 PCOD9068121
Probable space group: P -1
;
_chemical_formula_sum "Si O2"
_cell_formula_units_Z 8
_cell_length_a 4.995818
_cell_length_b 12.331942
_cell_length_c 10.822249
_cell_angle_alpha 32.895017
_cell_angle_beta 121.277578
_cell_angle_gamma 116.985040
_cell_volume 309.250815
_symmetry_space_group_name_H-M "P -1"
_symmetry_group_IT_number 2
_symmetry_cell_setting 'triclinic'
loop_
_space_group_symop_operation_xyz
x,y,z
-x,-y,-z
loop_
_atom_site_type_symbol
_atom_site_label
_atom_site_fract_x
_atom_site_fract_y
_atom_site_fract_z
Si Si1 0.260662 0.813840 0.533892
Si Si2 0.023108 0.266818 0.201104
Si Si3 0.716143 0.696874 0.374487
Si Si4 0.538019 0.932979 0.882439
O O1 0.609149 0.759165 0.704512
O O2 0.707158 0.004179 0.729264
O O3 0.082531 0.842539 0.591698
O O4 0.048215 0.654379 0.557926
O O5 0.771678 0.199010 0.102762
O O6 0.000000 0.500000 0.000000
O O7 0.500000 0.500000 0.500000
O O8 0.561846 0.866085 0.262186
O O9 0.744967 0.802855 0.146962
#
# Coordination Sequence:
#
# PCOD9068121 Si02
#       4
#     2   2   2   2
#     4  12  25  50  75 107 150 192 243 307 363 433
#     4  12  27  48  77 113 145 192 247 304 367 434
#     4  11  26  50  75 109 151 195 246 298 365 438
#     4  11  26  47  77 110 148 195 242 304 365 434
#
# _framework density 25.868969
#
# number of rings (size 3 to 8) (size 9 to 14) (size 15 to 20)
#    0.000    0.500    2.500    4.500    3.500    1.000 
#    4.500    0.000    0.000    0.000    0.000    0.000 
#    0.000    0.000    0.000    0.000    0.000    0.000 
#
# Total GULP energy -44883.586229 kJ/mol
# GULP energy per Si atom -5610.448279 kJ/mol
# Density = 2.581009 g / cm^3
# Si number density = 25.868969 Si / 1000 Ang^3
#
#
#
# Elastic Constant Matrix: (Units=GPa)
#
#
# Indices 1 2 3 4 5 6 
#
# 1 127.4984 49.3548 19.3310 7.0461 -3.1078 4.0025
# 2 49.3548 237.4005 45.2050 1.9489 8.3127 35.5431
# 3 19.3310 45.2050 57.7543 7.2307 -13.3182 -11.1660
# 4 7.0461 1.9489 7.2307 53.7908 7.4752 -0.8596
# 5 -3.1078 8.3127 -13.3182 7.4752 27.8723 10.8835
# 6 4.0025 35.5431 -11.1660 -0.8596 10.8835 48.7151
#
#
#
# Elastic Compliance Matrix: (Units=1/GPa)
#
#
# Indices 1 2 3 4 5 6 
#
# 1 0.008746 -0.001576 -0.001320 -0.001075 0.001161 -0.000149
# 2 -0.001576 0.006802 -0.006882 0.001306 -0.003669 -0.005568
# 3 -0.001320 -0.006882 0.028583 -0.005175 0.013613 0.008549
# 4 -0.001075 0.001306 -0.005175 0.020577 -0.008591 0.000232
# 5 0.001161 -0.003669 0.013613 -0.008591 0.047924 -0.005157
# 6 -0.000149 -0.005568 0.008549 0.000232 -0.005157 0.027718
#
#
# Mechanical properties :
#
#
# Convention : Reuss Voigt Hill
#
# Bulk Modulus (GPa) = 40.69408 72.27054 56.48231
# Shear Modulus (GPa) = 29.74426 46.65981 38.20203
#
# Velocity S-wave (km/s) = 3.39456 4.25160 3.84702
# Velocity P-wave (km/s) = 5.57934 7.21799 6.45090
#
# Compressibility (1/GPa) = 0.02457360
#
# Stress axis : x y z
#
# Youngs Moduli (GPa) = 114.33810 147.01726 34.98524
#
# Poissons Ratio (x) = 0.23175 0.04618
# Poissons Ratio (y) = 0.18024 0.24078
# Poissons Ratio (z) = 0.15094 1.01184
#
# Static dielectric constant tensor:
#      x y z
#    x 2.035730 -0.022800 0.015850 
#    y -0.022800 2.077360 -0.062000 
#    z 0.015850 -0.062000 2.061850 
# 
# From -- ./inp_files/16699.got.cif
#   From: 2010.05.17/outbox.cif.g08.bks.cpg/sg2_9_cif.got.tgz:16699.got - 2010.06.03 11:33:40.
