data_PCOD9068707
_publ_section_title
;
Structure prediction by ZEFSAII (Michael W. Deem and Ramdas Pophale) SiO2 
 PCOD9068707
Probable space group: P -1
;
_chemical_formula_sum "Si O2"
_cell_formula_units_Z 14
_cell_length_a 12.003730
_cell_length_b 12.372321
_cell_length_c 14.142103
_cell_angle_alpha 119.706109
_cell_angle_beta 158.319009
_cell_angle_gamma 57.219028
_cell_volume 652.167864
_symmetry_space_group_name_H-M "P -1"
_symmetry_group_IT_number 2
_symmetry_cell_setting 'triclinic'
loop_
_space_group_symop_operation_xyz
x,y,z
-x,-y,-z
loop_
_atom_site_type_symbol
_atom_site_label
_atom_site_fract_x
_atom_site_fract_y
_atom_site_fract_z
Si Si1 0.655809 0.607212 0.708152
Si Si2 0.329659 0.485107 0.106548
Si Si3 0.675078 0.017612 0.052912
Si Si4 0.296651 0.340237 0.625152
Si Si5 0.621632 0.105162 0.396045
Si Si6 0.364409 0.951892 0.279831
Si Si7 0.576341 0.317067 0.046807
O O1 0.500000 0.500000 0.500000
O O2 0.637519 0.595011 0.803432
O O3 0.447755 0.745031 0.576526
O O4 0.992863 0.582123 0.909914
O O5 0.585902 0.564341 0.313903
O O6 0.369786 0.392633 0.004768
O O7 0.023806 0.964230 0.339217
O O8 0.619337 0.163197 0.031343
O O9 0.550762 0.924071 0.845250
O O10 0.500000 0.000000 0.000000
O O11 0.489359 0.198410 0.684861
O O12 0.925379 0.344479 0.333284
O O13 0.410547 0.355789 0.830467
O O14 0.470829 0.033105 0.320387
O O15 0.500000 0.000000 0.500000
O O16 0.000000 0.000000 0.000000
#
# Coordination Sequence:
#
# PCOD9068707 Si02
#       7
#     2   2   2   2   2   2   2
#     4  11  29  48  74 104 146 199 256 297 359 439
#     4  11  28  48  73 106 147 200 244 305 361 434
#     4  12  25  45  75 107 145 189 233 301 362 431
#     4  12  26  47  74 113 148 189 245 299 373 435
#     4  12  26  48  70 106 144 183 244 295 359 424
#     4  12  24  42  72 102 143 186 230 293 357 426
#     4  12  25  48  75 113 148 189 246 298 373 438
#
# _framework density 21.466866
#
# number of rings (size 3 to 8) (size 9 to 14) (size 15 to 20)
#    0.000    0.286    2.857    4.714   12.000    0.000 
#    0.000    0.000    0.000    0.000    0.000    0.000 
#    0.000    0.000    0.000    0.000    0.000    0.000 
#
# Total GULP energy -78102.514354 kJ/mol
# GULP energy per Si atom -5578.751025 kJ/mol
# Density = 2.141801 g / cm^3
# Si number density = 21.466866 Si / 1000 Ang^3
#
#
#
# Elastic Constant Matrix: (Units=GPa)
#
#
# Indices 1 2 3 4 5 6 
#
# 1 178.9387 23.3756 55.5287 9.5749 -1.7330 2.7232
# 2 23.3756 115.0210 5.9678 9.6436 10.5222 -0.3417
# 3 55.5287 5.9678 142.2656 1.3908 17.8704 -4.0823
# 4 9.5749 9.6436 1.3908 35.7949 -3.7545 2.6837
# 5 -1.7330 10.5222 17.8704 -3.7545 57.5507 7.9651
# 6 2.7232 -0.3417 -4.0823 2.6837 7.9651 43.1030
#
#
#
# Elastic Compliance Matrix: (Units=1/GPa)
#
#
# Indices 1 2 3 4 5 6 
#
# 1 0.006688 -0.001245 -0.002738 -0.001143 0.001324 -0.000865
# 2 -0.001245 0.009331 0.000408 -0.002476 -0.002134 0.000740
# 3 -0.002738 0.000408 0.008506 -0.000141 -0.003022 0.001549
# 4 -0.001143 -0.002476 -0.000141 0.029369 0.002695 -0.002287
# 5 0.001324 -0.002134 -0.003022 0.002695 0.019496 -0.004157
# 6 -0.000865 0.000740 0.001549 -0.002287 -0.004157 0.024318
#
#
# Mechanical properties :
#
#
# Convention : Reuss Voigt Hill
#
# Bulk Modulus (GPa) = 57.55479 67.32993 62.44236
# Shear Modulus (GPa) = 45.18736 50.71328 47.95032
#
# Velocity S-wave (km/s) = 4.59299 4.86572 4.73132
# Velocity P-wave (km/s) = 7.41597 7.93723 7.68102
#
# Compressibility (1/GPa) = 0.01737475
#
# Stress axis : x y z
#
# Youngs Moduli (GPa) = 149.52001 107.17044 117.56121
#
# Poissons Ratio (x) = 0.13343 0.32191
# Poissons Ratio (y) = 0.18615 -0.04797
# Poissons Ratio (z) = 0.40942 -0.04373
#
# Static dielectric constant tensor:
#      x y z
#    x 1.852070 -0.139750 0.035720 
#    y -0.139750 1.895020 -0.054150 
#    z 0.035720 -0.054150 1.752640 
# 
# From -- ./inp_files/66392.got.cif
#   From: 2010.05.17/outbox.cif.g08.bks.cpg/sg2_34_cif.got.tgz:66392.got - 2010.06.03 11:33:40.
