data_PCOD9068013
_publ_section_title
;
Structure prediction by ZEFSAII (Michael W. Deem and Ramdas Pophale) SiO2 
 PCOD9068013
Probable space group: P -1
;
_chemical_formula_sum "Si O2"
_cell_formula_units_Z 11
_cell_length_a 8.967185
_cell_length_b 12.673578
_cell_length_c 9.659074
_cell_angle_alpha 48.216979
_cell_angle_beta 147.780709
_cell_angle_gamma 132.908209
_cell_volume 417.047428
_symmetry_space_group_name_H-M "P -1"
_symmetry_group_IT_number 2
_symmetry_cell_setting 'triclinic'
loop_
_space_group_symop_operation_xyz
x,y,z
-x,-y,-z
loop_
_atom_site_type_symbol
_atom_site_label
_atom_site_fract_x
_atom_site_fract_y
_atom_site_fract_z
Si Si1 0.500000 0.500000 0.000000
Si Si2 0.258368 0.890874 0.118873
Si Si3 0.296025 0.499202 0.152166
Si Si4 0.181146 0.677691 0.488272
Si Si5 0.145529 0.918286 0.463606
Si Si6 0.339291 0.249804 0.587321
O O1 0.340317 0.527500 0.999780
O O2 0.512787 0.339359 0.208308
O O3 0.154070 0.746271 0.259546
O O4 0.433022 0.843102 0.172487
O O5 0.513211 0.006498 0.306891
O O6 0.012915 0.964487 0.818581
O O7 0.332819 0.341967 0.363467
O O8 0.545685 0.628330 0.310369
O O9 0.000000 0.500000 0.000000
O O10 0.000000 0.500000 0.500000
O O11 0.089333 0.783655 0.429920
O O12 0.977506 0.850984 0.530296
#
# Coordination Sequence:
#
# PCOD9068013 Si02
#       6
#     1   2   2   2   2   2
#     4  12  26  48  82 118 168 212 288 354 430 492
#     4  12  29  52  80 119 167 218 277 353 433 513
#     4  11  26  46  82 122 167 216 294 361 424 505
#     4  12  29  48  82 117 162 222 283 352 423 510
#     4  12  29  51  80 119 168 218 281 351 434 512
#     4  11  26  49  75 119 158 222 281 348 429 513
#
# _framework density 26.375897999999999
#
# number of rings (size 3 to 8) (size 9 to 14) (size 15 to 20)
#    0.000    0.364    1.818    4.364   17.818    0.000 
#    0.000    0.000    0.000    0.000    0.000    0.000 
#    0.000    0.000    0.000    0.000    0.000    0.000 
#
# Total GULP energy -61427.909867 kJ/mol
# GULP energy per Si atom -5584.355442 kJ/mol
# Density = 2.631586 g / cm^3
# Si number density = 26.375898 Si / 1000 Ang^3
#
#
#
# Elastic Constant Matrix: (Units=GPa)
#
#
# Indices 1 2 3 4 5 6 
#
# 1 135.9668 30.0656 36.8066 -4.7003 -25.6901 -8.1843
# 2 30.0656 128.4776 35.8933 -11.3484 -9.6272 15.6463
# 3 36.8066 35.8933 104.4738 -17.4434 -12.0723 0.6863
# 4 -4.7003 -11.3484 -17.4434 45.2834 -3.0235 17.6699
# 5 -25.6901 -9.6272 -12.0723 -3.0235 47.5947 -12.2492
# 6 -8.1843 15.6463 0.6863 17.6699 -12.2492 37.4610
#
#
#
# Elastic Compliance Matrix: (Units=1/GPa)
#
#
# Indices 1 2 3 4 5 6 
#
# 1 0.009871 -0.002143 -0.002546 -0.002508 0.005669 0.006135
# 2 -0.002143 0.009982 -0.002082 0.004099 -0.001186 -0.006920
# 3 -0.002546 -0.002082 0.012096 0.004620 0.001124 -0.001720
# 4 -0.002508 0.004099 0.004620 0.031451 -0.001940 -0.017814
# 5 0.005669 -0.001186 0.001124 -0.001940 0.026936 0.011436
# 6 0.006135 -0.006920 -0.001720 -0.017814 0.011436 0.043099
#
#
# Mechanical properties :
#
#
# Convention : Reuss Voigt Hill
#
# Bulk Modulus (GPa) = 54.32009 63.82770 59.07390
# Shear Modulus (GPa) = 32.65567 43.81134 38.23351
#
# Velocity S-wave (km/s) = 3.52246 4.08000 3.81144
# Velocity P-wave (km/s) = 6.09778 6.81521 6.46645
#
# Compressibility (1/GPa) = 0.01840939
#
# Stress axis : x y z
#
# Youngs Moduli (GPa) = 101.30374 100.17552 82.66919
#
# Poissons Ratio (x) = 0.21465 0.21044
# Poissons Ratio (y) = 0.21707 0.17212
# Poissons Ratio (z) = 0.25788 0.20857
#
# Static dielectric constant tensor:
#      x y z
#    x 2.058930 0.054440 0.083020 
#    y 0.054440 2.021200 0.028780 
#    z 0.083020 0.028780 2.078290 
# 
# From -- ./inp_files/25275.got.cif
#   From: 2010.05.17/outbox.cif.g08.bks.cpg/sg2_13_cif.got.tgz:25275.got - 2010.06.03 11:33:40.
