data_PCOD9068540
_publ_section_title
;
Structure prediction by ZEFSAII (Michael W. Deem and Ramdas Pophale) SiO2 
 PCOD9068540
Probable space group: P -1
;
_chemical_formula_sum "Si O2"
_cell_formula_units_Z 16
_cell_length_a 11.952586
_cell_length_b 8.405398
_cell_length_c 9.609460
_cell_angle_alpha 106.223251
_cell_angle_beta 88.206796
_cell_angle_gamma 128.565307
_cell_volume 711.560468
_symmetry_space_group_name_H-M "P -1"
_symmetry_group_IT_number 2
_symmetry_cell_setting 'triclinic'
loop_
_space_group_symop_operation_xyz
x,y,z
-x,-y,-z
loop_
_atom_site_type_symbol
_atom_site_label
_atom_site_fract_x
_atom_site_fract_y
_atom_site_fract_z
Si Si1 0.810557 0.019129 0.213312
Si Si2 0.847053 0.151034 0.767653
Si Si3 0.679695 0.805421 0.454520
Si Si4 0.138696 0.318262 0.932791
Si Si5 0.120254 0.468685 0.264324
Si Si6 0.592330 0.240106 0.491944
Si Si7 0.647002 0.414758 0.245936
Si Si8 0.613855 0.961254 0.959447
O O1 0.971232 0.249003 0.272211
O O2 0.734111 0.950331 0.349135
O O3 0.825344 0.841033 0.122696
O O4 0.712325 0.013619 0.099889
O O5 0.907457 0.367185 0.737016
O O6 0.971283 0.189514 0.866943
O O7 0.780204 0.957330 0.615174
O O8 0.718491 0.093607 0.857792
O O9 0.515670 0.706484 0.469399
O O10 0.691787 0.624428 0.374351
O O11 0.234998 0.504752 0.858707
O O12 0.162589 0.409674 0.107946
O O13 0.256096 0.595589 0.394148
O O14 0.624824 0.260215 0.331057
O O15 0.500000 0.000000 0.500000
O O16 0.492370 0.289947 0.143765
O O17 0.500000 0.000000 0.000000
#
# Coordination Sequence:
#
# PCOD9068540 Si02
#       8
#     2   2   2   2   2   2   2   2
#     4  11  29  45  72 109 142 190 236 301 351 421
#     4  12  26  47  73 102 145 191 236 296 352 431
#     4  11  27  46  69 107 145 187 243 288 355 428
#     4  11  27  47  73 107 144 186 247 288 356 429
#     4  12  26  45  72 104 145 190 233 298 359 413
#     4  12  26  46  70 107 144 186 239 290 352 425
#     4  11  27  45  74 102 142 196 227 299 358 415
#     4  12  27  46  74 105 144 184 242 297 356 424
#
# _framework density 22.485790000000001
#
# number of rings (size 3 to 8) (size 9 to 14) (size 15 to 20)
#    0.000    0.500    3.750    1.875   12.250    2.500 
#    0.000    0.000    0.000    0.000    0.000    0.000 
#    0.000    0.000    0.000    0.000    0.000    0.000 
#
# Total GULP energy -89643.350534 kJ/mol
# GULP energy per Si atom -5602.709408 kJ/mol
# Density = 2.243461 g / cm^3
# Si number density = 22.485790 Si / 1000 Ang^3
#
#
#
# Elastic Constant Matrix: (Units=GPa)
#
#
# Indices 1 2 3 4 5 6 
#
# 1 66.3421 20.3470 21.3877 10.7085 9.6276 13.0088
# 2 20.3470 116.4369 50.5956 -7.3092 6.0990 23.1008
# 3 21.3877 50.5956 116.9322 7.7073 14.6861 23.6765
# 4 10.7085 -7.3092 7.7073 39.1558 8.5800 -2.6406
# 5 9.6276 6.0990 14.6861 8.5800 36.0153 8.0795
# 6 13.0088 23.1008 23.6765 -2.6406 8.0795 30.9630
#
#
#
# Elastic Compliance Matrix: (Units=1/GPa)
#
#
# Indices 1 2 3 4 5 6 
#
# 1 0.018093 -0.001956 -0.000788 -0.005155 -0.001715 -0.005532
# 2 -0.001956 0.011803 -0.004056 0.003106 0.000503 -0.004750
# 3 -0.000788 -0.004056 0.012019 -0.002822 -0.002091 -0.005529
# 4 -0.005155 0.003106 -0.002822 0.029939 -0.006535 0.006265
# 5 -0.001715 0.000503 -0.002091 -0.006535 0.032118 -0.006994
# 6 -0.005532 -0.004750 -0.005529 0.006265 -0.006994 0.044752
#
#
# Mechanical properties :
#
#
# Convention : Reuss Voigt Hill
#
# Bulk Modulus (GPa) = 35.31417 53.81907 44.56662
# Shear Modulus (GPa) = 29.11024 35.05221 32.08123
#
# Velocity S-wave (km/s) = 3.60197 3.95252 3.78131
# Velocity P-wave (km/s) = 5.74788 6.69452 6.23918
#
# Compressibility (1/GPa) = 0.02831724
#
# Stress axis : x y z
#
# Youngs Moduli (GPa) = 55.27006 84.72153 83.20130
#
# Poissons Ratio (x) = 0.16568 0.06554
# Poissons Ratio (y) = 0.10808 0.33744
# Poissons Ratio (z) = 0.04354 0.34361
#
# Static dielectric constant tensor:
#      x y z
#    x 1.802690 -0.027990 -0.017230 
#    y -0.027990 1.865280 0.004320 
#    z -0.017230 0.004320 1.800970 
# 
# From -- ./inp_files/207814.got.cif
#   From: 2010.05.17/outbox.cif.g08.bks.cpg/sg2_104_cif.got.tgz:207814.got - 2010.06.03 11:33:40.
