data_PCOD9068714
_publ_section_title
;
Structure prediction by ZEFSAII (Michael W. Deem and Ramdas Pophale) SiO2 
 PCOD9068714
Probable space group: P -1
;
_chemical_formula_sum "Si O2"
_cell_formula_units_Z 11
_cell_length_a 8.726356
_cell_length_b 9.009459
_cell_length_c 8.408164
_cell_angle_alpha 130.752411
_cell_angle_beta 74.037590
_cell_angle_gamma 124.760646
_cell_volume 406.355042
_symmetry_space_group_name_H-M "P -1"
_symmetry_group_IT_number 2
_symmetry_cell_setting 'triclinic'
loop_
_space_group_symop_operation_xyz
x,y,z
-x,-y,-z
loop_
_atom_site_type_symbol
_atom_site_label
_atom_site_fract_x
_atom_site_fract_y
_atom_site_fract_z
Si Si1 0.000000 0.500000 0.500000
Si Si2 0.897596 0.959879 0.334143
Si Si3 0.470814 0.212507 0.121182
Si Si4 0.764445 0.598790 0.517954
Si Si5 0.505791 0.803530 0.263505
Si Si6 0.930557 0.577494 0.920233
O O1 0.767740 0.425784 0.520565
O O2 0.033733 0.599746 0.743598
O O3 0.675210 0.809788 0.312876
O O4 0.959780 0.823487 0.114886
O O5 0.000000 0.000000 0.500000
O O6 0.000120 0.223956 0.420776
O O7 0.662530 0.455680 0.288974
O O8 0.325721 0.257666 0.294244
O O9 0.417450 0.171866 0.922849
O O10 0.500000 0.000000 0.000000
O O11 0.292522 0.600727 0.154506
O O12 0.500000 0.000000 0.500000
O O13 0.000000 0.500000 0.000000
#
# Coordination Sequence:
#
# PCOD9068714 Si02
#       6
#     1   2   2   2   2   2
#     4  12  26  48  82 112 160 202 266 322 406 478
#     4  12  27  48  77 112 162 208 268 331 396 477
#     4  11  28  51  78 112 159 207 266 336 396 476
#     4  11  28  48  79 115 153 210 270 324 404 474
#     4  12  27  47  74 114 155 206 264 321 401 471
#     4  12  28  50  78 118 160 209 263 333 400 481
#
# _framework density 27.069922999999999
#
# number of rings (size 3 to 8) (size 9 to 14) (size 15 to 20)
#    0.000    0.364    0.000    7.091   12.727    2.909 
#    0.000    0.000    0.000    0.000    0.000    0.000 
#    0.000    0.000    0.000    0.000    0.000    0.000 
#
# Total GULP energy -61305.001831 kJ/mol
# GULP energy per Si atom -5573.181985 kJ/mol
# Density = 2.700831 g / cm^3
# Si number density = 27.069923 Si / 1000 Ang^3
#
#
#
# Elastic Constant Matrix: (Units=GPa)
#
#
# Indices 1 2 3 4 5 6 
#
# 1 191.2157 39.5497 83.6312 8.9657 8.7460 17.3294
# 2 39.5497 77.1088 50.5618 13.9662 13.7794 13.0893
# 3 83.6312 50.5618 254.7668 5.2472 -26.0491 -4.6802
# 4 8.9657 13.9662 5.2472 50.8158 0.9064 13.8096
# 5 8.7460 13.7794 -26.0491 0.9064 78.2449 8.0861
# 6 17.3294 13.0893 -4.6802 13.8096 8.0861 32.9083
#
#
#
# Elastic Compliance Matrix: (Units=1/GPa)
#
#
# Indices 1 2 3 4 5 6 
#
# 1 0.006756 -0.001460 -0.002081 0.000306 -0.000865 -0.003189
# 2 -0.001460 0.018003 -0.003492 -0.002975 -0.003645 -0.004744
# 3 -0.002081 -0.003492 0.005600 -0.000027 0.002434 0.002695
# 4 0.000306 -0.002975 -0.000027 0.022827 0.001130 -0.008838
# 5 -0.000865 -0.003645 0.002434 0.001130 0.014501 -0.001786
# 6 -0.003189 -0.004744 0.002695 -0.008838 -0.001786 0.038485
#
#
# Mechanical properties :
#
#
# Convention : Reuss Voigt Hill
#
# Bulk Modulus (GPa) = 61.37834 96.73075 79.05454
# Shear Modulus (GPa) = 39.78651 55.68372 47.73511
#
# Velocity S-wave (km/s) = 3.83791 4.54037 4.20384
# Velocity P-wave (km/s) = 6.50866 7.95600 7.26844
#
# Compressibility (1/GPa) = 0.01629239
#
# Stress axis : x y z
#
# Youngs Moduli (GPa) = 148.01132 55.54583 178.55782
#
# Poissons Ratio (x) = 0.08110 0.37165
# Poissons Ratio (y) = 0.21610 0.62357
# Poissons Ratio (z) = 0.30807 0.19398
#
# Static dielectric constant tensor:
#      x y z
#    x 2.108680 0.457190 0.069840 
#    y 0.457190 1.750140 -0.161820 
#    z 0.069840 -0.161820 1.971800 
# 
# From -- ./inp_files/155689.got.cif
#   From: 2010.05.17/outbox.cif.g08.bks.cpg/sg2_78_cif.got.tgz:155689.got - 2010.06.03 11:33:40.
