data_PCOD9068138
_publ_section_title
;
Structure prediction by ZEFSAII (Michael W. Deem and Ramdas Pophale) SiO2 
 PCOD9068138
Probable space group: P -1
;
_chemical_formula_sum "Si O2"
_cell_formula_units_Z 15
_cell_length_a 11.576682
_cell_length_b 6.252594
_cell_length_c 16.455996
_cell_angle_alpha 85.502153
_cell_angle_beta 148.116607
_cell_angle_gamma 98.973445
_cell_volume 618.118262
_symmetry_space_group_name_H-M "P -1"
_symmetry_group_IT_number 2
_symmetry_cell_setting 'triclinic'
loop_
_space_group_symop_operation_xyz
x,y,z
-x,-y,-z
loop_
_atom_site_type_symbol
_atom_site_label
_atom_site_fract_x
_atom_site_fract_y
_atom_site_fract_z
Si Si1 0.633136 0.618371 0.906665
Si Si2 0.410422 0.089413 0.576568
Si Si3 0.500000 0.500000 0.500000
Si Si4 0.282974 0.065769 0.908519
Si Si5 0.810271 0.840887 0.847095
Si Si6 0.783225 0.658671 0.406482
Si Si7 0.989451 0.282642 0.616386
Si Si8 0.011109 0.362819 0.199532
O O1 0.708226 0.667261 0.857748
O O2 0.383018 0.498339 0.748457
O O3 0.657434 0.836040 0.969074
O O4 0.802016 0.477479 0.050835
O O5 0.440535 0.266512 0.518348
O O6 0.362570 0.211559 0.627994
O O7 0.628084 0.982223 0.710042
O O8 0.213002 0.885782 0.463396
O O9 0.231665 0.525683 0.353766
O O10 0.193054 0.252189 0.797003
O O11 0.093107 0.850769 0.805180
O O12 0.500000 0.000000 0.000000
O O13 0.896762 0.725793 0.825958
O O14 0.000000 0.000000 0.000000
O O15 0.913175 0.514292 0.547234
O O16 0.950104 0.786121 0.436710
#
# Coordination Sequence:
#
# PCOD9068138 Si02
#       8
#     2   2   1   2   2   2   2   2
#     4  12  26  48  75 111 149 193 252 308 375 444
#     4  12  26  46  75 109 151 199 251 308 371 445
#     4  12  28  46  74 108 152 198 242 306 378 444
#     4  12  29  49  77 109 150 196 246 314 377 438
#     4  12  24  45  74 104 148 198 245 304 369 439
#     4  11  26  47  78 109 146 199 255 306 371 447
#     4  11  26  48  74 107 151 195 250 312 372 442
#     4  12  27  47  72 110 151 198 249 304 374 448
#
# _framework density 24.267202000000001
#
# number of rings (size 3 to 8) (size 9 to 14) (size 15 to 20)
#    0.000    0.267    4.000    4.000    3.733    4.800 
#    0.000    0.000    0.000    0.000    0.000    0.000 
#    0.000    0.000    0.000    0.000    0.000    0.000 
#
# Total GULP energy -83732.184545 kJ/mol
# GULP energy per Si atom -5582.145636 kJ/mol
# Density = 2.421197 g / cm^3
# Si number density = 24.267202 Si / 1000 Ang^3
#
#
#
# Elastic Constant Matrix: (Units=GPa)
#
#
# Indices 1 2 3 4 5 6 
#
# 1 137.7321 57.1629 29.0280 9.1240 8.6337 3.4190
# 2 57.1629 72.2005 32.8320 -4.3345 -2.8149 2.0377
# 3 29.0280 32.8320 114.1269 -17.9404 18.6123 -0.7535
# 4 9.1240 -4.3345 -17.9404 42.3361 6.0443 -3.2350
# 5 8.6337 -2.8149 18.6123 6.0443 33.7082 -4.8297
# 6 3.4190 2.0377 -0.7535 -3.2350 -4.8297 47.7641
#
#
#
# Elastic Compliance Matrix: (Units=1/GPa)
#
#
# Indices 1 2 3 4 5 6 
#
# 1 0.011651 -0.009402 -0.000245 -0.003195 -0.003201 -0.000977
# 2 -0.009402 0.024179 -0.005589 0.001110 0.007368 0.000373
# 3 -0.000245 -0.005589 0.012792 0.006125 -0.008564 0.000007
# 4 -0.003195 0.001110 0.006125 0.028173 -0.007315 0.001446
# 5 -0.003201 0.007368 -0.008564 -0.007315 0.037584 0.003085
# 6 -0.000977 0.000373 0.000007 0.001446 0.003085 0.021400
#
#
# Mechanical properties :
#
#
# Convention : Reuss Voigt Hill
#
# Bulk Modulus (GPa) = 55.09873 62.45616 58.77744
# Shear Modulus (GPa) = 29.01915 38.43080 33.72497
#
# Velocity S-wave (km/s) = 3.46181 3.98383 3.73196
# Velocity P-wave (km/s) = 6.22360 6.85229 6.54550
#
# Compressibility (1/GPa) = 0.01814924
#
# Stress axis : x y z
#
# Youngs Moduli (GPa) = 85.83216 41.35893 78.17403
#
# Poissons Ratio (x) = 0.38884 0.01919
# Poissons Ratio (y) = 0.80695 0.43692
# Poissons Ratio (z) = 0.02106 0.23116
#
# Static dielectric constant tensor:
#      x y z
#    x 1.802320 -0.065620 -0.037000 
#    y -0.065620 1.899000 0.008220 
#    z -0.037000 0.008220 2.035340 
# 
# From -- ./inp_files/466552.got.cif
#   From: 2010.05.17/outbox.cif.g08.bks.cpg/sg2_234_cif.got.tgz:466552.got - 2010.06.03 11:33:40.
