data_PCOD9068010
_publ_section_title
;
Structure prediction by ZEFSAII (Michael W. Deem and Ramdas Pophale) SiO2 
 PCOD9068010
Probable space group: P -1
;
_chemical_formula_sum "Si O2"
_cell_formula_units_Z 12
_cell_length_a 11.816220
_cell_length_b 5.054659
_cell_length_c 13.933015
_cell_angle_alpha 80.607561
_cell_angle_beta 148.302936
_cell_angle_gamma 104.837564
_cell_volume 420.212099
_symmetry_space_group_name_H-M "P -1"
_symmetry_group_IT_number 2
_symmetry_cell_setting 'triclinic'
loop_
_space_group_symop_operation_xyz
x,y,z
-x,-y,-z
loop_
_atom_site_type_symbol
_atom_site_label
_atom_site_fract_x
_atom_site_fract_y
_atom_site_fract_z
Si Si1 0.952374 0.206355 0.032986
Si Si2 0.234053 0.716711 0.534567
Si Si3 0.779328 0.060085 0.292755
Si Si4 0.368069 0.190816 0.453301
Si Si5 0.428131 0.596933 0.165884
Si Si6 0.740229 0.682705 0.123604
O O1 0.123132 0.189440 0.240021
O O2 0.712180 0.211877 0.896223
O O3 0.000000 0.500000 0.000000
O O4 0.000000 0.000000 0.000000
O O5 0.500000 0.500000 0.500000
O O6 0.417314 0.547847 0.647882
O O7 0.973753 0.598282 0.326545
O O8 0.309052 0.013219 0.520451
O O9 0.589400 0.808961 0.203897
O O10 0.772377 0.987549 0.177942
O O11 0.747027 0.285968 0.335135
O O12 0.000000 0.000000 0.500000
O O13 0.500000 0.000000 0.500000
O O14 0.277060 0.368821 0.000310
O O15 0.500000 0.500000 0.000000
#
# Coordination Sequence:
#
# PCOD9068010 Si02
#       6
#     2   2   2   2   2   2
#     4  12  30  53  81 117 160 213 279 343 413 492
#     4  11  26  46  81 119 169 218 274 341 418 488
#     4   9  22  45  74 117 166 212 265 335 407 498
#     4  12  30  53  81 117 161 216 278 344 414 491
#     4  11  26  46  81 117 168 214 275 340 416 493
#     4   9  22  47  76 123 168 219 271 338 410 503
#
# _framework density 28.557006000000001
#
# number of rings (size 3 to 8) (size 9 to 14) (size 15 to 20)
#    0.000    1.333    0.000    2.000   14.000    6.667 
#    0.000   10.000    0.000    0.000    0.000    0.000 
#    0.000    0.000    0.000    0.000    0.000    0.000 
#
# Total GULP energy -67029.250664 kJ/mol
# GULP energy per Si atom -5585.770889 kJ/mol
# Density = 2.849201 g / cm^3
# Si number density = 28.557006 Si / 1000 Ang^3
#
#
#
# Elastic Constant Matrix: (Units=GPa)
#
#
# Indices 1 2 3 4 5 6 
#
# 1 152.1003 54.4316 68.7456 -4.4833 13.0784 -8.1840
# 2 54.4316 165.0781 79.6086 -29.0859 18.2029 -26.0661
# 3 68.7456 79.6086 263.7665 -27.2863 3.9120 -7.7585
# 4 -4.4833 -29.0859 -27.2863 61.7284 4.8289 -0.6828
# 5 13.0784 18.2029 3.9120 4.8289 39.7061 -8.5716
# 6 -8.1840 -26.0661 -7.7585 -0.6828 -8.5716 38.4437
#
#
#
# Elastic Compliance Matrix: (Units=1/GPa)
#
#
# Indices 1 2 3 4 5 6 
#
# 1 0.008081 -0.001920 -0.001605 -0.000907 -0.001572 -0.000272
# 2 -0.001920 0.009280 -0.001725 0.003748 -0.002835 0.004970
# 3 -0.001605 -0.001725 0.004829 0.001153 0.000622 -0.000377
# 4 -0.000907 0.003748 0.001153 0.018695 -0.003338 0.002168
# 5 -0.001572 -0.002835 0.000622 -0.003338 0.028233 0.004104
# 6 -0.000272 0.004970 -0.000377 0.002168 0.004104 0.030201
#
#
# Mechanical properties :
#
#
# Convention : Reuss Voigt Hill
#
# Bulk Modulus (GPa) = 85.53825 109.61294 97.57560
# Shear Modulus (GPa) = 43.96925 53.18624 48.57775
#
# Velocity S-wave (km/s) = 3.92816 4.32030 4.12889
# Velocity P-wave (km/s) = 7.11284 7.95952 7.54806
#
# Compressibility (1/GPa) = 0.01169068
#
# Stress axis : x y z
#
# Youngs Moduli (GPa) = 123.74716 107.75649 207.08146
#
# Poissons Ratio (x) = 0.20689 0.33242
# Poissons Ratio (y) = 0.23759 0.35713
# Poissons Ratio (z) = 0.19864 0.18583
#
# Static dielectric constant tensor:
#      x y z
#    x 2.426520 -0.125610 -0.051350 
#    y -0.125610 2.406260 0.084860 
#    z -0.051350 0.084860 2.171830 
# 
# From -- ./inp_files/564492.got.cif
#   From: 2010.05.17/outbox.cif.g08.bks.cpg/sg2_283_cif.got.tgz:564492.got - 2010.06.03 11:33:40.
