data_PCOD9068020
_publ_section_title
;
Structure prediction by ZEFSAII (Michael W. Deem and Ramdas Pophale) SiO2 
 PCOD9068020
Probable space group: P -1
;
_chemical_formula_sum "Si O2"
_cell_formula_units_Z 16
_cell_length_a 14.642354
_cell_length_b 14.502979
_cell_length_c 12.394660
_cell_angle_alpha 59.650816
_cell_angle_beta 38.696374
_cell_angle_gamma 30.527180
_cell_volume 710.921936
_symmetry_space_group_name_H-M "P -1"
_symmetry_group_IT_number 2
_symmetry_cell_setting 'triclinic'
loop_
_space_group_symop_operation_xyz
x,y,z
-x,-y,-z
loop_
_atom_site_type_symbol
_atom_site_label
_atom_site_fract_x
_atom_site_fract_y
_atom_site_fract_z
Si Si1 0.500166 0.682187 0.731342
Si Si2 0.420061 0.022746 0.938556
Si Si3 0.751990 0.210834 0.868567
Si Si4 0.250515 0.519369 0.781543
Si Si5 0.707537 0.263018 0.331100
Si Si6 0.730908 0.767510 0.463473
Si Si7 0.072984 0.226170 0.518968
Si Si8 0.683800 0.624878 0.970063
O O1 0.304976 0.775755 0.754756
O O2 0.549522 0.775831 0.648428
O O3 0.817937 0.433888 0.556430
O O4 0.385710 0.706708 0.934205
O O5 0.620624 0.967179 0.708562
O O6 0.533501 0.828000 0.943521
O O7 0.500000 0.000000 0.000000
O O8 0.084917 0.257476 0.079010
O O9 0.950230 0.190313 0.689010
O O10 0.492552 0.360691 0.933036
O O11 0.976225 0.972515 0.780267
O O12 0.459789 0.371369 0.573247
O O13 0.325873 0.588503 0.721058
O O14 0.311372 0.395720 0.893423
O O15 0.892147 0.712968 0.451229
O O16 0.982452 0.587420 0.251202
O O17 0.500000 0.000000 0.500000
#
# Coordination Sequence:
#
# PCOD9068020 Si02
#       8
#     2   2   2   2   2   2   2   2
#     4  12  24  46  73 102 148 187 245 302 364 436
#     4  12  27  50  76 107 149 195 244 303 364 435
#     4  12  26  45  76 105 145 194 245 301 367 432
#     4  11  27  48  74 105 151 190 247 302 362 435
#     4  11  26  47  70 109 145 193 246 304 359 434
#     4  12  26  44  71 106 144 188 241 302 369 432
#     4  12  25  45  70 106 144 185 245 301 366 436
#     4  12  26  48  78 108 146 197 243 301 369 438
#
# _framework density 22.505989
#
# number of rings (size 3 to 8) (size 9 to 14) (size 15 to 20)
#    0.000    0.250    3.750    4.875    5.250    2.000 
#    0.000    0.000    0.000    0.000    0.000    0.000 
#    0.000    0.000    0.000    0.000    0.000    0.000 
#
# Total GULP energy -89569.930390 kJ/mol
# GULP energy per Si atom -5598.120649 kJ/mol
# Density = 2.245476 g / cm^3
# Si number density = 22.505989 Si / 1000 Ang^3
#
#
#
# Elastic Constant Matrix: (Units=GPa)
#
#
# Indices 1 2 3 4 5 6 
#
# 1 84.0131 17.6583 48.0120 -18.6077 -7.6617 -4.4449
# 2 17.6583 76.4325 32.2705 4.6650 -8.7518 -16.5048
# 3 48.0120 32.2705 142.9228 0.2619 -2.5014 -17.7290
# 4 -18.6077 4.6650 0.2619 41.3688 0.7200 -5.2813
# 5 -7.6617 -8.7518 -2.5014 0.7200 32.6615 -0.5279
# 6 -4.4449 -16.5048 -17.7290 -5.2813 -0.5279 37.1462
#
#
#
# Elastic Compliance Matrix: (Units=1/GPa)
#
#
# Indices 1 2 3 4 5 6 
#
# 1 0.017437 -0.001931 -0.005405 0.008022 0.002979 -0.000168
# 2 -0.001931 0.016276 -0.002248 -0.002030 0.003873 0.005694
# 3 -0.005405 -0.002248 0.009637 -0.001879 -0.001048 0.002672
# 4 0.008022 -0.002030 -0.001879 0.028421 0.000619 0.003210
# 5 0.002979 0.003873 -0.001048 0.000619 0.032294 0.002124
# 6 -0.000168 0.005694 0.002672 0.003210 0.002124 0.031192
#
#
# Mechanical properties :
#
#
# Convention : Reuss Voigt Hill
#
# Bulk Modulus (GPa) = 41.35596 55.47223 48.41409
# Shear Modulus (GPa) = 30.77177 35.93047 33.35112
#
# Velocity S-wave (km/s) = 3.70167 3.99994 3.85369
# Velocity P-wave (km/s) = 6.05684 6.78483 6.43114
#
# Compressibility (1/GPa) = 0.02418031
#
# Stress axis : x y z
#
# Youngs Moduli (GPa) = 57.34832 61.44094 103.77042
#
# Poissons Ratio (x) = 0.11866 0.56089
# Poissons Ratio (y) = 0.11076 0.23331
# Poissons Ratio (z) = 0.30997 0.13814
#
# Static dielectric constant tensor:
#      x y z
#    x 2.781320 -0.734580 -0.836790 
#    y -0.734580 2.493950 0.692050 
#    z -0.836790 0.692050 2.667030 
# 
# From -- ./inp_files/455620.got.cif
#   From: 2010.05.17/outbox.cif.g08.bks.cpg/sg2_228_cif.got.tgz:455620.got - 2010.06.03 11:33:40.
