data_PCOD9068130
_publ_section_title
;
Structure prediction by ZEFSAII (Michael W. Deem and Ramdas Pophale) SiO2 
 PCOD9068130
Probable space group: P -1
;
_chemical_formula_sum "Si O2"
_cell_formula_units_Z 13
_cell_length_a 11.915415
_cell_length_b 12.502178
_cell_length_c 8.109717
_cell_angle_alpha 88.954499
_cell_angle_beta 64.563359
_cell_angle_gamma 36.614973
_cell_volume 517.511509
_symmetry_space_group_name_H-M "P -1"
_symmetry_group_IT_number 2
_symmetry_cell_setting 'triclinic'
loop_
_space_group_symop_operation_xyz
x,y,z
-x,-y,-z
loop_
_atom_site_type_symbol
_atom_site_label
_atom_site_fract_x
_atom_site_fract_y
_atom_site_fract_z
Si Si1 0.018268 0.717090 0.650499
Si Si2 0.500000 0.000000 0.000000
Si Si3 0.695149 0.764770 0.172601
Si Si4 0.566325 0.325449 0.200260
Si Si5 0.254835 0.581514 0.853539
Si Si6 0.754357 0.137595 0.742942
Si Si7 0.307098 0.998477 0.708102
O O1 0.254047 0.552786 0.380154
O O2 0.161844 0.600588 0.740205
O O3 0.810251 0.782560 0.751708
O O4 0.856000 0.948304 0.749394
O O5 0.408710 0.175647 0.945417
O O6 0.504699 0.867588 0.435007
O O7 0.648435 0.932162 0.199876
O O8 0.000000 0.500000 0.000000
O O9 0.666316 0.354660 0.231920
O O10 0.650064 0.149268 0.232483
O O11 0.680298 0.256797 0.950185
O O12 0.506898 0.332255 0.773398
O O13 0.005667 0.760255 0.128348
O O14 0.000000 0.000000 0.500000
#
# Coordination Sequence:
#
# PCOD9068130 Si02
#       7
#     2   1   2   2   2   2   2
#     4  12  28  50  73 114 153 207 257 322 381 459
#     4  12  26  48  78 108 150 196 262 314 372 444
#     4  11  26  52  75 108 155 203 254 319 377 456
#     4  12  26  50  78 111 158 202 251 325 386 458
#     4  12  26  50  76 110 161 198 257 323 386 456
#     4  12  28  48  76 116 153 198 264 311 391 469
#     4  11  26  47  77 114 147 202 257 305 397 452
#
# _framework density 25.120213
#
# number of rings (size 3 to 8) (size 9 to 14) (size 15 to 20)
#    0.000    0.308    4.615    2.308    4.308    0.000 
#    0.000    3.077    0.000    0.000    0.000    0.000 
#    0.000    0.000    0.000    0.000    0.000    0.000 
#
# Total GULP energy -72526.104863 kJ/mol
# GULP energy per Si atom -5578.931143 kJ/mol
# Density = 2.506304 g / cm^3
# Si number density = 25.120213 Si / 1000 Ang^3
#
#
#
# Elastic Constant Matrix: (Units=GPa)
#
#
# Indices 1 2 3 4 5 6 
#
# 1 61.5527 10.1259 25.7432 10.3172 -29.1197 11.8094
# 2 10.1259 130.5452 12.8720 22.2634 -0.9949 -10.7292
# 3 25.7432 12.8720 199.2912 11.1631 -37.0510 -11.5143
# 4 10.3172 22.2634 11.1631 46.7194 -5.1551 -14.4814
# 5 -29.1197 -0.9949 -37.0510 -5.1551 38.7980 9.8637
# 6 11.8094 -10.7292 -11.5143 -14.4814 9.8637 47.1171
#
#
#
# Elastic Compliance Matrix: (Units=1/GPa)
#
#
# Indices 1 2 3 4 5 6 
#
# 1 0.036667 -0.002640 0.000769 -0.009455 0.031804 -0.019167
# 2 -0.002640 0.008595 -0.000514 -0.003055 -0.003225 0.002230
# 3 0.000769 -0.000514 0.006174 -0.000813 0.006454 -0.000402
# 4 -0.009455 -0.003055 -0.000813 0.027935 -0.007179 0.011564
# 5 0.031804 -0.003225 0.006454 -0.007179 0.060357 -0.021970
# 6 -0.019167 0.002230 -0.000402 0.011564 -0.021970 0.034591
#
#
# Mechanical properties :
#
#
# Convention : Reuss Voigt Hill
#
# Bulk Modulus (GPa) = 21.42880 54.31905 37.87393
# Shear Modulus (GPa) = 25.68785 49.37011 37.52898
#
# Velocity S-wave (km/s) = 3.20128 4.43804 3.86939
# Velocity P-wave (km/s) = 4.71309 6.92331 5.92222
#
# Compressibility (1/GPa) = 0.04666617
#
# Stress axis : x y z
#
# Youngs Moduli (GPa) = 27.27235 116.34279 161.97432
#
# Poissons Ratio (x) = 0.30720 -0.12457
# Poissons Ratio (y) = 0.07201 0.08320
# Poissons Ratio (z) = -0.02097 0.05976
#
# Static dielectric constant tensor:
#      x y z
#    x 3.683340 -0.731900 0.455250 
#    y -0.731900 2.335510 -0.205380 
#    z 0.455250 -0.205380 2.124730 
# 
# From -- ./inp_files/262483.got.cif
#   From: 2010.05.17/outbox.cif.g08.bks.cpg/sg2_132_cif.got.tgz:262483.got - 2010.06.03 11:33:40.
