data_PCOD9068271
_publ_section_title
;
Structure prediction by ZEFSAII (Michael W. Deem and Ramdas Pophale) SiO2 
 PCOD9068271
Probable space group: P -1
;
_chemical_formula_sum "Si O2"
_cell_formula_units_Z 16
_cell_length_a 16.848196
_cell_length_b 26.569179
_cell_length_c 26.853044
_cell_angle_alpha 10.580374
_cell_angle_beta 18.589448
_cell_angle_gamma 17.927934
_cell_volume 662.422370
_symmetry_space_group_name_H-M "P -1"
_symmetry_group_IT_number 2
_symmetry_cell_setting 'triclinic'
loop_
_space_group_symop_operation_xyz
x,y,z
-x,-y,-z
loop_
_atom_site_type_symbol
_atom_site_label
_atom_site_fract_x
_atom_site_fract_y
_atom_site_fract_z
Si Si1 0.363950 0.357007 0.125281
Si Si2 0.656438 0.699078 0.565305
Si Si3 0.335405 0.985710 0.936112
Si Si4 0.929263 0.621303 0.041804
Si Si5 0.879890 0.064063 0.563174
Si Si6 0.054861 0.276744 0.913220
Si Si7 0.267910 0.469260 0.427980
Si Si8 0.629716 0.299335 0.665529
O O1 0.128059 0.483878 0.101804
O O2 0.229584 0.502896 0.114844
O O3 0.469880 0.011498 0.391601
O O4 0.598479 0.468884 0.860072
O O5 0.617398 0.611351 0.616934
O O6 0.962064 0.674744 0.407293
O O7 0.105481 0.099033 0.004081
O O8 0.273130 0.178904 0.735558
O O9 0.591638 0.037382 0.756278
O O10 0.401166 0.652450 0.204596
O O11 0.627007 0.764999 0.099198
O O12 0.903110 0.366497 0.270847
O O13 0.016338 0.843043 0.741143
O O14 0.000000 0.000000 0.500000
O O15 0.233990 0.486085 0.599005
O O16 0.151124 0.021638 0.146620
O O17 0.500000 0.500000 0.500000
#
# Coordination Sequence:
#
# PCOD9068271 Si02
#       8
#     2   2   2   2   2   2   2   2
#     4  12  26  42  72 102 141 177 230 287 348 395
#     4  11  26  50  71 104 127 169 239 300 346 408
#     4  12  24  45  71 103 137 186 224 273 351 419
#     4  12  24  42  63  99 139 190 222 272 332 406
#     4  12  27  42  63 101 148 180 229 275 333 413
#     4  12  25  42  65 103 145 182 228 281 333 423
#     4  11  26  48  78  95 130 177 232 294 351 411
#     4  12  22  40  64  93 140 189 234 267 315 400
#
# _framework density 24.153773999999999
#
# number of rings (size 3 to 8) (size 9 to 14) (size 15 to 20)
#    0.000    0.250    3.750    5.250    7.000    2.000 
#    0.000    3.750    0.000    0.000    0.000    0.000 
#    0.000    0.000    0.000    0.000    0.000    0.000 
#
# Total GULP energy -89504.935358 kJ/mol
# GULP energy per Si atom -5594.058460 kJ/mol
# Density = 2.409880 g / cm^3
# Si number density = 24.153774 Si / 1000 Ang^3
#
#
#
# Elastic Constant Matrix: (Units=GPa)
#
#
# Indices 1 2 3 4 5 6 
#
# 1 37.8875 -14.4329 17.5074 11.0148 -6.2704 -6.5197
# 2 -14.4329 113.8579 -11.7858 -13.6632 17.6496 33.2208
# 3 17.5074 -11.7858 109.8099 2.0396 -19.6412 -12.3710
# 4 11.0148 -13.6632 2.0396 47.9905 -2.8567 -12.0637
# 5 -6.2704 17.6496 -19.6412 -2.8567 48.4725 18.7155
# 6 -6.5197 33.2208 -12.3710 -12.0637 18.7155 62.0573
#
#
#
# Elastic Compliance Matrix: (Units=1/GPa)
#
#
# Indices 1 2 3 4 5 6 
#
# 1 0.031431 0.002776 -0.004468 -0.006329 0.001120 -0.000643
# 2 0.002776 0.010943 -0.000148 0.001163 -0.001747 -0.004843
# 3 -0.004468 -0.000148 0.010499 0.000956 0.003460 0.000845
# 4 -0.006329 0.001163 0.000956 0.023466 -0.000917 0.003741
# 5 0.001120 -0.001747 0.003460 -0.000917 0.025075 -0.005998
# 6 -0.000643 -0.004843 0.000845 0.003741 -0.005998 0.021344
#
#
# Mechanical properties :
#
#
# Convention : Reuss Voigt Hill
#
# Bulk Modulus (GPa) = 20.32747 27.12588 23.72668
# Shear Modulus (GPa) = 35.00549 49.72185 42.36367
#
# Velocity S-wave (km/s) = 3.81107 4.54205 4.19252
# Velocity P-wave (km/s) = 5.27255 6.22590 5.76895
#
# Compressibility (1/GPa) = 0.04919450
#
# Stress axis : x y z
#
# Youngs Moduli (GPa) = 31.81612 91.38354 95.24294
#
# Poissons Ratio (x) = -0.25370 0.42552
# Poissons Ratio (y) = -0.08833 0.01407
# Poissons Ratio (z) = 0.14214 0.01350
#
# Static dielectric constant tensor:
#      x y z
#    x 1.923750 -0.049290 0.055590 
#    y -0.049290 1.934340 0.024840 
#    z 0.055590 0.024840 1.859990 
# 
# From -- ./inp_files/434051.got.cif
#   From: 2010.05.17/outbox.cif.g08.bks.cpg/sg2_218_cif.got.tgz:434051.got - 2010.06.03 11:33:40.
