data_PCOD9068809
_publ_section_title
;
Structure prediction by ZEFSAII (Michael W. Deem and Ramdas Pophale) SiO2 
 PCOD9068809
Probable space group: P -1
;
_chemical_formula_sum "Si O2"
_cell_formula_units_Z 16
_cell_length_a 11.967100
_cell_length_b 11.358243
_cell_length_c 14.738617
_cell_angle_alpha 30.411274
_cell_angle_beta 116.784118
_cell_angle_gamma 95.895457
_cell_volume 701.056653
_symmetry_space_group_name_H-M "P -1"
_symmetry_group_IT_number 2
_symmetry_cell_setting 'triclinic'
loop_
_space_group_symop_operation_xyz
x,y,z
-x,-y,-z
loop_
_atom_site_type_symbol
_atom_site_label
_atom_site_fract_x
_atom_site_fract_y
_atom_site_fract_z
Si Si1 0.103449 0.674725 0.707859
Si Si2 0.679683 0.238692 0.217858
Si Si3 0.699422 0.393265 0.412902
Si Si4 0.762129 0.598294 0.672656
Si Si5 0.907624 0.717835 0.907220
Si Si6 0.141795 0.668861 0.307989
Si Si7 0.004736 0.345565 0.505735
Si Si8 0.664895 0.303287 0.954746
O O1 0.247682 0.671990 0.738916
O O2 0.006680 0.664670 0.601250
O O3 0.158313 0.419443 0.968527
O O4 0.000000 0.000000 0.500000
O O5 0.726636 0.913950 0.463228
O O6 0.500000 0.500000 0.000000
O O7 0.698782 0.287655 0.085615
O O8 0.738869 0.348872 0.565154
O O9 0.506765 0.629378 0.166692
O O10 0.827546 0.444559 0.395933
O O11 0.771300 0.069697 0.613243
O O12 0.757256 0.540984 0.602570
O O13 0.657497 0.553826 0.729167
O O14 0.946749 0.339811 0.943965
O O15 0.000000 0.500000 0.000000
O O16 0.044816 0.568763 0.387542
O O17 0.000000 0.000000 0.000000
O O18 0.171602 0.015397 0.810966
#
# Coordination Sequence:
#
# PCOD9068809 Si02
#       8
#     2   2   2   2   2   2   2   2
#     4  12  20  40  69  95 137 194 231 288 367 428
#     4  12  27  45  68 108 152 195 245 301 365 446
#     4  12  28  44  74 110 137 200 250 291 374 440
#     4  12  25  47  74 102 151 195 236 313 365 422
#     4  12  23  41  68 103 139 186 243 296 363 435
#     4  12  23  50  77 106 144 192 252 303 365 438
#     4  12  23  48  73 104 151 187 242 313 361 432
#     4  12  26  48  70 110 152 188 249 300 372 434
#
# _framework density 22.822693000000001
#
# number of rings (size 3 to 8) (size 9 to 14) (size 15 to 20)
#    0.000    0.000    7.500    2.625    3.500    1.500 
#    2.250    0.000    0.000    0.000    0.000    0.000 
#    0.000    0.000    0.000    0.000    0.000    0.000 
#
# Total GULP energy -89238.305354 kJ/mol
# GULP energy per Si atom -5577.394085 kJ/mol
# Density = 2.277075 g / cm^3
# Si number density = 22.822693 Si / 1000 Ang^3
#
#
#
# Elastic Constant Matrix: (Units=GPa)
#
#
# Indices 1 2 3 4 5 6 
#
# 1 121.7173 18.6926 53.8996 -6.1142 -9.3811 16.1854
# 2 18.6926 90.9901 17.1122 14.2060 -0.8928 15.3198
# 3 53.8996 17.1122 87.8895 7.0184 -0.4473 19.9229
# 4 -6.1142 14.2060 7.0184 34.0438 7.9536 -1.4658
# 5 -9.3811 -0.8928 -0.4473 7.9536 49.2191 1.7971
# 6 16.1854 15.3198 19.9229 -1.4658 1.7971 34.7582
#
#
#
# Elastic Compliance Matrix: (Units=1/GPa)
#
#
# Indices 1 2 3 4 5 6 
#
# 1 0.012083 -0.001602 -0.007250 0.003931 0.001598 -0.000682
# 2 -0.001602 0.013216 0.000170 -0.006346 0.001162 -0.005504
# 3 -0.007250 0.000170 0.017835 -0.005335 -0.000094 -0.007142
# 4 0.003931 -0.006346 -0.005335 0.035323 -0.005334 0.005790
# 5 0.001598 0.001162 -0.000094 -0.005334 0.021597 -0.002544
# 6 -0.000682 -0.005504 -0.007142 0.005790 -0.002544 0.035983
#
#
# Mechanical properties :
#
#
# Convention : Reuss Voigt Hill
#
# Bulk Modulus (GPa) = 38.80311 53.33398 46.06854
# Shear Modulus (GPa) = 30.86550 37.66370 34.26460
#
# Velocity S-wave (km/s) = 3.68149 4.06676 3.87892
# Velocity P-wave (km/s) = 5.92538 6.74322 6.34748
#
# Compressibility (1/GPa) = 0.02577113
#
# Stress axis : x y z
#
# Youngs Moduli (GPa) = 82.75830 75.66379 56.06844
#
# Poissons Ratio (x) = 0.12122 0.40647
# Poissons Ratio (y) = 0.13259 -0.00951
# Poissons Ratio (z) = 0.59996 -0.01284
#
# Static dielectric constant tensor:
#      x y z
#    x 1.653840 -0.788790 -0.289850 
#    y -0.788790 0.445960 -0.542930 
#    z -0.289850 -0.542930 1.491300 
# 
# From -- ./inp_files/519513.got.cif
#   From: 2010.05.17/outbox.cif.g08.bks.cpg/sg2_260_cif.got.tgz:519513.got - 2010.06.03 11:33:40.
