data_PCOD9068515
_publ_section_title
;
Structure prediction by ZEFSAII (Michael W. Deem and Ramdas Pophale) SiO2 
 PCOD9068515
Probable space group: P -1
;
_chemical_formula_sum "Si O2"
_cell_formula_units_Z 8
_cell_length_a 8.825240
_cell_length_b 4.934812
_cell_length_c 8.982708
_cell_angle_alpha 98.359077
_cell_angle_beta 85.563223
_cell_angle_gamma 54.797660
_cell_volume 309.917972
_symmetry_space_group_name_H-M "P -1"
_symmetry_group_IT_number 2
_symmetry_cell_setting 'triclinic'
loop_
_space_group_symop_operation_xyz
x,y,z
-x,-y,-z
loop_
_atom_site_type_symbol
_atom_site_label
_atom_site_fract_x
_atom_site_fract_y
_atom_site_fract_z
Si Si1 0.481261 0.279240 0.172298
Si Si2 0.980506 0.240698 0.389454
Si Si3 0.174007 0.227527 0.073782
Si Si4 0.433104 0.279804 0.653843
O O1 0.287981 0.380074 0.123767
O O2 0.454522 0.562675 0.307691
O O3 0.555897 0.926871 0.221708
O O4 0.661598 0.139510 0.041055
O O5 0.775060 0.409654 0.349508
O O6 0.000000 0.500000 0.500000
O O7 0.103846 0.158907 0.224881
O O8 0.000000 0.000000 0.500000
O O9 0.000000 0.500000 0.000000
O O10 0.500000 0.000000 0.500000
#
# Coordination Sequence:
#
# PCOD9068515 Si02
#       4
#     2   2   2   2
#     4  11  27  50  82 120 157 215 272 331 403 483
#     4  12  28  50  80 120 161 213 269 331 402 480
#     4  11  26  53  84 120 164 213 269 337 404 486
#     4  12  26  51  77 117 166 212 267 337 403 481
#
# _framework density 25.813283999999999
#
# number of rings (size 3 to 8) (size 9 to 14) (size 15 to 20)
#    0.000    0.500    2.500    3.750    0.000   13.000 
#    0.000    0.000    0.000    0.000    0.000    0.000 
#    0.000    0.000    0.000    0.000    0.000    0.000 
#
# Total GULP energy -44825.025695 kJ/mol
# GULP energy per Si atom -5603.128212 kJ/mol
# Density = 2.575453 g / cm^3
# Si number density = 25.813284 Si / 1000 Ang^3
#
#
#
# Elastic Constant Matrix: (Units=GPa)
#
#
# Indices 1 2 3 4 5 6 
#
# 1 184.1033 105.1708 90.0067 -18.8843 25.0734 -9.8759
# 2 105.1708 151.4819 73.4924 -39.5537 1.9464 5.1842
# 3 90.0067 73.4924 153.7013 -20.0354 -11.4944 -7.5711
# 4 -18.8843 -39.5537 -20.0354 53.4195 6.5726 5.4694
# 5 25.0734 1.9464 -11.4944 6.5726 68.0539 -0.2798
# 6 -9.8759 5.1842 -7.5711 5.4694 -0.2798 68.6017
#
#
#
# Elastic Compliance Matrix: (Units=1/GPa)
#
#
# Indices 1 2 3 4 5 6 
#
# 1 0.011890 -0.006700 -0.004276 -0.001974 -0.004713 0.001884
# 2 -0.006700 0.014299 -0.001985 0.007649 0.000974 -0.002870
# 3 -0.004276 -0.001985 0.010293 0.000402 0.003335 0.000652
# 4 -0.001974 0.007649 0.000402 0.024339 -0.001785 -0.002766
# 5 -0.004713 0.000974 0.003335 -0.001785 0.017138 -0.000172
# 6 0.001884 -0.002870 0.000652 -0.002766 -0.000172 0.015357
#
#
# Mechanical properties :
#
#
# Convention : Reuss Voigt Hill
#
# Bulk Modulus (GPa) = 94.69856 114.06960 104.38408
# Shear Modulus (GPa) = 40.73038 52.72279 46.72658
#
# Velocity S-wave (km/s) = 3.97657 4.52427 4.25923
# Velocity P-wave (km/s) = 7.60590 8.46039 8.04450
#
# Compressibility (1/GPa) = 0.01055982
#
# Stress axis : x y z
#
# Youngs Moduli (GPa) = 84.10298 69.93474 97.14963
#
# Poissons Ratio (x) = 0.46856 0.41544
# Poissons Ratio (y) = 0.56349 0.19286
# Poissons Ratio (z) = 0.35965 0.13883
#
# Static dielectric constant tensor:
#      x y z
#    x 2.137680 -0.019090 -0.069930 
#    y -0.019090 2.051890 0.046700 
#    z -0.069930 0.046700 2.122700 
# 
# From -- ./inp_files/143653.got.cif
#   From: 2010.05.17/outbox.cif.g08.bks.cpg/sg2_72_cif.got.tgz:143653.got - 2010.06.03 11:33:40.
