data_PCOD9068489
_publ_section_title
;
Structure prediction by ZEFSAII (Michael W. Deem and Ramdas Pophale) SiO2 
 PCOD9068489
Probable space group: P -1
;
_chemical_formula_sum "Si O2"
_cell_formula_units_Z 12
_cell_length_a 6.884095
_cell_length_b 16.909267
_cell_length_c 5.012379
_cell_angle_alpha 80.227558
_cell_angle_beta 79.162253
_cell_angle_gamma 48.972131
_cell_volume 431.465033
_symmetry_space_group_name_H-M "P -1"
_symmetry_group_IT_number 2
_symmetry_cell_setting 'triclinic'
loop_
_space_group_symop_operation_xyz
x,y,z
-x,-y,-z
loop_
_atom_site_type_symbol
_atom_site_label
_atom_site_fract_x
_atom_site_fract_y
_atom_site_fract_z
Si Si1 0.126081 0.380235 0.468388
Si Si2 0.880002 0.754453 0.006037
Si Si3 0.641206 0.501492 0.214580
Si Si4 0.724453 0.879630 0.460570
Si Si5 0.105070 0.919440 0.262305
Si Si6 0.590364 0.281079 0.030586
O O1 0.239284 0.197371 0.282847
O O2 0.417366 0.309823 0.321687
O O3 0.000000 0.500000 0.500000
O O4 0.083189 0.331590 0.754231
O O5 0.976168 0.868475 0.398027
O O6 0.059965 0.596440 0.749143
O O7 0.684787 0.855612 0.192160
O O8 0.500000 0.500000 0.500000
O O9 0.500000 0.500000 0.000000
O O10 0.587357 0.609668 0.147968
O O11 0.500000 0.000000 0.500000
O O12 0.849910 0.263762 0.044356
O O13 0.000000 0.000000 0.500000
O O14 0.000000 0.000000 0.000000
O O15 0.355812 0.812163 0.106655
#
# Coordination Sequence:
#
# PCOD9068489 Si02
#       6
#     2   2   2   2   2   2
#     4  12  29  53  87 133 171 231 295 353 432 522
#     4  11  27  50  83 115 172 217 277 353 429 505
#     4  12  27  51  82 119 176 225 276 356 425 508
#     4  11  26  52  77 115 159 221 275 347 436 503
#     4  11  26  51  80 117 160 208 278 358 418 497
#     4  11  27  51  84 121 168 227 286 345 438 512
#
# _framework density 27.812221999999998
#
# number of rings (size 3 to 8) (size 9 to 14) (size 15 to 20)
#    0.000    0.667    1.667    4.000    4.667    6.667 
#    3.000    0.000    0.000    0.000    0.000    0.000 
#    0.000    0.000    0.000    0.000    0.000    0.000 
#
# Total GULP energy -67121.220379 kJ/mol
# GULP energy per Si atom -5593.435032 kJ/mol
# Density = 2.774892 g / cm^3
# Si number density = 27.812222 Si / 1000 Ang^3
#
#
#
# Elastic Constant Matrix: (Units=GPa)
#
#
# Indices 1 2 3 4 5 6 
#
# 1 117.2162 23.7272 66.1588 2.4024 -18.3434 12.3121
# 2 23.7272 181.7529 68.1893 -18.3227 -14.8980 -7.1153
# 3 66.1588 68.1893 270.8688 -1.9034 -11.1133 0.6862
# 4 2.4024 -18.3227 -1.9034 61.5591 -4.8739 -5.7596
# 5 -18.3434 -14.8980 -11.1133 -4.8739 45.4785 -5.7903
# 6 12.3121 -7.1153 0.6862 -5.7596 -5.7903 45.1173
#
#
#
# Elastic Compliance Matrix: (Units=1/GPa)
#
#
# Indices 1 2 3 4 5 6 
#
# 1 0.010755 -0.000407 -0.002390 -0.000606 0.003221 -0.002627
# 2 -0.000407 0.006568 -0.001457 0.002253 0.002092 0.001725
# 3 -0.002390 -0.001457 0.004628 -0.000193 -0.000294 0.000290
# 4 -0.000606 0.002253 -0.000193 0.017437 0.002710 0.003097
# 5 0.003221 0.002092 -0.000294 0.002710 0.024568 0.002954
# 6 -0.002627 0.001725 0.000290 0.003097 0.002954 0.023923
#
#
# Mechanical properties :
#
#
# Convention : Reuss Voigt Hill
#
# Bulk Modulus (GPa) = 74.38570 98.44317 86.41443
# Shear Modulus (GPa) = 49.57002 57.88183 53.72593
#
# Velocity S-wave (km/s) = 4.22632 4.56693 4.39992
# Velocity P-wave (km/s) = 7.11474 7.95497 7.54656
#
# Compressibility (1/GPa) = 0.01344344
#
# Stress axis : x y z
#
# Youngs Moduli (GPa) = 92.98078 152.25845 216.07355
#
# Poissons Ratio (x) = 0.06201 0.51636
# Poissons Ratio (y) = 0.03787 0.31473
# Poissons Ratio (z) = 0.22220 0.22178
#
# Static dielectric constant tensor:
#      x y z
#    x 2.820140 -0.659420 0.224430 
#    y -0.659420 4.139730 -0.131740 
#    z 0.224430 -0.131740 1.869470 
# 
# From -- ./inp_files/81783.got.cif
#   From: 2010.05.17/outbox.cif.g08.bks.cpg/sg2_41_cif.got.tgz:81783.got - 2010.06.03 11:33:40.
