data_PCOD9068922
_publ_section_title
;
Structure prediction by ZEFSAII (Michael W. Deem and Ramdas Pophale) SiO2 
 PCOD9068922
Probable space group: P -1
;
_chemical_formula_sum "Si O2"
_cell_formula_units_Z 14
_cell_length_a 12.334446
_cell_length_b 11.859506
_cell_length_c 8.557803
_cell_angle_alpha 107.083317
_cell_angle_beta 53.567672
_cell_angle_gamma 64.386444
_cell_volume 591.553039
_symmetry_space_group_name_H-M "P -1"
_symmetry_group_IT_number 2
_symmetry_cell_setting 'triclinic'
loop_
_space_group_symop_operation_xyz
x,y,z
-x,-y,-z
loop_
_atom_site_type_symbol
_atom_site_label
_atom_site_fract_x
_atom_site_fract_y
_atom_site_fract_z
Si Si1 0.785427 0.574705 0.661914
Si Si2 0.363875 0.654909 0.821445
Si Si3 0.246848 0.336927 0.786127
Si Si4 0.904922 0.978785 0.206070
Si Si5 0.553132 0.122470 0.147785
Si Si6 0.558890 0.602033 0.148160
Si Si7 0.861718 0.786742 0.949643
O O1 0.591342 0.790249 0.848316
O O2 0.690059 0.557300 0.869177
O O3 0.000000 0.500000 0.500000
O O4 0.885872 0.425085 0.376039
O O5 0.500000 0.500000 0.500000
O O6 0.397178 0.772170 0.843320
O O7 0.431245 0.541844 0.875949
O O8 0.105351 0.814792 0.081518
O O9 0.400788 0.193954 0.454066
O O10 0.324047 0.410306 0.811739
O O11 0.261507 0.240135 0.882959
O O12 0.000000 0.500000 0.000000
O O13 0.839511 0.905562 0.142123
O O14 0.692186 0.181774 0.549766
O O15 0.000000 0.000000 0.000000
O O16 0.770618 0.898724 0.908762
#
# Coordination Sequence:
#
# PCOD9068922 Si02
#       7
#     2   2   2   2   2   2   2
#     4  12  28  49  67 103 150 186 227 293 363 417
#     4  12  22  43  73 103 139 180 238 291 345 417
#     4  12  21  42  73 104 133 184 243 288 341 412
#     4  12  23  43  73 106 138 179 235 292 346 412
#     4  12  25  43  72 103 138 188 236 287 353 415
#     4  12  26  45  69 107 139 186 236 292 352 413
#     4  12  24  43  75 101 143 180 238 289 349 413
#
# _framework density 23.666519000000001
#
# number of rings (size 3 to 8) (size 9 to 14) (size 15 to 20)
#    0.000    0.000    8.571    2.143    0.000    2.286 
#    0.000    1.429    0.000    0.000    0.000    0.000 
#    0.000    0.000    0.000    0.000    0.000    0.000 
#
# Total GULP energy -78412.916747 kJ/mol
# GULP energy per Si atom -5600.922625 kJ/mol
# Density = 2.361265 g / cm^3
# Si number density = 23.666519 Si / 1000 Ang^3
#
#
#
# Elastic Constant Matrix: (Units=GPa)
#
#
# Indices 1 2 3 4 5 6 
#
# 1 67.9070 17.9047 5.2457 12.8335 -27.6945 2.3357
# 2 17.9047 156.2079 44.6180 -3.4023 -4.3486 -0.3023
# 3 5.2457 44.6180 111.2060 -0.9107 -21.7025 -3.6420
# 4 12.8335 -3.4023 -0.9107 52.0155 -13.8270 -2.8142
# 5 -27.6945 -4.3486 -21.7025 -13.8270 37.4230 4.2337
# 6 2.3357 -0.3023 -3.6420 -2.8142 4.2337 39.0994
#
#
#
# Elastic Compliance Matrix: (Units=1/GPa)
#
#
# Indices 1 2 3 4 5 6 
#
# 1 0.023406 -0.003273 0.003834 -0.001003 0.019157 -0.003213
# 2 -0.003273 0.007720 -0.003621 0.000325 -0.003541 0.000325
# 3 0.003834 -0.003621 0.012262 0.001732 0.010178 -0.000092
# 4 -0.001003 0.000325 0.001732 0.021763 0.008240 0.000898
# 5 0.019157 -0.003541 0.010178 0.008240 0.050005 -0.005045
# 6 -0.003213 0.000325 -0.000092 0.000898 -0.005045 0.026373
#
#
# Mechanical properties :
#
#
# Convention : Reuss Voigt Hill
#
# Bulk Modulus (GPa) = 26.83204 52.31753 39.57478
# Shear Modulus (GPa) = 31.23632 43.54441 37.39037
#
# Velocity S-wave (km/s) = 3.63692 4.29408 3.97909
# Velocity P-wave (km/s) = 5.38502 6.83664 6.15378
#
# Compressibility (1/GPa) = 0.03726888
#
# Stress axis : x y z
#
# Youngs Moduli (GPa) = 42.72455 129.52982 81.55457
#
# Poissons Ratio (x) = 0.42392 -0.31270
# Poissons Ratio (y) = 0.13983 0.29530
# Poissons Ratio (z) = -0.16382 0.46902
#
# Static dielectric constant tensor:
#      x y z
#    x 2.098810 -0.046240 -0.025330 
#    y -0.046240 1.911030 0.056660 
#    z -0.025330 0.056660 1.861920 
# 
# From -- ./inp_files/331125.got.cif
#   From: 2010.05.17/outbox.cif.g08.bks.cpg/sg2_166_cif.got.tgz:331125.got - 2010.06.03 11:33:40.
