data_PCOD9068722
_publ_section_title
;
Structure prediction by ZEFSAII (Michael W. Deem and Ramdas Pophale) SiO2 
 PCOD9068722
Probable space group: P -1
;
_chemical_formula_sum "Si O2"
_cell_formula_units_Z 15
_cell_length_a 14.777869
_cell_length_b 11.695973
_cell_length_c 5.873980
_cell_angle_alpha 112.257646
_cell_angle_beta 94.484761
_cell_angle_gamma 45.837533
_cell_volume 647.150248
_symmetry_space_group_name_H-M "P -1"
_symmetry_group_IT_number 2
_symmetry_cell_setting 'triclinic'
loop_
_space_group_symop_operation_xyz
x,y,z
-x,-y,-z
loop_
_atom_site_type_symbol
_atom_site_label
_atom_site_fract_x
_atom_site_fract_y
_atom_site_fract_z
Si Si1 0.787383 0.138357 0.587510
Si Si2 0.358891 0.187532 0.690587
Si Si3 0.039339 0.864221 0.712373
Si Si4 0.500000 0.500000 0.000000
Si Si5 0.533195 0.712633 0.882817
Si Si6 0.067300 0.422906 0.205638
Si Si7 0.271108 0.042594 0.852156
Si Si8 0.228122 0.463161 0.483000
O O1 0.862028 0.170629 0.480083
O O2 0.659568 0.312468 0.826246
O O3 0.741601 0.075346 0.361533
O O4 0.902248 0.968351 0.640250
O O5 0.266391 0.328373 0.581012
O O6 0.500000 0.000000 0.500000
O O7 0.295854 0.130172 0.749368
O O8 0.394806 0.271009 0.910832
O O9 0.121236 0.669936 0.682912
O O10 0.000000 0.000000 0.000000
O O11 0.502729 0.610998 0.904351
O O12 0.398383 0.911032 0.936162
O O13 0.634390 0.607456 0.612603
O O14 0.166685 0.441943 0.252568
O O15 0.000000 0.500000 0.500000
O O16 0.000000 0.500000 0.000000
O O17 0.140046 0.219050 0.078214
#
# Coordination Sequence:
#
# PCOD9068722 Si02
#       8
#     2   2   2   1   2   2   2   2
#     4  11  28  50  77 114 158 205 273 338 404 494
#     4  12  24  45  75 115 155 201 260 330 413 491
#     4  11  28  51  79 108 156 212 268 330 417 487
#     4  12  28  50  80 112 156 208 282 336 402 488
#     4  12  27  46  77 112 152 205 260 339 413 481
#     4  12  28  49  79 119 163 217 280 336 418 511
#     4  12  26  50  77 115 158 203 269 337 417 496
#     4  12  26  48  80 110 158 208 265 339 417 489
#
# _framework density 23.178542
#
# number of rings (size 3 to 8) (size 9 to 14) (size 15 to 20)
#    0.000    0.267    4.000    3.600    5.600    1.600 
#    0.000    0.000    0.000    0.000    0.000    0.000 
#    0.000    0.000    0.000    0.000    0.000    0.000 
#
# Total GULP energy -83660.491251 kJ/mol
# GULP energy per Si atom -5577.366083 kJ/mol
# Density = 2.312579 g / cm^3
# Si number density = 23.178542 Si / 1000 Ang^3
#
#
#
# Elastic Constant Matrix: (Units=GPa)
#
#
# Indices 1 2 3 4 5 6 
#
# 1 84.4951 46.3099 18.4214 -21.2912 -22.5760 0.2399
# 2 46.3099 201.6245 48.2088 3.0633 -14.7541 -5.9477
# 3 18.4214 48.2088 60.7217 -6.7912 -8.7401 -17.3748
# 4 -21.2912 3.0633 -6.7912 33.9884 -7.2793 1.2615
# 5 -22.5760 -14.7541 -8.7401 -7.2793 43.5433 -9.7387
# 6 0.2399 -5.9477 -17.3748 1.2615 -9.7387 43.1155
#
#
#
# Elastic Compliance Matrix: (Units=1/GPa)
#
#
# Indices 1 2 3 4 5 6 
#
# 1 0.022042 -0.004640 0.001605 0.017375 0.013631 0.002455
# 2 -0.004640 0.007257 -0.005740 -0.005145 -0.002331 -0.001662
# 3 0.001605 -0.005740 0.025740 0.007938 0.007867 0.011117
# 4 0.017375 -0.005145 0.007938 0.045952 0.017667 0.005038
# 5 0.013631 -0.002331 0.007867 0.017667 0.036104 0.010411
# 6 0.002455 -0.001662 0.011117 0.005038 0.010411 0.029635
#
#
# Mechanical properties :
#
#
# Convention : Reuss Voigt Hill
#
# Bulk Modulus (GPa) = 26.67594 63.63570 45.15582
# Shear Modulus (GPa) = 25.40961 39.72286 32.56623
#
# Velocity S-wave (km/s) = 3.31457 4.14427 3.75242
# Velocity P-wave (km/s) = 5.11687 7.10029 6.18856
#
# Compressibility (1/GPa) = 0.03748697
#
# Stress axis : x y z
#
# Youngs Moduli (GPa) = 45.36873 137.80640 38.85005
#
# Poissons Ratio (x) = 0.63948 -0.06235
# Poissons Ratio (y) = 0.21053 0.22300
# Poissons Ratio (z) = -0.07281 0.79102
#
# Static dielectric constant tensor:
#      x y z
#    x 1.987140 0.005300 -0.013550 
#    y 0.005300 2.096380 0.070520 
#    z -0.013550 0.070520 2.009580 
# 
# From -- ./inp_files/94118.got.cif
#   From: 2010.05.17/outbox.cif.g08.bks.cpg/sg2_48_cif.got.tgz:94118.got - 2010.06.03 11:33:40.
