data_PCOD9068416
_publ_section_title
;
Structure prediction by ZEFSAII (Michael W. Deem and Ramdas Pophale) SiO2 
 PCOD9068416
Probable space group: P -1
;
_chemical_formula_sum "Si O2"
_cell_formula_units_Z 15
_cell_length_a 9.222059
_cell_length_b 13.046260
_cell_length_c 9.895378
_cell_angle_alpha 78.337014
_cell_angle_beta 46.700346
_cell_angle_gamma 110.117585
_cell_volume 624.466641
_symmetry_space_group_name_H-M "P -1"
_symmetry_group_IT_number 2
_symmetry_cell_setting 'triclinic'
loop_
_space_group_symop_operation_xyz
x,y,z
-x,-y,-z
loop_
_atom_site_type_symbol
_atom_site_label
_atom_site_fract_x
_atom_site_fract_y
_atom_site_fract_z
Si Si1 0.074492 0.762777 0.357972
Si Si2 0.813310 0.204043 0.431927
Si Si3 0.763465 0.014664 0.009107
Si Si4 0.101590 0.180938 0.013602
Si Si5 0.219600 0.612155 0.217973
Si Si6 0.511453 0.496227 0.298894
Si Si7 0.155309 0.549541 0.748226
Si Si8 0.500000 0.500000 0.000000
O O1 0.983857 0.723788 0.585200
O O2 0.830204 0.095811 0.804608
O O3 0.299383 0.754989 0.182485
O O4 0.805454 0.633892 0.484602
O O5 0.538883 0.071771 0.718443
O O6 0.758313 0.302599 0.390078
O O7 0.915339 0.166946 0.255061
O O8 0.828087 0.914876 0.980471
O O9 0.950220 0.127433 0.980431
O O10 0.369112 0.346830 0.791106
O O11 0.000000 0.500000 0.500000
O O12 0.055241 0.564742 0.197603
O O13 0.435644 0.597990 0.070325
O O14 0.619734 0.454694 0.352555
O O15 0.614803 0.507833 0.077560
O O16 0.000000 0.500000 0.000000
#
# Coordination Sequence:
#
# PCOD9068416 Si02
#       8
#     2   2   2   2   2   2   2   1
#     4  12  28  50  76 117 154 198 259 307 393 445
#     4  12  26  53  76 108 157 202 250 320 375 461
#     4  11  29  50  75 110 151 210 253 307 371 469
#     4  11  26  50  76 109 154 196 260 312 381 440
#     4  12  24  46  70 111 155 191 246 322 371 448
#     4  12  25  45  81 112 150 199 247 324 377 452
#     4  12  24  44  75 115 150 194 259 308 388 446
#     4  12  24  46  70 116 152 194 238 320 392 428
#
# _framework density 24.020498
#
# number of rings (size 3 to 8) (size 9 to 14) (size 15 to 20)
#    0.000    0.267    5.333    2.400    7.467    1.600 
#    2.400    0.000    0.000    0.000    0.000    0.000 
#    0.000    0.000    0.000    0.000    0.000    0.000 
#
# Total GULP energy -83756.877357 kJ/mol
# GULP energy per Si atom -5583.791824 kJ/mol
# Density = 2.396583 g / cm^3
# Si number density = 24.020498 Si / 1000 Ang^3
#
#
#
# Elastic Constant Matrix: (Units=GPa)
#
#
# Indices 1 2 3 4 5 6 
#
# 1 175.3626 58.6188 44.7927 16.9087 24.5872 -7.0417
# 2 58.6188 134.2668 56.3339 19.5043 8.9716 -14.2238
# 3 44.7927 56.3339 109.4993 18.9086 31.5679 -23.2263
# 4 16.9087 19.5043 18.9086 51.6094 0.3208 -1.0835
# 5 24.5872 8.9716 31.5679 0.3208 51.1288 0.8422
# 6 -7.0417 -14.2238 -23.2263 -1.0835 0.8422 45.4191
#
#
#
# Elastic Compliance Matrix: (Units=1/GPa)
#
#
# Indices 1 2 3 4 5 6 
#
# 1 0.007192 -0.002503 -0.000724 -0.001130 -0.002565 -0.000018
# 2 -0.002503 0.010646 -0.004767 -0.001462 0.002281 0.000431
# 3 -0.000724 -0.004767 0.016693 -0.003873 -0.009213 0.007010
# 4 -0.001130 -0.001462 -0.003873 0.021653 0.003091 -0.002154
# 5 -0.002565 0.002281 -0.009213 0.003091 0.026140 -0.004806
# 6 -0.000018 0.000431 0.007010 -0.002154 -0.004806 0.025772
#
#
# Mechanical properties :
#
#
# Convention : Reuss Voigt Hill
#
# Bulk Modulus (GPa) = 53.92567 82.06885 67.99726
# Shear Modulus (GPa) = 38.38383 46.92368 42.65376
#
# Velocity S-wave (km/s) = 4.00179 4.42462 4.21850
# Velocity P-wave (km/s) = 6.62201 7.76810 7.21784
#
# Compressibility (1/GPa) = 0.01854405
#
# Stress axis : x y z
#
# Youngs Moduli (GPa) = 139.04917 93.93042 59.90684
#
# Poissons Ratio (x) = 0.23507 0.04335
# Poissons Ratio (y) = 0.34798 0.28557
# Poissons Ratio (z) = 0.10063 0.44776
#
# Static dielectric constant tensor:
#      x y z
#    x 1.974130 -0.002900 -0.006390 
#    y -0.002900 1.916540 0.047630 
#    z -0.006390 0.047630 1.805570 
# 
# From -- ./inp_files/201314.got.cif
#   From: 2010.05.17/outbox.cif.g08.bks.cpg/sg2_101_cif.got.tgz:201314.got - 2010.06.03 11:33:40.
