data_PCOD9068519
_publ_section_title
;
Structure prediction by ZEFSAII (Michael W. Deem and Ramdas Pophale) SiO2 
 PCOD9068519
Probable space group: P -1
;
_chemical_formula_sum "Si O2"
_cell_formula_units_Z 12
_cell_length_a 6.658576
_cell_length_b 15.933790
_cell_length_c 8.288954
_cell_angle_alpha 32.352507
_cell_angle_beta 100.137063
_cell_angle_gamma 108.501422
_cell_volume 438.876495
_symmetry_space_group_name_H-M "P -1"
_symmetry_group_IT_number 2
_symmetry_cell_setting 'triclinic'
loop_
_space_group_symop_operation_xyz
x,y,z
-x,-y,-z
loop_
_atom_site_type_symbol
_atom_site_label
_atom_site_fract_x
_atom_site_fract_y
_atom_site_fract_z
Si Si1 0.569488 0.839605 0.724814
Si Si2 0.636022 0.234660 0.793562
Si Si3 0.080653 0.287360 0.922657
Si Si4 0.673997 0.117504 0.645811
Si Si5 0.084901 0.354803 0.184706
Si Si6 0.654149 0.549370 0.620895
O O1 0.527579 0.836791 0.532704
O O2 0.500000 0.000000 0.500000
O O3 0.581261 0.921354 0.966418
O O4 0.801617 0.849681 0.807547
O O5 0.723910 0.206689 0.678004
O O6 0.575927 0.348983 0.943687
O O7 0.549023 0.388429 0.542412
O O8 0.825830 0.232300 0.945511
O O9 0.175354 0.377576 0.618652
O O10 0.125056 0.372551 0.969724
O O11 0.886901 0.187434 0.456477
O O12 0.266053 0.374635 0.314316
O O13 0.000000 0.500000 0.000000
#
# Coordination Sequence:
#
# PCOD9068519 Si02
#       6
#     2   2   2   2   2   2
#     4  12  29  55  83 124 169 222 288 349 417 503
#     4  11  28  55  87 128 171 222 280 351 425 502
#     4  12  30  54  91 123 168 228 277 349 426 502
#     4  11  26  54  81 123 177 216 280 346 416 508
#     4  12  28  52  88 124 170 225 280 342 428 507
#     4  12  28  57  86 122 174 218 284 350 422 507
#
# _framework density 27.342545000000001
#
# number of rings (size 3 to 8) (size 9 to 14) (size 15 to 20)
#    0.000    0.333    3.333    2.500    7.000    5.333 
#   12.000    0.000    0.000    0.000    0.000    0.000 
#    0.000    0.000    0.000    0.000    0.000    0.000 
#
# Total GULP energy -67148.882074 kJ/mol
# GULP energy per Si atom -5595.740173 kJ/mol
# Density = 2.728031 g / cm^3
# Si number density = 27.342545 Si / 1000 Ang^3
#
#
#
# Elastic Constant Matrix: (Units=GPa)
#
#
# Indices 1 2 3 4 5 6 
#
# 1 127.5399 84.6876 65.7763 -15.1535 9.2164 -0.4917
# 2 84.6876 206.1438 81.0136 20.5464 10.9808 -2.2984
# 3 65.7763 81.0136 151.4684 -13.3536 -3.4338 -10.0388
# 4 -15.1535 20.5464 -13.3536 68.6032 3.4700 4.5549
# 5 9.2164 10.9808 -3.4338 3.4700 70.7584 12.3492
# 6 -0.4917 -2.2984 -10.0388 4.5549 12.3492 60.1013
#
#
#
# Elastic Compliance Matrix: (Units=1/GPa)
#
#
# Indices 1 2 3 4 5 6 
#
# 1 0.012813 -0.004416 -0.002944 0.003680 -0.001204 -0.000587
# 2 -0.004416 0.008208 -0.002821 -0.003965 -0.000684 0.000248
# 3 -0.002944 -0.002821 0.009659 0.001949 0.000997 0.001129
# 4 0.003680 -0.003965 0.001949 0.017044 -0.000431 -0.000999
# 5 -0.001204 -0.000684 0.000997 -0.000431 0.014974 -0.002913
# 6 -0.000587 0.000248 0.001129 -0.000999 -0.002913 0.017506
#
#
# Mechanical properties :
#
#
# Convention : Reuss Voigt Hill
#
# Bulk Modulus (GPa) = 96.92178 105.34524 101.13351
# Shear Modulus (GPa) = 48.07389 56.80420 52.43905
#
# Velocity S-wave (km/s) = 4.19765 4.56291 4.38408
# Velocity P-wave (km/s) = 7.68231 8.14689 7.91801
#
# Compressibility (1/GPa) = 0.01031760
#
# Stress axis : x y z
#
# Youngs Moduli (GPa) = 78.04348 121.82835 103.53319
#
# Poissons Ratio (x) = 0.53800 0.30482
# Poissons Ratio (y) = 0.34465 0.29208
# Poissons Ratio (z) = 0.22977 0.34370
#
# Static dielectric constant tensor:
#      x y z
#    x 2.129710 0.000850 -0.030280 
#    y 0.000850 2.230080 0.058490 
#    z -0.030280 0.058490 2.183660 
# 
# From -- ./inp_files/26469.got.cif
#   From: 2010.05.17/outbox.cif.g08.bks.cpg/sg2_14_cif.got.tgz:26469.got - 2010.06.03 11:33:40.
