data_PCOD9068156
_publ_section_title
;
Structure prediction by ZEFSAII (Michael W. Deem and Ramdas Pophale) SiO2 
 PCOD9068156
Probable space group: P -1
;
_chemical_formula_sum "Si O2"
_cell_formula_units_Z 14
_cell_length_a 17.262073
_cell_length_b 10.978794
_cell_length_c 8.242566
_cell_angle_alpha 80.912994
_cell_angle_beta 53.878336
_cell_angle_gamma 39.163762
_cell_volume 645.508009
_symmetry_space_group_name_H-M "P -1"
_symmetry_group_IT_number 2
_symmetry_cell_setting 'triclinic'
loop_
_space_group_symop_operation_xyz
x,y,z
-x,-y,-z
loop_
_atom_site_type_symbol
_atom_site_label
_atom_site_fract_x
_atom_site_fract_y
_atom_site_fract_z
Si Si1 0.409997 0.503064 0.487166
Si Si2 0.985636 0.016462 0.212556
Si Si3 0.451544 0.689000 0.972315
Si Si4 0.789640 0.770414 0.167053
Si Si5 0.913341 0.841124 0.748096
Si Si6 0.226449 0.533689 0.194264
Si Si7 0.574833 0.768140 0.301850
O O1 0.500000 0.500000 0.500000
O O2 0.236348 0.750840 0.553232
O O3 0.359169 0.431883 0.653216
O O4 0.556115 0.305110 0.213349
O O5 0.035478 0.092274 0.222758
O O6 0.108764 0.774468 0.199113
O O7 0.000000 0.000000 0.000000
O O8 0.249494 0.948545 0.221612
O O9 0.500000 0.500000 0.000000
O O10 0.616951 0.587136 0.854965
O O11 0.678797 0.771579 0.245762
O O12 0.646898 0.978824 0.438845
O O13 0.830797 0.824866 0.965133
O O14 0.000000 0.500000 0.000000
O O15 0.087409 0.615512 0.468255
O O16 0.344940 0.330762 0.957145
#
# Coordination Sequence:
#
# PCOD9068156 Si02
#       7
#     2   2   2   2   2   2   2
#     4  12  23  41  72 104 143 186 234 288 358 431
#     4  12  23  41  69 107 151 186 234 288 355 440
#     4  12  23  42  68 103 151 185 228 285 370 429
#     4  11  27  48  77  97 135 192 251 300 350 424
#     4  12  25  46  72 106 145 192 233 298 363 420
#     4  12  26  43  70 109 149 185 231 303 364 429
#     4  11  26  48  69 104 136 184 247 293 354 425
#
# _framework density 21.688344000000001
#
# number of rings (size 3 to 8) (size 9 to 14) (size 15 to 20)
#    0.000    0.286    5.714    3.857    0.000    1.714 
#    0.000    1.429    0.000    0.000    0.000    0.000 
#    0.000    0.000    0.000    0.000    0.000    0.000 
#
# Total GULP energy -78089.288599 kJ/mol
# GULP energy per Si atom -5577.806328 kJ/mol
# Density = 2.163898 g / cm^3
# Si number density = 21.688344 Si / 1000 Ang^3
#
#
#
# Elastic Constant Matrix: (Units=GPa)
#
#
# Indices 1 2 3 4 5 6 
#
# 1 88.6667 40.8613 60.6800 -0.1298 -6.0097 -1.6343
# 2 40.8613 93.6379 46.9581 15.6485 -10.4571 -3.0711
# 3 60.6800 46.9581 186.9921 19.7392 1.4101 0.3570
# 4 -0.1298 15.6485 19.7392 40.8845 -4.3743 -10.6880
# 5 -6.0097 -10.4571 1.4101 -4.3743 42.4089 5.8415
# 6 -1.6343 -3.0711 0.3570 -10.6880 5.8415 28.1234
#
#
#
# Elastic Compliance Matrix: (Units=1/GPa)
#
#
# Indices 1 2 3 4 5 6 
#
# 1 0.017364 -0.005857 -0.004738 0.005298 0.001425 0.002147
# 2 -0.005857 0.015016 -0.001343 -0.005151 0.002547 -0.001170
# 3 -0.004738 -0.001343 0.007635 -0.003772 -0.001417 -0.001658
# 4 0.005298 -0.005151 -0.003772 0.031401 0.001266 0.011464
# 5 0.001425 0.002547 -0.001417 0.001266 0.025190 -0.004372
# 6 0.002147 -0.001170 -0.001658 0.011464 -0.004372 0.040841
#
#
# Mechanical properties :
#
#
# Convention : Reuss Voigt Hill
#
# Bulk Modulus (GPa) = 61.96745 74.03285 68.00015
# Shear Modulus (GPa) = 29.99380 37.00319 33.49849
#
# Velocity S-wave (km/s) = 3.72283 4.13502 3.93433
# Velocity P-wave (km/s) = 6.86390 7.55028 7.21526
#
# Compressibility (1/GPa) = 0.01613751
#
# Stress axis : x y z
#
# Youngs Moduli (GPa) = 57.59160 66.59636 130.98092
#
# Poissons Ratio (x) = 0.39005 0.62057
# Poissons Ratio (y) = 0.33731 0.17597
# Poissons Ratio (z) = 0.27286 0.08947
#
# Static dielectric constant tensor:
#      x y z
#    x 1.737170 0.012450 0.043600 
#    y 0.012450 1.821260 0.003750 
#    z 0.043600 0.003750 1.986580 
# 
# From -- ./inp_files/330606.got.cif
#   From: 2010.05.17/outbox.cif.g08.bks.cpg/sg2_166_cif.got.tgz:330606.got - 2010.06.03 11:33:40.
