data_PCOD9068185
_publ_section_title
;
Structure prediction by ZEFSAII (Michael W. Deem and Ramdas Pophale) SiO2 
 PCOD9068185
Probable space group: P -1
;
_chemical_formula_sum "Si O2"
_cell_formula_units_Z 14
_cell_length_a 8.699076
_cell_length_b 10.991363
_cell_length_c 6.312290
_cell_angle_alpha 89.265679
_cell_angle_beta 102.283605
_cell_angle_gamma 80.186411
_cell_volume 580.345742
_symmetry_space_group_name_H-M "P -1"
_symmetry_group_IT_number 2
_symmetry_cell_setting 'triclinic'
loop_
_space_group_symop_operation_xyz
x,y,z
-x,-y,-z
loop_
_atom_site_type_symbol
_atom_site_label
_atom_site_fract_x
_atom_site_fract_y
_atom_site_fract_z
Si Si1 0.030401 0.207420 0.220815
Si Si2 0.546790 0.609646 0.154032
Si Si3 0.536732 0.165618 0.147157
Si Si4 0.715708 0.991981 0.840858
Si Si5 0.186663 0.830516 0.491571
Si Si6 0.839736 0.574840 0.558632
Si Si7 0.804364 0.361639 0.827058
O O1 0.129364 0.114673 0.083703
O O2 0.142966 0.286858 0.375836
O O3 0.943601 0.131840 0.365026
O O4 0.896923 0.308033 0.064138
O O5 0.692318 0.571737 0.357081
O O6 0.379051 0.654851 0.221132
O O7 0.500000 0.500000 0.000000
O O8 0.572824 0.725444 0.015754
O O9 0.431100 0.080243 0.237529
O O10 0.650283 0.223409 0.335694
O O11 0.654401 0.079485 0.018950
O O12 0.764049 0.070242 0.657217
O O13 0.123510 0.725554 0.341963
O O14 0.814445 0.500770 0.767762
O O15 0.000000 0.500000 0.500000
#
# Coordination Sequence:
#
# PCOD9068185 Si02
#       7
#     2   2   2   2   2   2   2
#     4  12  27  46  76 110 149 195 240 302 368 433
#     4  12  26  48  79 106 144 195 240 299 366 440
#     4  11  26  48  72 111 151 188 250 300 365 432
#     4  11  27  45  74 106 151 195 245 302 360 431
#     4  12  23  48  73 104 151 192 247 292 367 430
#     4  12  27  47  75 111 144 185 243 305 367 430
#     4  12  26  49  73 108 150 189 243 300 367 438
#
# _framework density 24.123553000000001
#
# number of rings (size 3 to 8) (size 9 to 14) (size 15 to 20)
#    0.000    0.286    4.286    3.429    6.000    5.714 
#    0.000    0.000    0.000    0.000    0.000    0.000 
#    0.000    0.000    0.000    0.000    0.000    0.000 
#
# Total GULP energy -78369.458938 kJ/mol
# GULP energy per Si atom -5597.818496 kJ/mol
# Density = 2.406865 g / cm^3
# Si number density = 24.123553 Si / 1000 Ang^3
#
#
#
# Elastic Constant Matrix: (Units=GPa)
#
#
# Indices 1 2 3 4 5 6 
#
# 1 109.3925 44.9359 50.0852 -13.0020 -3.4828 4.3739
# 2 44.9359 101.7624 41.6617 -14.2350 -9.5899 8.2013
# 3 50.0852 41.6617 90.7382 -8.5260 9.4532 1.1447
# 4 -13.0020 -14.2350 -8.5260 42.1463 5.4959 -9.3280
# 5 -3.4828 -9.5899 9.4532 5.4959 43.1231 -7.9279
# 6 4.3739 8.2013 1.1447 -9.3280 -7.9279 49.0066
#
#
#
# Elastic Compliance Matrix: (Units=1/GPa)
#
#
# Indices 1 2 3 4 5 6 
#
# 1 0.013393 -0.003096 -0.005968 0.001690 0.001491 0.000025
# 2 -0.003096 0.013855 -0.004802 0.002089 0.003438 -0.000976
# 3 -0.005968 -0.004802 0.017147 0.000752 -0.005366 0.000211
# 4 0.001690 0.002089 0.000752 0.026303 -0.002155 0.004140
# 5 0.001491 0.003438 -0.005366 -0.002155 0.026120 0.003232
# 6 0.000025 -0.000976 0.000211 0.004140 0.003232 0.021873
#
#
# Mechanical properties :
#
#
# Convention : Reuss Voigt Hill
#
# Bulk Modulus (GPa) = 60.01460 63.91761 61.96610
# Shear Modulus (GPa) = 32.90017 37.86922 35.38470
#
# Velocity S-wave (km/s) = 3.69700 3.96637 3.83405
# Velocity P-wave (km/s) = 6.56930 6.89417 6.73370
#
# Compressibility (1/GPa) = 0.01666261
#
# Stress axis : x y z
#
# Youngs Moduli (GPa) = 74.66706 72.17791 58.32040
#
# Poissons Ratio (x) = 0.22345 0.34805
# Poissons Ratio (y) = 0.23116 0.28006
# Poissons Ratio (z) = 0.44560 0.34660
#
# Static dielectric constant tensor:
#      x y z
#    x 1.931980 -0.033140 -0.048430 
#    y -0.033140 1.954700 0.014090 
#    z -0.048430 0.014090 1.904870 
# 
# From -- ./inp_files/27815.got.cif
#   From: 2010.05.17/outbox.cif.g08.bks.cpg/sg2_14_cif.got.tgz:27815.got - 2010.06.03 11:33:40.
