data_PCOD9068840
_publ_section_title
;
Structure prediction by ZEFSAII (Michael W. Deem and Ramdas Pophale) SiO2 
 PCOD9068840
Probable space group: P -1
;
_chemical_formula_sum "Si O2"
_cell_formula_units_Z 12
_cell_length_a 17.656206
_cell_length_b 7.428092
_cell_length_c 11.146307
_cell_angle_alpha 92.482371
_cell_angle_beta 34.493483
_cell_angle_gamma 69.724000
_cell_volume 609.791245
_symmetry_space_group_name_H-M "P -1"
_symmetry_group_IT_number 2
_symmetry_cell_setting 'triclinic'
loop_
_space_group_symop_operation_xyz
x,y,z
-x,-y,-z
loop_
_atom_site_type_symbol
_atom_site_label
_atom_site_fract_x
_atom_site_fract_y
_atom_site_fract_z
Si Si1 0.954993 0.802484 0.734905
Si Si2 0.544850 0.523740 0.807008
Si Si3 0.657614 0.948875 0.936573
Si Si4 0.956438 0.669978 0.334476
Si Si5 0.059925 0.981931 0.786946
Si Si6 0.745234 0.477768 0.869030
O O1 0.010331 0.572606 0.729277
O O2 0.935340 0.985986 0.855021
O O3 0.118160 0.691315 0.424147
O O4 0.784007 0.906514 0.878943
O O5 0.740645 0.280236 0.504959
O O6 0.500000 0.500000 0.000000
O O7 0.513728 0.765686 0.843855
O O8 0.390362 0.561512 0.933684
O O9 0.779932 0.855821 0.654640
O O10 0.366582 0.240795 0.013342
O O11 0.124346 0.588838 0.193829
O O12 0.941274 0.807832 0.242523
O O13 0.000000 0.000000 0.000000
#
# Coordination Sequence:
#
# PCOD9068840 Si02
#       6
#     2   2   2   2   2   2
#     4   9  18  36  59  81 107 143 181 221 269 320
#     4  12  21  33  55  85 112 140 177 226 274 311
#     4   9  18  34  60  86 105 133 183 234 268 309
#     4   9  18  36  59  81 107 143 181 221 269 320
#     4  12  25  37  51  79 118 151 175 214 273 330
#     4   9  18  34  60  86 105 133 183 234 268 309
#
# _framework density 19.678865999999999
#
# number of rings (size 3 to 8) (size 9 to 14) (size 15 to 20)
#    0.000    2.000    3.333    3.000    0.000    5.333 
#    0.000    3.333    0.000    4.000    0.000    0.000 
#    0.000    0.000    0.000    0.000    0.000    0.000 
#
# Total GULP energy -67042.197287 kJ/mol
# GULP energy per Si atom -5586.849774 kJ/mol
# Density = 1.963408 g / cm^3
# Si number density = 19.678866 Si / 1000 Ang^3
#
#
#
# Elastic Constant Matrix: (Units=GPa)
#
#
# Indices 1 2 3 4 5 6 
#
# 1 34.0074 -1.4509 6.4274 -6.5790 -0.0113 7.0500
# 2 -1.4509 117.7732 27.0690 6.7234 14.0740 -18.3827
# 3 6.4274 27.0690 55.7185 3.2612 9.2342 -14.3375
# 4 -6.5790 6.7234 3.2612 20.9538 -3.9729 -2.3731
# 5 -0.0113 14.0740 9.2342 -3.9729 18.3341 -4.6005
# 6 7.0500 -18.3827 -14.3375 -2.3731 -4.6005 25.4553
#
#
#
# Elastic Compliance Matrix: (Units=1/GPa)
#
#
# Indices 1 2 3 4 5 6 
#
# 1 0.036217 -0.000907 -0.008687 0.012290 0.004332 -0.013650
# 2 -0.000907 0.010889 -0.002525 -0.004076 -0.006690 0.005103
# 3 -0.008687 -0.002525 0.025266 -0.006117 -0.008950 0.012626
# 4 0.012290 -0.004076 -0.006117 0.057186 0.018320 -0.001150
# 5 0.004332 -0.006690 -0.008950 0.018320 0.068936 0.003094
# 6 -0.013650 0.005103 0.012626 -0.001150 0.003094 0.054314
#
#
# Mechanical properties :
#
#
# Convention : Reuss Voigt Hill
#
# Bulk Modulus (GPa) = 20.77491 30.17667 25.47579
# Shear Modulus (GPa) = 17.05964 24.64556 20.85260
#
# Velocity S-wave (km/s) = 2.94751 3.54275 3.25875
# Velocity P-wave (km/s) = 4.70783 5.66592 5.20895
#
# Compressibility (1/GPa) = 0.04813499
#
# Stress axis : x y z
#
# Youngs Moduli (GPa) = 27.61122 91.83769 39.57862
#
# Poissons Ratio (x) = 0.08330 0.34381
# Poissons Ratio (y) = 0.02504 0.09993
# Poissons Ratio (z) = 0.23985 0.23187
#
# Static dielectric constant tensor:
#      x y z
#    x 1.738870 0.008360 -0.051110 
#    y 0.008360 1.729450 0.028270 
#    z -0.051110 0.028270 1.651070 
# 
# From -- ./inp_files/460651.got.cif
#   From: 2010.05.17/outbox.cif.g08.bks.cpg/sg2_231_cif.got.tgz:460651.got - 2010.06.03 11:33:40.
