data_PCOD9068075
_publ_section_title
;
Structure prediction by ZEFSAII (Michael W. Deem and Ramdas Pophale) SiO2 
 PCOD9068075
Probable space group: P -1
;
_chemical_formula_sum "Si O2"
_cell_formula_units_Z 15
_cell_length_a 11.500967
_cell_length_b 8.459103
_cell_length_c 8.727039
_cell_angle_alpha 55.121993
_cell_angle_beta 54.231040
_cell_angle_gamma 70.109851
_cell_volume 565.123354
_symmetry_space_group_name_H-M "P -1"
_symmetry_group_IT_number 2
_symmetry_cell_setting 'triclinic'
loop_
_space_group_symop_operation_xyz
x,y,z
-x,-y,-z
loop_
_atom_site_type_symbol
_atom_site_label
_atom_site_fract_x
_atom_site_fract_y
_atom_site_fract_z
Si Si1 0.457516 0.202869 0.998680
Si Si2 0.020892 0.003806 0.298707
Si Si3 0.748624 0.761580 0.596593
Si Si4 0.413347 0.245896 0.571598
Si Si5 0.275702 0.852115 0.008971
Si Si6 0.066068 0.666595 0.031095
Si Si7 0.000000 0.500000 0.500000
Si Si8 0.321468 0.528966 0.714984
O O1 0.316928 0.184642 0.220137
O O2 0.589493 0.267838 0.966911
O O3 0.413890 0.370140 0.824383
O O4 0.500000 0.000000 0.000000
O O5 0.882825 0.900503 0.391078
O O6 0.028626 0.195993 0.083616
O O7 0.000000 0.000000 0.500000
O O8 0.157668 0.874011 0.222005
O O9 0.621813 0.777317 0.565548
O O10 0.833094 0.560284 0.632066
O O11 0.329134 0.433913 0.595716
O O12 0.581891 0.279216 0.455129
O O13 0.346371 0.058396 0.804137
O O14 0.184238 0.788201 0.969310
O O15 0.983871 0.557759 0.291562
O O16 0.167864 0.551357 0.897932
#
# Coordination Sequence:
#
# PCOD9068075 Si02
#       8
#     2   2   2   2   2   2   1   2
#     4  12  26  47  76 111 158 207 270 329 398 477
#     4  12  28  48  80 116 154 211 272 328 403 479
#     4  12  26  48  78 110 155 212 264 329 401 477
#     4  11  26  47  74 112 160 202 269 323 404 479
#     4  12  25  48  77 111 157 213 260 329 395 489
#     4  12  26  50  81 111 163 210 271 329 398 485
#     4  12  26  48  78 116 158 212 272 328 396 486
#     4  11  27  48  74 119 158 208 262 340 402 468
#
# _framework density 26.542876
#
# number of rings (size 3 to 8) (size 9 to 14) (size 15 to 20)
#    0.000    0.267    5.333    2.800    3.733    5.333 
#    0.000    2.000    0.000    0.000    0.000    0.000 
#    0.000    0.000    0.000    0.000    0.000    0.000 
#
# Total GULP energy -83789.795479 kJ/mol
# GULP energy per Si atom -5585.986365 kJ/mol
# Density = 2.648246 g / cm^3
# Si number density = 26.542876 Si / 1000 Ang^3
#
#
#
# Elastic Constant Matrix: (Units=GPa)
#
#
# Indices 1 2 3 4 5 6 
#
# 1 60.9627 0.0100 4.7297 -6.4705 2.8582 -5.0515
# 2 0.0100 63.0442 37.2536 18.3390 -7.0717 -6.2645
# 3 4.7297 37.2536 140.5893 24.0883 -0.5936 -6.9584
# 4 -6.4705 18.3390 24.0883 47.5857 -2.7706 -12.5205
# 5 2.8582 -7.0717 -0.5936 -2.7706 54.7096 -1.3724
# 6 -5.0515 -6.2645 -6.9584 -12.5205 -1.3724 50.4232
#
#
#
# Elastic Compliance Matrix: (Units=1/GPa)
#
#
# Indices 1 2 3 4 5 6 
#
# 1 0.017085 -0.000285 -0.000987 0.003522 -0.000702 0.002396
# 2 -0.000285 0.020358 -0.004429 -0.005341 0.002344 0.000627
# 3 -0.000987 -0.004429 0.008818 -0.002974 -0.000581 -0.000187
# 4 0.003522 -0.005341 -0.002974 0.026647 0.000591 0.005912
# 5 -0.000702 0.002344 -0.000581 0.000591 0.018661 0.000795
# 6 0.002396 0.000627 -0.000187 0.005912 0.000795 0.021614
#
#
# Mechanical properties :
#
#
# Convention : Reuss Voigt Hill
#
# Bulk Modulus (GPa) = 28.68661 38.73143 33.70902
# Shear Modulus (GPa) = 36.70952 45.38389 41.04671
#
# Velocity S-wave (km/s) = 3.72294 4.13950 3.93673
# Velocity P-wave (km/s) = 5.41401 6.12135 5.77852
#
# Compressibility (1/GPa) = 0.03485947
#
# Stress axis : x y z
#
# Youngs Moduli (GPa) = 58.52974 49.12114 113.41044
#
# Poissons Ratio (x) = 0.01398 0.11196
# Poissons Ratio (y) = 0.01665 0.50227
# Poissons Ratio (z) = 0.05778 0.21755
#
# Static dielectric constant tensor:
#      x y z
#    x 2.062370 0.069590 0.028450 
#    y 0.069590 2.439430 -0.256750 
#    z 0.028450 -0.256750 2.289490 
# 
# From -- ./inp_files/242377.got.cif
#   From: 2010.05.17/outbox.cif.g08.bks.cpg/sg2_122_cif.got.tgz:242377.got - 2010.06.03 11:33:40.
