data_PCOD9068123
_publ_section_title
;
Structure prediction by ZEFSAII (Michael W. Deem and Ramdas Pophale) SiO2 
 PCOD9068123
Probable space group: P -1
;
_chemical_formula_sum "Si O2"
_cell_formula_units_Z 15
_cell_length_a 10.391802
_cell_length_b 11.546114
_cell_length_c 8.592359
_cell_angle_alpha 136.855465
_cell_angle_beta 63.178582
_cell_angle_gamma 120.427225
_cell_volume 602.047221
_symmetry_space_group_name_H-M "P -1"
_symmetry_group_IT_number 2
_symmetry_cell_setting 'triclinic'
loop_
_space_group_symop_operation_xyz
x,y,z
-x,-y,-z
loop_
_atom_site_type_symbol
_atom_site_label
_atom_site_fract_x
_atom_site_fract_y
_atom_site_fract_z
Si Si1 0.634373 0.056152 0.113422
Si Si2 0.735859 0.299532 0.816441
Si Si3 0.907666 0.556109 0.742204
Si Si4 0.500000 0.000000 0.500000
Si Si5 0.329176 0.391633 0.649554
Si Si6 0.158667 0.012938 0.497890
Si Si7 0.315825 0.535303 0.481730
Si Si8 0.963821 0.041897 0.889854
O O1 0.566933 0.002986 0.273972
O O2 0.702305 0.270147 0.289751
O O3 0.779887 0.985963 0.919672
O O4 0.500000 0.000000 0.000000
O O5 0.877692 0.412084 0.751448
O O6 0.609225 0.195303 0.662479
O O7 0.774114 0.143244 0.737303
O O8 0.691650 0.443382 0.082844
O O9 0.754368 0.548442 0.724904
O O10 0.000000 0.500000 0.500000
O O11 0.981188 0.747324 0.959885
O O12 0.257447 0.405051 0.532452
O O13 0.505851 0.424882 0.573971
O O14 0.265110 0.205768 0.591071
O O15 0.000000 0.000000 0.500000
O O16 0.097599 0.978909 0.671618
O O17 0.000000 0.000000 0.000000
#
# Coordination Sequence:
#
# PCOD9068123 Si02
#       8
#     2   2   2   1   2   2   2   2
#     4  12  27  49  83 118 165 216 273 340 410 485
#     4  12  27  51  76 111 158 206 263 334 403 487
#     4  12  24  48  77 108 156 205 256 323 403 479
#     4  12  24  48  82 114 160 212 264 328 414 482
#     4  11  28  51  75 117 154 205 265 339 410 485
#     4  12  30  47  77 113 154 206 269 326 405 493
#     4  11  26  47  77 111 153 206 265 326 409 490
#     4  12  28  50  77 119 160 213 269 336 413 495
#
# _framework density 24.91499
#
# number of rings (size 3 to 8) (size 9 to 14) (size 15 to 20)
#    0.000    0.267    4.000    3.200    9.333    4.267 
#    0.000    2.000    0.000    0.000    0.000    0.000 
#    0.000    0.000    0.000    0.000    0.000    0.000 
#
# Total GULP energy -83577.726926 kJ/mol
# GULP energy per Si atom -5571.848462 kJ/mol
# Density = 2.485828 g / cm^3
# Si number density = 24.914990 Si / 1000 Ang^3
#
#
#
# Elastic Constant Matrix: (Units=GPa)
#
#
# Indices 1 2 3 4 5 6 
#
# 1 94.7752 22.9386 10.9981 10.5485 2.7837 8.4516
# 2 22.9386 95.4439 14.4289 -2.3921 -4.3750 -4.9456
# 3 10.9981 14.4289 84.6363 24.7160 -8.2590 -8.4759
# 4 10.5485 -2.3921 24.7160 37.8549 -7.7023 4.4245
# 5 2.7837 -4.3750 -8.2590 -7.7023 45.4733 2.5085
# 6 8.4516 -4.9456 -8.4759 4.4245 2.5085 29.2807
#
#
#
# Elastic Compliance Matrix: (Units=1/GPa)
#
#
# Indices 1 2 3 4 5 6 
#
# 1 0.012089 -0.003136 -0.000665 -0.003008 -0.001472 -0.003631
# 2 -0.003136 0.011795 -0.002226 0.003156 0.001366 0.001659
# 3 -0.000665 -0.002226 0.016203 -0.011142 0.000543 0.006144
# 4 -0.003008 0.003156 -0.011142 0.036680 0.005108 -0.007804
# 5 -0.001472 0.001366 0.000543 0.005108 0.023284 -0.001954
# 6 -0.003631 0.001659 0.006144 -0.007804 -0.001954 0.038606
#
#
# Mechanical properties :
#
#
# Convention : Reuss Voigt Hill
#
# Bulk Modulus (GPa) = 35.67112 41.28742 38.47927
# Shear Modulus (GPa) = 31.23907 37.62109 34.43008
#
# Velocity S-wave (km/s) = 3.54478 3.89006 3.72143
# Velocity P-wave (km/s) = 5.57693 6.06499 5.82607
#
# Compressibility (1/GPa) = 0.02803388
#
# Stress axis : x y z
#
# Youngs Moduli (GPa) = 82.71816 84.78040 61.71629
#
# Poissons Ratio (x) = 0.26586 0.04106
# Poissons Ratio (y) = 0.25940 0.13736
# Poissons Ratio (z) = 0.05503 0.18869
#
# Static dielectric constant tensor:
#      x y z
#    x 2.046710 0.078810 -0.042630 
#    y 0.078810 1.705660 -0.248280 
#    z -0.042630 -0.248280 1.512670 
# 
# From -- ./inp_files/263735.got.cif
#   From: 2010.05.17/outbox.cif.g08.bks.cpg/sg2_132_cif.got.tgz:263735.got - 2010.06.03 11:33:40.
