data_PCOD9068224
_publ_section_title
;
Structure prediction by ZEFSAII (Michael W. Deem and Ramdas Pophale) SiO2 
 PCOD9068224
Probable space group: P -1
;
_chemical_formula_sum "Si O2"
_cell_formula_units_Z 11
_cell_length_a 11.799321
_cell_length_b 9.365733
_cell_length_c 6.883602
_cell_angle_alpha 93.394858
_cell_angle_beta 148.585134
_cell_angle_gamma 79.353124
_cell_volume 382.410279
_symmetry_space_group_name_H-M "P -1"
_symmetry_group_IT_number 2
_symmetry_cell_setting 'triclinic'
loop_
_space_group_symop_operation_xyz
x,y,z
-x,-y,-z
loop_
_atom_site_type_symbol
_atom_site_label
_atom_site_fract_x
_atom_site_fract_y
_atom_site_fract_z
Si Si1 0.945629 0.339712 0.426559
Si Si2 0.765133 0.495721 0.550509
Si Si3 0.211713 0.948118 0.484899
Si Si4 0.543160 0.814919 0.283030
Si Si5 0.626911 0.302449 0.612192
Si Si6 0.000000 0.000000 0.500000
O O1 0.817620 0.377145 0.447399
O O2 0.000000 0.500000 0.500000
O O3 0.806854 0.328193 0.030732
O O4 0.087576 0.169223 0.634929
O O5 0.652936 0.660608 0.324585
O O6 0.589807 0.451855 0.439832
O O7 0.000000 0.500000 0.000000
O O8 0.283801 0.814688 0.436331
O O9 0.962528 0.006448 0.202715
O O10 0.315057 0.073277 0.561173
O O11 0.295303 0.896686 0.833710
O O12 0.535985 0.763752 0.491229
#
# Coordination Sequence:
#
# PCOD9068224 Si02
#       6
#     2   2   2   2   2   1
#     4  12  26  47  75 114 149 197 257 313 377 454
#     4  12  26  47  73 110 148 198 256 311 380 453
#     4  11  26  48  75 111 150 201 254 312 383 449
#     4  11  26  49  73 110 153 199 251 317 378 461
#     4  12  24  48  72 111 151 197 250 309 389 446
#     4  12  24  50  76 106 154 198 254 320 368 450
#
# _framework density 28.76492
#
# number of rings (size 3 to 8) (size 9 to 14) (size 15 to 20)
#    0.000    0.364    5.455    2.182    0.000    6.545 
#    6.545    0.000    0.000    0.000    0.000    0.000 
#    0.000    0.000    0.000    0.000    0.000    0.000 
#
# Total GULP energy -61328.889812 kJ/mol
# GULP energy per Si atom -5575.353619 kJ/mol
# Density = 2.869945 g / cm^3
# Si number density = 28.764920 Si / 1000 Ang^3
#
#
#
# Elastic Constant Matrix: (Units=GPa)
#
#
# Indices 1 2 3 4 5 6 
#
# 1 179.5994 81.4520 27.0538 14.9089 -29.7237 32.8740
# 2 81.4520 284.7780 69.3843 -2.8942 -11.3750 11.1993
# 3 27.0538 69.3843 87.3002 -5.7989 1.2390 2.8947
# 4 14.9089 -2.8942 -5.7989 50.3913 -1.1852 -8.2564
# 5 -29.7237 -11.3750 1.2390 -1.1852 30.8248 -6.8614
# 6 32.8740 11.1993 2.8947 -8.2564 -6.8614 79.3464
#
#
#
# Elastic Compliance Matrix: (Units=1/GPa)
#
#
# Indices 1 2 3 4 5 6 
#
# 1 0.008499 -0.001713 -0.001478 -0.003107 0.006846 -0.002957
# 2 -0.001713 0.004807 -0.003272 0.000451 0.000321 0.000225
# 3 -0.001478 -0.003272 0.014670 0.001944 -0.003041 0.000478
# 4 -0.003107 0.000451 0.001944 0.021518 -0.001351 0.003275
# 5 0.006846 0.000321 -0.003041 -0.001351 0.039341 0.000491
# 6 -0.002957 0.000225 0.000478 0.003275 0.000491 0.014162
#
#
# Mechanical properties :
#
#
# Convention : Reuss Voigt Hill
#
# Bulk Modulus (GPa) = 66.44220 100.82863 83.63541
# Shear Modulus (GPa) = 41.34294 57.03166 49.18730
#
# Velocity S-wave (km/s) = 3.79525 4.45756 4.13967
# Velocity P-wave (km/s) = 6.50797 7.84996 7.21025
#
# Compressibility (1/GPa) = 0.01505068
#
# Stress axis : x y z
#
# Youngs Moduli (GPa) = 117.65480 208.02484 68.16768
#
# Poissons Ratio (x) = 0.35629 0.10076
# Poissons Ratio (y) = 0.20151 0.22304
# Poissons Ratio (z) = 0.17391 0.68064
#
# Static dielectric constant tensor:
#      x y z
#    x 2.526540 -0.036450 0.061630 
#    y -0.036450 2.290900 -0.091330 
#    z 0.061630 -0.091330 2.361560 
# 
# From -- ./inp_files/59816.got.cif
#   From: 2010.05.17/outbox.cif.g08.bks.cpg/sg2_30_cif.got.tgz:59816.got - 2010.06.03 11:33:40.
