data_PCOD9068122
_publ_section_title
;
Structure prediction by ZEFSAII (Michael W. Deem and Ramdas Pophale) SiO2 
 PCOD9068122
Probable space group: P -1
;
_chemical_formula_sum "Si O2"
_cell_formula_units_Z 11
_cell_length_a 8.043445
_cell_length_b 11.205471
_cell_length_c 6.330746
_cell_angle_alpha 75.016771
_cell_angle_beta 84.312799
_cell_angle_gamma 52.022659
_cell_volume 433.130810
_symmetry_space_group_name_H-M "P -1"
_symmetry_group_IT_number 2
_symmetry_cell_setting 'triclinic'
loop_
_space_group_symop_operation_xyz
x,y,z
-x,-y,-z
loop_
_atom_site_type_symbol
_atom_site_label
_atom_site_fract_x
_atom_site_fract_y
_atom_site_fract_z
Si Si1 0.000000 0.500000 0.500000
Si Si2 0.442857 0.161577 0.345339
Si Si3 0.784044 0.387404 0.329518
Si Si4 0.456657 0.716786 0.380063
Si Si5 0.909022 0.709224 0.026988
Si Si6 0.216154 0.974460 0.957227
O O1 0.064881 0.613470 0.520676
O O2 0.046393 0.426978 0.770633
O O3 0.377807 0.290748 0.476120
O O4 0.269617 0.235172 0.152194
O O5 0.500000 0.000000 0.500000
O O6 0.656273 0.113103 0.230260
O O7 0.573374 0.567191 0.282947
O O8 0.714566 0.285583 0.471357
O O9 0.887469 0.338976 0.109521
O O10 0.356276 0.870464 0.187364
O O11 0.822143 0.863339 0.100167
O O12 0.000000 0.000000 0.000000
#
# Coordination Sequence:
#
# PCOD9068122 Si02
#       6
#     1   2   2   2   2   2
#     4  12  26  46  70 108 152 192 252 304 374 446
#     4  12  27  47  79 111 152 197 259 310 375 448
#     4  11  26  47  77 110 153 203 244 316 383 450
#     4  11  26  49  75 111 158 193 253 314 380 455
#     4  12  27  47  78 111 149 201 255 312 375 450
#     4  12  27  47  77 111 151 201 255 312 380 446
#
# _framework density 25.396487
#
# number of rings (size 3 to 8) (size 9 to 14) (size 15 to 20)
#    0.000    0.364    1.818    5.455    7.636    2.909 
#    0.000    7.273    0.000    0.000    0.000    0.000 
#    0.000    0.000    0.000    0.000    0.000    0.000 
#
# Total GULP energy -61541.228766 kJ/mol
# GULP energy per Si atom -5594.657161 kJ/mol
# Density = 2.533868 g / cm^3
# Si number density = 25.396487 Si / 1000 Ang^3
#
#
#
# Elastic Constant Matrix: (Units=GPa)
#
#
# Indices 1 2 3 4 5 6 
#
# 1 99.5994 2.0441 39.5689 -7.8156 -15.5685 7.3163
# 2 2.0441 107.1634 51.4551 -5.7105 -8.9954 13.7655
# 3 39.5689 51.4551 150.7661 -36.9982 -19.8161 -6.3988
# 4 -7.8156 -5.7105 -36.9982 65.6142 -9.4457 -8.5874
# 5 -15.5685 -8.9954 -19.8161 -9.4457 57.5293 10.2827
# 6 7.3163 13.7655 -6.3988 -8.5874 10.2827 40.1821
#
#
#
# Elastic Compliance Matrix: (Units=1/GPa)
#
#
# Indices 1 2 3 4 5 6 
#
# 1 0.012389 0.002568 -0.004128 -0.000811 0.003048 -0.004746
# 2 0.002568 0.012918 -0.005781 -0.002492 0.001518 -0.006735
# 3 -0.004128 -0.005781 0.011861 0.006728 0.002186 0.005499
# 4 -0.000811 -0.002492 0.006728 0.019998 0.004042 0.005312
# 5 0.003048 0.001518 0.002186 0.004042 0.020788 -0.005183
# 6 -0.004746 -0.006735 0.005499 0.005312 -0.005183 0.031395
#
#
# Mechanical properties :
#
#
# Convention : Reuss Voigt Hill
#
# Bulk Modulus (GPa) = 44.47124 60.40724 52.43924
# Shear Modulus (GPa) = 38.01589 50.29583 44.15586
#
# Velocity S-wave (km/s) = 3.87317 4.45502 4.17425
# Velocity P-wave (km/s) = 6.12787 7.09227 6.62763
#
# Compressibility (1/GPa) = 0.02248644
#
# Stress axis : x y z
#
# Youngs Moduli (GPa) = 80.71865 77.41242 84.31241
#
# Poissons Ratio (x) = -0.19878 0.34801
# Poissons Ratio (y) = -0.20727 0.48737
# Poissons Ratio (z) = 0.33318 0.44749
#
# Static dielectric constant tensor:
#      x y z
#    x 1.867250 0.090410 -0.028440 
#    y 0.090410 1.813760 0.070100 
#    z -0.028440 0.070100 1.909090 
# 
# From -- ./inp_files/17220.got.cif
#   From: 2010.05.17/outbox.cif.g08.bks.cpg/sg2_9_cif.got.tgz:17220.got - 2010.06.03 11:33:40.
