data_PCOD9068715
_publ_section_title
;
Structure prediction by ZEFSAII (Michael W. Deem and Ramdas Pophale) SiO2 
 PCOD9068715
Probable space group: P -1
;
_chemical_formula_sum "Si O2"
_cell_formula_units_Z 12
_cell_length_a 5.120329
_cell_length_b 5.119151
_cell_length_c 21.329401
_cell_angle_alpha 118.716201
_cell_angle_beta 86.612404
_cell_angle_gamma 89.972537
_cell_volume 489.196543
_symmetry_space_group_name_H-M "P -1"
_symmetry_group_IT_number 2
_symmetry_cell_setting 'triclinic'
loop_
_space_group_symop_operation_xyz
x,y,z
-x,-y,-z
loop_
_atom_site_type_symbol
_atom_site_label
_atom_site_fract_x
_atom_site_fract_y
_atom_site_fract_z
Si Si1 0.149179 0.275716 0.649263
Si Si2 0.302565 0.877603 0.765836
Si Si3 0.214962 0.806257 0.251139
Si Si4 0.238012 0.585755 0.550818
Si Si5 0.468386 0.216924 0.119286
Si Si6 0.749901 0.327213 0.005215
O O1 0.185620 0.414123 0.596409
O O2 0.864111 0.252008 0.682591
O O3 0.246567 0.935975 0.605543
O O4 0.547367 0.974014 0.732474
O O5 0.272881 0.522610 0.720855
O O6 0.386467 0.945845 0.843381
O O7 0.037661 0.041296 0.763247
O O8 0.306828 0.501792 0.180861
O O9 0.500000 0.500000 0.500000
O O10 0.000000 0.500000 0.500000
O O11 0.689630 0.306439 0.077188
O O12 0.271767 0.001677 0.061785
O O13 0.500000 0.500000 0.000000
O O14 0.000000 0.500000 0.000000
#
# Coordination Sequence:
#
# PCOD9068715 Si02
#       6
#     2   2   2   2   2   2
#     4  12  28  54  81 121 165 210 272 334 397 481
#     4  12  28  49  81 120 164 205 272 337 411 476
#     4  12  28  49  81 120 164 205 272 337 411 476
#     4  12  30  52  84 116 166 215 264 323 402 482
#     4  11  28  48  81 114 155 216 268 342 405 484
#     4  11  28  51  73 108 161 207 276 328 408 486
#
# _framework density 24.530014999999999
#
# number of rings (size 3 to 8) (size 9 to 14) (size 15 to 20)
#    0.000    0.333    1.667    4.000    2.333   18.667 
#    0.000    2.500    0.000    0.000    0.000    0.000 
#    0.000    0.000    0.000    0.000    0.000    0.000 
#
# Total GULP energy -67330.650349 kJ/mol
# GULP energy per Si atom -5610.887529 kJ/mol
# Density = 2.447418 g / cm^3
# Si number density = 24.530015 Si / 1000 Ang^3
#
#
#
# Elastic Constant Matrix: (Units=GPa)
#
#
# Indices 1 2 3 4 5 6 
#
# 1 170.2039 72.7145 62.2067 6.0333 -42.2513 -5.3760
# 2 72.7145 154.9809 54.8801 10.1758 -9.5540 7.4352
# 3 62.2067 54.8801 171.3791 -14.6737 -20.6878 4.9484
# 4 6.0333 10.1758 -14.6737 52.6893 11.0906 0.9181
# 5 -42.2513 -9.5540 -20.6878 11.0906 36.0763 -9.6375
# 6 -5.3760 7.4352 4.9484 0.9181 -9.6375 49.4901
#
#
#
# Elastic Compliance Matrix: (Units=1/GPa)
#
#
# Indices 1 2 3 4 5 6 
#
# 1 0.012418 -0.004194 -0.001868 -0.004401 0.015101 0.005188
# 2 -0.004194 0.009004 -0.001845 -0.000901 -0.003943 -0.002375
# 3 -0.001868 -0.001845 0.007414 0.002509 0.000646 -0.000588
# 4 -0.004401 -0.000901 0.002509 0.022917 -0.011890 -0.003334
# 5 0.015101 -0.003943 0.000646 -0.011890 0.051715 0.012460
# 6 0.005188 -0.002375 -0.000588 -0.003334 0.012460 0.023673
#
#
# Mechanical properties :
#
#
# Convention : Reuss Voigt Hill
#
# Bulk Modulus (GPa) = 76.80144 97.35184 87.07664
# Shear Modulus (GPa) = 33.94493 48.10197 41.02345
#
# Velocity S-wave (km/s) = 3.72400 4.43306 4.09391
# Velocity P-wave (km/s) = 7.06173 8.12254 7.61064
#
# Compressibility (1/GPa) = 0.01302059
#
# Stress axis : x y z
#
# Youngs Moduli (GPa) = 80.52513 111.06582 134.88008
#
# Poissons Ratio (x) = 0.46580 0.25200
# Poissons Ratio (y) = 0.33772 0.24892
# Poissons Ratio (z) = 0.15045 0.20497
#
# Static dielectric constant tensor:
#      x y z
#    x 1.911170 -0.019960 0.017180 
#    y -0.019960 1.945040 -0.004890 
#    z 0.017180 -0.004890 1.950040 
# 
# From -- ./inp_files/581567.got.cif
#   From: 2010.05.17/outbox.cif.g08.bks.cpg/sg2_291_cif.got.tgz:581567.got - 2010.06.03 11:33:40.
