data_PCOD9068757
_publ_section_title
;
Structure prediction by ZEFSAII (Michael W. Deem and Ramdas Pophale) SiO2 
 PCOD9068757
Probable space group: P -1
;
_chemical_formula_sum "Si O2"
_cell_formula_units_Z 8
_cell_length_a 5.313444
_cell_length_b 14.102676
_cell_length_c 12.100559
_cell_angle_alpha 20.104842
_cell_angle_beta 100.951724
_cell_angle_gamma 99.729659
_cell_volume 305.886813
_symmetry_space_group_name_H-M "P -1"
_symmetry_group_IT_number 2
_symmetry_cell_setting 'triclinic'
loop_
_space_group_symop_operation_xyz
x,y,z
-x,-y,-z
loop_
_atom_site_type_symbol
_atom_site_label
_atom_site_fract_x
_atom_site_fract_y
_atom_site_fract_z
Si Si1 0.904093 0.115737 0.688877
Si Si2 0.247271 0.320346 0.676653
Si Si3 0.467976 0.380416 0.250359
Si Si4 0.144832 0.875625 0.755298
O O1 0.725763 0.370419 0.353598
O O2 0.157385 0.205350 0.677084
O O3 0.987456 0.937454 0.784866
O O4 0.741715 0.936787 0.957360
O O5 0.500000 0.500000 0.500000
O O6 0.000000 0.500000 0.500000
O O7 0.392070 0.064584 0.578837
O O8 0.500000 0.500000 0.000000
O O9 0.241429 0.565250 0.082619
O O10 0.000000 0.000000 0.500000
#
# Coordination Sequence:
#
# PCOD9068757 Si02
#       4
#     2   2   2   2
#     4  11  30  50  82 122 170 223 286 356 426 515
#     4  11  30  55  85 120 170 230 296 356 430 502
#     4  12  28  49  81 123 172 221 279 346 434 518
#     4  12  28  49  81 123 172 221 279 346 434 518
#
# _framework density 26.153465000000001
#
# number of rings (size 3 to 8) (size 9 to 14) (size 15 to 20)
#    0.000    0.500    2.500    1.500   14.000    2.000 
#    0.000    3.750    0.000    0.000    0.000    0.000 
#    0.000    0.000    0.000    0.000    0.000    0.000 
#
# Total GULP energy -44954.276517 kJ/mol
# GULP energy per Si atom -5619.284565 kJ/mol
# Density = 2.609394 g / cm^3
# Si number density = 26.153465 Si / 1000 Ang^3
#
#
#
# Elastic Constant Matrix: (Units=GPa)
#
#
# Indices 1 2 3 4 5 6 
#
# 1 171.6461 73.4844 57.2569 16.3666 -2.6645 19.1832
# 2 73.4844 180.6632 62.1900 36.5432 8.0750 8.0061
# 3 57.2569 62.1900 122.9639 38.9118 0.9506 15.5329
# 4 16.3666 36.5432 38.9118 53.7159 7.1397 0.0988
# 5 -2.6645 8.0750 0.9506 7.1397 57.7557 -18.7347
# 6 19.1832 8.0061 15.5329 0.0988 -18.7347 49.5770
#
#
#
# Elastic Compliance Matrix: (Units=1/GPa)
#
#
# Indices 1 2 3 4 5 6 
#
# 1 0.007817 -0.002458 -0.002518 0.001116 0.000012 -0.001837
# 2 -0.002458 0.007834 -0.001803 -0.003168 -0.000802 -0.000046
# 3 -0.002518 -0.001803 0.012888 -0.007327 -0.000074 -0.002786
# 4 0.001116 -0.003168 -0.007327 0.026016 -0.002106 0.001528
# 5 0.000012 -0.000802 -0.000074 -0.002106 0.020216 0.007792
# 6 -0.001837 -0.000046 -0.002786 0.001528 0.007792 0.024703
#
#
# Mechanical properties :
#
#
# Convention : Reuss Voigt Hill
#
# Bulk Modulus (GPa) = 66.75135 95.68175 81.21655
# Shear Modulus (GPa) = 42.36307 51.03251 46.69779
#
# Velocity S-wave (km/s) = 4.02903 4.42211 4.23014
# Velocity P-wave (km/s) = 6.87186 7.92071 7.41485
#
# Compressibility (1/GPa) = 0.01498097
#
# Stress axis : x y z
#
# Youngs Moduli (GPa) = 127.92373 127.64461 77.58958
#
# Poissons Ratio (x) = 0.31371 0.19540
# Poissons Ratio (y) = 0.31439 0.13993
# Poissons Ratio (z) = 0.32215 0.23019
#
# Static dielectric constant tensor:
#      x y z
#    x 2.070280 0.040390 -0.020990 
#    y 0.040390 2.047330 -0.016680 
#    z -0.020990 -0.016680 2.014170 
# 
# From -- ./inp_files/2170.got.cif
#   From: 2010.05.17/outbox.cif.g08.bks.cpg/sg2_2_cif.got.tgz:2170.got - 2010.06.03 11:33:40.
