data_PCOD9068550
_publ_section_title
;
Structure prediction by ZEFSAII (Michael W. Deem and Ramdas Pophale) SiO2 
 PCOD9068550
Probable space group: P -1
;
_chemical_formula_sum "Si O2"
_cell_formula_units_Z 16
_cell_length_a 12.664141
_cell_length_b 17.635064
_cell_length_c 8.314397
_cell_angle_alpha 87.030238
_cell_angle_beta 91.689956
_cell_angle_gamma 155.195415
_cell_volume 777.278401
_symmetry_space_group_name_H-M "P -1"
_symmetry_group_IT_number 2
_symmetry_cell_setting 'triclinic'
loop_
_space_group_symop_operation_xyz
x,y,z
-x,-y,-z
loop_
_atom_site_type_symbol
_atom_site_label
_atom_site_fract_x
_atom_site_fract_y
_atom_site_fract_z
Si Si1 0.819498 0.791810 0.544456
Si Si2 0.927691 0.629494 0.793107
Si Si3 0.821165 0.472750 0.101137
Si Si4 0.228663 0.633990 0.222739
Si Si5 0.228644 0.962861 0.702758
Si Si6 0.047701 0.152441 0.984961
Si Si7 0.719750 0.833686 0.802243
Si Si8 0.533908 0.558760 0.251114
O O1 0.815783 0.869022 0.629231
O O2 0.708245 0.716426 0.370551
O O3 0.612613 0.606129 0.655662
O O4 0.077030 0.913514 0.570699
O O5 0.860514 0.507802 0.710417
O O6 0.679208 0.520051 0.799191
O O7 0.149023 0.822997 0.703428
O O8 0.973706 0.631942 0.978371
O O9 0.578606 0.350707 0.184870
O O10 0.002901 0.546717 0.220493
O O11 0.722627 0.350746 0.968739
O O12 0.479154 0.826597 0.297635
O O13 0.102878 0.905309 0.874091
O O14 0.274708 0.344147 0.887565
O O15 0.187985 0.172131 0.071199
O O16 0.852533 0.994695 0.861485
#
# Coordination Sequence:
#
# PCOD9068550 Si02
#       8
#     2   2   2   2   2   2   2   2
#     4   9  22  32  49  74 104 130 165 202 248 304
#     4   9  18  30  52  71 100 133 160 201 255 291
#     4   9  17  32  49  73 101 129 162 212 245 284
#     4   9  18  33  48  74 103 126 166 215 242 286
#     4  10  19  32  51  79 100 130 165 207 245 299
#     4  10  18  28  51  74 103 124 162 204 245 304
#     4  10  18  31  48  75 100 130 161 203 252 293
#     4  10  19  34  47  76 103 132 162 202 250 304
#
# _framework density 20.584644000000001
#
# number of rings (size 3 to 8) (size 9 to 14) (size 15 to 20)
#    0.750    1.750    2.500    0.000    5.250    2.500 
#    0.000    0.000    0.000    0.750    3.250    2.625 
#    0.000    0.000    0.000    0.000    0.000    0.000 
#
# Total GULP energy -89218.656065 kJ/mol
# GULP energy per Si atom -5576.166004 kJ/mol
# Density = 2.053779 g / cm^3
# Si number density = 20.584644 Si / 1000 Ang^3
#
#
#
# Elastic Constant Matrix: (Units=GPa)
#
#
# Indices 1 2 3 4 5 6 
#
# 1 68.3331 37.3868 11.5108 5.3179 10.9704 0.6555
# 2 37.3868 109.0495 9.4759 25.1208 10.0234 -10.9036
# 3 11.5108 9.4759 23.3195 10.9858 -3.3352 -5.3927
# 4 5.3179 25.1208 10.9858 31.8334 -5.9233 -1.6405
# 5 10.9704 10.0234 -3.3352 -5.9233 12.4362 -4.3927
# 6 0.6555 -10.9036 -5.3927 -1.6405 -4.3927 25.1203
#
#
#
# Elastic Compliance Matrix: (Units=1/GPa)
#
#
# Indices 1 2 3 4 5 6 
#
# 1 0.024715 -0.006204 -0.016336 0.001282 -0.024472 -0.011040
# 2 -0.006204 0.015950 0.002780 -0.014482 -0.011890 0.004657
# 3 -0.016336 0.002780 0.066057 -0.015760 0.029419 0.019929
# 4 0.001282 -0.014482 -0.015760 0.053950 0.031792 -0.000620
# 5 -0.024472 -0.011890 0.029419 0.031792 0.144932 0.029213
# 6 -0.011040 0.004657 0.019929 -0.000620 0.029213 0.051464
#
#
# Mechanical properties :
#
#
# Convention : Reuss Voigt Hill
#
# Bulk Modulus (GPa) = 14.88029 35.27213 25.07621
# Shear Modulus (GPa) = 11.93345 23.36655 17.65000
#
# Velocity S-wave (km/s) = 2.41036 3.37285 2.93138
# Velocity P-wave (km/s) = 3.87182 5.68687 4.86474
#
# Compressibility (1/GPa) = 0.06720298
#
# Stress axis : x y z
#
# Youngs Moduli (GPa) = 40.46091 62.69507 15.13834
#
# Poissons Ratio (x) = 0.38894 0.24730
# Poissons Ratio (y) = 0.25101 -0.04208
# Poissons Ratio (z) = 0.66097 -0.17428
#
# Static dielectric constant tensor:
#      x y z
#    x 1.746000 -0.066640 -0.004620 
#    y -0.066640 1.771880 -0.003020 
#    z -0.004620 -0.003020 1.755470 
# 
# From -- ./inp_files/318969.got.cif
#   From: 2010.05.17/outbox.cif.g08.bks.cpg/sg2_160_cif.got.tgz:318969.got - 2010.06.03 11:33:40.
