data_PCOD9068460
_publ_section_title
;
Structure prediction by ZEFSAII (Michael W. Deem and Ramdas Pophale) SiO2 
 PCOD9068460
Probable space group: P -1
;
_chemical_formula_sum "Si O2"
_cell_formula_units_Z 14
_cell_length_a 11.145558
_cell_length_b 4.911547
_cell_length_c 13.776535
_cell_angle_alpha 122.921189
_cell_angle_beta 121.252906
_cell_angle_gamma 67.653595
_cell_volume 536.091465
_symmetry_space_group_name_H-M "P -1"
_symmetry_group_IT_number 2
_symmetry_cell_setting 'triclinic'
loop_
_space_group_symop_operation_xyz
x,y,z
-x,-y,-z
loop_
_atom_site_type_symbol
_atom_site_label
_atom_site_fract_x
_atom_site_fract_y
_atom_site_fract_z
Si Si1 0.133976 0.235214 0.971194
Si Si2 0.393406 0.257354 0.944148
Si Si3 0.703998 0.694118 0.765817
Si Si4 0.472828 0.836867 0.353714
Si Si5 0.862266 0.230913 0.595327
Si Si6 0.969207 0.291108 0.314914
Si Si7 0.286903 0.762450 0.662528
O O1 0.252085 0.353661 0.970157
O O2 0.220323 0.129093 0.084781
O O3 0.077651 0.930787 0.835043
O O4 0.000000 0.500000 0.000000
O O5 0.338709 0.077819 0.793395
O O6 0.500000 0.500000 0.000000
O O7 0.500000 0.000000 0.000000
O O8 0.658331 0.368014 0.730218
O O9 0.809535 0.553019 0.698568
O O10 0.571079 0.902588 0.698425
O O11 0.600266 0.555106 0.332807
O O12 0.500000 0.000000 0.500000
O O13 0.002706 0.346487 0.630476
O O14 0.750202 0.198417 0.458549
O O15 0.895523 0.920096 0.617820
O O16 0.849775 0.304587 0.348105
#
# Coordination Sequence:
#
# PCOD9068460 Si02
#       7
#     2   2   2   2   2   2   2
#     4  11  26  50  81 114 153 211 266 331 392 472
#     4  11  28  55  76 114 159 208 264 323 401 475
#     4  12  27  47  75 114 154 199 259 326 388 462
#     4  12  27  48  73 111 156 202 258 315 391 472
#     4  12  25  47  75 111 155 193 259 323 392 459
#     4  11  27  48  72 113 152 200 260 322 395 464
#     4  11  27  47  81 108 154 208 258 321 392 472
#
# _framework density 26.114948999999999
#
# number of rings (size 3 to 8) (size 9 to 14) (size 15 to 20)
#    0.000    0.571    2.857    3.000    0.000   13.143 
#    0.000    2.143    0.000    0.000    0.000    0.000 
#    0.000    0.000    0.000    0.000    0.000    0.000 
#
# Total GULP energy -78601.677540 kJ/mol
# GULP energy per Si atom -5614.405539 kJ/mol
# Density = 2.605551 g / cm^3
# Si number density = 26.114949 Si / 1000 Ang^3
#
#
#
# Elastic Constant Matrix: (Units=GPa)
#
#
# Indices 1 2 3 4 5 6 
#
# 1 122.6526 45.3657 30.2352 9.1282 2.3794 -9.1044
# 2 45.3657 107.8012 41.4907 1.2521 -3.4337 5.6718
# 3 30.2352 41.4907 213.8073 -12.0499 -15.2904 8.8166
# 4 9.1282 1.2521 -12.0499 36.9440 5.5019 5.1864
# 5 2.3794 -3.4337 -15.2904 5.5019 43.2469 8.5423
# 6 -9.1044 5.6718 8.8166 5.1864 8.5423 49.9187
#
#
#
# Elastic Compliance Matrix: (Units=1/GPa)
#
#
# Indices 1 2 3 4 5 6 
#
# 1 0.010443 -0.004159 -0.001078 -0.003005 -0.001524 0.003141
# 2 -0.004159 0.011747 -0.001522 0.000270 0.000988 -0.002022
# 3 -0.001078 -0.001522 0.005438 0.002021 0.001904 -0.001520
# 4 -0.003005 0.000270 0.002021 0.029282 -0.002110 -0.003617
# 5 -0.001524 0.000988 0.001904 -0.002110 0.025178 -0.004816
# 6 0.003141 -0.002022 -0.001520 -0.003617 -0.004816 0.022303
#
#
# Mechanical properties :
#
#
# Convention : Reuss Voigt Hill
#
# Bulk Modulus (GPa) = 70.86906 75.38269 73.12587
# Shear Modulus (GPa) = 40.77862 47.83322 44.30592
#
# Velocity S-wave (km/s) = 3.95588 4.28441 4.12342
# Velocity P-wave (km/s) = 6.93264 7.30776 7.12267
#
# Compressibility (1/GPa) = 0.01411053
#
# Stress axis : x y z
#
# Youngs Moduli (GPa) = 95.75483 85.12717 183.90321
#
# Poissons Ratio (x) = 0.35404 0.19817
# Poissons Ratio (y) = 0.39824 0.27994
# Poissons Ratio (z) = 0.10318 0.12958
#
# Static dielectric constant tensor:
#      x y z
#    x 2.185260 -0.053480 -0.020690 
#    y -0.053480 1.978810 -0.004670 
#    z -0.020690 -0.004670 1.998930 
# 
# From -- ./inp_files/511331.got.cif
#   From: 2010.05.17/outbox.cif.g08.bks.cpg/sg2_256_cif.got.tgz:511331.got - 2010.06.03 11:33:40.
