data_PCOD9068099
_publ_section_title
;
Structure prediction by ZEFSAII (Michael W. Deem and Ramdas Pophale) SiO2 
 PCOD9068099
Probable space group: P -1
;
_chemical_formula_sum "Si O2"
_cell_formula_units_Z 16
_cell_length_a 9.185983
_cell_length_b 15.562841
_cell_length_c 8.128071
_cell_angle_alpha 111.058284
_cell_angle_beta 85.229287
_cell_angle_gamma 47.528035
_cell_volume 704.593090
_symmetry_space_group_name_H-M "P -1"
_symmetry_group_IT_number 2
_symmetry_cell_setting 'triclinic'
loop_
_space_group_symop_operation_xyz
x,y,z
-x,-y,-z
loop_
_atom_site_type_symbol
_atom_site_label
_atom_site_fract_x
_atom_site_fract_y
_atom_site_fract_z
Si Si1 0.359361 0.658887 0.812674
Si Si2 0.973371 0.957917 0.226303
Si Si3 0.541687 0.203592 0.252026
Si Si4 0.894129 0.573347 0.382168
Si Si5 0.925399 0.357236 0.093221
Si Si6 0.871230 0.924766 0.564252
Si Si7 0.824888 0.391138 0.749633
Si Si8 0.442102 0.102645 0.936167
O O1 0.437989 0.696065 0.697750
O O2 0.209231 0.643059 0.766385
O O3 0.577675 0.519192 0.789560
O O4 0.192268 0.798965 0.038857
O O5 0.872441 0.960760 0.401900
O O6 0.782715 0.048589 0.168718
O O7 0.039847 0.031108 0.308889
O O8 0.356872 0.271536 0.453900
O O9 0.458118 0.194592 0.087527
O O10 0.891241 0.480186 0.219068
O O11 0.000000 0.500000 0.500000
O O12 0.040267 0.581031 0.288487
O O13 0.830107 0.380409 0.938503
O O14 0.189327 0.209567 0.973137
O O15 0.042539 0.758401 0.440893
O O16 0.629098 0.011365 0.714636
O O17 0.500000 0.000000 0.000000
#
# Coordination Sequence:
#
# PCOD9068099 Si02
#       8
#     2   2   2   2   2   2   2   2
#     4  12  25  48  76 106 147 190 245 296 363 426
#     4  11  26  47  76 109 145 192 244 300 357 430
#     4  12  26  47  76 103 150 192 242 298 359 434
#     4  12  26  49  69 108 144 189 241 296 364 428
#     4  12  28  45  75 105 145 193 240 297 366 424
#     4  11  27  46  76 109 146 188 246 295 363 423
#     4  12  27  49  75 106 148 188 242 303 358 436
#     4  12  26  45  72 104 148 192 238 297 358 433
#
# _framework density 22.70814
#
# number of rings (size 3 to 8) (size 9 to 14) (size 15 to 20)
#    0.000    0.250    5.000    2.625    5.250    2.000 
#    0.000    0.000    0.000    0.000    0.000    0.000 
#    0.000    0.000    0.000    0.000    0.000    0.000 
#
# Total GULP energy -89669.105989 kJ/mol
# GULP energy per Si atom -5604.319124 kJ/mol
# Density = 2.265646 g / cm^3
# Si number density = 22.708140 Si / 1000 Ang^3
#
#
#
# Elastic Constant Matrix: (Units=GPa)
#
#
# Indices 1 2 3 4 5 6 
#
# 1 132.0664 40.8063 30.7977 19.3339 -21.5987 13.6116
# 2 40.8063 84.2314 18.1357 25.9197 -5.3656 -11.3719
# 3 30.7977 18.1357 80.4214 28.7584 -12.4239 -6.2430
# 4 19.3339 25.9197 28.7584 41.6725 7.6088 -5.5669
# 5 -21.5987 -5.3656 -12.4239 7.6088 43.8330 10.7814
# 6 13.6116 -11.3719 -6.2430 -5.5669 10.7814 45.3790
#
#
#
# Elastic Compliance Matrix: (Units=1/GPa)
#
#
# Indices 1 2 3 4 5 6 
#
# 1 0.011880 -0.004773 -0.001578 -0.003729 0.007229 -0.007152
# 2 -0.004773 0.017343 0.001694 -0.009240 0.000696 0.004712
# 3 -0.001578 0.001694 0.019128 -0.014892 0.007453 -0.000068
# 4 -0.003729 -0.009240 -0.014892 0.045637 -0.016664 0.006312
# 5 0.007229 0.000696 0.007453 -0.016664 0.034206 -0.011140
# 6 -0.007152 0.004712 -0.000068 0.006312 -0.011140 0.028774
#
#
# Mechanical properties :
#
#
# Convention : Reuss Voigt Hill
#
# Bulk Modulus (GPa) = 25.61618 52.91093 39.26356
# Shear Modulus (GPa) = 27.88701 39.97553 33.93127
#
# Velocity S-wave (km/s) = 3.50817 4.20027 3.86973
# Velocity P-wave (km/s) = 5.26449 6.84646 6.10692
#
# Compressibility (1/GPa) = 0.03903783
#
# Stress axis : x y z
#
# Youngs Moduli (GPa) = 84.17545 57.65895 52.27857
#
# Poissons Ratio (x) = 0.27521 0.08250
# Poissons Ratio (y) = 0.40177 -0.08857
# Poissons Ratio (z) = 0.13283 -0.09769
#
# Static dielectric constant tensor:
#      x y z
#    x 1.844410 0.025540 -0.001480 
#    y 0.025540 1.816590 -0.014680 
#    z -0.001480 -0.014680 1.838260 
# 
# From -- ./inp_files/206943.got.cif
#   From: 2010.05.17/outbox.cif.g08.bks.cpg/sg2_104_cif.got.tgz:206943.got - 2010.06.03 11:33:40.
