data_PCOD9068270
_publ_section_title
;
Structure prediction by ZEFSAII (Michael W. Deem and Ramdas Pophale) SiO2 
 PCOD9068270
Probable space group: P -1
;
_chemical_formula_sum "Si O2"
_cell_formula_units_Z 12
_cell_length_a 8.700886
_cell_length_b 9.508722
_cell_length_c 9.224840
_cell_angle_alpha 49.174452
_cell_angle_beta 124.962538
_cell_angle_gamma 98.898959
_cell_volume 442.530493
_symmetry_space_group_name_H-M "P -1"
_symmetry_group_IT_number 2
_symmetry_cell_setting 'triclinic'
loop_
_space_group_symop_operation_xyz
x,y,z
-x,-y,-z
loop_
_atom_site_type_symbol
_atom_site_label
_atom_site_fract_x
_atom_site_fract_y
_atom_site_fract_z
Si Si1 0.500000 0.000000 0.500000
Si Si2 0.055410 0.123318 0.214166
Si Si3 0.882626 0.783463 0.369151
Si Si4 0.470662 0.195855 0.640526
Si Si5 0.824257 0.661116 0.108318
Si Si6 0.500000 0.500000 0.000000
Si Si7 0.344459 0.617915 0.141608
O O1 0.716839 0.931230 0.583174
O O2 0.409506 0.932852 0.343443
O O3 0.042236 0.247002 0.976687
O O4 0.007851 0.925061 0.320632
O O5 0.879010 0.273163 0.115143
O O6 0.698572 0.861028 0.327770
O O7 0.793716 0.754385 0.186778
O O8 0.044802 0.571286 0.645170
O O9 0.363314 0.417715 0.368905
O O10 0.609977 0.235244 0.817395
O O11 0.618829 0.665231 0.913609
O O12 0.508171 0.438562 0.877501
#
# Coordination Sequence:
#
# PCOD9068270 Si02
#       7
#     1   2   2   2   2   1   2
#     4  12  32  46  80 120 162 204 288 320 398 474
#     4  12  29  50  79 118 160 217 264 340 394 487
#     4  11  26  48  81 116 158 214 264 325 409 486
#     4  11  26  53  77 119 158 215 263 339 396 497
#     4  11  26  48  78 118 160 208 265 335 396 484
#     4  12  26  48  84 118 150 220 260 332 400 484
#     4  11  27  51  85 111 168 207 269 328 420 468
#
# _framework density 27.116772999999998
#
# number of rings (size 3 to 8) (size 9 to 14) (size 15 to 20)
#    0.000    0.667    3.333    1.500   11.667    5.333 
#    0.000    0.000    0.000    0.000    0.000    0.000 
#    0.000    0.000    0.000    0.000    0.000    0.000 
#
# Total GULP energy -66879.742721 kJ/mol
# GULP energy per Si atom -5573.311893 kJ/mol
# Density = 2.705505 g / cm^3
# Si number density = 27.116773 Si / 1000 Ang^3
#
#
#
# Elastic Constant Matrix: (Units=GPa)
#
#
# Indices 1 2 3 4 5 6 
#
# 1 143.3488 49.4071 30.6574 2.3697 -33.2742 31.0579
# 2 49.4071 131.6534 27.4838 21.6700 -41.1288 -13.7428
# 3 30.6574 27.4838 89.2709 -4.6104 -2.7987 -10.6308
# 4 2.3697 21.6700 -4.6104 45.9422 -1.1914 -21.1172
# 5 -33.2742 -41.1288 -2.7987 -1.1914 55.6432 -0.4882
# 6 31.0579 -13.7428 -10.6308 -21.1172 -0.4882 54.4756
#
#
#
# Elastic Compliance Matrix: (Units=1/GPa)
#
#
# Indices 1 2 3 4 5 6 
#
# 1 0.012322 -0.002290 -0.004828 -0.004636 0.005243 -0.010295
# 2 -0.002290 0.012433 -0.002809 -0.004879 0.007593 0.002070
# 3 -0.004828 -0.002809 0.014801 0.006334 -0.004018 0.007352
# 4 -0.004636 -0.004879 0.006334 0.031640 -0.005252 0.014866
# 5 0.005243 0.007593 -0.004018 -0.005252 0.026373 -0.003658
# 6 -0.010295 0.002070 0.007352 0.014866 -0.003658 0.031913
#
#
# Mechanical properties :
#
#
# Convention : Reuss Voigt Hill
#
# Bulk Modulus (GPa) = 50.75289 64.37440 57.56364
# Shear Modulus (GPa) = 32.07157 48.32718 40.19937
#
# Velocity S-wave (km/s) = 3.44280 4.22618 3.85444
# Velocity P-wave (km/s) = 5.87885 6.89966 6.40961
#
# Compressibility (1/GPa) = 0.01970331
#
# Stress axis : x y z
#
# Youngs Moduli (GPa) = 81.15591 80.43355 67.56277
#
# Poissons Ratio (x) = 0.18419 0.32617
# Poissons Ratio (y) = 0.18584 0.18976
# Poissons Ratio (z) = 0.39179 0.22591
#
# Static dielectric constant tensor:
#      x y z
#    x 2.095180 -0.005950 0.147410 
#    y -0.005950 2.074600 0.004580 
#    z 0.147410 0.004580 2.162140 
# 
# From -- ./inp_files/157012.got.cif
#   From: 2010.05.17/outbox.cif.g08.bks.cpg/sg2_79_cif.got.tgz:157012.got - 2010.06.03 11:33:40.
