data_PCOD9068556
_publ_section_title
;
Structure prediction by ZEFSAII (Michael W. Deem and Ramdas Pophale) SiO2 
 PCOD9068556
Probable space group: P -1
;
_chemical_formula_sum "Si O2"
_cell_formula_units_Z 12
_cell_length_a 13.999056
_cell_length_b 16.372982
_cell_length_c 12.121736
_cell_angle_alpha 147.620933
_cell_angle_beta 20.882438
_cell_angle_gamma 145.504772
_cell_volume 521.299266
_symmetry_space_group_name_H-M "P -1"
_symmetry_group_IT_number 2
_symmetry_cell_setting 'triclinic'
loop_
_space_group_symop_operation_xyz
x,y,z
-x,-y,-z
loop_
_atom_site_type_symbol
_atom_site_label
_atom_site_fract_x
_atom_site_fract_y
_atom_site_fract_z
Si Si1 0.895824 0.470340 0.202151
Si Si2 0.179618 0.092113 0.238564
Si Si3 0.713920 0.387698 0.680500
Si Si4 0.253329 0.862589 0.076221
Si Si5 0.796619 0.050106 0.184482
Si Si6 0.414893 0.640520 0.960793
O O1 0.692807 0.575201 0.585121
O O2 0.706373 0.300664 0.201495
O O3 0.000000 0.500000 0.000000
O O4 0.168552 0.517086 0.034472
O O5 0.481826 0.200312 0.037642
O O6 0.963206 0.172163 0.629842
O O7 0.137962 0.937035 0.178866
O O8 0.139800 0.043081 0.099130
O O9 0.778876 0.229000 0.373220
O O10 0.000000 0.500000 0.500000
O O11 0.500000 0.500000 0.000000
O O12 0.646785 0.332206 0.815020
O O13 0.500000 0.000000 0.000000
O O14 0.500000 0.000000 0.500000
O O15 0.000000 0.000000 0.000000
#
# Coordination Sequence:
#
# PCOD9068556 Si02
#       6
#     2   2   2   2   2   2
#     4  12  26  45  75 108 147 195 249 304 380 453
#     4  11  27  47  73 108 151 198 254 313 377 454
#     4  12  28  50  75 113 153 197 253 318 384 449
#     4  11  27  46  74 109 152 195 251 316 374 453
#     4  12  28  49  79 112 148 204 259 310 382 457
#     4  12  27  47  75 105 150 199 247 311 379 456
#
# _framework density 23.019407000000001
#
# number of rings (size 3 to 8) (size 9 to 14) (size 15 to 20)
#    0.000    0.333    3.333    3.500   14.000    0.000 
#    0.000    0.000    0.000    0.000    0.000    0.000 
#    0.000    0.000    0.000    0.000    0.000    0.000 
#
# Total GULP energy -66870.625833 kJ/mol
# GULP energy per Si atom -5572.552153 kJ/mol
# Density = 2.296701 g / cm^3
# Si number density = 23.019407 Si / 1000 Ang^3
#
#
#
# Elastic Constant Matrix: (Units=GPa)
#
#
# Indices 1 2 3 4 5 6 
#
# 1 101.6019 22.2245 47.2059 -13.4329 6.3782 12.6041
# 2 22.2245 122.8586 20.6847 3.7107 -1.0455 2.4775
# 3 47.2059 20.6847 96.0439 -17.2445 7.9893 -7.5172
# 4 -13.4329 3.7107 -17.2445 41.8951 1.3618 -6.2510
# 5 6.3782 -1.0455 7.9893 1.3618 54.6553 0.2922
# 6 12.6041 2.4775 -7.5172 -6.2510 0.2922 25.0263
#
#
#
# Elastic Compliance Matrix: (Units=1/GPa)
#
#
# Indices 1 2 3 4 5 6 
#
# 1 0.014993 -0.001224 -0.007760 0.000296 -0.000594 -0.009680
# 2 -0.001224 0.008766 -0.001829 -0.002143 0.000639 -0.001343
# 3 -0.007760 -0.001829 0.016719 0.006208 -0.001785 0.010683
# 4 0.000296 -0.002143 0.006208 0.028103 -0.001731 0.008967
# 5 -0.000594 0.000639 -0.001785 -0.001731 0.018687 -0.000951
# 6 -0.009680 -0.001343 0.010683 0.008967 -0.000951 0.050426
#
#
# Mechanical properties :
#
#
# Convention : Reuss Voigt Hill
#
# Bulk Modulus (GPa) = 53.04896 55.63716 54.34306
# Shear Modulus (GPa) = 30.19208 39.67463 34.93336
#
# Velocity S-wave (km/s) = 3.62552 4.15605 3.89981
# Velocity P-wave (km/s) = 6.37348 6.87404 6.62849
#
# Compressibility (1/GPa) = 0.01885051
#
# Stress axis : x y z
#
# Youngs Moduli (GPa) = 66.69742 114.07516 59.81113
#
# Poissons Ratio (x) = 0.13968 0.46416
# Poissons Ratio (y) = 0.08167 0.10941
# Poissons Ratio (z) = 0.51760 0.20866
#
# Static dielectric constant tensor:
#      x y z
#    x 1.776190 0.094670 -0.055530 
#    y 0.094670 1.805810 0.103920 
#    z -0.055530 0.103920 1.836960 
# 
# From -- ./inp_files/58875.got.cif
#   From: 2010.05.17/outbox.cif.g08.bks.cpg/sg2_30_cif.got.tgz:58875.got - 2010.06.03 11:33:40.
