data_PCOD9068307
_publ_section_title
;
Structure prediction by ZEFSAII (Michael W. Deem and Ramdas Pophale) SiO2 
 PCOD9068307
Probable space group: P -1
;
_chemical_formula_sum "Si O2"
_cell_formula_units_Z 16
_cell_length_a 14.130003
_cell_length_b 25.680154
_cell_length_c 16.623244
_cell_angle_alpha 21.346339
_cell_angle_beta 156.894373
_cell_angle_gamma 157.112123
_cell_volume 768.535251
_symmetry_space_group_name_H-M "P -1"
_symmetry_group_IT_number 2
_symmetry_cell_setting 'triclinic'
loop_
_space_group_symop_operation_xyz
x,y,z
-x,-y,-z
loop_
_atom_site_type_symbol
_atom_site_label
_atom_site_fract_x
_atom_site_fract_y
_atom_site_fract_z
Si Si1 0.775440 0.206092 0.755946
Si Si2 0.199740 0.185710 0.377798
Si Si3 0.188576 0.411360 0.909326
Si Si4 0.414679 0.591305 0.235185
Si Si5 0.079626 0.005461 0.297401
Si Si6 0.989797 0.871185 0.241528
Si Si7 0.035105 0.302254 0.239885
Si Si8 0.695132 0.255353 0.437008
O O1 0.494574 0.195693 0.582259
O O2 0.778712 0.220734 0.640826
O O3 0.006309 0.355689 0.767912
O O4 0.841389 0.059008 0.040811
O O5 0.163450 0.280708 0.288609
O O6 0.133028 0.261641 0.137882
O O7 0.000000 0.000000 0.500000
O O8 0.166247 0.552776 0.736772
O O9 0.500000 0.500000 0.000000
O O10 0.500000 0.500000 0.500000
O O11 0.685903 0.730586 0.210689
O O12 0.244008 0.457738 0.228148
O O13 0.230813 0.669373 0.015870
O O14 0.072929 0.944829 0.288788
O O15 0.040281 0.860547 0.534144
O O16 0.368625 0.159680 0.316418
O O17 0.192040 0.807822 0.456204
O O18 0.000000 0.000000 0.000000
#
# Coordination Sequence:
#
# PCOD9068307 Si02
#       8
#     2   2   2   2   2   2   2   2
#     4  12  25  47  74 103 150 189 239 295 368 425
#     4  12  29  46  72 109 144 195 245 291 359 438
#     4  12  26  46  72 105 146 188 240 303 356 427
#     4  11  26  49  71 104 145 190 237 297 362 425
#     4  12  25  47  73 105 149 188 236 306 358 431
#     4  12  26  45  77 107 139 190 241 294 370 431
#     4  11  27  46  74 101 149 190 239 297 358 429
#     4  12  26  44  73 108 144 185 240 300 363 432
#
# _framework density 20.818823999999999
#
# number of rings (size 3 to 8) (size 9 to 14) (size 15 to 20)
#    0.000    0.250    5.000    3.000    5.250    3.000 
#    0.000    0.000    0.000    0.000    0.000    0.000 
#    0.000    0.000    0.000    0.000    0.000    0.000 
#
# Total GULP energy -89532.826153 kJ/mol
# GULP energy per Si atom -5595.801635 kJ/mol
# Density = 2.077144 g / cm^3
# Si number density = 20.818824 Si / 1000 Ang^3
#
#
#
# Elastic Constant Matrix: (Units=GPa)
#
#
# Indices 1 2 3 4 5 6 
#
# 1 128.1691 27.4537 51.4873 3.3512 11.5170 -8.1447
# 2 27.4537 108.9906 29.2446 2.3505 -9.3610 4.5245
# 3 51.4873 29.2446 142.9450 -7.4213 3.5596 6.9436
# 4 3.3512 2.3505 -7.4213 37.8351 0.4829 -0.9371
# 5 11.5170 -9.3610 3.5596 0.4829 42.2206 -10.0079
# 6 -8.1447 4.5245 6.9436 -0.9371 -10.0079 35.4768
#
#
#
# Elastic Compliance Matrix: (Units=1/GPa)
#
#
# Indices 1 2 3 4 5 6 
#
# 1 0.009937 -0.001877 -0.003330 -0.001326 -0.002237 0.002506
# 2 -0.001877 0.010340 -0.001518 -0.000826 0.002778 -0.000691
# 3 -0.003330 -0.001518 0.008750 0.002055 -0.000769 -0.002446
# 4 -0.001326 -0.000826 0.002055 0.027007 -0.000297 0.000028
# 5 -0.002237 0.002778 -0.000769 -0.000297 0.026585 0.006775
# 6 0.002506 -0.000691 -0.002446 0.000028 0.006775 0.031242
#
#
# Mechanical properties :
#
#
# Convention : Reuss Voigt Hill
#
# Bulk Modulus (GPa) = 64.19503 66.27508 65.23505
# Shear Modulus (GPa) = 37.73471 41.23444 39.48457
#
# Velocity S-wave (km/s) = 4.26200 4.45526 4.35970
# Velocity P-wave (km/s) = 7.42439 7.63997 7.53295
#
# Compressibility (1/GPa) = 0.01557753
#
# Stress axis : x y z
#
# Youngs Moduli (GPa) = 100.63480 96.70872 114.28092
#
# Poissons Ratio (x) = 0.18153 0.38056
# Poissons Ratio (y) = 0.18890 0.17347
# Poissons Ratio (z) = 0.33512 0.14680
#
# Static dielectric constant tensor:
#      x y z
#    x 1.731990 -0.017100 0.046220 
#    y -0.017100 1.732940 -0.013510 
#    z 0.046220 -0.013510 1.807010 
# 
# From -- ./inp_files/574531.got.cif
#   From: 2010.05.17/outbox.cif.g08.bks.cpg/sg2_288_cif.got.tgz:574531.got - 2010.06.03 11:33:40.
