data_PCOD9068721
_publ_section_title
;
Structure prediction by ZEFSAII (Michael W. Deem and Ramdas Pophale) SiO2 
 PCOD9068721
Probable space group: P -1
;
_chemical_formula_sum "Si O2"
_cell_formula_units_Z 12
_cell_length_a 14.340315
_cell_length_b 11.858714
_cell_length_c 9.639350
_cell_angle_alpha 113.355449
_cell_angle_beta 66.458002
_cell_angle_gamma 160.189335
_cell_volume 508.194662
_symmetry_space_group_name_H-M "P -1"
_symmetry_group_IT_number 2
_symmetry_cell_setting 'triclinic'
loop_
_space_group_symop_operation_xyz
x,y,z
-x,-y,-z
loop_
_atom_site_type_symbol
_atom_site_label
_atom_site_fract_x
_atom_site_fract_y
_atom_site_fract_z
Si Si1 0.158800 0.375423 0.612975
Si Si2 0.750240 0.804722 0.101750
Si Si3 0.780114 0.092821 0.091750
Si Si4 0.366414 0.367544 0.367421
Si Si5 0.373167 0.721172 0.925413
Si Si6 0.195698 0.667017 0.584597
O O1 0.263737 0.392984 0.447227
O O2 0.378240 0.663001 0.742335
O O3 0.091390 0.420603 0.587100
O O4 0.899364 0.019379 0.670847
O O5 0.616673 0.626759 0.241180
O O6 0.801401 0.006036 0.146945
O O7 0.500000 0.500000 0.000000
O O8 0.000000 0.000000 0.000000
O O9 0.788946 0.225886 0.240634
O O10 0.051731 0.381685 0.979803
O O11 0.521148 0.808123 0.001075
O O12 0.500000 0.500000 0.500000
O O13 0.500000 0.000000 0.000000
O O14 0.000000 0.500000 0.500000
O O15 0.500000 0.000000 0.500000
#
# Coordination Sequence:
#
# PCOD9068721 Si02
#       6
#     2   2   2   2   2   2
#     4  11  28  49  81 115 162 206 269 331 400 479
#     4  12  29  51  78 111 157 207 267 326 394 475
#     4  12  27  47  76 114 154 202 264 324 398 470
#     4  11  29  50  81 116 159 214 267 331 403 476
#     4  12  26  48  77 116 154 206 258 324 401 470
#     4  12  28  48  77 113 157 207 258 328 403 475
#
# _framework density 23.612998000000001
#
# number of rings (size 3 to 8) (size 9 to 14) (size 15 to 20)
#    0.000    0.333    1.667    4.500   16.333    0.000 
#    0.000    0.000    0.000    0.000    0.000    0.000 
#    0.000    0.000    0.000    0.000    0.000    0.000 
#
# Total GULP energy -67223.772082 kJ/mol
# GULP energy per Si atom -5601.981007 kJ/mol
# Density = 2.355925 g / cm^3
# Si number density = 23.612998 Si / 1000 Ang^3
#
#
#
# Elastic Constant Matrix: (Units=GPa)
#
#
# Indices 1 2 3 4 5 6 
#
# 1 174.1358 58.3924 63.4552 1.7586 -7.3465 -4.9974
# 2 58.3924 103.3751 59.0783 -4.3536 -20.1249 5.6558
# 3 63.4552 59.0783 145.9340 -7.4608 0.2137 5.2596
# 4 1.7586 -4.3536 -7.4608 50.9147 8.1889 -3.2744
# 5 -7.3465 -20.1249 0.2137 8.1889 47.9386 5.5415
# 6 -4.9974 5.6558 5.2596 -3.2744 5.5415 56.9816
#
#
#
# Elastic Compliance Matrix: (Units=1/GPa)
#
#
# Indices 1 2 3 4 5 6 
#
# 1 0.007622 -0.003251 -0.002078 -0.000740 -0.000195 0.001159
# 2 -0.003251 0.015633 -0.004873 -0.000424 0.006394 -0.002033
# 3 -0.002078 -0.004873 0.009819 0.001501 -0.002634 -0.000262
# 4 -0.000740 -0.000424 0.001501 0.020580 -0.003976 0.001408
# 5 -0.000195 0.006394 -0.002634 -0.003976 0.024555 -0.003025
# 6 0.001159 -0.002033 -0.000262 0.001408 -0.003025 0.018252
#
#
# Mechanical properties :
#
#
# Convention : Reuss Voigt Hill
#
# Bulk Modulus (GPa) = 78.92028 87.25520 83.08774
# Shear Modulus (GPa) = 41.29274 47.33492 44.31383
#
# Velocity S-wave (km/s) = 4.18632 4.48215 4.33676
# Velocity P-wave (km/s) = 7.54069 7.98865 7.76790
#
# Compressibility (1/GPa) = 0.01267101
#
# Stress axis : x y z
#
# Youngs Moduli (GPa) = 131.19374 63.96902 101.84818
#
# Poissons Ratio (x) = 0.20794 0.21161
# Poissons Ratio (y) = 0.42647 0.49629
# Poissons Ratio (z) = 0.27258 0.31171
#
# Static dielectric constant tensor:
#      x y z
#    x 2.473020 0.003010 -0.192440 
#    y 0.003010 1.812620 0.018540 
#    z -0.192440 0.018540 1.899400 
# 
# From -- ./inp_files/307998.got.cif
#   From: 2010.05.17/outbox.cif.g08.bks.cpg/sg2_154_cif.got.tgz:307998.got - 2010.06.03 11:33:40.
