data_PCOD9068338
_publ_section_title
;
Structure prediction by ZEFSAII (Michael W. Deem and Ramdas Pophale) SiO2 
 PCOD9068338
Probable space group: P -1
;
_chemical_formula_sum "Si O2"
_cell_formula_units_Z 15
_cell_length_a 8.692598
_cell_length_b 18.454933
_cell_length_c 15.842088
_cell_angle_alpha 159.287090
_cell_angle_beta 125.855395
_cell_angle_gamma 50.600353
_cell_volume 694.288010
_symmetry_space_group_name_H-M "P -1"
_symmetry_group_IT_number 2
_symmetry_cell_setting 'triclinic'
loop_
_space_group_symop_operation_xyz
x,y,z
-x,-y,-z
loop_
_atom_site_type_symbol
_atom_site_label
_atom_site_fract_x
_atom_site_fract_y
_atom_site_fract_z
Si Si1 0.433013 0.842486 0.065038
Si Si2 0.904830 0.163253 0.724283
Si Si3 0.934050 0.149190 0.425414
Si Si4 0.790850 0.505101 0.395484
Si Si5 0.463659 0.942204 0.830543
Si Si6 0.227476 0.303038 0.581329
Si Si7 0.500000 0.500000 0.000000
Si Si8 0.161389 0.434434 0.054841
O O1 0.507237 0.893823 0.053026
O O2 0.350214 0.069578 0.331554
O O3 0.277703 0.709139 0.854026
O O4 0.611814 0.708333 0.037562
O O5 0.685511 0.323430 0.815450
O O6 0.000000 0.000000 0.500000
O O7 0.902254 0.023581 0.654822
O O8 0.060359 0.297509 0.932962
O O9 0.764322 0.054259 0.238578
O O10 0.826807 0.342995 0.663854
O O11 0.031539 0.258587 0.505862
O O12 0.616126 0.708279 0.598863
O O13 0.809926 0.543129 0.343511
O O14 0.000000 0.500000 0.500000
O O15 0.500000 0.000000 0.000000
O O16 0.338192 0.396836 0.790832
O O17 0.000000 0.500000 0.000000
#
# Coordination Sequence:
#
# PCOD9068338 Si02
#       8
#     2   2   2   2   2   2   1   2
#     4  11  26  49  75 107 147 199 244 313 382 448
#     4  12  26  45  71 106 152 193 250 306 368 445
#     4  12  26  46  69 110 144 190 244 309 371 444
#     4  11  28  49  74 106 148 198 250 317 379 450
#     4  11  27  47  77 106 141 190 255 311 381 455
#     4  11  29  46  72 109 154 192 255 307 375 458
#     4  12  28  46  72 112 152 204 252 302 386 456
#     4  12  24  42  72 103 143 192 240 296 365 443
#
# _framework density 21.604868
#
# number of rings (size 3 to 8) (size 9 to 14) (size 15 to 20)
#    0.000    0.533    5.333    0.800    9.333    3.200 
#    0.000    0.000    0.000    0.000    0.000    0.000 
#    0.000    0.000    0.000    0.000    0.000    0.000 
#
# Total GULP energy -83565.928939 kJ/mol
# GULP energy per Si atom -5571.061929 kJ/mol
# Density = 2.155569 g / cm^3
# Si number density = 21.604868 Si / 1000 Ang^3
#
#
#
# Elastic Constant Matrix: (Units=GPa)
#
#
# Indices 1 2 3 4 5 6 
#
# 1 113.6398 45.6983 48.4940 -16.3821 16.2572 -2.5866
# 2 45.6983 81.7035 53.0227 -13.2182 7.3348 -3.8679
# 3 48.4940 53.0227 112.4365 -17.5813 22.3692 13.4694
# 4 -16.3821 -13.2182 -17.5813 27.1927 -4.2135 2.4973
# 5 16.2572 7.3348 22.3692 -4.2135 44.3244 -0.3008
# 6 -2.5866 -3.8679 13.4694 2.4973 -0.3008 36.8650
#
#
#
# Elastic Compliance Matrix: (Units=1/GPa)
#
#
# Indices 1 2 3 4 5 6 
#
# 1 0.012511 -0.004704 -0.002318 0.003301 -0.002320 0.000989
# 2 -0.004704 0.020720 -0.008641 0.001642 0.002847 0.004913
# 3 -0.002318 -0.008641 0.016825 0.005084 -0.005779 -0.007608
# 4 0.003301 0.001642 0.005084 0.043256 0.000034 -0.004384
# 5 -0.002320 0.002847 -0.005779 0.000034 0.025877 0.002456
# 6 0.000989 0.004913 -0.007608 -0.004384 0.002456 0.030808
#
#
# Mechanical properties :
#
#
# Convention : Reuss Voigt Hill
#
# Bulk Modulus (GPa) = 53.38996 66.91219 60.15107
# Shear Modulus (GPa) = 26.65713 32.38076 29.51895
#
# Velocity S-wave (km/s) = 3.51643 3.87560 3.70037
# Velocity P-wave (km/s) = 6.42282 7.14599 6.79403
#
# Compressibility (1/GPa) = 0.01873011
#
# Stress axis : x y z
#
# Youngs Moduli (GPa) = 79.92996 48.26140 59.43576
#
# Poissons Ratio (x) = 0.22701 0.13780
# Poissons Ratio (y) = 0.37598 0.51357
# Poissons Ratio (z) = 0.18532 0.41702
#
# Static dielectric constant tensor:
#      x y z
#    x 1.638330 0.108160 -0.077570 
#    y 0.108160 1.762570 0.062710 
#    z -0.077570 0.062710 1.765710 
# 
# From -- ./inp_files/296865.got.cif
#   From: 2010.05.17/outbox.cif.g08.bks.cpg/sg2_149_cif.got.tgz:296865.got - 2010.06.03 11:33:40.
