data_PCOD9068760
_publ_section_title
;
Structure prediction by ZEFSAII (Michael W. Deem and Ramdas Pophale) SiO2 
 PCOD9068760
Probable space group: P -1
;
_chemical_formula_sum "Si O2"
_cell_formula_units_Z 9
_cell_length_a 4.854157
_cell_length_b 14.820868
_cell_length_c 5.102819
_cell_angle_alpha 81.978295
_cell_angle_beta 90.733630
_cell_angle_gamma 116.987211
_cell_volume 323.403323
_symmetry_space_group_name_H-M "P -1"
_symmetry_group_IT_number 2
_symmetry_cell_setting 'triclinic'
loop_
_space_group_symop_operation_xyz
x,y,z
-x,-y,-z
loop_
_atom_site_type_symbol
_atom_site_label
_atom_site_fract_x
_atom_site_fract_y
_atom_site_fract_z
Si Si1 0.760298 0.821416 0.568161
Si Si2 0.216493 0.641510 0.933548
Si Si3 0.734786 0.648487 0.290182
Si Si4 0.000000 0.500000 0.500000
Si Si5 0.688997 0.998950 0.250597
O O1 0.859656 0.750450 0.423451
O O2 0.720311 0.896067 0.327097
O O3 0.459318 0.744924 0.754862
O O4 0.992604 0.899105 0.751012
O O5 0.378921 0.621276 0.212115
O O6 0.931453 0.659191 0.025120
O O7 0.172667 0.553564 0.764841
O O8 0.811445 0.570123 0.482446
O O9 0.500000 0.000000 0.500000
O O10 0.500000 0.000000 0.000000
#
# Coordination Sequence:
#
# PCOD9068760 Si02
#       5
#     2   2   2   1   2
#     4  11  30  51  80 124 164 215 288 339 424 502
#     4  12  29  50  84 117 168 221 278 346 420 501
#     4  12  29  50  84 117 168 221 278 346 420 501
#     4  12  28  54  76 128 160 222 280 346 418 506
#     4  11  30  53  85 122 170 222 282 352 424 504
#
# _framework density 27.829028000000001
#
# number of rings (size 3 to 8) (size 9 to 14) (size 15 to 20)
#    0.000    0.444    0.000    4.000   15.556    8.000 
#    0.000    3.333    0.000    0.000    0.000    0.000 
#    0.000    0.000    0.000    0.000    0.000    0.000 
#
# Total GULP energy -50418.200203 kJ/mol
# GULP energy per Si atom -5602.022245 kJ/mol
# Density = 2.776569 g / cm^3
# Si number density = 27.829028 Si / 1000 Ang^3
#
#
#
# Elastic Constant Matrix: (Units=GPa)
#
#
# Indices 1 2 3 4 5 6 
#
# 1 139.3847 40.1018 23.9931 -6.7952 16.5425 -29.7967
# 2 40.1018 136.5401 71.0275 -54.2740 32.8181 -38.7134
# 3 23.9931 71.0275 170.7154 43.5023 38.1711 -17.3912
# 4 -6.7952 -54.2740 43.5023 -2.9681 0.2401 -4.6882
# 5 16.5425 32.8181 38.1711 0.2401 68.2509 -2.3704
# 6 -29.7967 -38.7134 -17.3912 -4.6882 -2.3704 51.9823
#
#
#
# Elastic Compliance Matrix: (Units=1/GPa)
#
#
# Indices 1 2 3 4 5 6 
#
# 1 0.008492 -0.001277 0.000132 -0.000359 -0.001383 0.003865
# 2 -0.001277 0.002730 0.002559 -0.011313 -0.002359 0.001029
# 3 0.000132 0.002559 0.004131 0.007103 -0.003464 0.003846
# 4 -0.000359 -0.011313 0.007103 -0.013341 0.001344 -0.007396
# 5 -0.001383 -0.002359 -0.003464 0.001344 0.017958 -0.002768
# 6 0.003865 0.001029 0.003846 -0.007396 -0.002768 0.022713
#
#
# Mechanical properties :
#
#
# Convention : Reuss Voigt Hill
#
# Bulk Modulus (GPa) = 55.00539 79.65388 67.32964
# Shear Modulus (GPa) = 108.89619 44.22088 76.55853
#
# Velocity S-wave (km/s) = 6.26222 3.99058 5.25072
# Velocity P-wave (km/s) = 8.49091 7.06524 7.81067
#
# Compressibility (1/GPa) = 0.01818004
#
# Stress axis : x y z
#
# Youngs Moduli (GPa) = 117.75805 366.29215 242.07153
#
# Poissons Ratio (x) = 0.46793 -0.03204
# Poissons Ratio (y) = 0.15043 -0.61936
# Poissons Ratio (z) = -0.01559 -0.93719
#
# Static dielectric constant tensor:
#      x y z
#    x 2.068210 0.093040 0.099240 
#    y 0.093040 2.143970 -0.050770 
#    z 0.099240 -0.050770 1.974700 
# 
# From -- ./inp_files/4807.got.cif
#   From: 2010.05.17/outbox.cif.g08.bks.cpg/sg2_3_cif.got.tgz:4807.got - 2010.06.03 11:33:40.
