data_PCOD9068974
_publ_section_title
;
Structure prediction by ZEFSAII (Michael W. Deem and Ramdas Pophale) SiO2 
 PCOD9068974
Probable space group: P -1
;
_chemical_formula_sum "Si O2"
_cell_formula_units_Z 12
_cell_length_a 9.517044
_cell_length_b 8.945658
_cell_length_c 9.064080
_cell_angle_alpha 60.985638
_cell_angle_beta 128.496026
_cell_angle_gamma 107.926301
_cell_volume 528.140272
_symmetry_space_group_name_H-M "P -1"
_symmetry_group_IT_number 2
_symmetry_cell_setting 'triclinic'
loop_
_space_group_symop_operation_xyz
x,y,z
-x,-y,-z
loop_
_atom_site_type_symbol
_atom_site_label
_atom_site_fract_x
_atom_site_fract_y
_atom_site_fract_z
Si Si1 0.609283 0.151317 0.921958
Si Si2 0.652660 0.362126 0.123787
Si Si3 0.563514 0.836045 0.709790
Si Si4 0.880725 0.930266 0.088928
Si Si5 0.972304 0.796223 0.525491
Si Si6 0.615055 0.672107 0.525565
O O1 0.521476 0.187390 0.692375
O O2 0.597169 0.306124 0.950816
O O3 0.500000 0.000000 0.000000
O O4 0.810214 0.095283 0.052043
O O5 0.612341 0.224779 0.290854
O O6 0.869094 0.340828 0.272540
O O7 0.500000 0.500000 0.000000
O O8 0.639248 0.705730 0.698463
O O9 0.500000 0.000000 0.500000
O O10 0.711069 0.852173 0.927678
O O11 0.947977 0.811340 0.323331
O O12 0.000000 0.000000 0.000000
O O13 0.795083 0.715568 0.528688
O O14 0.000000 0.000000 0.500000
O O15 0.500000 0.500000 0.500000
#
# Coordination Sequence:
#
# PCOD9068974 Si02
#       6
#     2   2   2   2   2   2
#     4  12  21  47  73 100 149 202 254 307 370 455
#     4  12  26  46  71 108 149 193 246 320 386 435
#     4  12  23  44  72 105 147 198 256 304 368 460
#     4  12  24  41  75 114 139 191 278 309 350 446
#     4  12  24  48  81 110 148 210 264 307 369 469
#     4  12  26  46  71 113 155 194 243 323 391 440
#
# _framework density 22.721236999999999
#
# number of rings (size 3 to 8) (size 9 to 14) (size 15 to 20)
#    0.000    0.000    6.667    4.000    0.000    0.000 
#    3.000    5.833    0.000    0.000    0.000    0.000 
#    0.000    0.000    0.000    0.000    0.000    0.000 
#
# Total GULP energy -66836.982589 kJ/mol
# GULP energy per Si atom -5569.748549 kJ/mol
# Density = 2.266952 g / cm^3
# Si number density = 22.721237 Si / 1000 Ang^3
#
#
#
# Elastic Constant Matrix: (Units=GPa)
#
#
# Indices 1 2 3 4 5 6 
#
# 1 134.5263 39.3414 14.7806 16.7324 -3.0745 -0.0735
# 2 39.3414 99.8395 38.0604 11.8069 -1.8156 -16.1615
# 3 14.7806 38.0604 126.1861 17.2659 -1.6711 -16.6564
# 4 16.7324 11.8069 17.2659 31.6174 -10.0539 -7.0434
# 5 -3.0745 -1.8156 -1.6711 -10.0539 50.1396 1.2982
# 6 -0.0735 -16.1615 -16.6564 -7.0434 1.2982 49.5112
#
#
#
# Elastic Compliance Matrix: (Units=1/GPa)
#
#
# Indices 1 2 3 4 5 6 
#
# 1 0.008891 -0.003407 0.000333 -0.004071 -0.000343 -0.001557
# 2 -0.003407 0.013115 -0.003039 -0.000755 -0.000068 0.003148
# 3 0.000333 -0.003039 0.009575 -0.004102 -0.000636 0.001663
# 4 -0.004071 -0.000755 -0.004102 0.039506 0.007410 0.003793
# 5 -0.000343 -0.000068 -0.000636 0.007410 0.021379 0.000257
# 6 -0.001557 0.003148 0.001663 0.003793 0.000257 0.022315
#
#
# Mechanical properties :
#
#
# Convention : Reuss Voigt Hill
#
# Bulk Modulus (GPa) = 51.66655 60.54628 56.10641
# Shear Modulus (GPa) = 37.46525 44.14493 40.80509
#
# Velocity S-wave (km/s) = 4.06508 4.41261 4.24240
# Velocity P-wave (km/s) = 6.69491 7.25719 6.98171
#
# Compressibility (1/GPa) = 0.01935488
#
# Stress axis : x y z
#
# Youngs Moduli (GPa) = 112.47367 76.24999 104.44273
#
# Poissons Ratio (x) = 0.25981 -0.03480
# Poissons Ratio (y) = 0.38324 0.31736
# Poissons Ratio (z) = -0.03748 0.23169
#
# Static dielectric constant tensor:
#      x y z
#    x 1.772560 -0.096280 0.185430 
#    y -0.096280 1.807780 0.149150 
#    z 0.185430 0.149150 1.737380 
# 
# From -- ./inp_files/149716.got.cif
#   From: 2010.05.17/outbox.cif.g08.bks.cpg/sg2_75_cif.got.tgz:149716.got - 2010.06.03 11:33:40.
