data_PCOD9068771
_publ_section_title
;
Structure prediction by ZEFSAII (Michael W. Deem and Ramdas Pophale) SiO2 
 PCOD9068771
Probable space group: P -1
;
_chemical_formula_sum "Si O2"
_cell_formula_units_Z 14
_cell_length_a 17.721175
_cell_length_b 10.480015
_cell_length_c 11.037275
_cell_angle_alpha 61.032234
_cell_angle_beta 23.373326
_cell_angle_gamma 49.134808
_cell_volume 566.926057
_symmetry_space_group_name_H-M "P -1"
_symmetry_group_IT_number 2
_symmetry_cell_setting 'triclinic'
loop_
_space_group_symop_operation_xyz
x,y,z
-x,-y,-z
loop_
_atom_site_type_symbol
_atom_site_label
_atom_site_fract_x
_atom_site_fract_y
_atom_site_fract_z
Si Si1 0.006738 0.821956 0.581423
Si Si2 0.891531 0.503782 0.285042
Si Si3 0.465790 0.131855 0.276820
Si Si4 0.298267 0.205550 0.239386
Si Si5 0.299698 0.411929 0.916333
Si Si6 0.755125 0.070840 0.262897
Si Si7 0.813692 0.278034 0.905362
O O1 0.114320 0.665614 0.596585
O O2 0.145694 0.717159 0.299911
O O3 0.000000 0.000000 0.500000
O O4 0.721269 0.937431 0.971642
O O5 0.623229 0.692816 0.592099
O O6 0.000000 0.500000 0.000000
O O7 0.073632 0.492843 0.121886
O O8 0.401067 0.230128 0.195965
O O9 0.296995 0.076304 0.591416
O O10 0.071593 0.214237 0.601801
O O11 0.244588 0.335830 0.148638
O O12 0.500000 0.000000 0.000000
O O13 0.535949 0.246795 0.576976
O O14 0.347875 0.543795 0.852793
O O15 0.776263 0.130068 0.070696
O O16 0.000000 0.000000 0.000000
#
# Coordination Sequence:
#
# PCOD9068771 Si02
#       7
#     2   2   2   2   2   2   2
#     4  12  29  53  74 108 151 201 255 306 365 448
#     4  12  27  48  77 109 149 204 252 301 377 447
#     4  12  25  46  78 106 151 198 247 304 381 444
#     4  12  18  39  73 103 138 183 238 304 370 429
#     4  12  23  44  71 111 152 186 246 318 370 437
#     4  12  23  40  68 116 151 185 235 307 386 436
#     4  12  23  40  72 107 144 185 242 307 366 435
#
# _framework density 24.694579000000001
#
# number of rings (size 3 to 8) (size 9 to 14) (size 15 to 20)
#    0.000    0.000    8.571    1.714    2.000    2.286 
#    0.000    1.429    0.000    0.000    0.000    0.000 
#    0.000    0.000    0.000    0.000    0.000    0.000 
#
# Total GULP energy -78154.494629 kJ/mol
# GULP energy per Si atom -5582.463902 kJ/mol
# Density = 2.463837 g / cm^3
# Si number density = 24.694579 Si / 1000 Ang^3
#
#
#
# Elastic Constant Matrix: (Units=GPa)
#
#
# Indices 1 2 3 4 5 6 
#
# 1 44.5844 37.5261 3.1724 -4.1695 18.3394 -25.4527
# 2 37.5261 151.7320 41.6159 -25.5690 13.5814 -12.9587
# 3 3.1724 41.6159 101.4627 0.9343 11.0838 -16.3526
# 4 -4.1695 -25.5690 0.9343 62.9072 -2.7208 8.9914
# 5 18.3394 13.5814 11.0838 -2.7208 42.5732 -4.7477
# 6 -25.4527 -12.9587 -16.3526 8.9914 -4.7477 38.1890
#
#
#
# Elastic Compliance Matrix: (Units=1/GPa)
#
#
# Indices 1 2 3 4 5 6 
#
# 1 0.074350 -0.018072 0.015983 -0.010857 -0.025582 0.049641
# 2 -0.018072 0.012567 -0.007023 0.005873 0.004687 -0.011588
# 3 0.015983 -0.007023 0.015501 -0.004493 -0.007288 0.015059
# 4 -0.010857 0.005873 -0.004493 0.019409 0.003959 -0.011244
# 5 -0.025582 0.004687 -0.007288 0.003959 0.033452 -0.015354
# 6 0.049641 -0.011588 0.015059 -0.011244 -0.015354 0.062526
#
#
# Mechanical properties :
#
#
# Convention : Reuss Voigt Hill
#
# Bulk Modulus (GPa) = 11.87738 51.37865 31.62802
# Shear Modulus (GPa) = 18.93269 43.09820 31.01545
#
# Velocity S-wave (km/s) = 2.77189 4.18215 3.54780
# Velocity P-wave (km/s) = 3.88132 6.64615 5.44224
#
# Compressibility (1/GPa) = 0.08419365
#
# Stress axis : x y z
#
# Youngs Moduli (GPa) = 13.44991 79.57477 64.51120
#
# Poissons Ratio (x) = 1.43806 -1.03106
# Poissons Ratio (y) = 0.24306 0.45307
# Poissons Ratio (z) = -0.21497 0.55886
#
# Static dielectric constant tensor:
#      x y z
#    x 2.035120 0.061170 -0.049500 
#    y 0.061170 1.993980 -0.024060 
#    z -0.049500 -0.024060 1.961270 
# 
# From -- ./inp_files/471156.got.cif
#   From: 2010.05.17/outbox.cif.g08.bks.cpg/sg2_236_cif.got.tgz:471156.got - 2010.06.03 11:33:40.
