data_PCOD9068463
_publ_section_title
;
Structure prediction by ZEFSAII (Michael W. Deem and Ramdas Pophale) SiO2 
 PCOD9068463
Probable space group: P -1
;
_chemical_formula_sum "Si O2"
_cell_formula_units_Z 12
_cell_length_a 23.452403
_cell_length_b 5.465951
_cell_length_c 26.468093
_cell_angle_alpha 65.045375
_cell_angle_beta 169.741580
_cell_angle_gamma 115.421389
_cell_volume 545.733414
_symmetry_space_group_name_H-M "P -1"
_symmetry_group_IT_number 2
_symmetry_cell_setting 'triclinic'
loop_
_space_group_symop_operation_xyz
x,y,z
-x,-y,-z
loop_
_atom_site_type_symbol
_atom_site_label
_atom_site_fract_x
_atom_site_fract_y
_atom_site_fract_z
Si Si1 0.426178 0.791145 0.221035
Si Si2 0.820339 0.051476 0.117122
Si Si3 0.311174 0.493891 0.888820
Si Si4 0.249191 0.683914 0.240020
Si Si5 0.748933 0.857093 0.867681
Si Si6 0.754932 0.776263 0.332065
O O1 0.371648 0.460624 0.203182
O O2 0.810798 0.843564 0.559920
O O3 0.259209 0.966712 0.103507
O O4 0.285555 0.902449 0.036695
O O5 0.785660 0.755736 0.137212
O O6 0.540730 0.172589 0.894612
O O7 0.978820 0.605740 0.575374
O O8 0.500000 0.500000 0.000000
O O9 0.575906 0.657201 0.138041
O O10 0.500000 0.500000 0.500000
O O11 0.419043 0.936630 0.334354
O O12 0.000000 0.500000 0.000000
O O13 0.071736 0.818785 0.120447
O O14 0.000000 0.000000 0.500000
#
# Coordination Sequence:
#
# PCOD9068463 Si02
#       6
#     2   2   2   2   2   2
#     4  12  30  49  78 108 164 206 248 306 392 456
#     4  12  30  48  71 109 147 202 252 312 381 469
#     4  12  26  46  73 103 141 188 252 319 386 445
#     4  11  26  50  83 119 151 196 264 308 367 435
#     4  11  28  54  77 116 157 206 250 314 369 454
#     4  12  26  46  73 103 141 188 252 319 386 445
#
# _framework density 21.988758000000001
#
# number of rings (size 3 to 8) (size 9 to 14) (size 15 to 20)
#    0.000    0.333    3.333    3.000   11.667    5.333 
#    0.000    0.000    0.000    0.000    0.000    0.000 
#    0.000    0.000    0.000    0.000    0.000    0.000 
#
# Total GULP energy -66847.644623 kJ/mol
# GULP energy per Si atom -5570.637052 kJ/mol
# Density = 2.193871 g / cm^3
# Si number density = 21.988758 Si / 1000 Ang^3
#
#
#
# Elastic Constant Matrix: (Units=GPa)
#
#
# Indices 1 2 3 4 5 6 
#
# 1 207.2866 105.4375 78.4421 -3.5095 -25.7502 14.6479
# 2 105.4375 167.9394 68.7819 -12.2773 -29.0995 19.1652
# 3 78.4421 68.7819 149.8060 -25.3719 -44.6974 11.3314
# 4 -3.5095 -12.2773 -25.3719 36.4796 6.9691 1.0645
# 5 -25.7502 -29.0995 -44.6974 6.9691 37.3023 -7.8388
# 6 14.6479 19.1652 11.3314 1.0645 -7.8388 39.9756
#
#
#
# Elastic Compliance Matrix: (Units=1/GPa)
#
#
# Indices 1 2 3 4 5 6 
#
# 1 0.007845 -0.004033 -0.002888 -0.002457 -0.000776 -0.000209
# 2 -0.004033 0.009813 -0.001116 0.001692 0.002709 -0.002425
# 3 -0.002888 -0.001116 0.013333 0.006342 0.011924 -0.000017
# 4 -0.002457 0.001692 0.006342 0.032090 0.000719 -0.002422
# 5 -0.000776 0.002709 0.011924 0.000719 0.043399 0.004097
# 6 -0.000209 -0.002425 -0.000017 -0.002422 0.004097 0.027127
#
#
# Mechanical properties :
#
#
# Convention : Reuss Voigt Hill
#
# Bulk Modulus (GPa) = 67.03340 114.48387 90.75864
# Shear Modulus (GPa) = 32.33019 40.90955 36.61987
#
# Velocity S-wave (km/s) = 3.83862 4.31800 4.08535
# Velocity P-wave (km/s) = 7.08506 8.77713 7.97609
#
# Compressibility (1/GPa) = 0.01491794
#
# Stress axis : x y z
#
# Youngs Moduli (GPa) = 127.46478 101.90390 75.00169
#
# Poissons Ratio (x) = 0.41096 0.21662
# Poissons Ratio (y) = 0.51404 0.08369
# Poissons Ratio (z) = 0.36814 0.11370
#
# Static dielectric constant tensor:
#      x y z
#    x 1.668730 -0.113110 -0.042710 
#    y -0.113110 1.855960 -0.036620 
#    z -0.042710 -0.036620 1.729940 
# 
# From -- ./inp_files/121860.got.cif
#   From: 2010.05.17/outbox.cif.g08.bks.cpg/sg2_61_cif.got.tgz:121860.got - 2010.06.03 11:33:40.
