data_PCOD9068684
_publ_section_title
;
Structure prediction by ZEFSAII (Michael W. Deem and Ramdas Pophale) SiO2 
 PCOD9068684
Probable space group: P -1
;
_chemical_formula_sum "Si O2"
_cell_formula_units_Z 10
_cell_length_a 7.837315
_cell_length_b 7.652397
_cell_length_c 11.958760
_cell_angle_alpha 65.618548
_cell_angle_beta 79.113322
_cell_angle_gamma 37.197229
_cell_volume 381.961491
_symmetry_space_group_name_H-M "P -1"
_symmetry_group_IT_number 2
_symmetry_cell_setting 'triclinic'
loop_
_space_group_symop_operation_xyz
x,y,z
-x,-y,-z
loop_
_atom_site_type_symbol
_atom_site_label
_atom_site_fract_x
_atom_site_fract_y
_atom_site_fract_z
Si Si1 0.459549 0.216092 0.796229
Si Si2 0.119475 0.764368 0.871554
Si Si3 0.798240 0.335691 0.492521
Si Si4 0.596345 0.676058 0.846049
Si Si5 0.213573 0.383714 0.405346
O O1 0.276770 0.465029 0.854115
O O2 0.267194 0.442509 0.650081
O O3 0.499245 0.952677 0.852227
O O4 0.777476 0.036722 0.812631
O O5 0.320628 0.779067 0.828090
O O6 0.178281 0.646748 0.023029
O O7 0.500000 0.500000 0.500000
O O8 0.834044 0.360261 0.610275
O O9 0.000000 0.000000 0.500000
O O10 0.753460 0.618590 0.730291
O O11 0.000000 0.500000 0.500000
O O12 0.500000 0.000000 0.500000
#
# Coordination Sequence:
#
# PCOD9068684 Si02
#       5
#     2   2   2   2   2
#     4  12  26  49  81 115 163 209 269 336 410 481
#     4  11  28  49  82 122 155 213 271 336 404 485
#     4  12  26  48  75 110 157 207 267 330 397 480
#     4  11  27  52  81 117 166 208 273 336 403 488
#     4  12  27  48  76 111 154 211 263 324 406 475
#
# _framework density 26.180648999999999
#
# number of rings (size 3 to 8) (size 9 to 14) (size 15 to 20)
#    0.000    0.400    2.000    4.800    2.800    9.600 
#    0.000    0.000    0.000    0.000    0.000    0.000 
#    0.000    0.000    0.000    0.000    0.000    0.000 
#
# Total GULP energy -55755.178216 kJ/mol
# GULP energy per Si atom -5575.517822 kJ/mol
# Density = 2.612106 g / cm^3
# Si number density = 26.180649 Si / 1000 Ang^3
#
#
#
# Elastic Constant Matrix: (Units=GPa)
#
#
# Indices 1 2 3 4 5 6 
#
# 1 60.6567 12.6226 44.4499 1.4660 4.0612 1.8838
# 2 12.6226 186.6279 42.1261 2.1265 10.0228 -27.0176
# 3 44.4499 42.1261 166.8823 0.4783 2.6495 -21.1469
# 4 1.4660 2.1265 0.4783 43.6552 -1.1922 -14.2436
# 5 4.0612 10.0228 2.6495 -1.1922 45.1041 7.3147
# 6 1.8838 -27.0176 -21.1469 -14.2436 7.3147 30.6318
#
#
#
# Elastic Compliance Matrix: (Units=1/GPa)
#
#
# Indices 1 2 3 4 5 6 
#
# 1 0.021926 -0.001185 -0.006611 -0.003389 -0.000029 -0.008526
# 2 -0.001185 0.006686 -0.000427 0.001999 -0.002468 0.007194
# 3 -0.006611 -0.000427 0.008828 0.002587 -0.000986 0.007562
# 4 -0.003389 0.001999 0.002587 0.028577 -0.002392 0.017616
# 5 -0.000029 -0.002468 -0.000986 -0.002392 0.024301 -0.009771
# 6 -0.008526 0.007194 0.007562 0.017616 -0.009771 0.055261
#
#
# Mechanical properties :
#
#
# Convention : Reuss Voigt Hill
#
# Bulk Modulus (GPa) = 47.63446 68.06266 57.84856
# Shear Modulus (GPa) = 29.58169 44.87612 37.22891
#
# Velocity S-wave (km/s) = 3.36506 4.14465 3.77503
# Velocity P-wave (km/s) = 5.77340 6.99700 6.41444
#
# Compressibility (1/GPa) = 0.02099321
#
# Stress axis : x y z
#
# Youngs Moduli (GPa) = 45.60724 149.56691 113.28166
#
# Poissons Ratio (x) = 0.17721 0.74895
# Poissons Ratio (y) = 0.05404 0.04839
# Poissons Ratio (z) = 0.30153 0.06389
#
# Static dielectric constant tensor:
#      x y z
#    x 4.570190 0.265740 -0.777590 
#    y 0.265740 1.975070 -0.155660 
#    z -0.777590 -0.155660 2.306040 
# 
# From -- ./inp_files/164535.got.cif
#   From: 2010.05.17/outbox.cif.g08.bks.cpg/sg2_83_cif.got.tgz:164535.got - 2010.06.03 11:33:40.
