data_PCOD9068341
_publ_section_title
;
Structure prediction by ZEFSAII (Michael W. Deem and Ramdas Pophale) SiO2 
 PCOD9068341
Probable space group: P -1
;
_chemical_formula_sum "Si O2"
_cell_formula_units_Z 15
_cell_length_a 6.352830
_cell_length_b 11.672128
_cell_length_c 9.847576
_cell_angle_alpha 126.138161
_cell_angle_beta 92.222501
_cell_angle_gamma 80.759303
_cell_volume 580.626908
_symmetry_space_group_name_H-M "P -1"
_symmetry_group_IT_number 2
_symmetry_cell_setting 'triclinic'
loop_
_space_group_symop_operation_xyz
x,y,z
-x,-y,-z
loop_
_atom_site_type_symbol
_atom_site_label
_atom_site_fract_x
_atom_site_fract_y
_atom_site_fract_z
Si Si1 0.610116 0.739623 0.208533
Si Si2 0.109274 0.512428 0.864839
Si Si3 0.500000 0.000000 0.000000
Si Si4 0.817481 0.419869 0.558341
Si Si5 0.791275 0.734108 0.694444
Si Si6 0.264366 0.802588 0.021214
Si Si7 0.073757 0.057018 0.685229
Si Si8 0.446290 0.815288 0.529316
O O1 0.661457 0.584865 0.171448
O O2 0.479759 0.746421 0.073314
O O3 0.830557 0.798560 0.238034
O O4 0.472825 0.836851 0.385852
O O5 0.976745 0.443542 0.700910
O O6 0.141624 0.667254 0.919153
O O7 0.000000 0.500000 0.000000
O O8 0.293482 0.138982 0.114119
O O9 0.342901 0.883385 0.952598
O O10 0.718570 0.581281 0.622548
O O11 0.651959 0.325736 0.542269
O O12 0.962847 0.324865 0.381505
O O13 0.668551 0.798859 0.600535
O O14 0.114578 0.916156 0.193080
O O15 0.279245 0.949689 0.673352
O O16 0.000000 0.000000 0.500000
#
# Coordination Sequence:
#
# PCOD9068341 Si02
#       8
#     2   2   1   2   2   2   2   2
#     4  12  25  45  76 114 147 194 254 314 386 453
#     4  12  25  47  79 114 152 193 253 325 388 444
#     4  12  30  48  76 102 158 202 256 304 372 462
#     4  11  26  49  75 108 151 202 257 311 378 458
#     4  11  27  49  71 106 149 206 260 306 377 458
#     4  12  28  49  73 114 154 203 251 312 387 456
#     4  12  25  44  75 110 153 191 245 321 387 445
#     4  12  24  43  79 108 146 194 254 317 379 453
#
# _framework density 25.834147999999999
#
# number of rings (size 3 to 8) (size 9 to 14) (size 15 to 20)
#    0.000    0.267    4.000    4.400    5.600    3.200 
#    0.000    5.333    0.000    0.000    0.000    0.000 
#    0.000    0.000    0.000    0.000    0.000    0.000 
#
# Total GULP energy -83785.007915 kJ/mol
# GULP energy per Si atom -5585.667194 kJ/mol
# Density = 2.577535 g / cm^3
# Si number density = 25.834148 Si / 1000 Ang^3
#
#
#
# Elastic Constant Matrix: (Units=GPa)
#
#
# Indices 1 2 3 4 5 6 
#
# 1 65.8360 30.8585 42.1800 8.5221 -6.4888 14.9131
# 2 30.8585 126.4694 48.9970 23.2679 -9.1417 12.0615
# 3 42.1800 48.9970 97.8630 13.3072 -17.0489 0.8813
# 4 8.5221 23.2679 13.3072 50.7808 -8.1836 -4.9394
# 5 -6.4888 -9.1417 -17.0489 -8.1836 38.6299 2.3298
# 6 14.9131 12.0615 0.8813 -4.9394 2.3298 65.2205
#
#
#
# Elastic Compliance Matrix: (Units=1/GPa)
#
#
# Indices 1 2 3 4 5 6 
#
# 1 0.022865 -0.001398 -0.009001 -0.001392 -0.000460 -0.004937
# 2 -0.001398 0.010777 -0.004307 -0.003804 -0.000277 -0.001893
# 3 -0.009001 -0.004307 0.017075 0.000032 0.004864 0.002453
# 4 -0.001392 -0.003804 0.000032 0.022475 0.003485 0.002599
# 5 -0.000460 -0.000277 0.004864 0.003485 0.028669 -0.000670
# 6 -0.004937 -0.001893 0.002453 0.002599 -0.000670 0.016999
#
#
# Mechanical properties :
#
#
# Convention : Reuss Voigt Hill
#
# Bulk Modulus (GPa) = 46.93916 59.35992 53.14954
# Shear Modulus (GPa) = 32.18017 42.13510 37.15763
#
# Velocity S-wave (km/s) = 3.53320 4.04293 3.79663
# Velocity P-wave (km/s) = 5.90369 6.69484 6.31167
#
# Compressibility (1/GPa) = 0.02130417
#
# Stress axis : x y z
#
# Youngs Moduli (GPa) = 43.73550 92.78821 58.56351
#
# Poissons Ratio (x) = 0.12971 0.52715
# Poissons Ratio (y) = 0.06114 0.25225
# Poissons Ratio (z) = 0.39368 0.39967
#
# Static dielectric constant tensor:
#      x y z
#    x 2.012580 -0.051630 -0.056160 
#    y -0.051630 2.012620 0.020430 
#    z -0.056160 0.020430 2.186530 
# 
# From -- ./inp_files/365387.got.cif
#   From: 2010.05.17/outbox.cif.g08.bks.cpg/sg2_183_cif.got.tgz:365387.got - 2010.06.03 11:33:40.
