data_PCOD9068855
_publ_section_title
;
Structure prediction by ZEFSAII (Michael W. Deem and Ramdas Pophale) SiO2 
 PCOD9068855
Probable space group: P -1
;
_chemical_formula_sum "Si O2"
_cell_formula_units_Z 14
_cell_length_a 15.398738
_cell_length_b 26.197230
_cell_length_c 26.048668
_cell_angle_alpha 11.292545
_cell_angle_beta 18.735992
_cell_angle_gamma 17.691353
_cell_volume 610.798154
_symmetry_space_group_name_H-M "P -1"
_symmetry_group_IT_number 2
_symmetry_cell_setting 'triclinic'
loop_
_space_group_symop_operation_xyz
x,y,z
-x,-y,-z
loop_
_atom_site_type_symbol
_atom_site_label
_atom_site_fract_x
_atom_site_fract_y
_atom_site_fract_z
Si Si1 0.702438 0.175289 0.205779
Si Si2 0.524219 0.228074 0.721176
Si Si3 0.847429 0.152756 0.258841
Si Si4 0.959032 0.014582 0.902836
Si Si5 0.364934 0.364792 0.564095
Si Si6 0.002262 0.735950 0.726893
Si Si7 0.559656 0.792404 0.829320
O O1 0.893011 0.128753 0.196084
O O2 0.874543 0.102651 0.128358
O O3 0.500000 0.000000 0.500000
O O4 0.500000 0.500000 0.000000
O O5 0.500000 0.500000 0.500000
O O6 0.317715 0.347350 0.669341
O O7 0.839307 0.045557 0.699173
O O8 0.500000 0.000000 0.000000
O O9 0.623244 0.010474 0.540763
O O10 0.721300 0.474162 0.031226
O O11 0.209769 0.886975 0.931400
O O12 0.840977 0.349466 0.630820
O O13 0.703082 0.892501 0.168851
O O14 0.687364 0.365664 0.375713
O O15 0.725465 0.806262 0.774956
O O16 0.000000 0.000000 0.500000
O O17 0.000000 0.500000 0.000000
#
# Coordination Sequence:
#
# PCOD9068855 Si02
#       7
#     2   2   2   2   2   2   2
#     4  12  21  37  60 100 150 196 241 269 329 424
#     4  12  25  41  65 101 150 195 238 287 346 418
#     4  12  22  40  67  98 143 193 244 282 332 415
#     4  12  25  44  69 107 151 192 228 296 357 412
#     4  12  26  47  72 106 147 184 240 301 359 425
#     4  12  28  53  81 105 133 184 245 308 379 437
#     4  12  25  46  73 102 139 183 238 293 357 430
#
# _framework density 22.920829000000001
#
# number of rings (size 3 to 8) (size 9 to 14) (size 15 to 20)
#    0.000    0.000    4.286    6.857    2.000    0.000 
#    0.000    4.286    0.000    0.000    0.000    0.000 
#    0.000    0.000    0.000    0.000    0.000    0.000 
#
# Total GULP energy -78315.650913 kJ/mol
# GULP energy per Si atom -5593.975065 kJ/mol
# Density = 2.286866 g / cm^3
# Si number density = 22.920829 Si / 1000 Ang^3
#
#
#
# Elastic Constant Matrix: (Units=GPa)
#
#
# Indices 1 2 3 4 5 6 
#
# 1 128.8451 36.9424 44.1324 1.4175 -2.3052 -37.0225
# 2 36.9424 53.0413 28.8118 -3.4218 4.5877 -24.1750
# 3 44.1324 28.8118 178.4974 -12.4357 -3.8138 -6.4336
# 4 1.4175 -3.4218 -12.4357 45.5971 5.2609 -2.5288
# 5 -2.3052 4.5877 -3.8138 5.2609 33.2953 4.1358
# 6 -37.0225 -24.1750 -6.4336 -2.5288 4.1358 39.2354
#
#
#
# Elastic Compliance Matrix: (Units=1/GPa)
#
#
# Indices 1 2 3 4 5 6 
#
# 1 0.011996 -0.003111 -0.002189 -0.000704 0.000002 0.008998
# 2 -0.003111 0.031602 -0.003654 0.003290 -0.007614 0.016952
# 3 -0.002189 -0.003654 0.006734 0.001296 0.001325 -0.003269
# 4 -0.000704 0.003290 0.001296 0.023266 -0.004470 0.003546
# 5 0.000002 -0.007614 0.001325 -0.004470 0.032964 -0.008235
# 6 0.008998 0.016952 -0.003269 0.003546 -0.008235 0.044984
#
#
# Mechanical properties :
#
#
# Convention : Reuss Voigt Hill
#
# Bulk Modulus (GPa) = 30.84044 64.46190 47.65117
# Shear Modulus (GPa) = 27.73746 40.32536 34.03141
#
# Velocity S-wave (km/s) = 3.48248 4.19899 3.85741
# Velocity P-wave (km/s) = 5.44561 7.18982 6.37762
#
# Compressibility (1/GPa) = 0.03242496
#
# Stress axis : x y z
#
# Youngs Moduli (GPa) = 83.35967 31.64382 148.49812
#
# Poissons Ratio (x) = 0.09843 0.32500
# Poissons Ratio (y) = 0.25930 0.54266
# Poissons Ratio (z) = 0.18244 0.11564
#
# Static dielectric constant tensor:
#      x y z
#    x 1.935960 -0.108310 -0.035990 
#    y -0.108310 1.957490 0.057930 
#    z -0.035990 0.057930 1.790490 
# 
# From -- ./inp_files/534295.got.cif
#   From: 2010.05.17/outbox.cif.g08.bks.cpg/sg2_268_cif.got.tgz:534295.got - 2010.06.03 11:33:40.
