data_PCOD9068001
_publ_section_title
;
Structure prediction by ZEFSAII (Michael W. Deem and Ramdas Pophale) SiO2 
 PCOD9068001
Probable space group: P -1
;
_chemical_formula_sum "Si O2"
_cell_formula_units_Z 10
_cell_length_a 9.918243
_cell_length_b 7.885562
_cell_length_c 12.118298
_cell_angle_alpha 122.565433
_cell_angle_beta 37.650470
_cell_angle_gamma 94.742253
_cell_volume 363.427064
_symmetry_space_group_name_H-M "P -1"
_symmetry_group_IT_number 2
_symmetry_cell_setting 'triclinic'
loop_
_space_group_symop_operation_xyz
x,y,z
-x,-y,-z
loop_
_atom_site_type_symbol
_atom_site_label
_atom_site_fract_x
_atom_site_fract_y
_atom_site_fract_z
Si Si1 0.188268 0.651743 0.193426
Si Si2 0.072752 0.058146 0.761459
Si Si3 0.573991 0.249500 0.300659
Si Si4 0.242921 0.247458 0.328720
Si Si5 0.321121 0.217363 0.808186
O O1 0.110827 0.816991 0.188885
O O2 0.919067 0.820747 0.513826
O O3 0.500000 0.500000 0.000000
O O4 0.191281 0.420633 0.064031
O O5 0.105764 0.254428 0.869343
O O6 0.412334 0.808168 0.421709
O O7 0.901597 0.039738 0.959265
O O8 0.500000 0.500000 0.500000
O O9 0.369154 0.340641 0.360008
O O10 0.536230 0.074479 0.337939
O O11 0.000000 0.500000 0.500000
O O12 0.500000 0.000000 0.000000
#
# Coordination Sequence:
#
# PCOD9068001 Si02
#       5
#     2   2   2   2   2
#     4  12  27  50  79 112 160 212 268 329 406 485
#     4  11  26  46  79 111 152 203 266 330 404 470
#     4  12  27  49  80 115 156 207 271 325 410 476
#     4  12  28  51  78 116 165 210 268 336 405 489
#     4  11  26  49  77 114 159 199 268 334 403 473
#
# _framework density 27.515836
#
# number of rings (size 3 to 8) (size 9 to 14) (size 15 to 20)
#    0.000    0.400    2.000    4.800    8.400    2.400 
#    0.000    0.000    0.000    0.000    0.000    0.000 
#    0.000    0.000    0.000    0.000    0.000    0.000 
#
# Total GULP energy -56103.487751 kJ/mol
# GULP energy per Si atom -5610.348775 kJ/mol
# Density = 2.745321 g / cm^3
# Si number density = 27.515836 Si / 1000 Ang^3
#
#
#
# Elastic Constant Matrix: (Units=GPa)
#
#
# Indices 1 2 3 4 5 6 
#
# 1 242.3280 30.8530 64.8990 3.7448 27.5253 6.0156
# 2 30.8530 75.0436 36.6158 -17.8105 23.4817 -5.7869
# 3 64.8990 36.6158 187.1351 -30.9207 21.4406 7.1729
# 4 3.7448 -17.8105 -30.9207 62.0510 13.9438 11.1176
# 5 27.5253 23.4817 21.4406 13.9438 43.0459 2.1439
# 6 6.0156 -5.7869 7.1729 11.1176 2.1439 49.7173
#
#
#
# Elastic Compliance Matrix: (Units=1/GPa)
#
#
# Indices 1 2 3 4 5 6 
#
# 1 0.004838 -0.001063 -0.001449 -0.000948 -0.001474 -0.000225
# 2 -0.001063 0.020089 -0.000866 0.007965 -0.012495 0.001350
# 3 -0.001449 -0.000866 0.007261 0.004600 -0.003616 -0.001846
# 4 -0.000948 0.007965 0.004600 0.024665 -0.013793 -0.004543
# 5 -0.001474 -0.012495 -0.003616 -0.013793 0.037222 0.000725
# 6 -0.000225 0.001350 -0.001846 -0.004543 0.000725 0.021549
#
#
# Mechanical properties :
#
#
# Convention : Reuss Voigt Hill
#
# Bulk Modulus (GPa) = 39.32140 85.47137 62.39639
# Shear Modulus (GPa) = 38.20960 55.77212 46.99086
#
# Velocity S-wave (km/s) = 3.73049 4.50701 4.13701
# Velocity P-wave (km/s) = 5.73384 7.62982 6.74874
#
# Compressibility (1/GPa) = 0.02543144
#
# Stress axis : x y z
#
# Youngs Moduli (GPa) = 206.71345 49.77740 137.72613
#
# Poissons Ratio (x) = 0.05292 0.19954
# Poissons Ratio (y) = 0.21976 0.11931
# Poissons Ratio (z) = 0.29949 0.04312
#
# Static dielectric constant tensor:
#      x y z
#    x 2.133970 -0.011000 -0.033180 
#    y -0.011000 2.184580 -0.006790 
#    z -0.033180 -0.006790 2.122840 
# 
# From -- ./inp_files/18713.got.cif
#   From: 2010.05.17/outbox.cif.g08.bks.cpg/sg2_10_cif.got.tgz:18713.got - 2010.06.03 11:33:40.
