data_PCOD9068054
_publ_section_title
;
Structure prediction by ZEFSAII (Michael W. Deem and Ramdas Pophale) SiO2 
 PCOD9068054
Probable space group: P -1
;
_chemical_formula_sum "Si O2"
_cell_formula_units_Z 16
_cell_length_a 17.567615
_cell_length_b 17.159952
_cell_length_c 9.333874
_cell_angle_alpha 52.163376
_cell_angle_beta 51.873417
_cell_angle_gamma 16.275502
_cell_volume 617.581378
_symmetry_space_group_name_H-M "P -1"
_symmetry_group_IT_number 2
_symmetry_cell_setting 'triclinic'
loop_
_space_group_symop_operation_xyz
x,y,z
-x,-y,-z
loop_
_atom_site_type_symbol
_atom_site_label
_atom_site_fract_x
_atom_site_fract_y
_atom_site_fract_z
Si Si1 0.149836 0.294209 0.178878
Si Si2 0.473120 0.365966 0.664871
Si Si3 0.326699 0.603641 0.288224
Si Si4 0.321873 0.976820 0.784974
Si Si5 0.119325 0.481406 0.464007
Si Si6 0.292963 0.579682 0.045461
Si Si7 0.543934 0.096208 0.975357
Si Si8 0.002935 0.086472 0.249853
O O1 0.953636 0.454161 0.356457
O O2 0.382158 0.148698 0.126226
O O3 0.000000 0.500000 0.000000
O O4 0.282582 0.079951 0.173985
O O5 0.447985 0.408469 0.477762
O O6 0.714190 0.370863 0.343440
O O7 0.768398 0.091649 0.706148
O O8 0.360731 0.367369 0.847913
O O9 0.205973 0.673861 0.204276
O O10 0.101619 0.885915 0.309526
O O11 0.561039 0.456635 0.130718
O O12 0.475139 0.724730 0.891194
O O13 0.302247 0.031744 0.910366
O O14 0.562294 0.811157 0.612050
O O15 0.048857 0.266005 0.691085
O O16 0.000000 0.500000 0.500000
O O17 0.055658 0.796170 0.959117
#
# Coordination Sequence:
#
# PCOD9068054 Si02
#       8
#     2   2   2   2   2   2   2   2
#     4  11  27  46  76 107 153 192 242 311 379 437
#     4  12  28  44  81 106 148 194 257 302 372 445
#     4  11  26  49  72 111 150 196 247 311 375 439
#     4  12  27  48  77 109 148 195 254 297 370 449
#     4  12  27  48  77 108 147 194 244 304 369 444
#     4  11  27  47  76 106 156 194 248 308 376 439
#     4  11  26  47  73 108 148 192 248 306 373 438
#     4  12  24  49  70 109 141 200 241 306 368 440
#
# _framework density 25.907516999999999
#
# number of rings (size 3 to 8) (size 9 to 14) (size 15 to 20)
#    0.000    0.500    3.750    2.250   12.250    0.000 
#    0.000    0.000    0.000    0.000    0.000    0.000 
#    0.000    0.000    0.000    0.000    0.000    0.000 
#
# Total GULP energy -89693.156712 kJ/mol
# GULP energy per Si atom -5605.822295 kJ/mol
# Density = 2.584855 g / cm^3
# Si number density = 25.907517 Si / 1000 Ang^3
#
#
#
# Elastic Constant Matrix: (Units=GPa)
#
#
# Indices 1 2 3 4 5 6 
#
# 1 101.1666 16.7549 44.1359 -4.2071 23.8340 14.4802
# 2 16.7549 102.5847 28.8518 -8.6180 7.0906 0.6628
# 3 44.1359 28.8518 174.6771 -18.0228 38.8771 9.2537
# 4 -4.2071 -8.6180 -18.0228 48.7934 1.6230 3.9221
# 5 23.8340 7.0906 38.8771 1.6230 41.4754 0.6290
# 6 14.4802 0.6628 9.2537 3.9221 0.6290 31.4253
#
#
#
# Elastic Compliance Matrix: (Units=1/GPa)
#
#
# Indices 1 2 3 4 5 6 
#
# 1 0.012896 -0.001196 -0.001347 0.001044 -0.005901 -0.005533
# 2 -0.001196 0.010411 -0.001353 0.001186 0.000120 0.000579
# 3 -0.001347 -0.001353 0.008224 0.003071 -0.006794 -0.002020
# 4 0.001044 0.001186 0.003071 0.022409 -0.004496 -0.004117
# 5 -0.005901 0.000120 -0.006794 -0.004496 0.033955 0.004598
# 6 -0.005533 0.000579 -0.002020 -0.004117 0.004598 0.035375
#
#
# Mechanical properties :
#
#
# Convention : Reuss Voigt Hill
#
# Bulk Modulus (GPa) = 42.12153 61.99042 52.05597
# Shear Modulus (GPa) = 35.97758 43.58454 39.78106
#
# Velocity S-wave (km/s) = 3.73056 4.10605 3.92280
# Velocity P-wave (km/s) = 5.90337 6.81609 6.37608
#
# Compressibility (1/GPa) = 0.02374083
#
# Stress axis : x y z
#
# Youngs Moduli (GPa) = 77.54466 96.04893 121.58871
#
# Poissons Ratio (x) = 0.11489 0.16374
# Poissons Ratio (y) = 0.09276 0.16445
# Poissons Ratio (z) = 0.10443 0.12991
#
# Static dielectric constant tensor:
#      x y z
#    x 2.140680 -0.037590 -0.117800 
#    y -0.037590 2.071230 0.073410 
#    z -0.117800 0.073410 2.138560 
# 
# From -- ./inp_files/336703.got.cif
#   From: 2010.05.17/outbox.cif.g08.bks.cpg/sg2_169_cif.got.tgz:336703.got - 2010.06.03 11:33:40.
