data_PCOD9068257
_publ_section_title
;
Structure prediction by ZEFSAII (Michael W. Deem and Ramdas Pophale) SiO2 
 PCOD9068257
Probable space group: P -1
;
_chemical_formula_sum "Si O2"
_cell_formula_units_Z 14
_cell_length_a 24.454695
_cell_length_b 10.779652
_cell_length_c 4.946702
_cell_angle_alpha 67.978847
_cell_angle_beta 75.849799
_cell_angle_gamma 33.724041
_cell_volume 665.385568
_symmetry_space_group_name_H-M "P -1"
_symmetry_group_IT_number 2
_symmetry_cell_setting 'triclinic'
loop_
_space_group_symop_operation_xyz
x,y,z
-x,-y,-z
loop_
_atom_site_type_symbol
_atom_site_label
_atom_site_fract_x
_atom_site_fract_y
_atom_site_fract_z
Si Si1 0.486539 0.365308 0.141036
Si Si2 0.852757 0.054752 0.235517
Si Si3 0.133961 0.249180 0.832642
Si Si4 0.364295 0.603755 0.599549
Si Si5 0.118339 0.438147 0.203063
Si Si6 0.318572 0.985971 0.541832
Si Si7 0.961694 0.939448 0.727859
O O1 0.396232 0.511193 0.333343
O O2 0.589326 0.118178 0.353064
O O3 0.500000 0.500000 0.000000
O O4 0.453869 0.385673 0.867676
O O5 0.737873 0.261801 0.286994
O O6 0.880666 0.866991 0.181771
O O7 0.909126 0.964840 0.523005
O O8 0.885137 0.103965 0.938168
O O9 0.107343 0.332446 0.102085
O O10 0.250622 0.054924 0.806252
O O11 0.914959 0.545967 0.474662
O O12 0.353192 0.787063 0.496619
O O13 0.056055 0.677828 0.955418
O O14 0.236807 0.228240 0.272423
O O15 0.000000 0.000000 0.500000
#
# Coordination Sequence:
#
# PCOD9068257 Si02
#       7
#     2   2   2   2   2   2   2
#     4  10  18  28  50  78 120 154 176 202 264 340
#     4  11  23  40  59  80 118 144 187 238 278 334
#     4   9  20  33  55  85 118 140 176 218 292 327
#     4  10  20  31  49  82 113 151 179 212 274 334
#     4  10  21  35  55  83 116 141 191 221 279 336
#     4   8  19  29  50  79 118 144 175 215 263 333
#     4  12  26  42  59  79 104 151 200 237 280 328
#
# _framework density 21.040433
#
# number of rings (size 3 to 8) (size 9 to 14) (size 15 to 20)
#    0.857    1.143    0.000    4.714    8.000    3.429 
#    0.000    0.000    0.000    0.000    0.000    6.000 
#    0.000    0.000    0.000    0.000    0.000    0.000 
#
# Total GULP energy -78095.648667 kJ/mol
# GULP energy per Si atom -5578.260619 kJ/mol
# Density = 2.099254 g / cm^3
# Si number density = 21.040433 Si / 1000 Ang^3
#
#
#
# Elastic Constant Matrix: (Units=GPa)
#
#
# Indices 1 2 3 4 5 6 
#
# 1 44.9092 25.0898 36.6385 -16.7327 7.2285 -19.3747
# 2 25.0898 65.1695 32.7397 -4.1795 2.7863 -27.4160
# 3 36.6385 32.7397 123.1120 3.4324 12.6015 -17.4450
# 4 -16.7327 -4.1795 3.4324 39.3053 -6.0925 12.9887
# 5 7.2285 2.7863 12.6015 -6.0925 34.7179 3.1550
# 6 -19.3747 -27.4160 -17.4450 12.9887 3.1550 22.4060
#
#
#
# Elastic Compliance Matrix: (Units=1/GPa)
#
#
# Indices 1 2 3 4 5 6 
#
# 1 0.047549 -0.001314 -0.009676 0.011164 -0.006727 0.026450
# 2 -0.001314 0.040916 -0.000145 -0.018162 -0.011687 0.060989
# 3 -0.009676 -0.000145 0.012699 -0.008190 -0.004633 0.006743
# 4 0.011164 -0.018162 -0.008190 0.047280 0.014805 -0.048439
# 5 -0.006727 -0.011687 -0.004633 0.014805 0.038855 -0.037778
# 6 0.026450 0.060989 0.006743 -0.048439 -0.037778 0.180778
#
#
# Mechanical properties :
#
#
# Convention : Reuss Voigt Hill
#
# Bulk Modulus (GPa) = 12.67540 46.90297 29.78919
# Shear Modulus (GPa) = 12.00065 28.53404 20.26734
#
# Velocity S-wave (km/s) = 2.39081 3.68659 3.10701
# Velocity P-wave (km/s) = 3.69577 6.36094 5.20193
#
# Compressibility (1/GPa) = 0.07889300
#
# Stress axis : x y z
#
# Youngs Moduli (GPa) = 21.03112 24.44046 78.74731
#
# Poissons Ratio (x) = 0.03212 0.76195
# Poissons Ratio (y) = 0.02764 0.01141
# Poissons Ratio (z) = 0.20349 0.00354
#
# Static dielectric constant tensor:
#      x y z
#    x 1.766420 -0.038260 0.008820 
#    y -0.038260 1.821730 -0.019470 
#    z 0.008820 -0.019470 1.778670 
# 
# From -- ./inp_files/110423.got.cif
#   From: 2010.05.17/outbox.cif.g08.bks.cpg/sg2_56_cif.got.tgz:110423.got - 2010.06.03 11:33:40.
