data_PCOD9068034
_publ_section_title
;
Structure prediction by ZEFSAII (Michael W. Deem and Ramdas Pophale) SiO2 
 PCOD9068034
Probable space group: P -1
;
_chemical_formula_sum "Si O2"
_cell_formula_units_Z 16
_cell_length_a 8.443363
_cell_length_b 13.483470
_cell_length_c 12.801720
_cell_angle_alpha 43.280823
_cell_angle_beta 118.349604
_cell_angle_gamma 93.273640
_cell_volume 772.227970
_symmetry_space_group_name_H-M "P -1"
_symmetry_group_IT_number 2
_symmetry_cell_setting 'triclinic'
loop_
_space_group_symop_operation_xyz
x,y,z
-x,-y,-z
loop_
_atom_site_type_symbol
_atom_site_label
_atom_site_fract_x
_atom_site_fract_y
_atom_site_fract_z
Si Si1 0.602086 0.970250 0.389246
Si Si2 0.545302 0.752214 0.042757
Si Si3 0.256618 0.584905 0.349053
Si Si4 0.152893 0.911720 0.942802
Si Si5 0.924887 0.745615 0.282305
Si Si6 0.647642 0.440755 0.190883
Si Si7 0.261589 0.924264 0.442603
Si Si8 0.897295 0.660115 0.579866
O O1 0.425664 0.936840 0.408108
O O2 0.753623 0.817518 0.482977
O O3 0.720716 0.000095 0.499401
O O4 0.502123 0.132400 0.161935
O O5 0.757467 0.722538 0.181890
O O6 0.556762 0.581883 0.141761
O O7 0.363927 0.847195 0.995108
O O8 0.500000 0.500000 0.500000
O O9 0.190422 0.467526 0.355684
O O10 0.145106 0.623881 0.396582
O O11 0.170994 0.759538 0.131398
O O12 0.120032 0.066531 0.883764
O O13 0.962555 0.978407 0.752472
O O14 0.904948 0.713661 0.421811
O O15 0.682496 0.264802 0.376787
O O16 0.869812 0.420392 0.246228
O O17 0.500000 0.500000 0.000000
#
# Coordination Sequence:
#
# PCOD9068034 Si02
#       8
#     2   2   2   2   2   2   2   2
#     4  11  26  47  72 103 144 186 235 291 354 422
#     4  12  25  45  72 106 143 185 238 288 356 423
#     4  12  29  45  70 109 147 184 237 291 355 417
#     4  12  27  44  74 102 139 192 234 289 351 425
#     4  12  25  49  69 102 144 189 233 290 357 423
#     4  12  26  46  74 104 141 186 235 299 350 417
#     4  11  26  49  72 104 142 185 236 292 354 420
#     4  12  27  46  72 103 145 188 236 294 352 422
#
# _framework density 20.719269000000001
#
# number of rings (size 3 to 8) (size 9 to 14) (size 15 to 20)
#    0.000    0.250    5.000    2.625    8.750    1.000 
#    0.000    1.250    0.000    0.000    0.000    0.000 
#    0.000    0.000    0.000    0.000    0.000    0.000 
#
# Total GULP energy -89657.104612 kJ/mol
# GULP energy per Si atom -5603.569038 kJ/mol
# Density = 2.067211 g / cm^3
# Si number density = 20.719269 Si / 1000 Ang^3
#
#
#
# Elastic Constant Matrix: (Units=GPa)
#
#
# Indices 1 2 3 4 5 6 
#
# 1 95.6889 54.6729 37.1862 -4.7848 10.9128 -0.8254
# 2 54.6729 138.5291 46.3658 -19.0344 6.2942 0.5883
# 3 37.1862 46.3658 116.3064 -6.2069 -1.6595 8.5247
# 4 -4.7848 -19.0344 -6.2069 39.5576 2.1526 -3.2456
# 5 10.9128 6.2942 -1.6595 2.1526 37.8604 -6.8979
# 6 -0.8254 0.5883 8.5247 -3.2456 -6.8979 46.0489
#
#
#
# Elastic Compliance Matrix: (Units=1/GPa)
#
#
# Indices 1 2 3 4 5 6 
#
# 1 0.014658 -0.004763 -0.002899 -0.000762 -0.003465 0.000288
# 2 -0.004763 0.010535 -0.002495 0.004172 -0.000645 0.000439
# 3 -0.002899 -0.002495 0.010666 -0.000101 0.001397 -0.001792
# 4 -0.000762 0.004172 -0.000101 0.027407 -0.001741 0.001623
# 5 -0.003465 -0.000645 0.001397 -0.001741 0.028374 0.003815
# 6 0.000288 0.000439 -0.001792 0.001623 0.003815 0.022733
#
#
# Mechanical properties :
#
#
# Convention : Reuss Voigt Hill
#
# Bulk Modulus (GPa) = 64.33723 69.66382 67.00053
# Shear Modulus (GPa) = 35.74776 38.84668 37.29722
#
# Velocity S-wave (km/s) = 4.15823 4.33472 4.24739
# Velocity P-wave (km/s) = 7.36028 7.66477 7.51407
#
# Compressibility (1/GPa) = 0.01554310
#
# Stress axis : x y z
#
# Youngs Moduli (GPa) = 68.22146 94.92530 93.75994
#
# Poissons Ratio (x) = 0.45216 0.27180
# Poissons Ratio (y) = 0.32496 0.23397
# Poissons Ratio (z) = 0.19776 0.23688
#
# Static dielectric constant tensor:
#      x y z
#    x 1.726920 0.001780 -0.015530 
#    y 0.001780 1.717630 -0.005740 
#    z -0.015530 -0.005740 1.721370 
# 
# From -- ./inp_files/188785.got.cif
#   From: 2010.05.17/outbox.cif.g08.bks.cpg/sg2_95_cif.got.tgz:188785.got - 2010.06.03 11:33:40.
