data_PCOD9068022
_publ_section_title
;
Structure prediction by ZEFSAII (Michael W. Deem and Ramdas Pophale) SiO2 
 PCOD9068022
Probable space group: P -1
;
_chemical_formula_sum "Si O2"
_cell_formula_units_Z 14
_cell_length_a 22.349519
_cell_length_b 5.112311
_cell_length_c 15.476028
_cell_angle_alpha 99.147091
_cell_angle_beta 159.713758
_cell_angle_gamma 78.190759
_cell_volume 597.254406
_symmetry_space_group_name_H-M "P -1"
_symmetry_group_IT_number 2
_symmetry_cell_setting 'triclinic'
loop_
_space_group_symop_operation_xyz
x,y,z
-x,-y,-z
loop_
_atom_site_type_symbol
_atom_site_label
_atom_site_fract_x
_atom_site_fract_y
_atom_site_fract_z
Si Si1 0.107732 0.966391 0.554042
Si Si2 0.580671 0.012935 0.917996
Si Si3 0.166373 0.128714 0.348572
Si Si4 0.001480 0.556616 0.698465
Si Si5 0.653044 0.397005 0.635850
Si Si6 0.631667 0.460775 0.879283
Si Si7 0.124712 0.187223 0.094591
O O1 0.041217 0.736428 0.395542
O O2 0.074964 0.242203 0.471519
O O3 0.311318 0.890974 0.851596
O O4 0.000000 0.000000 0.500000
O O5 0.371925 0.058900 0.642654
O O6 0.626974 0.181526 0.906071
O O7 0.653691 0.698187 0.987700
O O8 0.082656 0.321587 0.321080
O O9 0.130953 0.240894 0.208795
O O10 0.063266 0.873860 0.192562
O O11 0.209116 0.558959 0.973139
O O12 0.500000 0.500000 0.500000
O O13 0.552046 0.436670 0.409955
O O14 0.796923 0.588997 0.838714
O O15 0.742606 0.092673 0.753640
#
# Coordination Sequence:
#
# PCOD9068022 Si02
#       7
#     2   2   2   2   2   2   2
#     4  12  24  46  73 104 139 185 236 299 358 407
#     4  12  25  44  73  96 141 184 233 282 354 421
#     4  11  27  48  71 108 147 190 233 289 361 430
#     4  12  26  43  74 105 140 183 240 294 350 425
#     4  12  24  43  72 106 138 185 246 290 342 420
#     4  12  22  43  68 103 134 184 235 287 342 415
#     4  11  26  47  71 100 150 193 224 290 365 416
#
# _framework density 23.4406
#
# number of rings (size 3 to 8) (size 9 to 14) (size 15 to 20)
#    0.000    0.286    5.714    2.571    0.000   10.286 
#    0.000    0.000    0.000    0.000    0.000    0.000 
#    0.000    0.000    0.000    0.000    0.000    0.000 
#
# Total GULP energy -78492.483094 kJ/mol
# GULP energy per Si atom -5606.605935 kJ/mol
# Density = 2.338725 g / cm^3
# Si number density = 23.440600 Si / 1000 Ang^3
#
#
#
# Elastic Constant Matrix: (Units=GPa)
#
#
# Indices 1 2 3 4 5 6 
#
# 1 99.4184 33.5871 28.5904 0.0605 27.0661 -24.4281
# 2 33.5871 91.1347 14.5043 -2.4525 13.2832 -9.7092
# 3 28.5904 14.5043 168.5617 0.2050 21.3326 -6.4741
# 4 0.0605 -2.4525 0.2050 31.3947 1.7192 -4.6418
# 5 27.0661 13.2832 21.3326 1.7192 40.3215 -9.2917
# 6 -24.4281 -9.7092 -6.4741 -4.6418 -9.2917 33.5359
#
#
#
# Elastic Compliance Matrix: (Units=1/GPa)
#
#
# Indices 1 2 3 4 5 6 
#
# 1 0.015491 -0.003623 -0.001145 0.001295 -0.006735 0.008327
# 2 -0.003623 0.012677 -0.000261 0.001189 -0.001488 0.000733
# 3 -0.001145 -0.000261 0.006471 0.000027 -0.002661 -0.000394
# 4 0.001295 0.001189 0.000027 0.032825 -0.001420 0.005442
# 5 -0.006735 -0.001488 -0.002661 -0.001420 0.031925 0.002798
# 6 0.008327 0.000733 -0.000394 0.005442 0.002798 0.037549
#
#
# Mechanical properties :
#
#
# Convention : Reuss Voigt Hill
#
# Bulk Modulus (GPa) = 40.68508 56.94205 48.81357
# Shear Modulus (GPa) = 32.21888 39.87930 36.04909
#
# Velocity S-wave (km/s) = 3.71143 4.12915 3.92585
# Velocity P-wave (km/s) = 5.98002 6.86134 6.43578
#
# Compressibility (1/GPa) = 0.02457903
#
# Stress axis : x y z
#
# Youngs Moduli (GPa) = 64.55546 78.88607 154.54020
#
# Poissons Ratio (x) = 0.28581 0.17695
# Poissons Ratio (y) = 0.23389 0.04038
# Poissons Ratio (z) = 0.07392 0.02061
#
# Static dielectric constant tensor:
#      x y z
#    x 1.876310 -0.009110 -0.021420 
#    y -0.009110 1.849900 0.001420 
#    z -0.021420 0.001420 1.903230 
# 
# From -- ./inp_files/372932.got.cif
#   From: 2010.05.17/outbox.cif.g08.bks.cpg/sg2_187_cif.got.tgz:372932.got - 2010.06.03 11:33:40.
