data_PCOD9068857
_publ_section_title
;
Structure prediction by ZEFSAII (Michael W. Deem and Ramdas Pophale) SiO2 
 PCOD9068857
Probable space group: P -1
;
_chemical_formula_sum "Si O2"
_cell_formula_units_Z 10
_cell_length_a 9.108459
_cell_length_b 16.352594
_cell_length_c 10.813244
_cell_angle_alpha 28.767137
_cell_angle_beta 39.527208
_cell_angle_gamma 29.383569
_cell_volume 380.114806
_symmetry_space_group_name_H-M "P -1"
_symmetry_group_IT_number 2
_symmetry_cell_setting 'triclinic'
loop_
_space_group_symop_operation_xyz
x,y,z
-x,-y,-z
loop_
_atom_site_type_symbol
_atom_site_label
_atom_site_fract_x
_atom_site_fract_y
_atom_site_fract_z
Si Si1 0.795680 0.488314 0.553615
Si Si2 0.774019 0.034592 0.500541
Si Si3 0.033999 0.288389 0.406270
Si Si4 0.406825 0.402741 0.065521
Si Si5 0.711139 0.741232 0.061897
O O1 0.974222 0.305748 0.568982
O O2 0.000000 0.500000 0.500000
O O3 0.603585 0.717720 0.293734
O O4 0.601709 0.438933 0.812801
O O5 0.949535 0.873677 0.481850
O O6 0.564523 0.276287 0.257994
O O7 0.595212 0.960272 0.778161
O O8 0.000000 0.000000 0.500000
O O9 0.342171 0.249898 0.245806
O O10 0.762103 0.546502 0.204724
O O11 0.062977 0.619828 0.019930
#
# Coordination Sequence:
#
# PCOD9068857 Si02
#       5
#     2   2   2   2   2
#     4   9  18  36  61  86 114 151 192 239 286 337
#     4  12  21  37  62  89 117 152 193 243 285 336
#     4   8  22  39  61  83 118 153 196 229 289 352
#     4   9  21  39  63  81 117 157 190 235 295 333
#     4   8  22  39  61  82 117 151 199 226 289 348
#
# _framework density 26.307841
#
# number of rings (size 3 to 8) (size 9 to 14) (size 15 to 20)
#    2.400    0.000    0.000    2.400    0.000    8.000 
#    0.000    8.000    0.000   18.000    0.000    0.000 
#    0.000    0.000    0.000    0.000    0.000    0.000 
#
# Total GULP energy -55794.395154 kJ/mol
# GULP energy per Si atom -5579.439515 kJ/mol
# Density = 2.624796 g / cm^3
# Si number density = 26.307841 Si / 1000 Ang^3
#
#
#
# Elastic Constant Matrix: (Units=GPa)
#
#
# Indices 1 2 3 4 5 6 
#
# 1 164.4676 68.8560 44.7695 15.3621 0.7893 23.6175
# 2 68.8560 94.6811 64.5024 11.3609 -0.6519 31.7165
# 3 44.7695 64.5024 208.2691 26.7712 31.3676 -10.3449
# 4 15.3621 11.3609 26.7712 35.5760 -8.0103 -2.2967
# 5 0.7893 -0.6519 31.3676 -8.0103 50.6880 -7.0707
# 6 23.6175 31.7165 -10.3449 -2.2967 -7.0707 49.8989
#
#
#
# Elastic Compliance Matrix: (Units=1/GPa)
#
#
# Indices 1 2 3 4 5 6 
#
# 1 0.008914 -0.006488 0.000538 -0.002415 -0.000969 -0.000232
# 2 -0.006488 0.025153 -0.007621 0.000328 0.003237 -0.014023
# 3 0.000538 -0.007621 0.008866 -0.005407 -0.005698 0.005371
# 4 -0.002415 0.000328 -0.005407 0.035404 0.009369 0.002771
# 5 -0.000969 0.003237 -0.005698 0.009369 0.024958 0.001188
# 6 -0.000232 -0.014023 0.005371 0.002771 0.001188 0.030473
#
#
# Mechanical properties :
#
#
# Convention : Reuss Voigt Hill
#
# Bulk Modulus (GPa) = 63.33189 91.51928 77.42558
# Shear Modulus (GPa) = 30.08896 46.51858 38.30377
#
# Velocity S-wave (km/s) = 3.38557 4.20961 3.81987
# Velocity P-wave (km/s) = 6.27761 7.64795 6.99641
#
# Compressibility (1/GPa) = 0.01578983
#
# Stress axis : x y z
#
# Youngs Moduli (GPa) = 112.18782 39.75675 112.78798
#
# Poissons Ratio (x) = 0.25796 -0.06073
# Poissons Ratio (y) = 0.72792 0.85961
# Poissons Ratio (z) = -0.06040 0.30301
#
# Static dielectric constant tensor:
#      x y z
#    x 2.122600 0.015120 -0.008900 
#    y 0.015120 2.096640 -0.047190 
#    z -0.008900 -0.047190 2.157600 
# 
# From -- ./inp_files/401600.got.cif
#   From: 2010.05.17/outbox.cif.g08.bks.cpg/sg2_201_cif.got.tgz:401600.got - 2010.06.03 11:33:40.
