data_PCOD9068651
_publ_section_title
;
Structure prediction by ZEFSAII (Michael W. Deem and Ramdas Pophale) SiO2 
 PCOD9068651
Probable space group: P -1
;
_chemical_formula_sum "Si O2"
_cell_formula_units_Z 16
_cell_length_a 15.505033
_cell_length_b 10.923680
_cell_length_c 12.116480
_cell_angle_alpha 106.949167
_cell_angle_beta 149.786571
_cell_angle_gamma 54.829859
_cell_volume 730.421580
_symmetry_space_group_name_H-M "P -1"
_symmetry_group_IT_number 2
_symmetry_cell_setting 'triclinic'
loop_
_space_group_symop_operation_xyz
x,y,z
-x,-y,-z
loop_
_atom_site_type_symbol
_atom_site_label
_atom_site_fract_x
_atom_site_fract_y
_atom_site_fract_z
Si Si1 0.759791 0.456521 0.701594
Si Si2 0.007292 0.457463 0.177344
Si Si3 0.641174 0.164926 0.629894
Si Si4 0.715740 0.974473 0.283481
Si Si5 0.966784 0.943803 0.123672
Si Si6 0.593727 0.840471 0.823789
Si Si7 0.692861 0.080982 0.060643
Si Si8 0.833383 0.663827 0.437852
O O1 0.483749 0.631070 0.448735
O O2 0.885627 0.262533 0.749911
O O3 0.830403 0.534842 0.715773
O O4 0.879941 0.424701 0.944472
O O5 0.117521 0.347697 0.380553
O O6 0.814969 0.652592 0.058341
O O7 0.858370 0.062920 0.760062
O O8 0.460304 0.168275 0.363818
O O9 0.736940 0.057182 0.820382
O O10 0.862916 0.790133 0.452727
O O11 0.604908 0.104969 0.296996
O O12 0.500000 0.000000 0.000000
O O13 0.802330 0.006338 0.282476
O O14 0.869719 0.049502 0.158970
O O15 0.640622 0.966188 0.921412
O O16 0.429872 0.261740 0.837317
O O17 0.000000 0.500000 0.500000
#
# Coordination Sequence:
#
# PCOD9068651 Si02
#       8
#     2   2   2   2   2   2   2   2
#     4  10  21  34  54  76 112 137 177 220 258 312
#     4  10  18  31  49  86 103 133 175 216 265 306
#     4  10  23  37  52  81 102 146 184 208 267 315
#     4   8  17  30  49  75 103 133 166 209 266 308
#     4  11  22  37  56  73 112 144 175 221 259 314
#     4   9  17  34  53  74 108 129 174 219 250 321
#     4  10  19  33  53  80 102 139 173 215 270 307
#     4  10  18  28  51  79 111 130 163 220 267 315
#
# _framework density 21.905159000000001
#
# number of rings (size 3 to 8) (size 9 to 14) (size 15 to 20)
#    0.000    2.500    1.250    3.375    3.500    0.500 
#    0.000    0.625    0.000    0.000    0.000    5.250 
#    0.000    0.000    0.000    0.000    0.000    0.000 
#
# Total GULP energy -89090.507914 kJ/mol
# GULP energy per Si atom -5568.156745 kJ/mol
# Density = 2.185530 g / cm^3
# Si number density = 21.905159 Si / 1000 Ang^3
#
#
#
# Elastic Constant Matrix: (Units=GPa)
#
#
# Indices 1 2 3 4 5 6 
#
# 1 146.6376 11.4639 43.5356 -12.5497 -15.3803 -26.5934
# 2 11.4639 33.8345 10.8210 -12.7081 3.6818 -18.2500
# 3 43.5356 10.8210 76.6552 -14.3865 -24.3258 -2.1754
# 4 -12.5497 -12.7081 -14.3865 26.5608 -8.7620 9.5832
# 5 -15.3803 3.6818 -24.3258 -8.7620 45.5513 -0.7400
# 6 -26.5934 -18.2500 -2.1754 9.5832 -0.7400 26.7499
#
#
#
# Elastic Compliance Matrix: (Units=1/GPa)
#
#
# Indices 1 2 3 4 5 6 
#
# 1 0.011016 0.006277 -0.007160 -0.001326 -0.000621 0.015110
# 2 0.006277 0.056533 -0.011055 0.007075 -0.006324 0.041201
# 3 -0.007160 -0.011055 0.026357 0.017351 0.015592 -0.018301
# 4 -0.001326 0.007075 0.017351 0.062507 0.019995 -0.016921
# 5 -0.000621 -0.006324 0.015592 0.019995 0.034267 -0.009879
# 6 0.015110 0.041201 -0.018301 -0.016921 -0.009879 0.084814
#
#
# Mechanical properties :
#
#
# Convention : Reuss Voigt Hill
#
# Bulk Modulus (GPa) = 14.27950 43.19648 28.73799
# Shear Modulus (GPa) = 15.49361 32.52618 24.00989
#
# Velocity S-wave (km/s) = 2.66240 3.85757 3.31431
# Velocity P-wave (km/s) = 3.99802 6.29315 5.27200
#
# Compressibility (1/GPa) = 0.07003047
#
# Stress axis : x y z
#
# Youngs Moduli (GPa) = 90.77680 17.68866 37.94036
#
# Poissons Ratio (x) = -0.11103 0.27164
# Poissons Ratio (y) = -0.56978 0.41943
# Poissons Ratio (z) = 0.64993 0.19555
#
# Static dielectric constant tensor:
#      x y z
#    x 1.964640 -0.009930 -0.033160 
#    y -0.009930 1.833330 0.036960 
#    z -0.033160 0.036960 2.106610 
# 
# From -- ./inp_files/283322.got.cif
#   From: 2010.05.17/outbox.cif.g08.bks.cpg/sg2_142_cif.got.tgz:283322.got - 2010.06.03 11:33:40.
