data_PCOD9068844
_publ_section_title
;
Structure prediction by ZEFSAII (Michael W. Deem and Ramdas Pophale) SiO2 
 PCOD9068844
Probable space group: P -1
;
_chemical_formula_sum "Si O2"
_cell_formula_units_Z 12
_cell_length_a 8.585908
_cell_length_b 10.170239
_cell_length_c 11.863823
_cell_angle_alpha 142.700420
_cell_angle_beta 52.275398
_cell_angle_gamma 110.898571
_cell_volume 477.927616
_symmetry_space_group_name_H-M "P -1"
_symmetry_group_IT_number 2
_symmetry_cell_setting 'triclinic'
loop_
_space_group_symop_operation_xyz
x,y,z
-x,-y,-z
loop_
_atom_site_type_symbol
_atom_site_label
_atom_site_fract_x
_atom_site_fract_y
_atom_site_fract_z
Si Si1 0.552643 0.633782 0.918580
Si Si2 0.136669 0.900312 0.201777
Si Si3 0.181177 0.380061 0.422343
Si Si4 0.688126 0.107878 0.500376
Si Si5 0.213344 0.038452 0.891072
Si Si6 0.707154 0.331189 0.251126
O O1 0.621720 0.643588 0.762371
O O2 0.604420 0.370589 0.746920
O O3 0.314627 0.777205 0.126512
O O4 0.698961 0.747188 0.003797
O O5 0.169074 0.139069 0.308992
O O6 0.186509 0.726405 0.955226
O O7 0.891972 0.965697 0.379474
O O8 0.151326 0.552499 0.657136
O O9 0.000000 0.500000 0.500000
O O10 0.500000 0.000000 0.500000
O O11 0.758788 0.089910 0.326542
O O12 0.342902 0.895874 0.837829
O O13 0.000000 0.000000 0.000000
O O14 0.500000 0.500000 0.500000
#
# Coordination Sequence:
#
# PCOD9068844 Si02
#       6
#     2   2   2   2   2   2
#     4  12  24  42  66  99 138 175 223 279 334 401
#     4  12  24  41  67 101 136 176 219 281 339 396
#     4  12  21  35  63 102 136 168 211 277 341 395
#     4  12  28  47  67  95 135 185 230 273 333 399
#     4  12  23  42  69 101 133 170 219 279 339 399
#     4  12  21  35  61 100 135 162 210 267 335 396
#
# _framework density 25.108405000000001
#
# number of rings (size 3 to 8) (size 9 to 14) (size 15 to 20)
#    0.000    0.000    8.333    2.500    0.000    1.333 
#    0.000    0.833    0.000    0.000    0.000    0.000 
#    0.000    0.000    0.000    0.000    0.000    0.000 
#
# Total GULP energy -66952.585039 kJ/mol
# GULP energy per Si atom -5579.382087 kJ/mol
# Density = 2.505126 g / cm^3
# Si number density = 25.108405 Si / 1000 Ang^3
#
#
#
# Elastic Constant Matrix: (Units=GPa)
#
#
# Indices 1 2 3 4 5 6 
#
# 1 132.7604 30.8027 81.9691 13.2530 -25.5668 36.1709
# 2 30.8027 71.6304 55.1213 6.7415 -16.5326 26.9205
# 3 81.9691 55.1213 165.3265 22.3101 -8.8031 28.0401
# 4 13.2530 6.7415 22.3101 47.7113 7.0148 10.5495
# 5 -25.5668 -16.5326 -8.8031 7.0148 70.8283 -11.0260
# 6 36.1709 26.9205 28.0401 10.5495 -11.0260 35.9770
#
#
#
# Elastic Compliance Matrix: (Units=1/GPa)
#
#
# Indices 1 2 3 4 5 6 
#
# 1 0.014213 0.003663 -0.006237 0.000436 0.003416 -0.011250
# 2 0.003663 0.024695 -0.007437 0.001966 0.003497 -0.015869
# 3 -0.006237 -0.007437 0.011370 -0.003008 -0.001760 0.003316
# 4 0.000436 0.001966 -0.003008 0.024155 -0.003344 -0.007673
# 5 0.003416 0.003497 -0.001760 -0.003344 0.016491 0.001356
# 6 -0.011250 -0.015869 0.003316 -0.007673 0.001356 0.051062
#
#
# Mechanical properties :
#
#
# Convention : Reuss Voigt Hill
#
# Bulk Modulus (GPa) = 33.05157 78.38928 55.72042
# Shear Modulus (GPa) = 29.05405 44.35826 36.70616
#
# Velocity S-wave (km/s) = 3.40537 4.20774 3.82764
# Velocity P-wave (km/s) = 5.35296 7.40911 6.46332
#
# Compressibility (1/GPa) = 0.03025575
#
# Stress axis : x y z
#
# Youngs Moduli (GPa) = 70.35973 40.49484 87.94895
#
# Poissons Ratio (x) = -0.14834 0.54853
# Poissons Ratio (y) = -0.25774 0.65408
# Poissons Ratio (z) = 0.43882 0.30116
#
# Static dielectric constant tensor:
#      x y z
#    x 2.753900 -0.137420 -0.408550 
#    y -0.137420 2.036220 0.010800 
#    z -0.408550 0.010800 2.169480 
# 
# From -- ./inp_files/501061.got.cif
#   From: 2010.05.17/outbox.cif.g08.bks.cpg/sg2_251_cif.got.tgz:501061.got - 2010.06.03 11:33:40.
