data_PCOD9068531
_publ_section_title
;
Structure prediction by ZEFSAII (Michael W. Deem and Ramdas Pophale) SiO2 
 PCOD9068531
Probable space group: P -1
;
_chemical_formula_sum "Si O2"
_cell_formula_units_Z 13
_cell_length_a 9.322900
_cell_length_b 11.472412
_cell_length_c 13.542749
_cell_angle_alpha 61.744652
_cell_angle_beta 70.138420
_cell_angle_gamma 122.511549
_cell_volume 645.666285
_symmetry_space_group_name_H-M "P -1"
_symmetry_group_IT_number 2
_symmetry_cell_setting 'triclinic'
loop_
_space_group_symop_operation_xyz
x,y,z
-x,-y,-z
loop_
_atom_site_type_symbol
_atom_site_label
_atom_site_fract_x
_atom_site_fract_y
_atom_site_fract_z
Si Si1 0.655362 0.576948 0.534774
Si Si2 0.653806 0.206873 0.302994
Si Si3 0.778942 0.225552 0.046169
Si Si4 0.337332 0.250263 0.340522
Si Si5 0.746999 0.920959 0.083750
Si Si6 0.500000 0.500000 0.000000
Si Si7 0.314058 0.075304 0.133551
O O1 0.500000 0.500000 0.500000
O O2 0.605013 0.646455 0.606147
O O3 0.523836 0.343444 0.695734
O O4 0.989640 0.815815 0.344109
O O5 0.728816 0.188643 0.190518
O O6 0.457425 0.189694 0.333161
O O7 0.500000 0.000000 0.500000
O O8 0.951977 0.485294 0.157613
O O9 0.507261 0.094369 0.113316
O O10 0.831211 0.117046 0.039657
O O11 0.477631 0.443728 0.146356
O O12 0.000000 0.000000 0.500000
O O13 0.680859 0.903748 0.993209
O O14 0.000000 0.000000 0.000000
O O15 0.575383 0.710066 0.926741
#
# Coordination Sequence:
#
# PCOD9068531 Si02
#       7
#     2   2   2   2   2   1   2
#     4  12  26  42  72 108 141 180 242 292 354 426
#     4  11  27  43  71 103 142 185 236 297 357 417
#     4  11  27  47  65 104 144 184 237 292 361 428
#     4  12  25  45  74 106 138 190 246 292 353 431
#     4  12  26  45  72  98 139 188 232 294 359 429
#     4  12  24  44  76 100 146 182 250 290 348 426
#     4  12  26  45  70 106 141 189 236 293 363 422
#
# _framework density 20.134240999999999
#
# number of rings (size 3 to 8) (size 9 to 14) (size 15 to 20)
#    0.000    0.308    6.154    1.385    4.308    1.846 
#    0.000    0.000    0.000    0.000    0.000    0.000 
#    0.000    0.000    0.000    0.000    0.000    0.000 
#
# Total GULP energy -72504.820546 kJ/mol
# GULP energy per Si atom -5577.293888 kJ/mol
# Density = 2.008841 g / cm^3
# Si number density = 20.134241 Si / 1000 Ang^3
#
#
#
# Elastic Constant Matrix: (Units=GPa)
#
#
# Indices 1 2 3 4 5 6 
#
# 1 117.6165 49.8277 61.3982 -7.2515 -5.5676 -12.4066
# 2 49.8277 149.9953 44.9927 17.3943 1.0953 -22.1927
# 3 61.3982 44.9927 142.5532 12.1246 24.2534 -6.5654
# 4 -7.2515 17.3943 12.1246 25.6904 5.4984 2.8516
# 5 -5.5676 1.0953 24.2534 5.4984 36.0842 -2.1391
# 6 -12.4066 -22.1927 -6.5654 2.8516 -2.1391 19.5340
#
#
#
# Elastic Compliance Matrix: (Units=1/GPa)
#
#
# Indices 1 2 3 4 5 6 
#
# 1 0.014484 -0.003395 -0.006716 0.008037 0.005778 0.002545
# 2 -0.003395 0.010875 -0.000956 -0.009557 0.001926 0.011483
# 3 -0.006716 -0.000956 0.011989 -0.004939 -0.008403 -0.001522
# 4 0.008037 -0.009557 -0.004939 0.052594 -0.004085 -0.015538
# 5 0.005778 0.001926 -0.008403 -0.004085 0.035261 0.007491
# 6 0.002545 0.011483 -0.001522 -0.015538 0.007491 0.068432
#
#
# Mechanical properties :
#
#
# Convention : Reuss Voigt Hill
#
# Bulk Modulus (GPa) = 65.73132 80.28913 73.01023
# Shear Modulus (GPa) = 22.64081 33.19149 27.91615
#
# Velocity S-wave (km/s) = 3.35698 4.06459 3.72761
# Velocity P-wave (km/s) = 6.90964 7.87346 7.40724
#
# Compressibility (1/GPa) = 0.01521345
#
# Stress axis : x y z
#
# Youngs Moduli (GPa) = 69.04250 91.95803 83.40876
#
# Poissons Ratio (x) = 0.31216 0.56020
# Poissons Ratio (y) = 0.23437 0.07975
# Poissons Ratio (z) = 0.46371 0.08792
#
# Static dielectric constant tensor:
#      x y z
#    x 1.689750 0.007440 -0.038330 
#    y 0.007440 1.715410 0.000430 
#    z -0.038330 0.000430 1.717140 
# 
# From -- ./inp_files/256385.got.cif
#   From: 2010.05.17/outbox.cif.g08.bks.cpg/sg2_129_cif.got.tgz:256385.got - 2010.06.03 11:33:40.
