data_PCOD9068348
_publ_section_title
;
Structure prediction by ZEFSAII (Michael W. Deem and Ramdas Pophale) SiO2 
 PCOD9068348
Probable space group: P -1
;
_chemical_formula_sum "Si O2"
_cell_formula_units_Z 15
_cell_length_a 15.625249
_cell_length_b 5.443954
_cell_length_c 12.411820
_cell_angle_alpha 105.225914
_cell_angle_beta 142.774510
_cell_angle_gamma 67.002686
_cell_volume 585.709939
_symmetry_space_group_name_H-M "P -1"
_symmetry_group_IT_number 2
_symmetry_cell_setting 'triclinic'
loop_
_space_group_symop_operation_xyz
x,y,z
-x,-y,-z
loop_
_atom_site_type_symbol
_atom_site_label
_atom_site_fract_x
_atom_site_fract_y
_atom_site_fract_z
Si Si1 0.640340 0.719697 0.478669
Si Si2 0.014373 0.802891 0.393310
Si Si3 0.355107 0.807770 0.317482
Si Si4 0.330333 0.586384 0.727179
Si Si5 0.780541 0.568516 0.172813
Si Si6 0.145485 0.933432 0.948046
Si Si7 0.500000 0.000000 0.000000
Si Si8 0.886574 0.354726 0.826848
O O1 0.512352 0.640717 0.407033
O O2 0.614677 0.683322 0.321575
O O3 0.798348 0.534851 0.660807
O O4 0.624343 0.015490 0.540429
O O5 0.952117 0.566986 0.343592
O O6 0.186924 0.751676 0.535182
O O7 0.906658 0.915078 0.198639
O O8 0.000000 0.000000 0.500000
O O9 0.238858 0.658112 0.216534
O O10 0.268439 0.997100 0.153822
O O11 0.266707 0.528207 0.770881
O O12 0.447978 0.742041 0.877835
O O13 0.780212 0.371440 0.051449
O O14 0.663896 0.866620 0.089339
O O15 0.987188 0.049232 0.864756
O O16 0.000000 0.500000 0.000000
#
# Coordination Sequence:
#
# PCOD9068348 Si02
#       8
#     2   2   2   2   2   2   1   2
#     4  11  26  49  76 105 153 199 253 309 374 450
#     4  12  25  47  72 111 147 194 252 310 368 445
#     4  11  27  48  74 112 147 201 253 310 380 449
#     4  12  26  47  74 109 147 203 248 309 379 447
#     4  12  27  45  75 108 153 196 248 309 378 452
#     4  12  26  44  79 113 150 196 248 317 376 445
#     4  12  26  48  68 104 156 196 248 300 374 458
#     4  12  26  47  74 112 151 195 254 313 374 444
#
# _framework density 25.609949
#
# number of rings (size 3 to 8) (size 9 to 14) (size 15 to 20)
#    0.000    0.267    5.333    2.400    3.733    2.133 
#    2.400    1.333    0.000    0.000    0.000    0.000 
#    0.000    0.000    0.000    0.000    0.000    0.000 
#
# Total GULP energy -83555.387762 kJ/mol
# GULP energy per Si atom -5570.359184 kJ/mol
# Density = 2.555166 g / cm^3
# Si number density = 25.609949 Si / 1000 Ang^3
#
#
#
# Elastic Constant Matrix: (Units=GPa)
#
#
# Indices 1 2 3 4 5 6 
#
# 1 50.1315 6.6822 30.2832 25.9417 -0.1708 3.0658
# 2 6.6822 63.6861 25.6976 9.3167 -7.8406 -21.7339
# 3 30.2832 25.6976 133.1596 18.5825 10.2546 16.0150
# 4 25.9417 9.3167 18.5825 49.8525 -8.0918 9.7828
# 5 -0.1708 -7.8406 10.2546 -8.0918 47.4069 4.6989
# 6 3.0658 -21.7339 16.0150 9.7828 4.6989 39.1001
#
#
#
# Elastic Compliance Matrix: (Units=1/GPa)
#
#
# Indices 1 2 3 4 5 6 
#
# 1 0.031076 0.003510 -0.006161 -0.015958 -0.001312 0.006188
# 2 0.003510 0.026023 -0.007276 -0.007175 0.002820 0.018627
# 3 -0.006161 -0.007276 0.011290 0.001560 -0.002582 -0.008266
# 4 -0.015958 -0.007175 0.001560 0.032327 0.005134 -0.012081
# 5 -0.001312 0.002820 -0.002582 0.005134 0.023123 -0.001335
# 6 0.006188 0.018627 -0.008266 -0.012081 -0.001335 0.042013
#
#
# Mechanical properties :
#
#
# Convention : Reuss Voigt Hill
#
# Bulk Modulus (GPa) = 20.60346 41.36701 30.98523
# Shear Modulus (GPa) = 24.76657 39.55951 32.16304
#
# Velocity S-wave (km/s) = 3.11315 3.93452 3.54769
# Velocity P-wave (km/s) = 4.58092 6.06864 5.37649
#
# Compressibility (1/GPa) = 0.04853555
#
# Stress axis : x y z
#
# Youngs Moduli (GPa) = 32.17882 38.42721 88.57059
#
# Poissons Ratio (x) = -0.13489 0.54569
# Poissons Ratio (y) = -0.11296 0.64447
# Poissons Ratio (z) = 0.19826 0.27961
#
# Static dielectric constant tensor:
#      x y z
#    x 2.104450 -0.000390 -0.050010 
#    y -0.000390 2.192670 -0.084550 
#    z -0.050010 -0.084550 2.030400 
# 
# From -- ./inp_files/442208.got.cif
#   From: 2010.05.17/outbox.cif.g08.bks.cpg/sg2_222_cif.got.tgz:442208.got - 2010.06.03 11:33:40.
