data_PCOD9068664
_publ_section_title
;
Structure prediction by ZEFSAII (Michael W. Deem and Ramdas Pophale) SiO2 
 PCOD9068664
Probable space group: P -1
;
_chemical_formula_sum "Si O2"
_cell_formula_units_Z 10
_cell_length_a 7.322586
_cell_length_b 11.313469
_cell_length_c 8.917792
_cell_angle_alpha 39.750174
_cell_angle_beta 117.195321
_cell_angle_gamma 128.428165
_cell_volume 369.759469
_symmetry_space_group_name_H-M "P -1"
_symmetry_group_IT_number 2
_symmetry_cell_setting 'triclinic'
loop_
_space_group_symop_operation_xyz
x,y,z
-x,-y,-z
loop_
_atom_site_type_symbol
_atom_site_label
_atom_site_fract_x
_atom_site_fract_y
_atom_site_fract_z
Si Si1 0.982683 0.732224 0.654451
Si Si2 0.760393 0.881055 0.938696
Si Si3 0.215443 0.473422 0.906803
Si Si4 0.594080 0.743363 0.319991
Si Si5 0.511553 0.889734 0.446223
O O1 0.020953 0.553831 0.756273
O O2 0.816137 0.614139 0.849779
O O3 0.852175 0.822192 0.411626
O O4 0.224773 0.917932 0.631064
O O5 0.787705 0.700311 0.036931
O O6 0.582373 0.810833 0.081749
O O7 0.671306 0.022614 0.679114
O O8 0.000000 0.000000 0.000000
O O9 0.436786 0.690136 0.723660
O O10 0.500000 0.500000 0.500000
O O11 0.466378 0.797581 0.350622
#
# Coordination Sequence:
#
# PCOD9068664 Si02
#       5
#     2   2   2   2   2
#     4  11  28  49  82 114 154 209 263 317 386 471
#     4  12  28  49  81 118 157 203 262 323 393 466
#     4  11  27  50  82 111 159 203 263 317 389 460
#     4  12  27  50  79 112 159 203 253 328 392 450
#     4  12  27  52  83 112 157 208 262 316 393 467
#
# _framework density 27.044609000000001
#
# number of rings (size 3 to 8) (size 9 to 14) (size 15 to 20)
#    0.000    0.400    2.000    4.200    8.400    6.400 
#    0.000    3.000    0.000    0.000    0.000    0.000 
#    0.000    0.000    0.000    0.000    0.000    0.000 
#
# Total GULP energy -55979.270678 kJ/mol
# GULP energy per Si atom -5597.927068 kJ/mol
# Density = 2.698305 g / cm^3
# Si number density = 27.044609 Si / 1000 Ang^3
#
#
#
# Elastic Constant Matrix: (Units=GPa)
#
#
# Indices 1 2 3 4 5 6 
#
# 1 191.3751 69.6916 51.7434 -22.8669 14.4513 -51.3106
# 2 69.6916 149.8554 62.0118 -34.8226 29.5435 -27.7141
# 3 51.7434 62.0118 153.5592 -15.6161 -13.7595 -15.8624
# 4 -22.8669 -34.8226 -15.6161 36.9590 -13.1015 6.7502
# 5 14.4513 29.5435 -13.7595 -13.1015 59.9205 2.7930
# 6 -51.3106 -27.7141 -15.8624 6.7502 2.7930 74.8481
#
#
#
# Elastic Compliance Matrix: (Units=1/GPa)
#
#
# Indices 1 2 3 4 5 6 
#
# 1 0.007589 -0.001568 -0.001463 0.001368 -0.001291 0.004237
# 2 -0.001568 0.011873 -0.003849 0.006412 -0.005056 0.002116
# 3 -0.001463 -0.003849 0.008994 0.001035 0.004579 -0.000786
# 4 0.001368 0.006412 0.001035 0.035996 0.004612 0.000113
# 5 -0.001291 -0.005056 0.004579 0.004612 0.021693 -0.003013
# 6 0.004237 0.002116 -0.000786 0.000113 -0.003013 0.016984
#
#
# Mechanical properties :
#
#
# Convention : Reuss Voigt Hill
#
# Bulk Modulus (GPa) = 68.04394 95.74259 81.89327
# Shear Modulus (GPa) = 41.05539 55.10172 48.07855
#
# Velocity S-wave (km/s) = 3.90046 4.51870 4.22091
# Velocity P-wave (km/s) = 6.74532 7.91855 7.35536
#
# Compressibility (1/GPa) = 0.01469639
#
# Stress axis : x y z
#
# Youngs Moduli (GPa) = 131.77485 84.22464 111.18869
#
# Poissons Ratio (x) = 0.13204 0.16266
# Poissons Ratio (y) = 0.20659 0.42795
# Poissons Ratio (z) = 0.19278 0.32417
#
# Static dielectric constant tensor:
#      x y z
#    x 2.208540 0.071930 -0.083320 
#    y 0.071930 2.171380 0.067490 
#    z -0.083320 0.067490 2.207130 
# 
# From -- ./inp_files/16791.got.cif
#   From: 2010.05.17/outbox.cif.g08.bks.cpg/sg2_9_cif.got.tgz:16791.got - 2010.06.03 11:33:40.
