data_PCOD9068895
_publ_section_title
;
Structure prediction by ZEFSAII (Michael W. Deem and Ramdas Pophale) SiO2 
 PCOD9068895
Probable space group: P -1
;
_chemical_formula_sum "Si O2"
_cell_formula_units_Z 14
_cell_length_a 10.494969
_cell_length_b 9.183284
_cell_length_c 14.476241
_cell_angle_alpha 62.376707
_cell_angle_beta 40.171589
_cell_angle_gamma 43.810241
_cell_volume 610.903525
_symmetry_space_group_name_H-M "P -1"
_symmetry_group_IT_number 2
_symmetry_cell_setting 'triclinic'
loop_
_space_group_symop_operation_xyz
x,y,z
-x,-y,-z
loop_
_atom_site_type_symbol
_atom_site_label
_atom_site_fract_x
_atom_site_fract_y
_atom_site_fract_z
Si Si1 0.461726 0.188551 0.527373
Si Si2 0.272518 0.783691 0.884671
Si Si3 0.910018 0.398736 0.513016
Si Si4 0.060716 0.880966 0.774514
Si Si5 0.394359 0.671272 0.153367
Si Si6 0.776364 0.729448 0.009951
Si Si7 0.526678 0.979608 0.732979
O O1 0.258784 0.418308 0.524670
O O2 0.399967 0.164946 0.671589
O O3 0.731023 0.142738 0.397560
O O4 0.500000 0.000000 0.500000
O O5 0.397793 0.565962 0.932504
O O6 0.217810 0.761080 0.816245
O O7 0.466148 0.829802 0.774585
O O8 0.000000 0.000000 0.000000
O O9 0.748201 0.354543 0.677295
O O10 0.000000 0.500000 0.500000
O O11 0.163605 0.176042 0.395362
O O12 0.832627 0.135141 0.840270
O O13 0.922358 0.786988 0.850046
O O14 0.568287 0.727830 0.075899
O O15 0.617433 0.910565 0.124096
O O16 0.000000 0.500000 0.000000
#
# Coordination Sequence:
#
# PCOD9068895 Si02
#       7
#     2   2   2   2   2   2   2
#     4  12  21  40  70 103 134 174 220 282 342 396
#     4  12  23  43  69 102 134 178 230 281 334 400
#     4  12  21  41  69 102 137 171 218 286 337 393
#     4  12  23  43  71  96 133 181 226 273 346 396
#     4  12  24  44  71  92 140 185 219 281 338 400
#     4  12  26  51  67  93 144 186 224 281 334 405
#     4  12  25  42  72 105 134 174 229 279 340 402
#
# _framework density 22.916875999999998
#
# number of rings (size 3 to 8) (size 9 to 14) (size 15 to 20)
#    0.000    0.000   10.000    0.429    0.000    1.143 
#    7.714    1.429    0.000    0.000    0.000    0.000 
#    0.000    0.000    0.000    0.000    0.000    0.000 
#
# Total GULP energy -78281.871295 kJ/mol
# GULP energy per Si atom -5591.562235 kJ/mol
# Density = 2.286472 g / cm^3
# Si number density = 22.916876 Si / 1000 Ang^3
#
#
#
# Elastic Constant Matrix: (Units=GPa)
#
#
# Indices 1 2 3 4 5 6 
#
# 1 60.2172 28.4903 36.7886 -8.6432 -20.0578 -13.7998
# 2 28.4903 132.2178 24.8898 3.9833 -14.7129 -36.1164
# 3 36.7886 24.8898 93.1021 -11.1044 -33.0867 18.3664
# 4 -8.6432 3.9833 -11.1044 48.4703 0.5674 -13.5611
# 5 -20.0578 -14.7129 -33.0867 0.5674 31.0432 -4.0983
# 6 -13.7998 -36.1164 18.3664 -13.5611 -4.0983 34.6667
#
#
#
# Elastic Compliance Matrix: (Units=1/GPa)
#
#
# Indices 1 2 3 4 5 6 
#
# 1 0.041802 0.007488 -0.020023 0.013889 0.014535 0.042201
# 2 0.007488 0.015769 -0.010189 0.005336 0.004983 0.027484
# 3 -0.020023 -0.010189 0.032021 -0.005720 0.011660 -0.036410
# 4 0.013889 0.005336 -0.005720 0.028620 0.008355 0.026302
# 5 0.014535 0.004983 0.011660 0.008355 0.058215 0.014951
# 6 0.042201 0.027484 -0.036410 0.026302 0.014951 0.105625
#
#
# Mechanical properties :
#
#
# Convention : Reuss Voigt Hill
#
# Bulk Modulus (GPa) = 22.65270 51.76386 37.20828
# Shear Modulus (GPa) = 14.61075 35.86060 25.23568
#
# Velocity S-wave (km/s) = 2.52772 3.96006 3.32201
# Velocity P-wave (km/s) = 4.29248 6.59895 5.56648
#
# Compressibility (1/GPa) = 0.04414485
#
# Stress axis : x y z
#
# Youngs Moduli (GPa) = 23.92206 63.41550 31.22974
#
# Poissons Ratio (x) = -0.47488 0.62531
# Poissons Ratio (y) = -0.17914 0.31820
# Poissons Ratio (z) = 0.47899 0.64614
#
# Static dielectric constant tensor:
#      x y z
#    x 1.847830 0.011210 0.007320 
#    y 0.011210 1.881530 0.029940 
#    z 0.007320 0.029940 1.912880 
# 
# From -- ./inp_files/380855.got.cif
#   From: 2010.05.17/outbox.cif.g08.bks.cpg/sg2_191_cif.got.tgz:380855.got - 2010.06.03 11:33:40.
