data_PCOD9068527
_publ_section_title
;
Structure prediction by ZEFSAII (Michael W. Deem and Ramdas Pophale) SiO2 
 PCOD9068527
Probable space group: P -1
;
_chemical_formula_sum "Si O2"
_cell_formula_units_Z 16
_cell_length_a 9.727609
_cell_length_b 15.455100
_cell_length_c 16.809824
_cell_angle_alpha 163.417437
_cell_angle_beta 125.501710
_cell_angle_gamma 56.268647
_cell_volume 587.165183
_symmetry_space_group_name_H-M "P -1"
_symmetry_group_IT_number 2
_symmetry_cell_setting 'triclinic'
loop_
_space_group_symop_operation_xyz
x,y,z
-x,-y,-z
loop_
_atom_site_type_symbol
_atom_site_label
_atom_site_fract_x
_atom_site_fract_y
_atom_site_fract_z
Si Si1 0.753489 0.785843 0.875088
Si Si2 0.997844 0.854657 0.165473
Si Si3 0.255977 0.082767 0.265595
Si Si4 0.581370 0.774379 0.091930
Si Si5 0.893649 0.202235 0.582236
Si Si6 0.547464 0.358302 0.245183
Si Si7 0.970042 0.440298 0.343405
Si Si8 0.618780 0.288914 0.802897
O O1 0.600310 0.610141 0.711862
O O2 0.860039 0.589666 0.675887
O O3 0.889030 0.876108 0.067724
O O4 0.668726 0.083470 0.070590
O O5 0.195582 0.780394 0.161975
O O6 0.968738 0.139621 0.464180
O O7 0.914934 0.556623 0.917919
O O8 0.350958 0.334263 0.465570
O O9 0.132049 0.866140 0.982601
O O10 0.155586 0.281039 0.471319
O O11 0.405816 0.873321 0.161195
O O12 0.534944 0.725631 0.941257
O O13 0.646274 0.473865 0.892446
O O14 0.500000 0.500000 0.000000
O O15 0.709311 0.054277 0.389836
O O16 0.000000 0.000000 0.500000
O O17 0.000000 0.500000 0.500000
O O18 0.500000 0.000000 0.500000
#
# Coordination Sequence:
#
# PCOD9068527 Si02
#       8
#     2   2   2   2   2   2   2   2
#     4  11  28  55  87 130 187 223 298 362 439 522
#     4  12  27  53  79 126 169 221 280 358 439 510
#     4  12  28  51  87 120 169 231 294 348 434 525
#     4  12  27  52  90 124 171 224 297 355 448 524
#     4  12  26  49  86 124 162 218 283 356 438 514
#     4  11  26  56  88 133 174 239 287 364 442 524
#     4  12  29  54  81 121 170 236 295 354 431 517
#     4  12  31  51  83 121 168 223 283 359 432 519
#
# _framework density 27.249573999999999
#
# number of rings (size 3 to 8) (size 9 to 14) (size 15 to 20)
#    0.000    0.250    3.750    3.000    5.250    1.000 
#    4.500    3.125    0.000    0.000    0.000    0.000 
#    0.000    0.000    0.000    0.000    0.000    0.000 
#
# Total GULP energy -89937.726390 kJ/mol
# GULP energy per Si atom -5621.107899 kJ/mol
# Density = 2.718755 g / cm^3
# Si number density = 27.249574 Si / 1000 Ang^3
#
#
#
# Elastic Constant Matrix: (Units=GPa)
#
#
# Indices 1 2 3 4 5 6 
#
# 1 232.1905 58.4942 64.7860 -5.2506 -8.8324 -7.2284
# 2 58.4942 184.9796 37.0684 8.0223 -3.0778 -22.2786
# 3 64.7860 37.0684 175.9594 -0.3814 13.1923 -3.4521
# 4 -5.2506 8.0223 -0.3814 49.3958 7.2973 1.0910
# 5 -8.8324 -3.0778 13.1923 7.2973 61.6964 -2.4564
# 6 -7.2284 -22.2786 -3.4521 1.0910 -2.4564 53.1495
#
#
#
# Elastic Compliance Matrix: (Units=1/GPa)
#
#
# Indices 1 2 3 4 5 6 
#
# 1 0.005159 -0.001291 -0.001697 0.000600 0.000969 0.000083
# 2 -0.001291 0.006352 -0.000860 -0.001315 0.000570 0.002485
# 3 -0.001697 -0.000860 0.006615 0.000273 -0.001743 -0.000248
# 4 0.000600 -0.001315 0.000273 0.020923 -0.002553 -0.000999
# 5 0.000969 0.000570 -0.001743 -0.002553 0.017094 0.001100
# 6 0.000083 0.002485 -0.000248 -0.000999 0.001100 0.019923
#
#
# Mechanical properties :
#
#
# Convention : Reuss Voigt Hill
#
# Bulk Modulus (GPa) = 95.87200 101.53630 98.70415
# Shear Modulus (GPa) = 57.31379 61.70038 59.50709
#
# Velocity S-wave (km/s) = 4.59114 4.76360 4.67816
# Velocity P-wave (km/s) = 7.96016 8.22182 8.09204
#
# Compressibility (1/GPa) = 0.01043057
#
# Stress axis : x y z
#
# Youngs Moduli (GPa) = 193.85090 157.42332 151.16087
#
# Poissons Ratio (x) = 0.20325 0.25653
# Poissons Ratio (y) = 0.25028 0.12995
# Poissons Ratio (z) = 0.32898 0.13534
#
# Static dielectric constant tensor:
#      x y z
#    x 2.180130 0.059390 0.004110 
#    y 0.059390 2.226310 0.047370 
#    z 0.004110 0.047370 2.023160 
# 
# From -- ./inp_files/501252.got.cif
#   From: 2010.05.17/outbox.cif.g08.bks.cpg/sg2_251_cif.got.tgz:501252.got - 2010.06.03 11:33:40.
