data_PCOD9068958
_publ_section_title
;
Structure prediction by ZEFSAII (Michael W. Deem and Ramdas Pophale) SiO2 
 PCOD9068958
Probable space group: P -1
;
_chemical_formula_sum "Si O2"
_cell_formula_units_Z 14
_cell_length_a 9.361567
_cell_length_b 8.541506
_cell_length_c 11.622298
_cell_angle_alpha 62.291812
_cell_angle_beta 49.631960
_cell_angle_gamma 82.465202
_cell_volume 606.626386
_symmetry_space_group_name_H-M "P -1"
_symmetry_group_IT_number 2
_symmetry_cell_setting 'triclinic'
loop_
_space_group_symop_operation_xyz
x,y,z
-x,-y,-z
loop_
_atom_site_type_symbol
_atom_site_label
_atom_site_fract_x
_atom_site_fract_y
_atom_site_fract_z
Si Si1 0.718977 0.072186 0.168487
Si Si2 0.452366 0.327625 0.668377
Si Si3 0.229600 0.538158 0.358122
Si Si4 0.877451 0.914769 0.702841
Si Si5 0.291167 0.890322 0.099892
Si Si6 0.071848 0.313246 0.032505
Si Si7 0.546342 0.671414 0.828897
O O1 0.611871 0.237503 0.176522
O O2 0.910892 0.147513 0.115733
O O3 0.598341 0.860103 0.317091
O O4 0.760459 0.061907 0.015330
O O5 0.500000 0.500000 0.500000
O O6 0.645987 0.355620 0.636236
O O7 0.274606 0.334693 0.847891
O O8 0.280718 0.680001 0.178855
O O9 0.318830 0.374314 0.327776
O O10 0.000000 0.500000 0.500000
O O11 0.914627 0.751300 0.819693
O O12 0.667848 0.835112 0.786054
O O13 0.866427 0.071657 0.743806
O O14 0.000000 0.000000 0.500000
O O15 0.500000 0.000000 0.000000
O O16 0.000000 0.500000 0.000000
O O17 0.500000 0.500000 0.000000
#
# Coordination Sequence:
#
# PCOD9068958 Si02
#       7
#     2   2   2   2   2   2   2
#     4  12  25  46  81 106 152 204 253 310 388 447
#     4  12  28  49  73 109 153 199 257 313 380 456
#     4  12  26  43  70 110 148 189 250 315 373 449
#     4  12  26  45  71 106 146 196 254 310 371 450
#     4  12  21  45  76 103 145 193 253 309 377 447
#     4  12  28  50  76 112 157 201 253 317 388 458
#     4  12  23  43  73 107 143 193 250 309 373 447
#
# _framework density 23.078455000000002
#
# number of rings (size 3 to 8) (size 9 to 14) (size 15 to 20)
#    0.000    0.000    5.714    3.857    2.000    3.429 
#    0.000    2.143    0.000    0.000    0.000    0.000 
#    0.000    0.000    0.000    0.000    0.000    0.000 
#
# Total GULP energy -78139.315690 kJ/mol
# GULP energy per Si atom -5581.379692 kJ/mol
# Density = 2.302593 g / cm^3
# Si number density = 23.078455 Si / 1000 Ang^3
#
#
#
# Elastic Constant Matrix: (Units=GPa)
#
#
# Indices 1 2 3 4 5 6 
#
# 1 120.9879 9.9299 33.8010 -7.5809 -20.1250 -2.2662
# 2 9.9299 127.0551 39.3050 6.5356 -15.8840 -17.3811
# 3 33.8010 39.3050 131.4348 -3.4681 -3.8626 -16.0241
# 4 -7.5809 6.5356 -3.4681 40.8532 -5.1381 -1.2675
# 5 -20.1250 -15.8840 -3.8626 -5.1381 43.9372 -6.9471
# 6 -2.2662 -17.3811 -16.0241 -1.2675 -6.9471 46.6326
#
#
#
# Elastic Compliance Matrix: (Units=1/GPa)
#
#
# Indices 1 2 3 4 5 6 
#
# 1 0.009852 0.000563 -0.002424 0.002163 0.004857 0.000638
# 2 0.000563 0.009601 -0.002528 -0.001053 0.003904 0.003290
# 3 -0.002424 -0.002528 0.009227 0.000698 -0.000814 0.002008
# 4 0.002163 -0.001053 0.000698 0.025631 0.003862 0.001224
# 5 0.004857 0.003904 -0.000814 0.003862 0.027667 0.005638
# 6 0.000638 0.003290 0.002008 0.001224 0.005638 0.024265
#
#
# Mechanical properties :
#
#
# Convention : Reuss Voigt Hill
#
# Bulk Modulus (GPa) = 50.24727 60.61663 55.43195
# Shear Modulus (GPa) = 41.10003 46.04738 43.57370
#
# Velocity S-wave (km/s) = 4.22463 4.47167 4.34990
# Velocity P-wave (km/s) = 6.75398 7.27899 7.02139
#
# Compressibility (1/GPa) = 0.01990158
#
# Stress axis : x y z
#
# Youngs Moduli (GPa) = 101.50512 104.15717 108.37623
#
# Poissons Ratio (x) = -0.05867 0.26275
# Poissons Ratio (y) = -0.05717 0.27396
# Poissons Ratio (z) = 0.24609 0.26330
#
# Static dielectric constant tensor:
#      x y z
#    x 1.820840 0.028380 0.028500 
#    y 0.028380 1.776060 0.024020 
#    z 0.028500 0.024020 1.868330 
# 
# From -- ./inp_files/381205.got.cif
#   From: 2010.05.17/outbox.cif.g08.bks.cpg/sg2_191_cif.got.tgz:381205.got - 2010.06.03 11:33:40.
