data_PCOD9068382
_publ_section_title
;
Structure prediction by ZEFSAII (Michael W. Deem and Ramdas Pophale) SiO2 
 PCOD9068382
Probable space group: P -1
;
_chemical_formula_sum "Si O2"
_cell_formula_units_Z 13
_cell_length_a 12.438042
_cell_length_b 15.892827
_cell_length_c 9.243130
_cell_angle_alpha 45.979495
_cell_angle_beta 140.209737
_cell_angle_gamma 152.555000
_cell_volume 538.417848
_symmetry_space_group_name_H-M "P -1"
_symmetry_group_IT_number 2
_symmetry_cell_setting 'triclinic'
loop_
_space_group_symop_operation_xyz
x,y,z
-x,-y,-z
loop_
_atom_site_type_symbol
_atom_site_label
_atom_site_fract_x
_atom_site_fract_y
_atom_site_fract_z
Si Si1 0.645527 0.222093 0.446513
Si Si2 0.720613 0.584477 0.513771
Si Si3 0.036835 0.984680 0.392657
Si Si4 0.925799 0.078546 0.914927
Si Si5 0.420960 0.854870 0.208260
Si Si6 0.000000 0.500000 0.000000
Si Si7 0.795623 0.547434 0.332410
O O1 0.681270 0.175807 0.695435
O O2 0.664596 0.372123 0.318620
O O3 0.898194 0.332216 0.473751
O O4 0.364811 0.044658 0.296840
O O5 0.500000 0.500000 0.500000
O O6 0.642968 0.494248 0.384759
O O7 0.869516 0.785399 0.402979
O O8 0.904340 0.585089 0.772695
O O9 0.327381 0.089116 0.558979
O O10 0.000000 0.000000 0.500000
O O11 0.938587 0.043735 0.133291
O O12 0.142811 0.294837 0.862836
O O13 0.000000 0.000000 0.000000
O O14 0.215776 0.662744 0.145608
O O15 0.500000 0.000000 0.000000
#
# Coordination Sequence:
#
# PCOD9068382 Si02
#       7
#     2   2   2   2   2   1   2
#     4  11  26  49  80 112 158 209 262 323 396 480
#     4  12  26  50  79 115 160 209 268 329 393 476
#     4  12  28  50  75 116 158 204 264 331 399 473
#     4  12  25  49  78 112 156 205 259 327 397 469
#     4  12  25  47  75 111 156 203 260 318 392 472
#     4  12  26  48  78 114 160 208 260 322 404 462
#     4  11  26  50  74 115 155 204 266 320 397 470
#
# _framework density 24.144817
#
# number of rings (size 3 to 8) (size 9 to 14) (size 15 to 20)
#    0.000    0.308    6.154    1.385    2.154    3.077 
#    5.538    0.000    0.000    0.000    0.000    0.000 
#    0.000    0.000    0.000    0.000    0.000    0.000 
#
# Total GULP energy -72456.801885 kJ/mol
# GULP energy per Si atom -5573.600145 kJ/mol
# Density = 2.408986 g / cm^3
# Si number density = 24.144817 Si / 1000 Ang^3
#
#
#
# Elastic Constant Matrix: (Units=GPa)
#
#
# Indices 1 2 3 4 5 6 
#
# 1 111.0790 26.5144 9.6622 -7.7424 -12.2873 -0.5365
# 2 26.5144 123.6921 56.5018 -16.5898 -21.3111 -19.7734
# 3 9.6622 56.5018 128.6103 -24.6456 -11.1094 5.6199
# 4 -7.7424 -16.5898 -24.6456 54.6569 -8.5161 8.0747
# 5 -12.2873 -21.3111 -11.1094 -8.5161 33.0410 -0.7736
# 6 -0.5365 -19.7734 5.6199 8.0747 -0.7736 37.9945
#
#
#
# Elastic Compliance Matrix: (Units=1/GPa)
#
#
# Indices 1 2 3 4 5 6 
#
# 1 0.009856 -0.001874 0.000768 0.001855 0.003163 -0.001280
# 2 -0.001874 0.013445 -0.005252 0.001376 0.006742 0.007592
# 3 0.000768 -0.005252 0.011310 0.004684 0.001783 -0.005354
# 4 0.001855 0.001376 0.004684 0.023187 0.009019 -0.004695
# 5 0.003163 0.006742 0.001783 0.009019 0.038765 0.002162
# 6 -0.001280 0.007592 -0.005354 -0.004695 0.002162 0.032087
#
#
# Mechanical properties :
#
#
# Convention : Reuss Voigt Hill
#
# Bulk Modulus (GPa) = 45.67227 60.97087 53.32157
# Shear Modulus (GPa) = 33.63270 43.18534 38.40902
#
# Velocity S-wave (km/s) = 3.73628 4.23377 3.99278
# Velocity P-wave (km/s) = 6.12945 7.01475 6.58699
#
# Compressibility (1/GPa) = 0.02189512
#
# Stress axis : x y z
#
# Youngs Moduli (GPa) = 101.45905 74.37660 88.41391
#
# Poissons Ratio (x) = 0.13939 -0.06786
# Poissons Ratio (y) = 0.19015 0.46432
# Poissons Ratio (z) = -0.07787 0.39060
#
# Static dielectric constant tensor:
#      x y z
#    x 2.203030 0.066200 0.016360 
#    y 0.066200 1.950130 -0.035000 
#    z 0.016360 -0.035000 2.038130 
# 
# From -- ./inp_files/272014.got.cif
#   From: 2010.05.17/outbox.cif.g08.bks.cpg/sg2_137_cif.got.tgz:272014.got - 2010.06.03 11:33:40.
