data_PCOD9068819
_publ_section_title
;
Structure prediction by ZEFSAII (Michael W. Deem and Ramdas Pophale) SiO2 
 PCOD9068819
Probable space group: P -1
;
_chemical_formula_sum "Si O2"
_cell_formula_units_Z 14
_cell_length_a 8.307340
_cell_length_b 14.751211
_cell_length_c 11.630762
_cell_angle_alpha 151.113840
_cell_angle_beta 75.266816
_cell_angle_gamma 91.650339
_cell_volume 605.826962
_symmetry_space_group_name_H-M "P -1"
_symmetry_group_IT_number 2
_symmetry_cell_setting 'triclinic'
loop_
_space_group_symop_operation_xyz
x,y,z
-x,-y,-z
loop_
_atom_site_type_symbol
_atom_site_label
_atom_site_fract_x
_atom_site_fract_y
_atom_site_fract_z
Si Si1 0.736329 0.564051 0.668487
Si Si2 0.913308 0.160199 0.067864
Si Si3 0.283674 0.132786 0.194953
Si Si4 0.337431 0.653411 0.901372
Si Si5 0.185779 0.034390 0.507686
Si Si6 0.713418 0.945790 0.227172
Si Si7 0.307724 0.275247 0.597731
O O1 0.882671 0.334647 0.362780
O O2 0.747755 0.692621 0.698624
O O3 0.540532 0.553685 0.701922
O O4 0.745603 0.708330 0.931561
O O5 0.803930 0.275742 0.100189
O O6 0.120192 0.036588 0.852233
O O7 0.818658 0.014995 0.965251
O O8 0.242629 0.220020 0.427489
O O9 0.500000 0.000000 0.000000
O O10 0.316701 0.853745 0.199584
O O11 0.304408 0.498125 0.822300
O O12 0.261911 0.018601 0.604230
O O13 0.183398 0.242069 0.682529
O O14 0.000000 0.000000 0.500000
O O15 0.517613 0.112008 0.403444
#
# Coordination Sequence:
#
# PCOD9068819 Si02
#       7
#     2   2   2   2   2   2   2
#     4  12  25  43  71 104 140 181 230 281 341 412
#     4  12  24  44  69 104 140 182 230 280 342 409
#     4  12  20  42  70  96 138 185 224 270 343 410
#     4  12  24  45  74 102 133 188 230 277 342 411
#     4  12  25  51  73  96 141 181 234 282 339 413
#     4  12  26  47  67 102 144 180 223 293 342 398
#     4  12  25  44  73 105 134 182 231 282 343 404
#
# _framework density 23.108908
#
# number of rings (size 3 to 8) (size 9 to 14) (size 15 to 20)
#    0.000    0.000    8.571    2.143    0.000    1.714 
#    2.571    0.000    0.000    0.000    0.000    0.000 
#    0.000    0.000    0.000    0.000    0.000    0.000 
#
# Total GULP energy -78406.925622 kJ/mol
# GULP energy per Si atom -5600.494687 kJ/mol
# Density = 2.305631 g / cm^3
# Si number density = 23.108908 Si / 1000 Ang^3
#
#
#
# Elastic Constant Matrix: (Units=GPa)
#
#
# Indices 1 2 3 4 5 6 
#
# 1 104.0159 52.6382 12.8082 8.7527 -3.4998 18.0219
# 2 52.6382 133.0044 19.1748 21.7470 2.8033 17.1676
# 3 12.8082 19.1748 66.0520 8.8060 13.7646 -16.9341
# 4 8.7527 21.7470 8.8060 44.7094 3.8257 16.1100
# 5 -3.4998 2.8033 13.7646 3.8257 38.2159 -11.8004
# 6 18.0219 17.1676 -16.9341 16.1100 -11.8004 47.5109
#
#
#
# Elastic Compliance Matrix: (Units=1/GPa)
#
#
# Indices 1 2 3 4 5 6 
#
# 1 0.012882 -0.004392 -0.002855 0.001794 0.000899 -0.004702
# 2 -0.004392 0.010317 -0.002108 -0.002967 -0.000716 -0.001985
# 3 -0.002855 -0.002108 0.020467 -0.005790 -0.003759 0.010169
# 4 0.001794 -0.002967 -0.005790 0.029597 -0.004452 -0.012814
# 5 0.000899 -0.000716 -0.003759 -0.004452 0.030465 0.007654
# 6 -0.004702 -0.001985 0.010169 -0.012814 0.007654 0.033419
#
#
# Mechanical properties :
#
#
# Convention : Reuss Voigt Hill
#
# Bulk Modulus (GPa) = 40.06823 52.47941 46.27382
# Shear Modulus (GPa) = 30.45517 40.65064 35.55290
#
# Velocity S-wave (km/s) = 3.63422 4.19870 3.92662
# Velocity P-wave (km/s) = 5.91495 6.80179 6.37381
#
# Compressibility (1/GPa) = 0.02495743
#
# Stress axis : x y z
#
# Youngs Moduli (GPa) = 77.62742 96.92770 48.85831
#
# Poissons Ratio (x) = 0.42571 0.13949
# Poissons Ratio (y) = 0.34094 0.10297
# Poissons Ratio (z) = 0.22162 0.20428
#
# Static dielectric constant tensor:
#      x y z
#    x 1.917130 -0.007270 0.003000 
#    y -0.007270 1.855590 0.005320 
#    z 0.003000 0.005320 1.862300 
# 
# From -- ./inp_files/307053.got.cif
#   From: 2010.05.17/outbox.cif.g08.bks.cpg/sg2_154_cif.got.tgz:307053.got - 2010.06.03 11:33:40.
