data_PCOD9068159
_publ_section_title
;
Structure prediction by ZEFSAII (Michael W. Deem and Ramdas Pophale) SiO2 
 PCOD9068159
Probable space group: P -1
;
_chemical_formula_sum "Si O2"
_cell_formula_units_Z 16
_cell_length_a 12.301060
_cell_length_b 9.443254
_cell_length_c 15.121498
_cell_angle_alpha 68.940679
_cell_angle_beta 46.392989
_cell_angle_gamma 34.149590
_cell_volume 609.768308
_symmetry_space_group_name_H-M "P -1"
_symmetry_group_IT_number 2
_symmetry_cell_setting 'triclinic'
loop_
_space_group_symop_operation_xyz
x,y,z
-x,-y,-z
loop_
_atom_site_type_symbol
_atom_site_label
_atom_site_fract_x
_atom_site_fract_y
_atom_site_fract_z
Si Si1 0.356466 0.520439 0.837115
Si Si2 0.090473 0.880912 0.732732
Si Si3 0.352946 0.984230 0.036385
Si Si4 0.428516 0.122308 0.822472
Si Si5 0.907463 0.498601 0.436258
Si Si6 0.906381 0.291621 0.878184
Si Si7 0.616647 0.860626 0.355028
Si Si8 0.948527 0.142297 0.585525
O O1 0.636181 0.367332 0.750336
O O2 0.310415 0.628487 0.740829
O O3 0.433509 0.277181 0.835025
O O4 0.112019 0.742112 0.000734
O O5 0.917428 0.149123 0.832764
O O6 0.170537 0.902449 0.593383
O O7 0.904252 0.893702 0.807202
O O8 0.238288 0.162094 0.970681
O O9 0.615077 0.641294 0.949477
O O10 0.500000 0.000000 0.000000
O O11 0.754887 0.768320 0.716100
O O12 0.336141 0.230100 0.750467
O O13 0.728365 0.643035 0.412419
O O14 0.918705 0.339212 0.525001
O O15 0.717980 0.796060 0.521095
O O16 0.184079 0.161462 0.738566
O O17 0.000000 0.000000 0.500000
#
# Coordination Sequence:
#
# PCOD9068159 Si02
#       8
#     2   2   2   2   2   2   2   2
#     4  12  27  47  76 114 147 195 255 303 377 443
#     4  12  29  47  78 108 154 200 243 306 380 438
#     4  12  25  46  77 108 147 188 243 308 376 436
#     4  12  25  44  77 107 145 197 243 312 372 435
#     4  11  26  48  69 105 149 195 251 299 366 438
#     4  12  25  50  77 112 150 191 248 311 377 444
#     4  11  27  46  76 104 148 193 248 310 359 450
#     4  12  27  48  72 105 150 197 246 309 356 446
#
# _framework density 26.239474999999999
#
# number of rings (size 3 to 8) (size 9 to 14) (size 15 to 20)
#    0.000    0.250    5.000    2.625    5.250    4.500 
#    0.000    0.000    0.000    0.000    0.000    0.000 
#    0.000    0.000    0.000    0.000    0.000    0.000 
#
# Total GULP energy -89626.148481 kJ/mol
# GULP energy per Si atom -5601.634280 kJ/mol
# Density = 2.617975 g / cm^3
# Si number density = 26.239475 Si / 1000 Ang^3
#
#
#
# Elastic Constant Matrix: (Units=GPa)
#
#
# Indices 1 2 3 4 5 6 
#
# 1 115.3755 28.1204 27.9757 -8.9811 20.3896 -1.3987
# 2 28.1204 144.7461 49.1424 -30.7553 14.9692 -8.9871
# 3 27.9757 49.1424 118.1387 -24.8732 20.2897 -3.0419
# 4 -8.9811 -30.7553 -24.8732 63.7870 -9.6005 17.9408
# 5 20.3896 14.9692 20.2897 -9.6005 51.4593 -6.7175
# 6 -1.3987 -8.9871 -3.0419 17.9408 -6.7175 35.0027
#
#
#
# Elastic Compliance Matrix: (Units=1/GPa)
#
#
# Indices 1 2 3 4 5 6 
#
# 1 0.009815 -0.001175 -0.001315 0.000010 -0.003108 -0.000626
# 2 -0.001175 0.008711 -0.002668 0.002806 -0.000436 0.000436
# 3 -0.001315 -0.002668 0.010910 0.002877 -0.002700 -0.001783
# 4 0.000010 0.002806 0.002877 0.020971 0.000699 -0.009644
# 5 -0.003108 -0.000436 -0.002700 0.000699 0.022440 0.003478
# 6 -0.000626 0.000436 -0.001783 -0.009644 0.003478 0.034112
#
#
# Mechanical properties :
#
#
# Convention : Reuss Voigt Hill
#
# Bulk Modulus (GPa) = 52.30756 65.41523 58.86140
# Shear Modulus (GPa) = 40.43654 48.25125 44.34390
#
# Velocity S-wave (km/s) = 3.92989 4.29287 4.11538
# Velocity P-wave (km/s) = 6.36946 7.03959 6.71289
#
# Compressibility (1/GPa) = 0.01911770
#
# Stress axis : x y z
#
# Youngs Moduli (GPa) = 101.88134 114.79331 91.66113
#
# Poissons Ratio (x) = 0.13493 0.12057
# Poissons Ratio (y) = 0.11976 0.24460
# Poissons Ratio (z) = 0.13402 0.30632
#
# Static dielectric constant tensor:
#      x y z
#    x 2.063420 -0.064880 0.018160 
#    y -0.064880 2.041540 -0.020830 
#    z 0.018160 -0.020830 2.099430 
# 
# From -- ./inp_files/515330.got.cif
#   From: 2010.05.17/outbox.cif.g08.bks.cpg/sg2_258_cif.got.tgz:515330.got - 2010.06.03 11:33:40.
