data_PCOD9068717
_publ_section_title
;
Structure prediction by ZEFSAII (Michael W. Deem and Ramdas Pophale) SiO2 
 PCOD9068717
Probable space group: P -1
;
_chemical_formula_sum "Si O2"
_cell_formula_units_Z 16
_cell_length_a 6.418752
_cell_length_b 8.495219
_cell_length_c 18.188558
_cell_angle_alpha 64.886227
_cell_angle_beta 50.280359
_cell_angle_gamma 78.132412
_cell_volume 687.687710
_symmetry_space_group_name_H-M "P -1"
_symmetry_group_IT_number 2
_symmetry_cell_setting 'triclinic'
loop_
_space_group_symop_operation_xyz
x,y,z
-x,-y,-z
loop_
_atom_site_type_symbol
_atom_site_label
_atom_site_fract_x
_atom_site_fract_y
_atom_site_fract_z
Si Si1 0.700046 0.089197 0.584978
Si Si2 0.795954 0.426368 0.317836
Si Si3 0.707883 0.569234 0.150882
Si Si4 0.849196 0.763519 0.325680
Si Si5 0.683726 0.342011 0.002593
Si Si6 0.657732 0.761298 0.770292
Si Si7 0.749205 0.828664 0.500910
Si Si8 0.650977 0.162552 0.893262
O O1 0.689084 0.927808 0.676794
O O2 0.672527 0.001771 0.527335
O O3 0.451114 0.197114 0.637184
O O4 0.986365 0.205948 0.502811
O O5 0.736513 0.536813 0.237185
O O6 0.870636 0.560436 0.341449
O O7 0.514578 0.307280 0.415277
O O8 0.047830 0.310477 0.270034
O O9 0.537866 0.396523 0.191196
O O10 0.544711 0.732567 0.133937
O O11 0.016306 0.603492 0.044900
O O12 0.869602 0.825997 0.392532
O O13 0.083328 0.871080 0.205334
O O14 0.502092 0.210060 0.123131
O O15 0.500000 0.500000 0.000000
O O16 0.735150 0.279739 0.921448
O O17 0.500000 0.000000 0.000000
#
# Coordination Sequence:
#
# PCOD9068717 Si02
#       8
#     2   2   2   2   2   2   2   2
#     4  11  29  47  75 111 145 194 248 299 376 433
#     4  12  26  48  77 108 149 190 251 302 362 439
#     4  12  23  47  74 102 152 187 249 292 362 430
#     4  12  27  50  72 109 148 195 245 305 363 439
#     4  12  24  45  72 108 140 192 247 293 355 439
#     4  12  26  45  77 109 145 197 244 303 362 435
#     4  11  28  49  75 108 150 190 247 307 368 437
#     4  12  30  46  70 110 151 187 241 305 364 430
#
# _framework density 23.266376000000001
#
# number of rings (size 3 to 8) (size 9 to 14) (size 15 to 20)
#    0.000    0.250    6.250    1.125   10.500    1.000 
#    0.000    0.000    0.000    0.000    0.000    0.000 
#    0.000    0.000    0.000    0.000    0.000    0.000 
#
# Total GULP energy -89514.540053 kJ/mol
# GULP energy per Si atom -5594.658753 kJ/mol
# Density = 2.321342 g / cm^3
# Si number density = 23.266376 Si / 1000 Ang^3
#
#
#
# Elastic Constant Matrix: (Units=GPa)
#
#
# Indices 1 2 3 4 5 6 
#
# 1 86.4863 20.3704 43.4611 0.8464 -8.7099 2.4080
# 2 20.3704 39.4230 34.7645 0.4615 -0.1131 7.5274
# 3 43.4611 34.7645 175.3603 16.1258 -9.4797 13.2826
# 4 0.8464 0.4615 16.1258 42.2875 5.5134 -0.7343
# 5 -8.7099 -0.1131 -9.4797 5.5134 59.5387 -1.9784
# 6 2.4080 7.5274 13.2826 -0.7343 -1.9784 32.8202
#
#
#
# Elastic Compliance Matrix: (Units=1/GPa)
#
#
# Indices 1 2 3 4 5 6 
#
# 1 0.014221 -0.005382 -0.002517 0.000540 0.001663 0.001322
# 2 -0.005382 0.033744 -0.005231 0.001891 -0.001907 -0.005300
# 3 -0.002517 -0.005231 0.007839 -0.003056 0.001093 -0.001791
# 4 0.000540 0.001891 -0.003056 0.025153 -0.002694 0.001164
# 5 0.001663 -0.001907 0.001093 -0.002694 0.017488 0.000867
# 6 0.001322 -0.005300 -0.001791 0.001164 0.000867 0.032391
#
#
# Mechanical properties :
#
#
# Convention : Reuss Voigt Hill
#
# Bulk Modulus (GPa) = 33.84934 55.38463 44.61698
# Shear Modulus (GPa) = 29.95000 40.44085 35.19542
#
# Velocity S-wave (km/s) = 3.59174 4.17366 3.89358
# Velocity P-wave (km/s) = 5.63746 6.86164 6.27946
#
# Compressibility (1/GPa) = 0.02954268
#
# Stress axis : x y z
#
# Youngs Moduli (GPa) = 70.32047 29.63449 127.56303
#
# Poissons Ratio (x) = 0.15950 0.32112
# Poissons Ratio (y) = 0.37847 0.66733
# Poissons Ratio (z) = 0.17702 0.15503
#
# Static dielectric constant tensor:
#      x y z
#    x 1.889940 0.064400 0.014070 
#    y 0.064400 1.906600 -0.043070 
#    z 0.014070 -0.043070 1.899130 
# 
# From -- ./inp_files/548014.got.cif
#   From: 2010.05.17/outbox.cif.g08.bks.cpg/sg2_275_cif.got.tgz:548014.got - 2010.06.03 11:33:40.
