data_PCOD9068098
_publ_section_title
;
Structure prediction by ZEFSAII (Michael W. Deem and Ramdas Pophale) SiO2 
 PCOD9068098
Probable space group: P -1
;
_chemical_formula_sum "Si O2"
_cell_formula_units_Z 15
_cell_length_a 8.457883
_cell_length_b 19.590939
_cell_length_c 17.500106
_cell_angle_alpha 21.161204
_cell_angle_beta 37.017448
_cell_angle_gamma 49.411573
_cell_volume 568.243490
_symmetry_space_group_name_H-M "P -1"
_symmetry_group_IT_number 2
_symmetry_cell_setting 'triclinic'
loop_
_space_group_symop_operation_xyz
x,y,z
-x,-y,-z
loop_
_atom_site_type_symbol
_atom_site_label
_atom_site_fract_x
_atom_site_fract_y
_atom_site_fract_z
Si Si1 0.720151 0.257111 0.913200
Si Si2 0.286830 0.320330 0.569836
Si Si3 0.000000 0.000000 0.500000
Si Si4 0.316186 0.790368 0.584680
Si Si5 0.392855 0.823073 0.289159
Si Si6 0.085914 0.053768 0.232477
Si Si7 0.505432 0.283124 0.243402
Si Si8 0.006301 0.376083 0.842302
O O1 0.642541 0.434745 0.722007
O O2 0.932757 0.210982 0.821061
O O3 0.915665 0.349401 0.817017
O O4 0.435098 0.051766 0.265090
O O5 0.474341 0.265679 0.491894
O O6 0.380560 0.250662 0.684798
O O7 0.010529 0.242337 0.270140
O O8 0.002829 0.934353 0.659309
O O9 0.362459 0.713973 0.728339
O O10 0.142392 0.615228 0.566899
O O11 0.295459 0.937822 0.273022
O O12 0.500000 0.000000 0.000000
O O13 0.816408 0.897306 0.449400
O O14 0.203241 0.268816 0.913795
O O15 0.500000 0.500000 0.000000
O O16 0.707833 0.254502 0.131068
#
# Coordination Sequence:
#
# PCOD9068098 Si02
#       8
#     2   2   1   2   2   2   2   2
#     4  11  26  47  76 106 144 197 254 298 364 444
#     4  11  27  47  71 109 146 195 247 307 365 438
#     4  12  26  44  76 108 150 196 234 302 372 436
#     4  12  25  48  74 108 153 194 240 311 367 433
#     4  12  29  48  75 107 148 194 246 308 373 433
#     4  12  25  49  72 111 150 193 246 298 368 446
#     4  12  24  45  77 107 145 196 244 297 366 443
#     4  12  25  48  75 105 145 198 246 302 367 440
#
# _framework density 26.397134999999999
#
# number of rings (size 3 to 8) (size 9 to 14) (size 15 to 20)
#    0.000    0.267    5.333    3.200    1.867    4.267 
#    0.000    2.667    0.000    0.000    0.000    0.000 
#    0.000    0.000    0.000    0.000    0.000    0.000 
#
# Total GULP energy -83840.063108 kJ/mol
# GULP energy per Si atom -5589.337541 kJ/mol
# Density = 2.633705 g / cm^3
# Si number density = 26.397135 Si / 1000 Ang^3
#
#
#
# Elastic Constant Matrix: (Units=GPa)
#
#
# Indices 1 2 3 4 5 6 
#
# 1 126.1928 46.2357 41.3945 -17.1517 46.2464 -12.6854
# 2 46.2357 152.2713 26.3627 -8.4071 27.3870 -12.9034
# 3 41.3945 26.3627 133.6838 -23.2684 27.3235 -7.9650
# 4 -17.1517 -8.4071 -23.2684 43.4722 -7.5697 15.1458
# 5 46.2464 27.3870 27.3235 -7.5697 51.5918 -1.8434
# 6 -12.6854 -12.9034 -7.9650 15.1458 -1.8434 42.6075
#
#
#
# Elastic Compliance Matrix: (Units=1/GPa)
#
#
# Indices 1 2 3 4 5 6 
#
# 1 0.012968 -0.001697 -0.001275 0.001684 -0.009726 0.002089
# 2 -0.001697 0.007712 -0.000498 -0.000477 -0.002314 0.001806
# 3 -0.001275 -0.000498 0.009238 0.003954 -0.002917 -0.000335
# 4 0.001684 -0.000477 0.003954 0.028992 0.000575 -0.009185
# 5 -0.009726 -0.002314 -0.002917 0.000575 0.030851 -0.003011
# 6 0.002089 0.001806 -0.000335 -0.009185 -0.003011 0.027711
#
#
# Mechanical properties :
#
#
# Convention : Reuss Voigt Hill
#
# Bulk Modulus (GPa) = 43.52202 71.12598 57.32400
# Shear Modulus (GPa) = 37.85834 47.41128 42.63481
#
# Velocity S-wave (km/s) = 3.79117 4.24261 4.02323
# Velocity P-wave (km/s) = 5.97387 7.14162 6.58369
#
# Compressibility (1/GPa) = 0.02297687
#
# Stress axis : x y z
#
# Youngs Moduli (GPa) = 77.11361 129.67249 108.25122
#
# Poissons Ratio (x) = 0.22012 0.13804
# Poissons Ratio (y) = 0.13090 0.05386
# Poissons Ratio (z) = 0.09833 0.06452
#
# Static dielectric constant tensor:
#      x y z
#    x 1.260770 0.710330 0.096270 
#    y 0.710330 1.383550 -0.356120 
#    z 0.096270 -0.356120 1.689150 
# 
# From -- ./inp_files/562484.got.cif
#   From: 2010.05.17/outbox.cif.g08.bks.cpg/sg2_282_cif.got.tgz:562484.got - 2010.06.03 11:33:40.
