data_PCOD9068413
_publ_section_title
;
Structure prediction by ZEFSAII (Michael W. Deem and Ramdas Pophale) SiO2 
 PCOD9068413
Probable space group: P -1
;
_chemical_formula_sum "Si O2"
_cell_formula_units_Z 16
_cell_length_a 6.202788
_cell_length_b 11.027860
_cell_length_c 10.843596
_cell_angle_alpha 83.005032
_cell_angle_beta 63.780048
_cell_angle_gamma 82.671400
_cell_volume 658.195684
_symmetry_space_group_name_H-M "P -1"
_symmetry_group_IT_number 2
_symmetry_cell_setting 'triclinic'
loop_
_space_group_symop_operation_xyz
x,y,z
-x,-y,-z
loop_
_atom_site_type_symbol
_atom_site_label
_atom_site_fract_x
_atom_site_fract_y
_atom_site_fract_z
Si Si1 0.720893 0.360945 0.188079
Si Si2 0.462922 0.138682 0.944560
Si Si3 0.752571 0.940241 0.592008
Si Si4 0.128971 0.688540 0.120365
Si Si5 0.106500 0.493175 0.653779
Si Si6 0.021311 0.124805 0.199384
Si Si7 0.234196 0.330341 0.423053
Si Si8 0.293589 0.103675 0.734122
O O1 0.776789 0.470330 0.251873
O O2 0.820899 0.236235 0.249581
O O3 0.436529 0.349461 0.267529
O O4 0.835250 0.363931 0.022247
O O5 0.649434 0.226938 0.937101
O O6 0.468693 0.133071 0.799088
O O7 0.188174 0.173538 0.045083
O O8 0.500000 0.000000 0.000000
O O9 0.759454 0.813266 0.530222
O O10 0.798395 0.897297 0.728050
O O11 0.517118 0.030285 0.613184
O O12 0.000000 0.000000 0.500000
O O13 0.121141 0.578852 0.234302
O O14 0.896750 0.776313 0.217402
O O15 0.267317 0.406844 0.529962
O O16 0.012792 0.611524 0.582519
O O17 0.893444 0.004479 0.205637
#
# Coordination Sequence:
#
# PCOD9068413 Si02
#       8
#     2   2   2   2   2   2   2   2
#     4  12  24  47  75 105 138 191 246 294 356 422
#     4  12  22  39  69 103 146 181 221 284 365 427
#     4  12  27  44  73 107 143 184 237 297 359 429
#     4  12  27  43  75 112 145 184 239 300 360 428
#     4  11  28  50  70 100 144 192 250 295 348 419
#     4  12  23  42  68 104 143 185 228 290 362 429
#     4  11  26  50  75  98 141 198 241 292 358 425
#     4  12  24  42  70 109 142 181 225 294 363 432
#
# _framework density 24.308879000000001
#
# number of rings (size 3 to 8) (size 9 to 14) (size 15 to 20)
#    0.000    0.250    6.250    2.625    3.500    3.000 
#    2.250    0.000    0.000    0.000    0.000    0.000 
#    0.000    0.000    0.000    0.000    0.000    0.000 
#
# Total GULP energy -89209.382583 kJ/mol
# GULP energy per Si atom -5575.586411 kJ/mol
# Density = 2.425355 g / cm^3
# Si number density = 24.308879 Si / 1000 Ang^3
#
#
#
# Elastic Constant Matrix: (Units=GPa)
#
#
# Indices 1 2 3 4 5 6 
#
# 1 58.1085 34.6725 21.1770 19.8620 -11.2898 -3.2806
# 2 34.6725 110.9187 36.5751 25.0044 -8.0130 -1.9645
# 3 21.1770 36.5751 118.3061 34.4577 -2.2490 -0.8444
# 4 19.8620 25.0044 34.4577 40.5754 9.4058 -3.7394
# 5 -11.2898 -8.0130 -2.2490 9.4058 44.7220 10.4226
# 6 -3.2806 -1.9645 -0.8444 -3.7394 10.4226 32.1135
#
#
#
# Elastic Compliance Matrix: (Units=1/GPa)
#
#
# Indices 1 2 3 4 5 6 
#
# 1 0.025657 -0.004870 0.000643 -0.012288 0.008665 -0.001903
# 2 -0.004870 0.012163 -0.001606 -0.004297 0.001993 -0.000943
# 3 0.000643 -0.001606 0.011881 -0.010308 0.003088 -0.001923
# 4 -0.012288 -0.004297 -0.010308 0.046660 -0.016285 0.008929
# 5 0.008665 0.001993 0.003088 -0.016285 0.031020 -0.010876
# 6 -0.001903 -0.000943 -0.001923 0.008929 -0.010876 0.035406
#
#
# Mechanical properties :
#
#
# Convention : Reuss Voigt Hill
#
# Bulk Modulus (GPa) = 26.29089 52.46472 39.37780
# Shear Modulus (GPa) = 26.71908 36.47607 31.59758
#
# Velocity S-wave (km/s) = 3.31894 3.87786 3.60924
# Velocity P-wave (km/s) = 5.05232 6.45599 5.79680
#
# Compressibility (1/GPa) = 0.03803599
#
# Stress axis : x y z
#
# Youngs Moduli (GPa) = 38.97596 82.21437 84.16530
#
# Poissons Ratio (x) = 0.40037 -0.05413
# Poissons Ratio (y) = 0.18981 0.13518
# Poissons Ratio (z) = -0.02507 0.13204
#
# Static dielectric constant tensor:
#      x y z
#    x 1.907550 -0.000050 -0.000900 
#    y -0.000050 1.872460 0.067380 
#    z -0.000900 0.067380 1.944850 
# 
# From -- ./inp_files/364442.got.cif
#   From: 2010.05.17/outbox.cif.g08.bks.cpg/sg2_183_cif.got.tgz:364442.got - 2010.06.03 11:33:40.
