data_PCOD9068110
_publ_section_title
;
Structure prediction by ZEFSAII (Michael W. Deem and Ramdas Pophale) SiO2 
 PCOD9068110
Probable space group: P -1
;
_chemical_formula_sum "Si O2"
_cell_formula_units_Z 16
_cell_length_a 19.373283
_cell_length_b 4.970868
_cell_length_c 6.950122
_cell_angle_alpha 109.203784
_cell_angle_beta 70.361068
_cell_angle_gamma 84.356449
_cell_volume 578.648038
_symmetry_space_group_name_H-M "P -1"
_symmetry_group_IT_number 2
_symmetry_cell_setting 'triclinic'
loop_
_space_group_symop_operation_xyz
x,y,z
-x,-y,-z
loop_
_atom_site_type_symbol
_atom_site_label
_atom_site_fract_x
_atom_site_fract_y
_atom_site_fract_z
Si Si1 0.674122 0.382125 0.561293
Si Si2 0.112456 0.459913 0.991835
Si Si3 0.343573 0.636043 0.905118
Si Si4 0.722105 0.917005 0.160342
Si Si5 0.896493 0.869663 0.439610
Si Si6 0.495381 0.323882 0.153785
Si Si7 0.729767 0.964340 0.673075
Si Si8 0.971871 0.869542 0.744580
O O1 0.667374 0.299493 0.808977
O O2 0.586044 0.538910 0.651248
O O3 0.721454 0.628934 0.598974
O O4 0.691972 0.290179 0.279729
O O5 0.192186 0.286362 0.964338
O O6 0.116043 0.380901 0.747885
O O7 0.084979 0.804953 0.123702
O O8 0.048741 0.310071 0.102589
O O9 0.287591 0.986460 0.053655
O O10 0.333675 0.304092 0.840965
O O11 0.429485 0.662582 0.799592
O O12 0.714336 0.016351 0.446745
O O13 0.812944 0.030501 0.612267
O O14 0.945647 0.072831 0.342746
O O15 0.944668 0.739010 0.546976
O O16 0.500000 0.500000 0.000000
O O17 0.500000 0.000000 0.000000
#
# Coordination Sequence:
#
# PCOD9068110 Si02
#       8
#     2   2   2   2   2   2   2   2
#     4  12  25  44  69 102 136 181 234 286 346 437
#     4  12  25  48  73 104 152 196 243 304 375 434
#     4  12  25  44  72 102 139 185 231 302 350 426
#     4  12  26  43  67 105 143 178 239 292 360 422
#     4  11  26  47  77 105 150 194 244 310 370 438
#     4  12  23  45  71 101 139 183 234 290 355 430
#     4  12  24  43  72 102 133 185 240 283 357 424
#     4  11  28  47  71 114 144 191 253 300 370 451
#
# _framework density 27.650663999999999
#
# number of rings (size 3 to 8) (size 9 to 14) (size 15 to 20)
#    0.000    0.250    3.750    5.250    1.750    6.000 
#    0.000    0.000    0.000    0.000    0.000    0.000 
#    0.000    0.000    0.000    0.000    0.000    0.000 
#
# Total GULP energy -89546.432860 kJ/mol
# GULP energy per Si atom -5596.652054 kJ/mol
# Density = 2.758773 g / cm^3
# Si number density = 27.650664 Si / 1000 Ang^3
#
#
#
# Elastic Constant Matrix: (Units=GPa)
#
#
# Indices 1 2 3 4 5 6 
#
# 1 159.6767 53.7583 53.9025 32.0030 0.6831 6.7578
# 2 53.7583 157.9945 72.0025 13.6198 5.1922 -26.5715
# 3 53.9025 72.0025 178.3071 21.5943 8.4846 10.1934
# 4 32.0030 13.6198 21.5943 42.0793 -6.2213 16.1845
# 5 0.6831 5.1922 8.4846 -6.2213 70.6266 -8.3446
# 6 6.7578 -26.5715 10.1934 16.1845 -8.3446 58.4271
#
#
#
# Elastic Compliance Matrix: (Units=1/GPa)
#
#
# Indices 1 2 3 4 5 6 
#
# 1 0.008310 -0.001934 -0.001087 -0.005068 -0.000288 -0.000289
# 2 -0.001934 0.009710 -0.003423 -0.002136 0.000220 0.005860
# 3 -0.001087 -0.003423 0.007658 -0.001153 -0.001067 -0.002600
# 4 -0.005068 -0.002136 -0.001153 0.032653 0.002167 -0.008920
# 5 -0.000288 0.000220 -0.001067 0.002167 0.014679 0.001816
# 6 -0.000289 0.005860 -0.002600 -0.008920 0.001816 0.022998
#
#
# Mechanical properties :
#
#
# Convention : Reuss Voigt Hill
#
# Bulk Modulus (GPa) = 78.18999 95.03387 86.61193
# Shear Modulus (GPa) = 44.18531 55.31426 49.74979
#
# Velocity S-wave (km/s) = 4.00182 4.47751 4.24633
# Velocity P-wave (km/s) = 7.04925 7.82144 7.44536
#
# Compressibility (1/GPa) = 0.01278936
#
# Stress axis : x y z
#
# Youngs Moduli (GPa) = 120.33721 102.98766 130.57897
#
# Poissons Ratio (x) = 0.19921 0.14195
# Poissons Ratio (y) = 0.23277 0.44697
# Poissons Ratio (z) = 0.13082 0.35253
#
# Static dielectric constant tensor:
#      x y z
#    x 2.235480 -0.196720 0.290520 
#    y -0.196720 2.073680 -0.277340 
#    z 0.290520 -0.277340 2.692820 
# 
# From -- ./inp_files/123066.got.cif
#   From: 2010.05.17/outbox.cif.g08.bks.cpg/sg2_62_cif.got.tgz:123066.got - 2010.06.03 11:33:40.
