data_PCOD9068108
_publ_section_title
;
Structure prediction by ZEFSAII (Michael W. Deem and Ramdas Pophale) SiO2 
 PCOD9068108
Probable space group: P -1
;
_chemical_formula_sum "Si O2"
_cell_formula_units_Z 14
_cell_length_a 9.176403
_cell_length_b 9.271503
_cell_length_c 11.992759
_cell_angle_alpha 61.427273
_cell_angle_beta 75.363828
_cell_angle_gamma 116.658760
_cell_volume 643.417744
_symmetry_space_group_name_H-M "P -1"
_symmetry_group_IT_number 2
_symmetry_cell_setting 'triclinic'
loop_
_space_group_symop_operation_xyz
x,y,z
-x,-y,-z
loop_
_atom_site_type_symbol
_atom_site_label
_atom_site_fract_x
_atom_site_fract_y
_atom_site_fract_z
Si Si1 0.223282 0.169077 0.947277
Si Si2 0.177526 0.680988 0.483515
Si Si3 0.706891 0.905616 0.815292
Si Si4 0.872803 0.282799 0.262062
Si Si5 0.577715 0.438798 0.602121
Si Si6 0.728589 0.455768 0.065360
Si Si7 0.904199 0.939977 0.419369
O O1 0.396536 0.277955 0.781685
O O2 0.245912 0.362972 0.931143
O O3 0.268936 0.060237 0.069498
O O4 0.000000 0.000000 0.000000
O O5 0.116575 0.646143 0.638247
O O6 0.346968 0.669740 0.431455
O O7 0.000000 0.500000 0.500000
O O8 0.253604 0.909390 0.337825
O O9 0.484601 0.684047 0.905840
O O10 0.898400 0.929083 0.744596
O O11 0.738259 0.306126 0.203189
O O12 0.801509 0.040356 0.376278
O O13 0.090282 0.436710 0.099330
O O14 0.500000 0.500000 0.500000
O O15 0.761075 0.677497 0.532249
O O16 0.000000 0.000000 0.500000
#
# Coordination Sequence:
#
# PCOD9068108 Si02
#       7
#     2   2   2   2   2   2   2
#     4  12  28  49  76 107 153 192 248 310 373 442
#     4  12  27  47  72 112 151 191 243 307 365 438
#     4  12  26  44  76 108 145 192 251 299 371 435
#     4  11  26  47  77 103 157 189 254 297 371 435
#     4  12  28  47  75 104 147 193 243 299 374 433
#     4  11  27  46  76 112 144 199 247 309 366 438
#     4  12  23  46  74 106 140 195 240 299 360 442
#
# _framework density 21.758801999999999
#
# number of rings (size 3 to 8) (size 9 to 14) (size 15 to 20)
#    0.000    0.286    4.286    3.000    8.000    2.286 
#    0.000    0.000    0.000    0.000    0.000    0.000 
#    0.000    0.000    0.000    0.000    0.000    0.000 
#
# Total GULP energy -78286.636754 kJ/mol
# GULP energy per Si atom -5591.902625 kJ/mol
# Density = 2.170928 g / cm^3
# Si number density = 21.758802 Si / 1000 Ang^3
#
#
#
# Elastic Constant Matrix: (Units=GPa)
#
#
# Indices 1 2 3 4 5 6 
#
# 1 103.8564 33.8684 36.4001 4.0139 3.2047 -6.1656
# 2 33.8684 81.8597 23.9915 10.5256 -10.4047 2.0091
# 3 36.4001 23.9915 116.2784 36.3204 5.1662 -4.8159
# 4 4.0139 10.5256 36.3204 40.3586 -0.7046 -5.6903
# 5 3.2047 -10.4047 5.1662 -0.7046 49.9433 -4.1154
# 6 -6.1656 2.0091 -4.8159 -5.6903 -4.1154 51.5842
#
#
#
# Elastic Compliance Matrix: (Units=1/GPa)
#
#
# Indices 1 2 3 4 5 6 
#
# 1 0.012560 -0.004694 -0.004035 0.003817 -0.001178 0.001634
# 2 -0.004694 0.015282 -0.001048 -0.002695 0.003450 -0.001276
# 3 -0.004035 -0.001048 0.013841 -0.011893 -0.001607 -0.000589
# 4 0.003817 -0.002695 -0.011893 0.036327 0.001229 0.003556
# 5 -0.001178 0.003450 -0.001607 0.001229 0.021116 0.001395
# 6 0.001634 -0.001276 -0.000589 0.003556 0.001395 0.020079
#
#
# Mechanical properties :
#
#
# Convention : Reuss Voigt Hill
#
# Bulk Modulus (GPa) = 45.19135 54.50160 49.84648
# Shear Modulus (GPa) = 34.21483 42.22618 38.22050
#
# Velocity S-wave (km/s) = 3.96973 4.41006 4.19567
# Velocity P-wave (km/s) = 6.46730 7.14380 6.81395
#
# Compressibility (1/GPa) = 0.02212813
#
# Stress axis : x y z
#
# Youngs Moduli (GPa) = 79.61976 65.43763 72.24759
#
# Poissons Ratio (x) = 0.30719 0.29154
# Poissons Ratio (y) = 0.37376 0.07570
# Poissons Ratio (z) = 0.32129 0.06856
#
# Static dielectric constant tensor:
#      x y z
#    x 1.764950 0.018460 0.038930 
#    y 0.018460 1.792170 -0.045570 
#    z 0.038930 -0.045570 1.870430 
# 
# From -- ./inp_files/159233.got.cif
#   From: 2010.05.17/outbox.cif.g08.bks.cpg/sg2_80_cif.got.tgz:159233.got - 2010.06.03 11:33:40.
