data_PCOD9068351
_publ_section_title
;
Structure prediction by ZEFSAII (Michael W. Deem and Ramdas Pophale) SiO2 
 PCOD9068351
Probable space group: P -1
;
_chemical_formula_sum "Si O2"
_cell_formula_units_Z 14
_cell_length_a 12.893055
_cell_length_b 9.432313
_cell_length_c 10.102699
_cell_angle_alpha 50.932625
_cell_angle_beta 35.840055
_cell_angle_gamma 65.313087
_cell_volume 546.653663
_symmetry_space_group_name_H-M "P -1"
_symmetry_group_IT_number 2
_symmetry_cell_setting 'triclinic'
loop_
_space_group_symop_operation_xyz
x,y,z
-x,-y,-z
loop_
_atom_site_type_symbol
_atom_site_label
_atom_site_fract_x
_atom_site_fract_y
_atom_site_fract_z
Si Si1 0.863995 0.316072 0.701459
Si Si2 0.084314 0.031541 0.750067
Si Si3 0.380399 0.332324 0.632669
Si Si4 0.664828 0.408831 0.085727
Si Si5 0.635484 0.824203 0.812256
Si Si6 0.000565 0.386454 0.934176
Si Si7 0.275920 0.979169 0.143464
O O1 0.688529 0.324171 0.966489
O O2 0.000000 0.500000 0.500000
O O3 0.947253 0.144178 0.763109
O O4 0.831956 0.238556 0.632263
O O5 0.277623 0.151169 0.437571
O O6 0.000000 0.000000 0.000000
O O7 0.084562 0.827738 0.818643
O O8 0.500000 0.500000 0.500000
O O9 0.213871 0.388667 0.689939
O O10 0.294925 0.158873 0.918146
O O11 0.520726 0.287754 0.404455
O O12 0.609312 0.608086 0.006279
O O13 0.861898 0.434546 0.939247
O O14 0.471318 0.926510 0.945100
O O15 0.770370 0.937455 0.718069
O O16 0.000000 0.500000 0.000000
#
# Coordination Sequence:
#
# PCOD9068351 Si02
#       7
#     2   2   2   2   2   2   2
#     4  12  27  49  71 108 155 199 254 311 378 458
#     4  12  26  48  72 108 147 193 251 307 380 453
#     4  12  24  46  75 113 153 193 257 312 377 453
#     4  12  26  46  74 114 154 197 254 311 382 454
#     4  11  26  49  76 110 149 196 256 317 380 449
#     4  12  25  44  78 108 148 199 249 315 375 443
#     4  11  26  49  76 109 151 200 252 316 382 446
#
# _framework density 25.610365000000002
#
# number of rings (size 3 to 8) (size 9 to 14) (size 15 to 20)
#    0.000    0.286    7.143    0.857    0.000    5.143 
#    0.000    0.000    0.000    0.000    0.000    0.000 
#    0.000    0.000    0.000    0.000    0.000    0.000 
#
# Total GULP energy -78080.420429 kJ/mol
# GULP energy per Si atom -5577.172888 kJ/mol
# Density = 2.555208 g / cm^3
# Si number density = 25.610365 Si / 1000 Ang^3
#
#
#
# Elastic Constant Matrix: (Units=GPa)
#
#
# Indices 1 2 3 4 5 6 
#
# 1 34.9073 3.1046 11.7931 -2.9082 5.4279 -11.3147
# 2 3.1046 104.8475 -0.8616 -9.2817 15.0600 0.4378
# 3 11.7931 -0.8616 110.2562 2.2860 7.3852 3.8499
# 4 -2.9082 -9.2817 2.2860 53.5658 2.2754 -3.4995
# 5 5.4279 15.0600 7.3852 2.2754 33.6301 2.3979
# 6 -11.3147 0.4378 3.8499 -3.4995 2.3979 53.4650
#
#
#
# Elastic Compliance Matrix: (Units=1/GPa)
#
#
# Indices 1 2 3 4 5 6 
#
# 1 0.033410 -0.000048 -0.003543 0.002689 -0.005327 0.007741
# 2 -0.000048 0.010422 0.000364 0.002010 -0.004892 0.000229
# 3 -0.003543 0.000364 0.009617 -0.000565 -0.001564 -0.001412
# 4 0.002689 0.002010 -0.000565 0.019430 -0.002666 0.001985
# 5 -0.005327 -0.004892 -0.001564 -0.002666 0.033499 -0.002652
# 6 0.007741 0.000229 -0.001412 0.001985 -0.002652 0.020691
#
#
# Mechanical properties :
#
#
# Convention : Reuss Voigt Hill
#
# Bulk Modulus (GPa) = 21.27811 30.89812 26.08811
# Shear Modulus (GPa) = 33.51511 43.86384 38.68947
#
# Velocity S-wave (km/s) = 3.62146 4.14301 3.89098
# Velocity P-wave (km/s) = 5.08065 5.91413 5.51317
#
# Compressibility (1/GPa) = 0.04699665
#
# Stress axis : x y z
#
# Youngs Moduli (GPa) = 29.93116 95.95345 103.97785
#
# Poissons Ratio (x) = 0.00457 0.36841
# Poissons Ratio (y) = 0.00142 -0.03790
# Poissons Ratio (z) = 0.10605 -0.03497
#
# Static dielectric constant tensor:
#      x y z
#    x 2.077780 -0.054680 -0.137990 
#    y -0.054680 1.857670 0.008160 
#    z -0.137990 0.008160 2.106660 
# 
# From -- ./inp_files/446734.got.cif
#   From: 2010.05.17/outbox.cif.g08.bks.cpg/sg2_224_cif.got.tgz:446734.got - 2010.06.03 11:33:40.
