data_PCOD9068604
_publ_section_title
;
Structure prediction by ZEFSAII (Michael W. Deem and Ramdas Pophale) SiO2 
 PCOD9068604
Probable space group: P -1
;
_chemical_formula_sum "Si O2"
_cell_formula_units_Z 14
_cell_length_a 9.250398
_cell_length_b 11.845581
_cell_length_c 9.602961
_cell_angle_alpha 38.075675
_cell_angle_beta 94.558322
_cell_angle_gamma 113.267567
_cell_volume 544.116314
_symmetry_space_group_name_H-M "P -1"
_symmetry_group_IT_number 2
_symmetry_cell_setting 'triclinic'
loop_
_space_group_symop_operation_xyz
x,y,z
-x,-y,-z
loop_
_atom_site_type_symbol
_atom_site_label
_atom_site_fract_x
_atom_site_fract_y
_atom_site_fract_z
Si Si1 0.131975 0.821498 0.212357
Si Si2 0.275530 0.216709 0.656767
Si Si3 0.335445 0.738188 0.928357
Si Si4 0.602757 0.301319 0.743988
Si Si5 0.195421 0.356524 0.098619
Si Si6 0.202527 0.997374 0.561075
Si Si7 0.955575 0.499094 0.274222
O O1 0.290230 0.796441 0.207501
O O2 0.092630 0.737053 0.448946
O O3 0.982740 0.640804 0.275897
O O4 0.173088 0.049508 0.937345
O O5 0.466894 0.270355 0.648669
O O6 0.289591 0.442377 0.458054
O O7 0.208278 0.101589 0.613499
O O8 0.335190 0.921002 0.659094
O O9 0.859357 0.376803 0.908004
O O10 0.461692 0.805284 0.003549
O O11 0.324210 0.546734 0.026555
O O12 0.993670 0.206941 0.279395
O O13 0.245344 0.178285 0.273089
O O14 0.180063 0.481747 0.845748
#
# Coordination Sequence:
#
# PCOD9068604 Si02
#       7
#     2   2   2   2   2   2   2
#     4  10  19  35  50  74 107 133 161 206 255 303
#     4  11  19  34  52  79  98 131 174 211 242 296
#     4  10  18  33  51  79 101 128 167 208 248 296
#     4  10  21  32  53  77 100 130 174 211 246 283
#     4  10  18  32  50  76 105 128 162 213 242 297
#     4  10  18  28  51  76  99 127 167 203 254 286
#     4   9  18  32  52  75 106 133 160 200 260 303
#
# _framework density 25.729793999999998
#
# number of rings (size 3 to 8) (size 9 to 14) (size 15 to 20)
#    0.000    2.000    5.714    2.143    0.000    0.000 
#    0.000   12.143    0.000    1.714    0.000    0.000 
#    0.000    0.000    0.000    0.000    0.000    0.000 
#
# Total GULP energy -78216.460228 kJ/mol
# GULP energy per Si atom -5586.890016 kJ/mol
# Density = 2.567123 g / cm^3
# Si number density = 25.729794 Si / 1000 Ang^3
#
#
#
# Elastic Constant Matrix: (Units=GPa)
#
#
# Indices 1 2 3 4 5 6 
#
# 1 50.1103 13.6643 -5.9350 1.7627 6.7576 2.0631
# 2 13.6643 106.4619 12.5372 -4.7293 3.8693 18.6869
# 3 -5.9350 12.5372 135.7120 -0.5038 17.2944 0.4312
# 4 1.7627 -4.7293 -0.5038 43.4405 -0.7094 13.3837
# 5 6.7576 3.8693 17.2944 -0.7094 25.0153 3.5322
# 6 2.0631 18.6869 0.4312 13.3837 3.5322 16.0111
#
#
#
# Elastic Compliance Matrix: (Units=1/GPa)
#
#
# Indices 1 2 3 4 5 6 
#
# 1 0.022306 -0.004167 0.002351 -0.003506 -0.008042 0.006631
# 2 -0.004167 0.015044 -0.001980 0.009914 0.004144 -0.026170
# 3 0.002351 -0.001980 0.008518 -0.001813 -0.006951 0.004828
# 4 -0.003506 0.009914 -0.001813 0.038131 0.008063 -0.044724
# 5 -0.008042 0.004144 -0.006951 0.008063 0.049547 -0.021284
# 6 0.006631 -0.026170 0.004828 -0.044724 -0.021284 0.134096
#
#
# Mechanical properties :
#
#
# Convention : Reuss Voigt Hill
#
# Bulk Modulus (GPa) = 26.12609 36.97969 31.55289
# Shear Modulus (GPa) = 17.36158 35.02789 26.19474
#
# Velocity S-wave (km/s) = 2.60044 3.69368 3.19418
# Velocity P-wave (km/s) = 4.38092 5.70917 5.08857
#
# Compressibility (1/GPa) = 0.03827592
#
# Stress axis : x y z
#
# Youngs Moduli (GPa) = 44.83182 66.46981 117.39817
#
# Poissons Ratio (x) = 0.27698 -0.27603
# Poissons Ratio (y) = 0.18682 0.23247
# Poissons Ratio (z) = -0.10541 0.13162
#
# Static dielectric constant tensor:
#      x y z
#    x 2.037080 0.003840 -0.076690 
#    y 0.003840 2.005780 0.027710 
#    z -0.076690 0.027710 2.120740 
# 
# From -- ./inp_files/432315.got.cif
#   From: 2010.05.17/outbox.cif.g08.bks.cpg/sg2_217_cif.got.tgz:432315.got - 2010.06.03 11:33:40.
