data_PCOD9068730
_publ_section_title
;
Structure prediction by ZEFSAII (Michael W. Deem and Ramdas Pophale) SiO2 
 PCOD9068730
Probable space group: P -1
;
_chemical_formula_sum "Si O2"
_cell_formula_units_Z 12
_cell_length_a 11.856376
_cell_length_b 8.054604
_cell_length_c 5.171012
_cell_angle_alpha 86.643368
_cell_angle_beta 112.397467
_cell_angle_gamma 93.167224
_cell_volume 455.497172
_symmetry_space_group_name_H-M "P -1"
_symmetry_group_IT_number 2
_symmetry_cell_setting 'triclinic'
loop_
_space_group_symop_operation_xyz
x,y,z
-x,-y,-z
loop_
_atom_site_type_symbol
_atom_site_label
_atom_site_fract_x
_atom_site_fract_y
_atom_site_fract_z
Si Si1 0.755048 0.836607 0.719345
Si Si2 0.933786 0.293134 0.692936
Si Si3 0.161274 0.881333 0.862811
Si Si4 0.422983 0.361633 0.104897
Si Si5 0.829249 0.628882 0.390176
Si Si6 0.606618 0.099024 0.235189
O O1 0.854122 0.767447 0.618194
O O2 0.815825 0.936057 0.007242
O O3 0.676301 0.978296 0.498885
O O4 0.665726 0.676565 0.722438
O O5 0.896109 0.226850 0.945642
O O6 0.848127 0.445922 0.535974
O O7 0.071672 0.360845 0.755752
O O8 0.908935 0.151566 0.464944
O O9 0.297228 0.831872 0.899053
O O10 0.308632 0.334805 0.811514
O O11 0.500000 0.500000 0.000000
O O12 0.532198 0.241624 0.288030
O O13 0.500000 0.000000 0.000000
#
# Coordination Sequence:
#
# PCOD9068730 Si02
#       6
#     2   2   2   2   2   2
#     4  12  26  48  80 118 160 201 268 318 402 463
#     4  11  29  51  83 111 167 204 268 322 394 467
#     4  12  26  51  82 117 151 218 254 325 396 461
#     4  12  28  46  79 116 159 205 266 322 398 470
#     4  11  28  51  75 121 153 216 258 333 385 472
#     4  12  24  48  74 115 161 205 250 331 388 470
#
# _framework density 26.344842
#
# number of rings (size 3 to 8) (size 9 to 14) (size 15 to 20)
#    0.000    0.333    5.000    1.500    7.000    3.333 
#    0.000    0.000    0.000    0.000    0.000    0.000 
#    0.000    0.000    0.000    0.000    0.000    0.000 
#
# Total GULP energy -66997.054493 kJ/mol
# GULP energy per Si atom -5583.087874 kJ/mol
# Density = 2.628488 g / cm^3
# Si number density = 26.344842 Si / 1000 Ang^3
#
#
#
# Elastic Constant Matrix: (Units=GPa)
#
#
# Indices 1 2 3 4 5 6 
#
# 1 148.9943 24.2485 47.4920 1.0826 -24.0188 27.1882
# 2 24.2485 74.5851 29.2037 -15.5361 8.0672 -3.7789
# 3 47.4920 29.2037 142.8658 -7.7363 -12.2079 10.2015
# 4 1.0826 -15.5361 -7.7363 42.6450 6.7753 -8.2859
# 5 -24.0188 8.0672 -12.2079 6.7753 51.7529 -9.7061
# 6 27.1882 -3.7789 10.2015 -8.2859 -9.7061 53.9345
#
#
#
# Elastic Compliance Matrix: (Units=1/GPa)
#
#
# Indices 1 2 3 4 5 6 
#
# 1 0.009418 -0.003712 -0.001890 -0.003452 0.004123 -0.004438
# 2 -0.003712 0.018130 -0.002796 0.007821 -0.005504 0.003881
# 3 -0.001890 -0.002796 0.008370 0.000220 0.001403 -0.000540
# 4 -0.003452 0.007821 0.000220 0.028382 -0.005429 0.005630
# 5 0.004123 -0.005504 0.001403 -0.005429 0.023252 0.000621
# 6 -0.004438 0.003881 -0.000540 0.005630 0.000621 0.022129
#
#
# Mechanical properties :
#
#
# Convention : Reuss Voigt Hill
#
# Bulk Modulus (GPa) = 52.29444 63.14817 57.72131
# Shear Modulus (GPa) = 37.63631 47.36655 42.50143
#
# Velocity S-wave (km/s) = 3.78379 4.24482 4.02091
# Velocity P-wave (km/s) = 6.24359 6.93156 6.59655
#
# Compressibility (1/GPa) = 0.01912249
#
# Stress axis : x y z
#
# Youngs Moduli (GPa) = 106.18296 55.15694 119.47909
#
# Poissons Ratio (x) = 0.20473 0.22577
# Poissons Ratio (y) = 0.39412 0.33408
# Poissons Ratio (z) = 0.20064 0.15423
#
# Static dielectric constant tensor:
#      x y z
#    x 1.994920 0.076000 -0.020090 
#    y 0.076000 2.067120 0.020560 
#    z -0.020090 0.020560 2.178540 
# 
# From -- ./inp_files/41389.got.cif
#   From: 2010.05.17/outbox.cif.g08.bks.cpg/sg2_21_cif.got.tgz:41389.got - 2010.06.03 11:33:40.
