data_PCOD9068228
_publ_section_title
;
Structure prediction by ZEFSAII (Michael W. Deem and Ramdas Pophale) SiO2 
 PCOD9068228
Probable space group: P -1
;
_chemical_formula_sum "Si O2"
_cell_formula_units_Z 16
_cell_length_a 13.300063
_cell_length_b 8.233133
_cell_length_c 15.444943
_cell_angle_alpha 79.541338
_cell_angle_beta 136.965267
_cell_angle_gamma 66.761353
_cell_volume 702.202950
_symmetry_space_group_name_H-M "P -1"
_symmetry_group_IT_number 2
_symmetry_cell_setting 'triclinic'
loop_
_space_group_symop_operation_xyz
x,y,z
-x,-y,-z
loop_
_atom_site_type_symbol
_atom_site_label
_atom_site_fract_x
_atom_site_fract_y
_atom_site_fract_z
Si Si1 0.034814 0.761724 0.906300
Si Si2 0.227146 0.198303 0.518934
Si Si3 0.124115 0.798407 0.677061
Si Si4 0.626684 0.655852 0.715385
Si Si5 0.614983 0.051561 0.850660
Si Si6 0.333399 0.728681 0.986734
Si Si7 0.370153 0.693599 0.315801
Si Si8 0.904188 0.564695 0.755591
O O1 0.250322 0.641277 0.996857
O O2 0.884469 0.775147 0.748779
O O3 0.124742 0.562136 0.056518
O O4 0.888965 0.038156 0.831762
O O5 0.369188 0.163222 0.688988
O O6 0.115539 0.428947 0.360332
O O7 0.028634 0.234600 0.406144
O O8 0.439237 0.923008 0.625346
O O9 0.151449 0.882069 0.775116
O O10 0.397330 0.519869 0.852637
O O11 0.000000 0.000000 0.500000
O O12 0.582356 0.499569 0.700402
O O13 0.687532 0.665235 0.657293
O O14 0.592979 0.178125 0.735020
O O15 0.664247 0.126090 0.956395
O O16 0.844472 0.730572 0.027535
O O17 0.500000 0.500000 0.500000
#
# Coordination Sequence:
#
# PCOD9068228 Si02
#       8
#     2   2   2   2   2   2   2   2
#     4  12  21  43  71  99 146 192 234 286 350 429
#     4  12  26  45  72 107 142 188 241 301 358 421
#     4  11  27  50  78 103 133 185 249 304 361 424
#     4  12  22  41  67 100 151 195 235 286 349 429
#     4  12  26  45  71 109 149 189 232 297 360 427
#     4  11  26  48  76 102 137 190 242 296 365 416
#     4  12  25  39  65 108 149 191 240 282 345 429
#     4  12  24  43  69 104 151 192 236 286 361 432
#
# _framework density 22.785435
#
# number of rings (size 3 to 8) (size 9 to 14) (size 15 to 20)
#    0.000    0.250    5.000    4.875    0.000    1.500 
#    0.000    1.250    0.000    0.000    0.000    0.000 
#    0.000    0.000    0.000    0.000    0.000    0.000 
#
# Total GULP energy -89280.057874 kJ/mol
# GULP energy per Si atom -5580.003617 kJ/mol
# Density = 2.273357 g / cm^3
# Si number density = 22.785435 Si / 1000 Ang^3
#
#
#
# Elastic Constant Matrix: (Units=GPa)
#
#
# Indices 1 2 3 4 5 6 
#
# 1 114.1202 17.6619 52.4713 9.6049 4.8459 9.9857
# 2 17.6619 83.8779 33.1116 21.8430 -5.2030 10.5525
# 3 52.4713 33.1116 130.1471 19.2505 -14.8459 8.6027
# 4 9.6049 21.8430 19.2505 36.6573 0.0553 -2.1465
# 5 4.8459 -5.2030 -14.8459 0.0553 43.0471 9.7313
# 6 9.9857 10.5525 8.6027 -2.1465 9.7313 25.1978
#
#
#
# Elastic Compliance Matrix: (Units=1/GPa)
#
#
# Indices 1 2 3 4 5 6 
#
# 1 0.011197 -0.000385 -0.004510 -0.000440 -0.002448 -0.001828
# 2 -0.000385 0.016302 -0.001723 -0.009190 0.003270 -0.008132
# 3 -0.004510 -0.001723 0.011344 -0.003970 0.005042 -0.003650
# 4 -0.000440 -0.009190 -0.003970 0.035564 -0.004796 0.010260
# 5 -0.002448 0.003270 0.005042 -0.004796 0.028726 -0.013623
# 6 -0.001828 -0.008132 -0.003650 0.010260 -0.013623 0.051197
#
#
# Mechanical properties :
#
#
# Convention : Reuss Voigt Hill
#
# Bulk Modulus (GPa) = 39.04979 59.40386 49.22683
# Shear Modulus (GPa) = 28.39308 35.97382 32.18345
#
# Velocity S-wave (km/s) = 3.53385 3.97773 3.76234
# Velocity P-wave (km/s) = 5.81602 6.87198 6.36593
#
# Compressibility (1/GPa) = 0.02560833
#
# Stress axis : x y z
#
# Youngs Moduli (GPa) = 89.31218 61.34152 88.15515
#
# Poissons Ratio (x) = 0.02360 0.39755
# Poissons Ratio (y) = 0.03437 0.15186
# Poissons Ratio (z) = 0.40277 0.10567
#
# Static dielectric constant tensor:
#      x y z
#    x 1.845900 -0.008710 -0.032040 
#    y -0.008710 1.918050 0.111100 
#    z -0.032040 0.111100 1.926250 
# 
# From -- ./inp_files/515413.got.cif
#   From: 2010.05.17/outbox.cif.g08.bks.cpg/sg2_258_cif.got.tgz:515413.got - 2010.06.03 11:33:40.
