data_PCOD9068087
_publ_section_title
;
Structure prediction by ZEFSAII (Michael W. Deem and Ramdas Pophale) SiO2 
 PCOD9068087
Probable space group: P -1
;
_chemical_formula_sum "Si O2"
_cell_formula_units_Z 12
_cell_length_a 9.329560
_cell_length_b 9.744223
_cell_length_c 14.544054
_cell_angle_alpha 121.360898
_cell_angle_beta 153.052021
_cell_angle_gamma 71.968000
_cell_volume 469.180036
_symmetry_space_group_name_H-M "P -1"
_symmetry_group_IT_number 2
_symmetry_cell_setting 'triclinic'
loop_
_space_group_symop_operation_xyz
x,y,z
-x,-y,-z
loop_
_atom_site_type_symbol
_atom_site_label
_atom_site_fract_x
_atom_site_fract_y
_atom_site_fract_z
Si Si1 0.531167 0.678533 0.309386
Si Si2 0.725222 0.054931 0.741126
Si Si3 0.677112 0.522070 0.508986
Si Si4 0.575409 0.402844 0.094863
Si Si5 0.788102 0.984370 0.225687
Si Si6 0.526283 0.879508 0.759724
O O1 0.232403 0.746580 0.139101
O O2 0.492030 0.609394 0.366261
O O3 0.598954 0.532746 0.237837
O O4 0.857790 0.860979 0.545128
O O5 0.500000 0.000000 0.500000
O O6 0.566082 0.929352 0.693048
O O7 0.104644 0.055778 0.955493
O O8 0.500000 0.500000 0.500000
O O9 0.635667 0.327298 0.390797
O O10 0.085170 0.628409 0.754570
O O11 0.500000 0.500000 0.000000
O O12 0.268912 0.217230 0.877828
O O13 0.698197 0.029354 0.290982
O O14 0.500000 0.000000 0.000000
#
# Coordination Sequence:
#
# PCOD9068087 Si02
#       6
#     2   2   2   2   2   2
#     4  12  26  51  74 111 148 193 253 309 369 451
#     4  11  26  47  76 112 150 200 252 302 383 448
#     4  12  27  49  73 110 152 196 250 310 375 447
#     4  12  28  47  77 113 148 196 251 305 375 446
#     4  12  24  47  79 105 148 198 249 307 376 443
#     4  11  26  47  75 109 154 196 247 316 370 445
#
# _framework density 25.576536999999998
#
# number of rings (size 3 to 8) (size 9 to 14) (size 15 to 20)
#    0.000    0.333    3.333    4.500    9.333    2.000 
#    3.000    0.000    0.000    0.000    0.000    0.000 
#    0.000    0.000    0.000    0.000    0.000    0.000 
#
# Total GULP energy -67233.568384 kJ/mol
# GULP energy per Si atom -5602.797365 kJ/mol
# Density = 2.551832 g / cm^3
# Si number density = 25.576537 Si / 1000 Ang^3
#
#
#
# Elastic Constant Matrix: (Units=GPa)
#
#
# Indices 1 2 3 4 5 6 
#
# 1 154.8122 40.5011 48.6178 9.0089 3.5209 1.9576
# 2 40.5011 171.7571 44.8320 20.3900 2.6540 17.0143
# 3 48.6178 44.8320 91.9859 13.2789 -0.5971 6.7517
# 4 9.0089 20.3900 13.2789 58.7033 2.7868 -1.7530
# 5 3.5209 2.6540 -0.5971 2.7868 25.4787 -5.0420
# 6 1.9576 17.0143 6.7517 -1.7530 -5.0420 58.4669
#
#
#
# Elastic Compliance Matrix: (Units=1/GPa)
#
#
# Indices 1 2 3 4 5 6 
#
# 1 0.007896 -0.000898 -0.003769 0.000011 -0.001019 0.000345
# 2 -0.000898 0.007123 -0.002611 -0.001761 -0.000856 -0.001868
# 3 -0.003769 -0.002611 0.014467 -0.001866 0.001190 -0.000738
# 4 0.000011 -0.001761 -0.001866 0.018178 -0.001626 0.001132
# 5 -0.001019 -0.000856 0.001190 -0.001626 0.040393 0.003580
# 6 0.000345 -0.001868 -0.000738 0.001132 0.003580 0.018064
#
#
# Mechanical properties :
#
#
# Convention : Reuss Voigt Hill
#
# Bulk Modulus (GPa) = 66.98194 76.27301 71.62747
# Shear Modulus (GPa) = 39.79186 47.50339 43.64762
#
# Velocity S-wave (km/s) = 3.94864 4.31432 4.13552
# Velocity P-wave (km/s) = 6.85818 7.39622 7.13227
#
# Compressibility (1/GPa) = 0.01492940
#
# Stress axis : x y z
#
# Youngs Moduli (GPa) = 126.64252 140.39538 69.12103
#
# Poissons Ratio (x) = 0.12605 0.26055
# Poissons Ratio (y) = 0.11370 0.18049
# Poissons Ratio (z) = 0.47737 0.36661
#
# Static dielectric constant tensor:
#      x y z
#    x 2.076830 -0.096460 0.027230 
#    y -0.096460 1.956040 -0.054680 
#    z 0.027230 -0.054680 2.175890 
# 
# From -- ./inp_files/495670.got.cif
#   From: 2010.05.17/outbox.cif.g08.bks.cpg/sg2_248_cif.got.tgz:495670.got - 2010.06.03 11:33:40.
