data_PCOD9068753
_publ_section_title
;
Structure prediction by ZEFSAII (Michael W. Deem and Ramdas Pophale) SiO2 
 PCOD9068753
Probable space group: P -1
;
_chemical_formula_sum "Si O2"
_cell_formula_units_Z 12
_cell_length_a 5.035367
_cell_length_b 12.371170
_cell_length_c 9.125196
_cell_angle_alpha 118.058576
_cell_angle_beta 109.449640
_cell_angle_gamma 78.380988
_cell_volume 472.317953
_symmetry_space_group_name_H-M "P -1"
_symmetry_group_IT_number 2
_symmetry_cell_setting 'triclinic'
loop_
_space_group_symop_operation_xyz
x,y,z
-x,-y,-z
loop_
_atom_site_type_symbol
_atom_site_label
_atom_site_fract_x
_atom_site_fract_y
_atom_site_fract_z
Si Si1 0.961748 0.218702 0.916789
Si Si2 0.521196 0.866578 0.847144
Si Si3 0.731520 0.957882 0.635962
Si Si4 0.623929 0.601335 0.443204
Si Si5 0.824997 0.340557 0.241330
Si Si6 0.985799 0.266887 0.612276
O O1 0.605605 0.886334 0.705881
O O2 0.240272 0.202236 0.054772
O O3 0.001929 0.258395 0.784150
O O4 0.786596 0.317106 0.046650
O O5 0.844109 0.083086 0.800070
O O6 0.500000 0.000000 0.000000
O O7 0.953982 0.869591 0.530954
O O8 0.500000 0.000000 0.500000
O O9 0.626786 0.455488 0.331181
O O10 0.312127 0.663586 0.438969
O O11 0.862479 0.627690 0.625750
O O12 0.764651 0.657298 0.360185
O O13 0.746694 0.212274 0.218467
#
# Coordination Sequence:
#
# PCOD9068753 Si02
#       6
#     2   2   2   2   2   2
#     4  12  28  47  79 122 164 209 274 339 412 483
#     4  12  27  50  82 121 164 210 271 342 414 483
#     4  12  27  52  83 124 166 216 271 337 414 490
#     4  11  30  54  84 116 164 220 279 332 398 492
#     4  11  29  53  83 119 160 218 278 336 407 480
#     4  12  29  52  81 121 162 220 268 336 408 482
#
# _framework density 25.406614999999999
#
# number of rings (size 3 to 8) (size 9 to 14) (size 15 to 20)
#    0.000    0.333    1.667    4.000   14.000    2.667 
#    0.000    0.000    0.000    0.000    0.000    0.000 
#    0.000    0.000    0.000    0.000    0.000    0.000 
#
# Total GULP energy -67308.094311 kJ/mol
# GULP energy per Si atom -5609.007859 kJ/mol
# Density = 2.534879 g / cm^3
# Si number density = 25.406615 Si / 1000 Ang^3
#
#
#
# Elastic Constant Matrix: (Units=GPa)
#
#
# Indices 1 2 3 4 5 6 
#
# 1 133.6166 47.5175 63.8856 8.7982 -14.3134 -2.7641
# 2 47.5175 117.3284 76.2231 19.0947 -15.9391 -18.3558
# 3 63.8856 76.2231 193.5382 12.2511 -43.1101 -0.4584
# 4 8.7982 19.0947 12.2511 54.2608 5.9945 -2.7758
# 5 -14.3134 -15.9391 -43.1101 5.9945 52.4806 -2.0901
# 6 -2.7641 -18.3558 -0.4584 -2.7758 -2.0901 65.7962
#
#
#
# Elastic Compliance Matrix: (Units=1/GPa)
#
#
# Indices 1 2 3 4 5 6 
#
# 1 0.009371 -0.002429 -0.002100 -0.000218 0.000106 -0.000304
# 2 -0.002429 0.013321 -0.004118 -0.003243 0.000509 0.003465
# 3 -0.002100 -0.004118 0.008737 -0.000834 0.005407 -0.001039
# 4 -0.000218 -0.003243 -0.000834 0.020232 -0.004048 -0.000195
# 5 0.000106 0.000509 0.005407 -0.004048 0.024173 0.000781
# 6 -0.000304 0.003465 -0.001039 -0.000195 0.000781 0.016162
#
#
# Mechanical properties :
#
#
# Convention : Reuss Voigt Hill
#
# Bulk Modulus (GPa) = 70.74304 91.08173 80.91238
# Shear Modulus (GPa) = 43.85951 51.63133 47.74542
#
# Velocity S-wave (km/s) = 4.15939 4.51288 4.33974
# Velocity P-wave (km/s) = 7.13948 7.94243 7.55164
#
# Compressibility (1/GPa) = 0.01413567
#
# Stress axis : x y z
#
# Youngs Moduli (GPa) = 106.70783 75.07058 114.46073
#
# Poissons Ratio (x) = 0.18232 0.24040
# Poissons Ratio (y) = 0.25916 0.47130
# Poissons Ratio (z) = 0.22412 0.30911
#
# Static dielectric constant tensor:
#      x y z
#    x 2.110880 -0.053420 -0.001430 
#    y -0.053420 2.010910 0.020530 
#    z -0.001430 0.020530 2.020780 
# 
# From -- ./inp_files/366448.got.cif
#   From: 2010.05.17/outbox.cif.g08.bks.cpg/sg2_184_cif.got.tgz:366448.got - 2010.06.03 11:33:40.
