data_PCOD9068997
_publ_section_title
;
Structure prediction by ZEFSAII (Michael W. Deem and Ramdas Pophale) SiO2 
 PCOD9068997
Probable space group: P -1
;
_chemical_formula_sum "Si O2"
_cell_formula_units_Z 14
_cell_length_a 11.739742
_cell_length_b 14.408678
_cell_length_c 11.473303
_cell_angle_alpha 57.605035
_cell_angle_beta 24.958490
_cell_angle_gamma 56.088503
_cell_volume 677.137084
_symmetry_space_group_name_H-M "P -1"
_symmetry_group_IT_number 2
_symmetry_cell_setting 'triclinic'
loop_
_space_group_symop_operation_xyz
x,y,z
-x,-y,-z
loop_
_atom_site_type_symbol
_atom_site_label
_atom_site_fract_x
_atom_site_fract_y
_atom_site_fract_z
Si Si1 0.219781 0.342120 0.595082
Si Si2 0.701026 0.081347 0.722955
Si Si3 0.628183 0.264836 0.868440
Si Si4 0.379819 0.511700 0.970980
Si Si5 0.803844 0.798149 0.515644
Si Si6 0.946187 0.030018 0.164534
Si Si7 0.434040 0.153693 0.677589
O O1 0.464860 0.404005 0.296371
O O2 0.215205 0.246210 0.566781
O O3 0.266686 0.277484 0.717668
O O4 0.940069 0.432757 0.776029
O O5 0.673484 0.181892 0.773242
O O6 0.602553 0.134734 0.653578
O O7 0.000000 0.000000 0.500000
O O8 0.500000 0.000000 0.000000
O O9 0.448106 0.388444 0.934502
O O10 0.928148 0.278967 0.623453
O O11 0.468581 0.209697 0.154573
O O12 0.500000 0.500000 0.000000
O O13 0.876954 0.920689 0.365044
O O14 0.668516 0.121621 0.382122
O O15 0.212143 0.072966 0.935353
O O16 0.000000 0.000000 0.000000
#
# Coordination Sequence:
#
# PCOD9068997 Si02
#       7
#     2   2   2   2   2   2   2
#     4  12  24  40  64  98 135 170 213 278 341 391
#     4  12  26  49  69  95 133 180 229 269 323 403
#     4  12  25  41  69  95 129 177 225 272 325 387
#     4  12  23  42  65  99 135 171 222 275 333 392
#     4  12  22  38  64  99 132 167 216 273 336 395
#     4  12  24  38  63  99 134 169 214 266 345 411
#     4  12  26  44  64  96 140 176 216 281 330 392
#
# _framework density 20.675283
#
# number of rings (size 3 to 8) (size 9 to 14) (size 15 to 20)
#    0.000    0.000    4.286    7.714    2.000    0.000 
#    0.000    1.429    0.000    0.000    0.000    0.000 
#    0.000    0.000    0.000    0.000    0.000    0.000 
#
# Total GULP energy -78377.612866 kJ/mol
# GULP energy per Si atom -5598.400919 kJ/mol
# Density = 2.062822 g / cm^3
# Si number density = 20.675283 Si / 1000 Ang^3
#
#
#
# Elastic Constant Matrix: (Units=GPa)
#
#
# Indices 1 2 3 4 5 6 
#
# 1 102.5902 48.6258 5.1079 13.6378 -2.8663 -1.4500
# 2 48.6258 96.0101 8.8717 9.4072 6.0268 -1.2343
# 3 5.1079 8.8717 78.5113 6.0414 -10.4636 13.1651
# 4 13.6378 9.4072 6.0414 45.7090 -4.1762 2.2801
# 5 -2.8663 6.0268 -10.4636 -4.1762 22.6313 -1.3775
# 6 -1.4500 -1.2343 13.1651 2.2801 -1.3775 27.8369
#
#
#
# Elastic Compliance Matrix: (Units=1/GPa)
#
#
# Indices 1 2 3 4 5 6 
#
# 1 0.013349 -0.006766 0.000424 -0.002374 0.003284 0.000552
# 2 -0.006766 0.014541 -0.002066 -0.001290 -0.005857 0.001085
# 3 0.000424 -0.002066 0.015073 -0.000713 0.007028 -0.006792
# 4 -0.002374 -0.001290 -0.000713 0.023383 0.003933 -0.001564
# 5 0.003284 -0.005857 0.007028 0.003933 0.050061 -0.001257
# 6 0.000552 0.001085 -0.006792 -0.001564 -0.001257 0.039279
#
#
# Mechanical properties :
#
#
# Convention : Reuss Voigt Hill
#
# Bulk Modulus (GPa) = 38.24642 44.70249 41.47446
# Shear Modulus (GPa) = 27.59105 33.53586 30.56345
#
# Velocity S-wave (km/s) = 3.65704 4.03181 3.84899
# Velocity P-wave (km/s) = 6.03081 6.58347 6.31319
#
# Compressibility (1/GPa) = 0.02614624
#
# Stress axis : x y z
#
# Youngs Moduli (GPa) = 74.91432 68.76933 66.34216
#
# Poissons Ratio (x) = 0.46531 -0.02813
# Poissons Ratio (y) = 0.50689 0.13708
# Poissons Ratio (z) = -0.03176 0.14209
#
# Static dielectric constant tensor:
#      x y z
#    x 1.788130 -0.033580 0.005740 
#    y -0.033580 1.774340 0.018980 
#    z 0.005740 0.018980 1.715400 
# 
# From -- ./inp_files/433765.got.cif
#   From: 2010.05.17/outbox.cif.g08.bks.cpg/sg2_217_cif.got.tgz:433765.got - 2010.06.03 11:33:40.
