data_PCOD9068869
_publ_section_title
;
Structure prediction by ZEFSAII (Michael W. Deem and Ramdas Pophale) SiO2 
 PCOD9068869
Probable space group: P -1
;
_chemical_formula_sum "Si O2"
_cell_formula_units_Z 14
_cell_length_a 12.120097
_cell_length_b 6.779312
_cell_length_c 20.482748
_cell_angle_alpha 117.395539
_cell_angle_beta 22.700809
_cell_angle_gamma 113.599552
_cell_volume 575.222030
_symmetry_space_group_name_H-M "P -1"
_symmetry_group_IT_number 2
_symmetry_cell_setting 'triclinic'
loop_
_space_group_symop_operation_xyz
x,y,z
-x,-y,-z
loop_
_atom_site_type_symbol
_atom_site_label
_atom_site_fract_x
_atom_site_fract_y
_atom_site_fract_z
Si Si1 0.208412 0.091829 0.345660
Si Si2 0.841731 0.230937 0.146889
Si Si3 0.418693 0.307375 0.872548
Si Si4 0.931478 0.098485 0.354882
Si Si5 0.472916 0.537831 0.304677
Si Si6 0.240317 0.441837 0.178880
Si Si7 0.672989 0.688383 0.467529
O O1 0.366441 0.520271 0.190502
O O2 0.268676 0.344521 0.366002
O O3 0.000000 0.000000 0.500000
O O4 0.087124 0.068217 0.335802
O O5 0.740214 0.400292 0.170885
O O6 0.554997 0.196566 0.339118
O O7 0.488219 0.927306 0.180260
O O8 0.081175 0.348281 0.076431
O O9 0.453820 0.324137 0.778189
O O10 0.000000 0.000000 0.000000
O O11 0.687171 0.295805 0.531401
O O12 0.152153 0.190076 0.196667
O O13 0.784047 0.873270 0.386517
O O14 0.954885 0.583865 0.334233
O O15 0.500000 0.500000 0.000000
O O16 0.500000 0.500000 0.500000
#
# Coordination Sequence:
#
# PCOD9068869 Si02
#       7
#     2   2   2   2   2   2   2
#     4  12  21  38  70 110 152 191 243 316 387 459
#     4  12  25  46  74 115 160 199 252 323 384 457
#     4  12  24  42  71 108 152 194 251 315 384 455
#     4  12  24  45  78 111 148 202 263 316 394 454
#     4  12  23  42  73 113 154 200 247 315 396 463
#     4  12  27  50  75 106 149 207 270 321 374 463
#     4  12  28  52  76 107 156 209 259 321 388 466
#
# _framework density 24.338428
#
# number of rings (size 3 to 8) (size 9 to 14) (size 15 to 20)
#    0.000    0.000    7.143    4.286    0.000    1.143 
#    0.000    0.000    0.000    0.000    0.000    0.000 
#    0.000    0.000    0.000    0.000    0.000    0.000 
#
# Total GULP energy -78415.597270 kJ/mol
# GULP energy per Si atom -5601.114091 kJ/mol
# Density = 2.428303 g / cm^3
# Si number density = 24.338428 Si / 1000 Ang^3
#
#
#
# Elastic Constant Matrix: (Units=GPa)
#
#
# Indices 1 2 3 4 5 6 
#
# 1 74.5997 39.3094 55.4139 8.7236 -27.9412 -6.4890
# 2 39.3094 177.1432 49.8689 -28.5607 -9.0203 2.0439
# 3 55.4139 49.8689 143.4246 -23.6194 -19.1335 -16.8265
# 4 8.7236 -28.5607 -23.6194 44.1362 -6.8842 -6.8815
# 5 -27.9412 -9.0203 -19.1335 -6.8842 44.9706 -8.1463
# 6 -6.4890 2.0439 -16.8265 -6.8815 -8.1463 42.7133
#
#
#
# Elastic Compliance Matrix: (Units=1/GPa)
#
#
# Indices 1 2 3 4 5 6 
#
# 1 0.029268 -0.005154 -0.010014 -0.012615 0.011111 0.000835
# 2 -0.005154 0.007659 0.000171 0.005909 -0.000737 -0.000271
# 3 -0.010014 0.000171 0.013529 0.010610 0.002270 0.005942
# 4 -0.012615 0.005909 0.010610 0.036836 0.005111 0.008890
# 5 0.011111 -0.000737 0.002270 0.005111 0.032486 0.009636
# 6 0.000835 -0.000271 0.005942 0.008890 0.009636 0.029163
#
#
# Mechanical properties :
#
#
# Convention : Reuss Voigt Hill
#
# Bulk Modulus (GPa) = 48.86647 76.03911 62.45279
# Shear Modulus (GPa) = 26.91734 43.06903 34.99318
#
# Velocity S-wave (km/s) = 3.32921 4.21121 3.79591
# Velocity P-wave (km/s) = 5.90759 7.41323 6.70282
#
# Compressibility (1/GPa) = 0.02046393
#
# Stress axis : x y z
#
# Youngs Moduli (GPa) = 34.16678 130.56712 73.91569
#
# Poissons Ratio (x) = 0.67290 0.74016
# Poissons Ratio (y) = 0.17608 -0.01265
# Poissons Ratio (z) = 0.34213 -0.02235
#
# Static dielectric constant tensor:
#      x y z
#    x 1.989970 0.052060 0.021930 
#    y 0.052060 1.980010 0.012220 
#    z 0.021930 0.012220 1.999590 
# 
# From -- ./inp_files/611332.got.cif
#   From: 2010.05.17/outbox.cif.g08.bks.cpg/sg2_306_cif.got.tgz:611332.got - 2010.06.03 11:33:40.
