data_PCOD9068946
_publ_section_title
;
Structure prediction by ZEFSAII (Michael W. Deem and Ramdas Pophale) SiO2 
 PCOD9068946
Probable space group: P -1
;
_chemical_formula_sum "Si O2"
_cell_formula_units_Z 16
_cell_length_a 7.539179
_cell_length_b 6.564599
_cell_length_c 19.875478
_cell_angle_alpha 121.359670
_cell_angle_beta 47.937820
_cell_angle_gamma 117.591124
_cell_volume 613.353123
_symmetry_space_group_name_H-M "P -1"
_symmetry_group_IT_number 2
_symmetry_cell_setting 'triclinic'
loop_
_space_group_symop_operation_xyz
x,y,z
-x,-y,-z
loop_
_atom_site_type_symbol
_atom_site_label
_atom_site_fract_x
_atom_site_fract_y
_atom_site_fract_z
Si Si1 0.469999 0.216465 0.694193
Si Si2 0.982330 0.351402 0.204273
Si Si3 0.219314 0.383635 0.896070
Si Si4 0.601277 0.869432 0.871357
Si Si5 0.893771 0.622698 0.609452
Si Si6 0.224476 0.893727 0.273515
Si Si7 0.338099 0.687398 0.603426
Si Si8 0.701381 0.742146 0.002603
O O1 0.221784 0.267486 0.801453
O O2 0.631579 0.455192 0.662030
O O3 0.614606 0.157753 0.713768
O O4 0.434395 0.974788 0.616191
O O5 0.146977 0.175163 0.167770
O O6 0.045083 0.295928 0.101658
O O7 0.722999 0.317929 0.301522
O O8 0.089739 0.634168 0.237701
O O9 0.440743 0.606212 0.873393
O O10 0.265406 0.218021 0.919357
O O11 0.000000 0.500000 0.000000
O O12 0.659881 0.960082 0.796162
O O13 0.420567 0.054588 0.967969
O O14 0.921862 0.903491 0.629333
O O15 0.000000 0.500000 0.500000
O O16 0.073114 0.612190 0.624687
O O17 0.500000 0.500000 0.500000
O O18 0.500000 0.500000 0.000000
#
# Coordination Sequence:
#
# PCOD9068946 Si02
#       8
#     2   2   2   2   2   2   2   2
#     4  12  26  52  76 109 154 195 252 310 376 458
#     4  12  25  46  75 111 151 199 257 312 372 449
#     4  12  27  43  65 109 157 195 244 311 378 444
#     4  12  21  44  73  99 150 200 256 297 378 449
#     4  12  28  52  81 107 144 201 246 321 382 440
#     4  12  21  47  80  99 148 199 251 304 382 445
#     4  12  29  51  76 114 150 195 254 315 378 449
#     4  12  24  41  73 109 142 204 252 301 371 455
#
# _framework density 26.086117999999999
#
# number of rings (size 3 to 8) (size 9 to 14) (size 15 to 20)
#    0.000    0.000    8.750    1.125    3.500    4.000 
#    4.500    0.000    0.000    0.000    0.000    0.000 
#    0.000    0.000    0.000    0.000    0.000    0.000 
#
# Total GULP energy -89463.744983 kJ/mol
# GULP energy per Si atom -5591.484061 kJ/mol
# Density = 2.602674 g / cm^3
# Si number density = 26.086118 Si / 1000 Ang^3
#
#
#
# Elastic Constant Matrix: (Units=GPa)
#
#
# Indices 1 2 3 4 5 6 
#
# 1 54.9132 38.9592 4.7755 3.7530 -4.1030 -11.1092
# 2 38.9592 162.3236 44.7126 24.9784 -3.3219 12.9078
# 3 4.7755 44.7126 167.2032 27.4910 -10.2198 -6.2906
# 4 3.7530 24.9784 27.4910 56.1039 -8.9459 0.0292
# 5 -4.1030 -3.3219 -10.2198 -8.9459 30.2597 4.7236
# 6 -11.1092 12.9078 -6.2906 0.0292 4.7236 58.5465
#
#
#
# Elastic Compliance Matrix: (Units=1/GPa)
#
#
# Indices 1 2 3 4 5 6 
#
# 1 0.024231 -0.006782 0.001308 0.001133 0.002375 0.006041
# 2 -0.006782 0.008998 -0.001944 -0.002736 -0.000865 -0.003408
# 3 0.001308 -0.001944 0.006998 -0.002428 0.001404 0.001316
# 4 0.001133 -0.002736 -0.002428 0.020988 0.005219 0.000126
# 5 0.002375 -0.000865 0.001404 0.005219 0.035617 -0.002084
# 6 0.006041 -0.003408 0.001316 0.000126 -0.002084 0.019288
#
#
# Mechanical properties :
#
#
# Convention : Reuss Voigt Hill
#
# Bulk Modulus (GPa) = 39.38528 62.37052 50.87790
# Shear Modulus (GPa) = 35.86327 48.71486 42.28907
#
# Velocity S-wave (km/s) = 3.71186 4.32610 4.03070
# Velocity P-wave (km/s) = 5.78804 6.99392 6.41936
#
# Compressibility (1/GPa) = 0.02539020
#
# Stress axis : x y z
#
# Youngs Moduli (GPa) = 41.27012 111.13520 142.90398
#
# Poissons Ratio (x) = 0.75372 -0.18687
# Poissons Ratio (y) = 0.27989 0.27777
# Poissons Ratio (z) = -0.05397 0.21602
#
# Static dielectric constant tensor:
#      x y z
#    x 2.155560 -0.041940 -0.011090 
#    y -0.041940 2.039140 0.062930 
#    z -0.011090 0.062930 2.323630 
# 
# From -- ./inp_files/585839.got.cif
#   From: 2010.05.17/outbox.cif.g08.bks.cpg/sg2_293_cif.got.tgz:585839.got - 2010.06.03 11:33:40.
