data_PCOD9068858
_publ_section_title
;
Structure prediction by ZEFSAII (Michael W. Deem and Ramdas Pophale) SiO2 
 PCOD9068858
Probable space group: P -1
;
_chemical_formula_sum "Si O2"
_cell_formula_units_Z 14
_cell_length_a 14.960391
_cell_length_b 11.967263
_cell_length_c 14.892929
_cell_angle_alpha 125.850444
_cell_angle_beta 19.847345
_cell_angle_gamma 115.544457
_cell_volume 660.751574
_symmetry_space_group_name_H-M "P -1"
_symmetry_group_IT_number 2
_symmetry_cell_setting 'triclinic'
loop_
_space_group_symop_operation_xyz
x,y,z
-x,-y,-z
loop_
_atom_site_type_symbol
_atom_site_label
_atom_site_fract_x
_atom_site_fract_y
_atom_site_fract_z
Si Si1 0.241881 0.625721 0.113529
Si Si2 0.248300 0.194435 0.020995
Si Si3 0.049667 0.078167 0.578356
Si Si4 0.116141 0.562349 0.649563
Si Si5 0.307481 0.682258 0.270560
Si Si6 0.734923 0.549745 0.342482
Si Si7 0.409358 0.914365 0.845497
O O1 0.257975 0.719529 0.229459
O O2 0.113362 0.740759 0.206203
O O3 0.029963 0.546760 0.298087
O O4 0.562034 0.498462 0.725516
O O5 0.094595 0.269103 0.107789
O O6 0.994408 0.276733 0.373927
O O7 0.511558 0.239043 0.814720
O O8 0.349186 0.015403 0.860042
O O9 0.384178 0.036621 0.264372
O O10 0.000000 0.000000 0.500000
O O11 0.887148 0.051453 0.805144
O O12 0.153735 0.533785 0.706593
O O13 0.500000 0.500000 0.000000
O O14 0.500000 0.500000 0.500000
O O15 0.583046 0.733265 0.582917
O O16 0.000000 0.500000 0.000000
#
# Coordination Sequence:
#
# PCOD9068858 Si02
#       7
#     2   2   2   2   2   2   2
#     4  12  21  37  62  92 131 177 221 258 301 379
#     4  12  24  41  62  97 138 177 210 269 330 379
#     4  12  23  40  62  97 141 179 217 259 323 393
#     4  12  23  42  66  92 126 163 218 272 322 391
#     4  12  22  37  59  96 141 185 223 247 304 403
#     4  12  26  48  73  96 121 170 229 288 349 389
#     4  12  25  44  66  98 136 170 220 279 330 396
#
# _framework density 21.187992000000001
#
# number of rings (size 3 to 8) (size 9 to 14) (size 15 to 20)
#    0.000    0.000    5.714    6.000    0.000    0.000 
#    0.000    1.429    0.000    0.000    0.000    0.000 
#    0.000    0.000    0.000    0.000    0.000    0.000 
#
# Total GULP energy -78368.297839 kJ/mol
# GULP energy per Si atom -5597.735560 kJ/mol
# Density = 2.113977 g / cm^3
# Si number density = 21.187992 Si / 1000 Ang^3
#
#
#
# Elastic Constant Matrix: (Units=GPa)
#
#
# Indices 1 2 3 4 5 6 
#
# 1 104.7411 33.6570 19.7693 14.0901 -10.7323 -24.5228
# 2 33.6570 106.8071 10.6202 12.3716 -15.0211 -23.4753
# 3 19.7693 10.6202 73.2526 -17.0346 -4.8847 1.4214
# 4 14.0901 12.3716 -17.0346 38.5021 -4.7125 -15.1111
# 5 -10.7323 -15.0211 -4.8847 -4.7125 37.7945 4.9337
# 6 -24.5228 -23.4753 1.4214 -15.1111 4.9337 41.6360
#
#
#
# Elastic Compliance Matrix: (Units=1/GPa)
#
#
# Indices 1 2 3 4 5 6 
#
# 1 0.012729 -0.001894 -0.004037 -0.003692 0.001216 0.005083
# 2 -0.001894 0.011736 -0.001420 -0.001503 0.003151 0.004631
# 3 -0.004037 -0.001420 0.017313 0.009620 0.001791 -0.000490
# 4 -0.003692 -0.001503 0.009620 0.036109 0.002871 0.009415
# 5 0.001216 0.003151 0.001791 0.002871 0.028636 0.000081
# 6 0.005083 0.004631 -0.000490 0.009415 0.000081 0.033047
#
#
# Mechanical properties :
#
#
# Convention : Reuss Voigt Hill
#
# Bulk Modulus (GPa) = 36.93149 45.87710 41.40429
# Shear Modulus (GPa) = 30.61931 38.30346 34.46139
#
# Velocity S-wave (km/s) = 3.80560 4.25643 4.03731
# Velocity P-wave (km/s) = 6.06452 6.77168 6.42783
#
# Compressibility (1/GPa) = 0.02707716
#
# Stress axis : x y z
#
# Youngs Moduli (GPa) = 78.55916 85.21004 57.76114
#
# Poissons Ratio (x) = 0.16138 0.23317
# Poissons Ratio (y) = 0.14878 0.08199
# Poissons Ratio (z) = 0.31713 0.12096
#
# Static dielectric constant tensor:
#      x y z
#    x 1.757570 -0.056930 -0.042510 
#    y -0.056930 1.812760 0.046190 
#    z -0.042510 0.046190 1.731970 
# 
# From -- ./inp_files/101741.got.cif
#   From: 2010.05.17/outbox.cif.g08.bks.cpg/sg2_51_cif.got.tgz:101741.got - 2010.06.03 11:33:40.
