data_PCOD9068655
_publ_section_title
;
Structure prediction by ZEFSAII (Michael W. Deem and Ramdas Pophale) SiO2 
 PCOD9068655
Probable space group: P -1
;
_chemical_formula_sum "Si O2"
_cell_formula_units_Z 15
_cell_length_a 11.705226
_cell_length_b 21.426359
_cell_length_c 5.254574
_cell_angle_alpha 74.801029
_cell_angle_beta 114.789542
_cell_angle_gamma 151.843125
_cell_volume 546.510824
_symmetry_space_group_name_H-M "P -1"
_symmetry_group_IT_number 2
_symmetry_cell_setting 'triclinic'
loop_
_space_group_symop_operation_xyz
x,y,z
-x,-y,-z
loop_
_atom_site_type_symbol
_atom_site_label
_atom_site_fract_x
_atom_site_fract_y
_atom_site_fract_z
Si Si1 0.130703 0.375247 0.350170
Si Si2 0.083478 0.500340 0.827374
Si Si3 0.979171 0.882696 0.670637
Si Si4 0.500000 0.500000 0.000000
Si Si5 0.419294 0.347208 0.845961
Si Si6 0.245087 0.879337 0.072545
Si Si7 0.746052 0.247446 0.510494
Si Si8 0.757168 0.898237 0.684322
O O1 0.245691 0.392600 0.688827
O O2 0.383913 0.517185 0.283343
O O3 0.990059 0.261766 0.153563
O O4 0.914657 0.324727 0.327017
O O5 0.935332 0.364525 0.780584
O O6 0.000000 0.500000 0.500000
O O7 0.000000 0.500000 0.000000
O O8 0.398712 0.633332 0.986034
O O9 0.847357 0.787628 0.406860
O O10 0.747328 0.820862 0.648883
O O11 0.136193 0.903432 0.975798
O O12 0.174794 0.023882 0.574138
O O13 0.429680 0.390023 0.074311
O O14 0.313921 0.855671 0.374062
O O15 0.500000 0.000000 0.000000
O O16 0.490708 0.177653 0.340710
O O17 0.000000 0.000000 0.000000
#
# Coordination Sequence:
#
# PCOD9068655 Si02
#       8
#     2   2   2   1   2   2   2   2
#     4  12  26  46  76 115 159 200 263 334 409 493
#     4  12  27  47  76 116 159 209 264 330 411 490
#     4  11  27  50  76 111 155 207 260 336 408 480
#     4  12  24  44  74 114 154 196 256 316 416 480
#     4  12  26  48  75 113 158 201 256 336 412 487
#     4  12  26  49  77 112 156 207 268 335 405 486
#     4  12  27  48  78 114 152 208 270 331 398 496
#     4  11  28  51  75 109 153 209 269 327 401 494
#
# _framework density 27.446850999999999
#
# number of rings (size 3 to 8) (size 9 to 14) (size 15 to 20)
#    0.000    0.267    5.333    2.000    5.600    2.667 
#    0.000    0.000    0.000    0.000    0.000    0.000 
#    0.000    0.000    0.000    0.000    0.000    0.000 
#
# Total GULP energy -83842.419034 kJ/mol
# GULP energy per Si atom -5589.494602 kJ/mol
# Density = 2.738438 g / cm^3
# Si number density = 27.446851 Si / 1000 Ang^3
#
#
#
# Elastic Constant Matrix: (Units=GPa)
#
#
# Indices 1 2 3 4 5 6 
#
# 1 182.2044 47.5626 34.2239 -7.5414 28.2023 5.4791
# 2 47.5626 91.0452 14.3918 -32.7823 6.8203 -5.7441
# 3 34.2239 14.3918 104.3928 -3.1192 25.4392 -4.8236
# 4 -7.5414 -32.7823 -3.1192 30.3071 -12.3504 5.1142
# 5 28.2023 6.8203 25.4392 -12.3504 61.6243 1.6439
# 6 5.4791 -5.7441 -4.8236 5.1142 1.6439 63.2247
#
#
#
# Elastic Compliance Matrix: (Units=1/GPa)
#
#
# Indices 1 2 3 4 5 6 
#
# 1 0.007442 -0.005478 -0.001040 -0.005469 -0.003448 -0.000690
# 2 -0.005478 0.022980 -0.002047 0.025678 0.005950 0.000174
# 3 -0.001040 -0.002047 0.011293 -0.003412 -0.004674 0.001163
# 4 -0.005469 0.025678 -0.003412 0.065395 0.014258 -0.003114
# 5 -0.003448 0.005950 -0.004674 0.014258 0.021967 -0.001242
# 6 -0.000690 0.000174 0.001163 -0.003114 -0.001242 0.016265
#
#
# Mechanical properties :
#
#
# Convention : Reuss Voigt Hill
#
# Bulk Modulus (GPa) = 40.67303 63.33320 52.00311
# Shear Modulus (GPa) = 29.29718 49.79547 39.54633
#
# Velocity S-wave (km/s) = 3.27068 4.26402 3.79995
# Velocity P-wave (km/s) = 5.39575 6.88240 6.18391
#
# Compressibility (1/GPa) = 0.02458632
#
# Stress axis : x y z
#
# Youngs Moduli (GPa) = 134.38103 43.51657 88.54963
#
# Poissons Ratio (x) = 0.23836 0.09205
# Poissons Ratio (y) = 0.73608 0.18125
# Poissons Ratio (z) = 0.13970 0.08908
#
# Static dielectric constant tensor:
#      x y z
#    x 2.178100 0.014600 -0.153730 
#    y 0.014600 2.187130 -0.101050 
#    z -0.153730 -0.101050 2.213020 
# 
# From -- ./inp_files/83150.got.cif
#   From: 2010.05.17/outbox.cif.g08.bks.cpg/sg2_42_cif.got.tgz:83150.got - 2010.06.03 11:33:40.
