data_PCOD9068322
_publ_section_title
;
Structure prediction by ZEFSAII (Michael W. Deem and Ramdas Pophale) SiO2 
 PCOD9068322
Probable space group: P -1
;
_chemical_formula_sum "Si O2"
_cell_formula_units_Z 16
_cell_length_a 17.892987
_cell_length_b 8.096619
_cell_length_c 20.300309
_cell_angle_alpha 134.512706
_cell_angle_beta 160.355166
_cell_angle_gamma 45.039872
_cell_volume 691.744916
_symmetry_space_group_name_H-M "P -1"
_symmetry_group_IT_number 2
_symmetry_cell_setting 'triclinic'
loop_
_space_group_symop_operation_xyz
x,y,z
-x,-y,-z
loop_
_atom_site_type_symbol
_atom_site_label
_atom_site_fract_x
_atom_site_fract_y
_atom_site_fract_z
Si Si1 0.964212 0.489372 0.311414
Si Si2 0.633565 0.447948 0.250994
Si Si3 0.775964 0.218097 0.180254
Si Si4 0.135647 0.691322 0.949134
Si Si5 0.755477 0.844746 0.887051
Si Si6 0.339313 0.000619 0.770233
Si Si7 0.065351 0.555738 0.173642
Si Si8 0.248071 0.895435 0.519478
O O1 0.809879 0.314209 0.163159
O O2 0.828694 0.754135 0.284523
O O3 0.184780 0.449871 0.528061
O O4 0.018199 0.415491 0.261089
O O5 0.688661 0.441992 0.218052
O O6 0.386173 0.560669 0.100480
O O7 0.664614 0.174046 0.221421
O O8 0.587667 0.058032 0.982013
O O9 0.020071 0.088918 0.372821
O O10 0.133074 0.963126 0.006180
O O11 0.075212 0.606981 0.946857
O O12 0.491877 0.945931 0.712809
O O13 0.776241 0.615873 0.793284
O O14 0.898640 0.748687 0.044569
O O15 0.271616 0.876396 0.612968
O O16 0.199559 0.683559 0.373733
#
# Coordination Sequence:
#
# PCOD9068322 Si02
#       8
#     2   2   2   2   2   2   2   2
#     4  12  25  40  62  97 137 182 220 260 320 397
#     4  12  25  40  62  97 137 182 220 260 320 397
#     4  12  25  40  63  96 139 182 219 260 321 396
#     4  12  25  44  70 100 138 176 221 276 336 392
#     4  11  26  49  73  99 129 172 229 286 340 394
#     4  12  25  40  63  96 139 182 219 260 321 396
#     4  11  26  49  73  99 129 172 229 286 340 394
#     4  12  23  42  72  98 136 178 219 274 338 392
#
# _framework density 23.129915
#
# number of rings (size 3 to 8) (size 9 to 14) (size 15 to 20)
#    0.000    0.250    2.500    7.500    3.500    0.000 
#    0.000    0.000    0.000    7.500    0.000    0.000 
#    0.000    0.000    0.000    0.000    0.000    0.000 
#
# Total GULP energy -89612.749551 kJ/mol
# GULP energy per Si atom -5600.796847 kJ/mol
# Density = 2.307727 g / cm^3
# Si number density = 23.129915 Si / 1000 Ang^3
#
#
#
# Elastic Constant Matrix: (Units=GPa)
#
#
# Indices 1 2 3 4 5 6 
#
# 1 91.1703 20.6811 16.5904 -0.2309 -1.6462 11.3769
# 2 20.6811 61.5361 25.9728 3.3792 -9.5100 -2.2897
# 3 16.5904 25.9728 113.2303 2.6546 -3.5527 2.1066
# 4 -0.2309 3.3792 2.6546 38.1807 -5.0482 3.4104
# 5 -1.6462 -9.5100 -3.5527 -5.0482 35.9068 4.7436
# 6 11.3769 -2.2897 2.1066 3.4104 4.7436 44.8926
#
#
#
# Elastic Compliance Matrix: (Units=1/GPa)
#
#
# Indices 1 2 3 4 5 6 
#
# 1 0.012455 -0.003992 -0.000865 0.000789 -0.000015 -0.003378
# 2 -0.003992 0.020031 -0.003882 -0.001118 0.004338 0.001842
# 3 -0.000865 -0.003882 0.009861 -0.000322 -0.000083 -0.000408
# 4 0.000789 -0.001118 -0.000322 0.027071 0.003872 -0.002707
# 5 -0.000015 0.004338 -0.000083 0.003872 0.029961 -0.003231
# 6 -0.003378 0.001842 -0.000408 -0.002707 -0.003231 0.023792
#
#
# Mechanical properties :
#
#
# Convention : Reuss Voigt Hill
#
# Bulk Modulus (GPa) = 40.21065 43.60279 41.90672
# Shear Modulus (GPa) = 33.57103 37.30885 35.43994
#
# Velocity S-wave (km/s) = 3.81387 4.02059 3.91859
# Velocity P-wave (km/s) = 6.06767 6.35969 6.21540
#
# Compressibility (1/GPa) = 0.02486904
#
# Stress axis : x y z
#
# Youngs Moduli (GPa) = 80.29117 49.92289 101.40676
#
# Poissons Ratio (x) = 0.19928 0.08775
# Poissons Ratio (y) = 0.32051 0.39364
# Poissons Ratio (z) = 0.06948 0.19379
#
# Static dielectric constant tensor:
#      x y z
#    x 1.847800 0.008480 -0.013400 
#    y 0.008480 1.875760 0.041830 
#    z -0.013400 0.041830 1.877050 
# 
# From -- ./inp_files/599789.got.cif
#   From: 2010.05.17/outbox.cif.g08.bks.cpg/sg2_300_cif.got.tgz:599789.got - 2010.06.03 11:33:40.
