data_PCOD9068103
_publ_section_title
;
Structure prediction by ZEFSAII (Michael W. Deem and Ramdas Pophale) SiO2 
 PCOD9068103
Probable space group: P -1
;
_chemical_formula_sum "Si O2"
_cell_formula_units_Z 10
_cell_length_a 7.324378
_cell_length_b 11.855375
_cell_length_c 5.195783
_cell_angle_alpha 76.301347
_cell_angle_beta 80.055870
_cell_angle_gamma 54.919545
_cell_volume 358.328151
_symmetry_space_group_name_H-M "P -1"
_symmetry_group_IT_number 2
_symmetry_cell_setting 'triclinic'
loop_
_space_group_symop_operation_xyz
x,y,z
-x,-y,-z
loop_
_atom_site_type_symbol
_atom_site_label
_atom_site_fract_x
_atom_site_fract_y
_atom_site_fract_z
Si Si1 0.696520 0.839816 0.086961
Si Si2 0.409308 0.350318 0.034788
Si Si3 0.793726 0.483416 0.510229
Si Si4 0.655030 0.125128 0.480892
Si Si5 0.015117 0.831217 0.347582
O O1 0.590160 0.815879 0.380906
O O2 0.920432 0.831561 0.089981
O O3 0.725178 0.724013 0.946607
O O4 0.500000 0.000000 0.000000
O O5 0.322373 0.468098 0.209463
O O6 0.627255 0.218065 0.189988
O O7 0.375752 0.422594 0.728295
O O8 0.000000 0.500000 0.500000
O O9 0.889150 0.324788 0.503390
O O10 0.797202 0.139776 0.657466
O O11 0.794232 0.962417 0.463352
#
# Coordination Sequence:
#
# PCOD9068103 Si02
#       5
#     2   2   2   2   2
#     4  12  25  45  79 108 150 199 247 314 365 443
#     4  12  25  48  74 108 152 194 250 299 381 438
#     4  12  26  45  76 114 149 196 246 309 372 447
#     4  11  26  51  73 112 146 200 253 305 366 451
#     4  11  26  47  76 111 149 197 251 309 368 440
#
# _framework density 27.907381000000001
#
# number of rings (size 3 to 8) (size 9 to 14) (size 15 to 20)
#    0.000    0.400    6.000    1.200    2.800    2.400 
#    3.600    0.000    0.000    0.000    0.000    0.000 
#    0.000    0.000    0.000    0.000    0.000    0.000 
#
# Total GULP energy -55989.142159 kJ/mol
# GULP energy per Si atom -5598.914216 kJ/mol
# Density = 2.784386 g / cm^3
# Si number density = 27.907381 Si / 1000 Ang^3
#
#
#
# Elastic Constant Matrix: (Units=GPa)
#
#
# Indices 1 2 3 4 5 6 
#
# 1 125.2834 20.2553 37.7332 17.5490 37.3938 3.5458
# 2 20.2553 207.2853 44.3162 3.9302 -2.2276 7.0335
# 3 37.7332 44.3162 170.3251 -0.5742 16.6120 -16.7570
# 4 17.5490 3.9302 -0.5742 52.6009 -0.1187 11.9222
# 5 37.3938 -2.2276 16.6120 -0.1187 47.2613 14.7747
# 6 3.5458 7.0335 -16.7570 11.9222 14.7747 35.3178
#
#
#
# Elastic Compliance Matrix: (Units=1/GPa)
#
#
# Indices 1 2 3 4 5 6 
#
# 1 0.012330 -0.001210 -0.000864 -0.005186 -0.011078 0.004978
# 2 -0.001210 0.005440 -0.001737 0.000712 0.002829 -0.003210
# 3 -0.000864 -0.001737 0.007466 -0.000841 -0.003861 0.005874
# 4 -0.005186 0.000712 -0.000841 0.023237 0.007994 -0.011209
# 5 -0.011078 0.002829 -0.003861 0.007994 0.037596 -0.019710
# 6 0.004978 -0.003210 0.005874 -0.011209 -0.019710 0.043270
#
#
# Mechanical properties :
#
#
# Convention : Reuss Voigt Hill
#
# Bulk Modulus (GPa) = 56.77126 78.61147 67.69136
# Shear Modulus (GPa) = 35.00655 53.74195 44.37425
#
# Velocity S-wave (km/s) = 3.54557 4.39307 3.99187
# Velocity P-wave (km/s) = 6.09494 7.34588 6.74945
#
# Compressibility (1/GPa) = 0.01761455
#
# Stress axis : x y z
#
# Youngs Moduli (GPa) = 81.10485 183.83809 133.94116
#
# Poissons Ratio (x) = 0.22240 0.11573
# Poissons Ratio (y) = 0.09812 0.23260
# Poissons Ratio (z) = 0.07007 0.31925
#
# Static dielectric constant tensor:
#      x y z
#    x 2.224780 -0.003920 -0.108490 
#    y -0.003920 2.143650 -0.033900 
#    z -0.108490 -0.033900 2.206810 
# 
# From -- ./inp_files/18002.got.cif
#   From: 2010.05.17/outbox.cif.g08.bks.cpg/sg2_10_cif.got.tgz:18002.got - 2010.06.03 11:33:40.
