data_PCOD9068608
_publ_section_title
;
Structure prediction by ZEFSAII (Michael W. Deem and Ramdas Pophale) SiO2 
 PCOD9068608
Probable space group: P -1
;
_chemical_formula_sum "Si O2"
_cell_formula_units_Z 14
_cell_length_a 13.479336
_cell_length_b 24.917107
_cell_length_c 24.729231
_cell_angle_alpha 11.161551
_cell_angle_beta 157.694983
_cell_angle_gamma 158.066905
_cell_volume 587.301727
_symmetry_space_group_name_H-M "P -1"
_symmetry_group_IT_number 2
_symmetry_cell_setting 'triclinic'
loop_
_space_group_symop_operation_xyz
x,y,z
-x,-y,-z
loop_
_atom_site_type_symbol
_atom_site_label
_atom_site_fract_x
_atom_site_fract_y
_atom_site_fract_z
Si Si1 0.754274 0.423214 0.494284
Si Si2 0.176197 0.912231 0.926953
Si Si3 0.902938 0.309210 0.333082
Si Si4 0.936938 0.757838 0.072231
Si Si5 0.433688 0.867553 0.490613
Si Si6 0.390775 0.818571 0.898274
Si Si7 0.859581 0.599531 0.912411
O O1 0.000000 0.500000 0.500000
O O2 0.863868 0.322681 0.704314
O O3 0.527352 0.149177 0.628632
O O4 0.613684 0.680476 0.174427
O O5 0.084905 0.110500 0.641263
O O6 0.007254 0.591015 0.143248
O O7 0.086852 0.933683 0.922563
O O8 0.500000 0.000000 0.000000
O O9 0.596253 0.099916 0.386751
O O10 0.934839 0.429182 0.169735
O O11 0.740928 0.442298 0.269925
O O12 0.757339 0.960507 0.804810
O O13 0.661783 0.781967 0.654287
O O14 0.132963 0.789809 0.835153
O O15 0.288907 0.630325 0.979888
#
# Coordination Sequence:
#
# PCOD9068608 Si02
#       7
#     2   2   2   2   2   2   2
#     4  12  28  48  76 108 154 201 247 301 375 436
#     4  12  29  50  75 111 150 193 251 300 373 446
#     4  12  26  47  80 104 148 195 236 316 369 429
#     4  12  28  47  76 111 151 202 242 311 364 449
#     4  12  25  48  78 106 156 183 256 299 377 430
#     4  11  29  45  79 108 149 196 259 299 377 436
#     4  11  27  48  78 112 148 193 250 319 362 437
#
# _framework density 23.837831000000001
#
# number of rings (size 3 to 8) (size 9 to 14) (size 15 to 20)
#    0.000    0.286    2.857    3.429   10.000    4.571 
#    0.000    0.000    0.000    0.000    0.000    0.000 
#    0.000    0.000    0.000    0.000    0.000    0.000 
#
# Total GULP energy -78439.353325 kJ/mol
# GULP energy per Si atom -5602.810952 kJ/mol
# Density = 2.378357 g / cm^3
# Si number density = 23.837831 Si / 1000 Ang^3
#
#
#
# Elastic Constant Matrix: (Units=GPa)
#
#
# Indices 1 2 3 4 5 6 
#
# 1 155.5689 15.5436 42.6556 20.6022 -28.2504 -5.7282
# 2 15.5436 121.9537 0.7003 -23.6454 8.3000 29.0130
# 3 42.6556 0.7003 127.1083 6.3196 -17.3314 -11.4635
# 4 20.6022 -23.6454 6.3196 64.0372 -15.9391 -23.1663
# 5 -28.2504 8.3000 -17.3314 -15.9391 37.3302 14.3956
# 6 -5.7282 29.0130 -11.4635 -23.1663 14.3956 54.3364
#
#
#
# Elastic Compliance Matrix: (Units=1/GPa)
#
#
# Indices 1 2 3 4 5 6 
#
# 1 0.008338 -0.001580 -0.002068 -0.002134 0.005174 -0.000994
# 2 -0.001580 0.009943 -0.000136 0.002462 -0.000781 -0.004248
# 3 -0.002068 -0.000136 0.008984 0.000869 0.002439 0.001474
# 4 -0.002134 0.002462 0.000869 0.020505 0.004620 0.006162
# 5 0.005174 -0.000781 0.002439 0.004620 0.036368 -0.006189
# 6 -0.000994 -0.004248 0.001474 0.006162 -0.006189 0.025145
#
#
# Mechanical properties :
#
#
# Convention : Reuss Voigt Hill
#
# Bulk Modulus (GPa) = 50.76876 58.04777 54.40826
# Shear Modulus (GPa) = 40.51251 54.18953 47.35102
#
# Velocity S-wave (km/s) = 4.12698 4.77304 4.46172
# Velocity P-wave (km/s) = 6.63725 7.40134 7.02968
#
# Compressibility (1/GPa) = 0.01969715
#
# Stress axis : x y z
#
# Youngs Moduli (GPa) = 119.92760 100.57160 111.30556
#
# Poissons Ratio (x) = 0.15893 0.23014
# Poissons Ratio (y) = 0.18952 0.01518
# Poissons Ratio (z) = 0.24796 0.01372
#
# Static dielectric constant tensor:
#      x y z
#    x 1.873070 -0.039720 0.023860 
#    y -0.039720 1.920090 0.001910 
#    z 0.023860 0.001910 1.867760 
# 
# From -- ./inp_files/619980.got.cif
#   From: 2010.05.17/outbox.cif.g08.bks.cpg/sg2_310_cif.got.tgz:619980.got - 2010.06.03 11:33:40.
