data_PCOD9068101
_publ_section_title
;
Structure prediction by ZEFSAII (Michael W. Deem and Ramdas Pophale) SiO2 
 PCOD9068101
Probable space group: P -1
;
_chemical_formula_sum "Si O2"
_cell_formula_units_Z 12
_cell_length_a 10.045072
_cell_length_b 24.846702
_cell_length_c 5.285270
_cell_angle_alpha 124.669457
_cell_angle_beta 113.290127
_cell_angle_gamma 27.682513
_cell_volume 483.335638
_symmetry_space_group_name_H-M "P -1"
_symmetry_group_IT_number 2
_symmetry_cell_setting 'triclinic'
loop_
_space_group_symop_operation_xyz
x,y,z
-x,-y,-z
loop_
_atom_site_type_symbol
_atom_site_label
_atom_site_fract_x
_atom_site_fract_y
_atom_site_fract_z
Si Si1 0.655513 0.410232 0.125928
Si Si2 0.691126 0.793072 0.025269
Si Si3 0.536217 0.652645 0.366585
Si Si4 0.775881 0.622373 0.897618
Si Si5 0.396661 0.966988 0.784001
Si Si6 0.168488 0.869827 0.375852
O O1 0.500000 0.500000 0.500000
O O2 0.500000 0.500000 0.000000
O O3 0.600450 0.355492 0.896659
O O4 0.999772 0.294872 0.058152
O O5 0.557351 0.876973 0.407764
O O6 0.753511 0.692598 0.870821
O O7 0.478683 0.890997 0.888182
O O8 0.643249 0.611014 0.625754
O O9 0.253085 0.815510 0.579583
O O10 0.877215 0.520872 0.158400
O O11 0.513184 0.740562 0.209712
O O12 0.044478 0.101207 0.824639
O O13 0.500000 0.000000 0.000000
O O14 0.000000 0.000000 0.500000
#
# Coordination Sequence:
#
# PCOD9068101 Si02
#       6
#     2   2   2   2   2   2
#     4  12  27  48  80 112 154 200 256 317 387 454
#     4  12  26  49  75 113 152 202 256 319 384 451
#     4  11  27  47  76 112 150 204 258 321 382 457
#     4  11  26  47  76 109 156 199 259 320 382 458
#     4  12  28  47  76 109 157 202 256 316 381 461
#     4  12  26  46  76 109 154 202 254 311 388 454
#
# _framework density 24.827468
#
# number of rings (size 3 to 8) (size 9 to 14) (size 15 to 20)
#    0.000    0.333    3.333    4.000    7.000    1.333 
#    0.000    0.000    0.000    0.000    0.000    0.000 
#    0.000    0.000    0.000    0.000    0.000    0.000 
#
# Total GULP energy -66974.118242 kJ/mol
# GULP energy per Si atom -5581.176520 kJ/mol
# Density = 2.477096 g / cm^3
# Si number density = 24.827468 Si / 1000 Ang^3
#
#
#
# Elastic Constant Matrix: (Units=GPa)
#
#
# Indices 1 2 3 4 5 6 
#
# 1 69.0594 69.0711 35.2362 0.3042 0.5717 -17.5394
# 2 69.0711 242.5058 30.1987 21.8485 10.0492 4.6747
# 3 35.2362 30.1987 119.0423 -1.1763 -3.7646 10.1151
# 4 0.3042 21.8485 -1.1763 37.8884 -4.1975 7.9129
# 5 0.5717 10.0492 -3.7646 -4.1975 44.4622 -4.3694
# 6 -17.5394 4.6747 10.1151 7.9129 -4.3694 42.9309
#
#
#
# Elastic Compliance Matrix: (Units=1/GPa)
#
#
# Indices 1 2 3 4 5 6 
#
# 1 0.030889 -0.008285 -0.008267 0.001309 0.002420 0.015474
# 2 -0.008285 0.006816 0.000964 -0.003232 -0.002047 -0.003967
# 3 -0.008267 0.000964 0.011161 0.001210 0.000328 -0.006301
# 4 0.001309 -0.003232 0.001210 0.029581 0.003164 -0.004528
# 5 0.002420 -0.002047 0.000328 0.003164 0.023539 0.002947
# 6 0.015474 -0.003967 -0.006301 -0.004528 0.002947 0.032667
#
#
# Mechanical properties :
#
#
# Convention : Reuss Voigt Hill
#
# Bulk Modulus (GPa) = 56.53125 77.73552 67.13338
# Shear Modulus (GPa) = 29.11654 44.79641 36.95647
#
# Velocity S-wave (km/s) = 3.42827 4.25232 3.86233
# Velocity P-wave (km/s) = 6.20401 7.44902 6.85484
#
# Compressibility (1/GPa) = 0.01768933
#
# Stress axis : x y z
#
# Youngs Moduli (GPa) = 32.37405 146.71629 89.60069
#
# Poissons Ratio (x) = 1.21554 0.74071
# Poissons Ratio (y) = 0.26822 -0.08634
# Poissons Ratio (z) = 0.26763 -0.14138
#
# Static dielectric constant tensor:
#      x y z
#    x 1.884860 -0.266910 0.184090 
#    y -0.266910 1.556170 0.176010 
#    z 0.184090 0.176010 1.977470 
# 
# From -- ./inp_files/75644.got.cif
#   From: 2010.05.17/outbox.cif.g08.bks.cpg/sg2_38_cif.got.tgz:75644.got - 2010.06.03 11:33:40.
