data_PCOD9068158
_publ_section_title
;
Structure prediction by ZEFSAII (Michael W. Deem and Ramdas Pophale) SiO2 
 PCOD9068158
Probable space group: P -1
;
_chemical_formula_sum "Si O2"
_cell_formula_units_Z 14
_cell_length_a 11.619977
_cell_length_b 18.204975
_cell_length_c 10.999109
_cell_angle_alpha 31.080465
_cell_angle_beta 40.585392
_cell_angle_gamma 28.341640
_cell_volume 570.078790
_symmetry_space_group_name_H-M "P -1"
_symmetry_group_IT_number 2
_symmetry_cell_setting 'triclinic'
loop_
_space_group_symop_operation_xyz
x,y,z
-x,-y,-z
loop_
_atom_site_type_symbol
_atom_site_label
_atom_site_fract_x
_atom_site_fract_y
_atom_site_fract_z
Si Si1 0.891622 0.763693 0.877181
Si Si2 0.324532 0.696382 0.188854
Si Si3 0.624724 0.793347 0.372840
Si Si4 0.077489 0.919458 0.414759
Si Si5 0.360464 0.461539 0.082750
Si Si6 0.364318 0.357985 0.671609
Si Si7 0.115933 0.061551 0.970273
O O1 0.038014 0.772416 0.646134
O O2 0.636900 0.993031 0.756809
O O3 0.795762 0.655988 0.095929
O O4 0.083132 0.655175 0.990585
O O5 0.356743 0.527455 0.465861
O O6 0.317431 0.839569 0.074284
O O7 0.507054 0.614772 0.045924
O O8 0.058389 0.821746 0.168490
O O9 0.624267 0.692806 0.634085
O O10 0.711880 0.646331 0.399312
O O11 0.786986 0.841593 0.200278
O O12 0.348208 0.825461 0.310514
O O13 0.954257 0.069299 0.191043
O O14 0.000000 0.000000 0.500000
O O15 0.500000 0.500000 0.000000
#
# Coordination Sequence:
#
# PCOD9068158 Si02
#       7
#     2   2   2   2   2   2   2
#     4  12  25  43  71 116 144 185 253 304 365 433
#     4  11  26  48  69 104 153 197 236 305 373 443
#     4  12  24  44  74 109 143 194 244 312 357 431
#     4  12  23  43  74 105 145 185 242 305 362 432
#     4  12  26  44  75 110 149 192 249 307 361 438
#     4  12  24  44  74 109 144 184 250 302 362 432
#     4  11  27  47  72 103 152 196 239 302 383 433
#
# _framework density 24.558008999999998
#
# number of rings (size 3 to 8) (size 9 to 14) (size 15 to 20)
#    0.000    0.286    5.714    3.000    4.000    2.286 
#    0.000    2.857    0.000    0.000    0.000    0.000 
#    0.000    0.000    0.000    0.000    0.000    0.000 
#
# Total GULP energy -78192.383320 kJ/mol
# GULP energy per Si atom -5585.170237 kJ/mol
# Density = 2.450211 g / cm^3
# Si number density = 24.558009 Si / 1000 Ang^3
#
#
#
# Elastic Constant Matrix: (Units=GPa)
#
#
# Indices 1 2 3 4 5 6 
#
# 1 115.4520 43.9889 46.9327 4.3320 -10.5635 -6.0025
# 2 43.9889 67.9582 42.4866 1.6502 -0.4697 7.9708
# 3 46.9327 42.4866 216.1445 14.4108 -15.0337 0.6356
# 4 4.3320 1.6502 14.4108 45.3444 -14.4415 2.4420
# 5 -10.5635 -0.4697 -15.0337 -14.4415 33.0746 -4.4151
# 6 -6.0025 7.9708 0.6356 2.4420 -4.4151 43.5920
#
#
#
# Elastic Compliance Matrix: (Units=1/GPa)
#
#
# Indices 1 2 3 4 5 6 
#
# 1 0.012645 -0.008017 -0.000922 0.000525 0.004218 0.003618
# 2 -0.008017 0.022367 -0.002932 -0.000223 -0.004418 -0.005586
# 3 -0.000922 -0.002932 0.005598 -0.001031 0.001834 0.000571
# 4 0.000525 -0.000223 -0.001031 0.025838 0.010950 -0.000210
# 5 0.004218 -0.004418 0.001834 0.010950 0.037744 0.004571
# 6 0.003618 -0.005586 0.000571 -0.000210 0.004571 0.024926
#
#
# Mechanical properties :
#
#
# Convention : Reuss Voigt Hill
#
# Bulk Modulus (GPa) = 59.28207 74.04122 66.66164
# Shear Modulus (GPa) = 31.54923 42.14530 36.84726
#
# Velocity S-wave (km/s) = 3.58813 4.14714 3.87772
# Velocity P-wave (km/s) = 6.43104 7.29018 6.87404
#
# Compressibility (1/GPa) = 0.01686851
#
# Stress axis : x y z
#
# Youngs Moduli (GPa) = 79.08063 44.70845 178.64368
#
# Poissons Ratio (x) = 0.35841 0.16475
# Poissons Ratio (y) = 0.63396 0.52377
# Poissons Ratio (z) = 0.07293 0.13108
#
# Static dielectric constant tensor:
#      x y z
#    x 2.013910 -0.063320 0.060530 
#    y -0.063320 2.052090 -0.060310 
#    z 0.060530 -0.060310 1.979560 
# 
# From -- ./inp_files/437197.got.cif
#   From: 2010.05.17/outbox.cif.g08.bks.cpg/sg2_219_cif.got.tgz:437197.got - 2010.06.03 11:33:40.
