data_PCOD9068773
_publ_section_title
;
Structure prediction by ZEFSAII (Michael W. Deem and Ramdas Pophale) SiO2 
 PCOD9068773
Probable space group: P -1
;
_chemical_formula_sum "Si O2"
_cell_formula_units_Z 12
_cell_length_a 12.077044
_cell_length_b 9.104631
_cell_length_c 7.859505
_cell_angle_alpha 73.188625
_cell_angle_beta 81.975680
_cell_angle_gamma 35.060547
_cell_volume 467.745456
_symmetry_space_group_name_H-M "P -1"
_symmetry_group_IT_number 2
_symmetry_cell_setting 'triclinic'
loop_
_space_group_symop_operation_xyz
x,y,z
-x,-y,-z
loop_
_atom_site_type_symbol
_atom_site_label
_atom_site_fract_x
_atom_site_fract_y
_atom_site_fract_z
Si Si1 0.677318 0.969990 0.709605
Si Si2 0.183285 0.889516 0.834227
Si Si3 0.898863 0.037430 0.673284
Si Si4 0.602322 0.114410 0.039179
Si Si5 0.533813 0.639814 0.672397
Si Si6 0.992124 0.597812 0.291482
O O1 0.827337 0.945479 0.693506
O O2 0.544864 0.144377 0.514413
O O3 0.821142 0.664572 0.766175
O O4 0.553694 0.118467 0.860224
O O5 0.065115 0.868475 0.842148
O O6 0.024281 0.203323 0.733995
O O7 0.297441 0.825848 0.996789
O O8 0.352777 0.724301 0.713151
O O9 0.711012 0.351814 0.649830
O O10 0.000000 0.000000 0.500000
O O11 0.448702 0.306341 0.160451
O O12 0.783789 0.806983 0.171348
O O13 0.000000 0.500000 0.500000
#
# Coordination Sequence:
#
# PCOD9068773 Si02
#       6
#     2   2   2   2   2   2
#     4  12  19  34  65  82 114 155 184 234 281 333
#     4   8  20  38  55  82 117 140 190 226 280 328
#     4  12  21  36  62  85 112 152 192 230 284 337
#     4   8  20  36  59  85 112 150 190 227 283 335
#     4   9  21  39  55  83 120 144 190 233 280 334
#     4   9  15  36  59  83 113 148 186 230 280 334
#
# _framework density 25.654979000000001
#
# number of rings (size 3 to 8) (size 9 to 14) (size 15 to 20)
#    2.000    0.000    5.000    1.000    0.000    1.333 
#    0.000    2.500    0.000    1.000    0.000    0.000 
#    0.000    0.000    0.000    0.000    0.000    0.000 
#
# Total GULP energy -67014.071733 kJ/mol
# GULP energy per Si atom -5584.505978 kJ/mol
# Density = 2.559659 g / cm^3
# Si number density = 25.654979 Si / 1000 Ang^3
#
#
#
# Elastic Constant Matrix: (Units=GPa)
#
#
# Indices 1 2 3 4 5 6 
#
# 1 80.0103 36.7942 18.7242 11.9334 -8.7767 -5.2928
# 2 36.7942 187.5147 46.4295 26.7147 -2.4209 17.2139
# 3 18.7242 46.4295 110.2633 22.9896 13.9928 8.6851
# 4 11.9334 26.7147 22.9896 48.1176 7.1654 5.3555
# 5 -8.7767 -2.4209 13.9928 7.1654 24.5888 5.2458
# 6 -5.2928 17.2139 8.6851 5.3555 5.2458 8.4251
#
#
#
# Elastic Compliance Matrix: (Units=1/GPa)
#
#
# Indices 1 2 3 4 5 6 
#
# 1 0.017539 -0.004285 -0.002628 -0.003771 0.003604 0.022636
# 2 -0.004285 0.008822 -0.001672 -0.001444 0.005267 -0.021354
# 3 -0.002628 -0.001672 0.011942 -0.002659 -0.006036 -0.005095
# 4 -0.003771 -0.001444 -0.002659 0.025666 -0.005399 -0.009631
# 5 0.003604 0.005267 -0.006036 -0.005399 0.054471 -0.032758
# 6 0.022636 -0.021354 -0.005095 -0.009631 -0.032758 0.208314
#
#
# Mechanical properties :
#
#
# Convention : Reuss Voigt Hill
#
# Bulk Modulus (GPa) = 47.32288 64.63155 55.97721
# Shear Modulus (GPa) = 14.24630 34.61567 24.43099
#
# Velocity S-wave (km/s) = 2.35904 3.67724 3.08927
# Velocity P-wave (km/s) = 5.08980 6.57850 5.88144
#
# Compressibility (1/GPa) = 0.02113143
#
# Stress axis : x y z
#
# Youngs Moduli (GPa) = 57.01520 113.35520 83.74148
#
# Poissons Ratio (x) = 0.48573 0.22008
# Poissons Ratio (y) = 0.24431 0.14005
# Poissons Ratio (z) = 0.14984 0.18958
#
# Static dielectric constant tensor:
#      x y z
#    x 2.095760 -0.007850 0.028690 
#    y -0.007850 1.981490 0.001260 
#    z 0.028690 0.001260 2.104310 
# 
# From -- ./inp_files/304737.got.cif
#   From: 2010.05.17/outbox.cif.g08.bks.cpg/sg2_153_cif.got.tgz:304737.got - 2010.06.03 11:33:40.
