data_PCOD9068181
_publ_section_title
;
Structure prediction by ZEFSAII (Michael W. Deem and Ramdas Pophale) SiO2 
 PCOD9068181
Probable space group: P -1
;
_chemical_formula_sum "Si O2"
_cell_formula_units_Z 16
_cell_length_a 18.005985
_cell_length_b 6.537167
_cell_length_c 12.412402
_cell_angle_alpha 45.643247
_cell_angle_beta 46.081112
_cell_angle_gamma 64.025038
_cell_volume 749.346580
_symmetry_space_group_name_H-M "P -1"
_symmetry_group_IT_number 2
_symmetry_cell_setting 'triclinic'
loop_
_space_group_symop_operation_xyz
x,y,z
-x,-y,-z
loop_
_atom_site_type_symbol
_atom_site_label
_atom_site_fract_x
_atom_site_fract_y
_atom_site_fract_z
Si Si1 0.464702 0.282169 0.505840
Si Si2 0.445519 0.252805 0.903924
Si Si3 0.378157 0.401864 0.137725
Si Si4 0.255552 0.934468 0.110686
Si Si5 0.902727 0.162402 0.501395
Si Si6 0.757633 0.727008 0.196728
Si Si7 0.906170 0.807703 0.219541
Si Si8 0.224893 0.924155 0.560670
O O1 0.500000 0.500000 0.500000
O O2 0.471712 0.522141 0.317116
O O3 0.351883 0.168679 0.699251
O O4 0.500000 0.000000 0.500000
O O5 0.378016 0.377214 0.019072
O O6 0.500000 0.000000 0.000000
O O7 0.361666 0.136233 0.944947
O O8 0.298085 0.628024 0.164541
O O9 0.331979 0.113237 0.351427
O O10 0.500000 0.500000 0.000000
O O11 0.185890 0.912153 0.293962
O O12 0.198322 0.074153 0.018360
O O13 0.937700 0.501523 0.340244
O O14 0.847505 0.093778 0.466885
O O15 0.000000 0.000000 0.500000
O O16 0.826975 0.752051 0.222392
O O17 0.747671 0.385928 0.309974
O O18 0.843781 0.944616 0.327214
O O19 0.000000 0.000000 0.000000
#
# Coordination Sequence:
#
# PCOD9068181 Si02
#       8
#     2   2   2   2   2   2   2   2
#     4  12  28  49  72 113 158 207 257 309 383 466
#     4  12  25  43  71 103 148 196 248 306 375 452
#     4  12  25  42  74 103 148 191 239 304 370 458
#     4  12  25  47  67 112 140 190 249 300 381 448
#     4  11  27  48  76 102 142 185 243 315 380 454
#     4  11  28  45  74 104 151 194 248 316 376 458
#     4  11  28  50  74 104 140 193 250 315 387 451
#     4  11  26  48  72 108 143 191 249 303 384 461
#
# _framework density 21.351938000000001
#
# number of rings (size 3 to 8) (size 9 to 14) (size 15 to 20)
#    0.000    0.500    5.000    1.500    8.750    3.500 
#    0.000    0.000    0.000    0.000    0.000    0.000 
#    0.000    0.000    0.000    0.000    0.000    0.000 
#
# Total GULP energy -89171.008851 kJ/mol
# GULP energy per Si atom -5573.188053 kJ/mol
# Density = 2.130334 g / cm^3
# Si number density = 21.351938 Si / 1000 Ang^3
#
#
#
# Elastic Constant Matrix: (Units=GPa)
#
#
# Indices 1 2 3 4 5 6 
#
# 1 54.7564 43.1105 19.6157 -1.7577 13.6938 -17.1264
# 2 43.1105 101.8615 33.4363 -10.5868 13.9979 -1.1599
# 3 19.6157 33.4363 140.2357 -3.9703 17.3592 2.8556
# 4 -1.7577 -10.5868 -3.9703 22.1226 -0.6240 5.8461
# 5 13.6938 13.9979 17.3592 -0.6240 40.2766 -1.0406
# 6 -17.1264 -1.1599 2.8556 5.8461 -1.0406 21.4168
#
#
#
# Elastic Compliance Matrix: (Units=1/GPa)
#
#
# Indices 1 2 3 4 5 6 
#
# 1 0.051386 -0.021215 -0.002568 -0.018646 -0.008118 0.044981
# 2 -0.021215 0.020242 -0.001149 0.012883 0.000377 -0.019214
# 3 -0.002568 -0.001149 0.008175 0.001643 -0.002323 -0.003768
# 4 -0.018646 0.012883 0.001643 0.058214 0.001274 -0.030261
# 5 -0.008118 0.000377 -0.002323 0.001274 0.028346 -0.005132
# 6 0.044981 -0.019214 -0.003768 -0.030261 -0.005132 0.090135
#
#
# Mechanical properties :
#
#
# Convention : Reuss Voigt Hill
#
# Bulk Modulus (GPa) = 33.40352 54.35318 43.87835
# Shear Modulus (GPa) = 15.80564 30.14258 22.97411
#
# Velocity S-wave (km/s) = 2.72369 3.76134 3.28376
# Velocity P-wave (km/s) = 5.05664 6.66143 5.91372
#
# Compressibility (1/GPa) = 0.02993696
#
# Stress axis : x y z
#
# Youngs Moduli (GPa) = 19.46042 49.40262 122.32576
#
# Poissons Ratio (x) = 1.04809 0.31418
# Poissons Ratio (y) = 0.41286 0.14060
# Poissons Ratio (z) = 0.04998 0.05678
#
# Static dielectric constant tensor:
#      x y z
#    x 2.142230 -1.200110 0.661160 
#    y -1.200110 6.299620 -2.540950 
#    z 0.661160 -2.540950 3.175700 
# 
# From -- ./inp_files/272780.got.cif
#   From: 2010.05.17/outbox.cif.g08.bks.cpg/sg2_137_cif.got.tgz:272780.got - 2010.06.03 11:33:40.
