data_PCOD9068226
_publ_section_title
;
Structure prediction by ZEFSAII (Michael W. Deem and Ramdas Pophale) SiO2 
 PCOD9068226
Probable space group: P -1
;
_chemical_formula_sum "Si O2"
_cell_formula_units_Z 14
_cell_length_a 8.820581
_cell_length_b 24.131625
_cell_length_c 9.030230
_cell_angle_alpha 27.955185
_cell_angle_beta 50.581703
_cell_angle_gamma 41.917853
_cell_volume 600.436299
_symmetry_space_group_name_H-M "P -1"
_symmetry_group_IT_number 2
_symmetry_cell_setting 'triclinic'
loop_
_space_group_symop_operation_xyz
x,y,z
-x,-y,-z
loop_
_atom_site_type_symbol
_atom_site_label
_atom_site_fract_x
_atom_site_fract_y
_atom_site_fract_z
Si Si1 0.946874 0.487049 0.730303
Si Si2 0.440840 0.002262 0.856784
Si Si3 0.507114 0.281990 0.594575
Si Si4 0.156625 0.986623 0.574126
Si Si5 0.029756 0.191640 0.448422
Si Si6 0.594249 0.307763 0.793154
Si Si7 0.796446 0.498897 0.221703
O O1 0.675487 0.582156 0.698227
O O2 0.000000 0.500000 0.500000
O O3 0.069546 0.555491 0.579764
O O4 0.033823 0.332028 0.091726
O O5 0.610982 0.034411 0.586957
O O6 0.195918 0.103274 0.690430
O O7 0.503406 0.848132 0.146837
O O8 0.500000 0.000000 0.000000
O O9 0.451889 0.306504 0.744845
O O10 0.766520 0.241868 0.517077
O O11 0.087657 0.100726 0.476101
O O12 0.207278 0.846008 0.948275
O O13 0.000000 0.000000 0.500000
O O14 0.700324 0.402268 0.462604
O O15 0.433881 0.363099 0.908361
O O16 0.000000 0.500000 0.000000
#
# Coordination Sequence:
#
# PCOD9068226 Si02
#       7
#     2   2   2   2   2   2   2
#     4  12  26  47  77 111 152 206 260 316 398 473
#     4  12  28  50  78 114 154 209 267 324 404 474
#     4  12  26  47  79 113 155 203 263 320 397 474
#     4  12  28  46  77 113 156 204 261 325 397 473
#     4  12  27  50  78 113 162 204 258 335 392 471
#     4  11  26  48  75 115 155 206 263 322 389 477
#     4  11  26  49  78 108 156 205 260 323 391 465
#
# _framework density 23.316379000000001
#
# number of rings (size 3 to 8) (size 9 to 14) (size 15 to 20)
#    0.000    0.286    2.857    4.714    6.000    3.429 
#    0.000    0.000    0.000    0.000    0.000    0.000 
#    0.000    0.000    0.000    0.000    0.000    0.000 
#
# Total GULP energy -78204.308458 kJ/mol
# GULP energy per Si atom -5586.022033 kJ/mol
# Density = 2.326331 g / cm^3
# Si number density = 23.316379 Si / 1000 Ang^3
#
#
#
# Elastic Constant Matrix: (Units=GPa)
#
#
# Indices 1 2 3 4 5 6 
#
# 1 156.5728 53.8522 39.2891 -26.6994 4.3540 11.8620
# 2 53.8522 122.6077 55.1298 -5.9111 -10.3270 -0.5692
# 3 39.2891 55.1298 108.9501 -28.1112 -6.0006 8.8055
# 4 -26.6994 -5.9111 -28.1112 44.9625 -7.9771 -4.2654
# 5 4.3540 -10.3270 -6.0006 -7.9771 46.6157 -2.7820
# 6 11.8620 -0.5692 8.8055 -4.2654 -2.7820 52.3521
#
#
#
# Elastic Compliance Matrix: (Units=1/GPa)
#
#
# Indices 1 2 3 4 5 6 
#
# 1 0.008511 -0.003585 -0.000093 0.004192 -0.000983 -0.001662
# 2 -0.003585 0.012404 -0.006000 -0.003770 0.001769 0.001743
# 3 -0.000093 -0.006000 0.014691 0.008520 0.001926 -0.001719
# 4 0.004192 -0.003770 0.008520 0.030499 0.005109 0.000333
# 5 -0.000983 0.001769 0.001926 0.005109 0.023151 0.001565
# 6 -0.001662 0.001743 -0.001719 0.000333 0.001565 0.019896
#
#
# Mechanical properties :
#
#
# Convention : Reuss Voigt Hill
#
# Bulk Modulus (GPa) = 61.53698 76.07474 68.80586
# Shear Modulus (GPa) = 37.33390 44.77669 41.05529
#
# Velocity S-wave (km/s) = 4.00583 4.38699 4.20073
# Velocity P-wave (km/s) = 6.91701 7.63930 7.28711
#
# Compressibility (1/GPa) = 0.01625039
#
# Stress axis : x y z
#
# Youngs Moduli (GPa) = 117.48958 80.62063 68.06682
#
# Poissons Ratio (x) = 0.28901 0.00636
# Poissons Ratio (y) = 0.42117 0.40839
# Poissons Ratio (z) = 0.01098 0.48371
#
# Static dielectric constant tensor:
#      x y z
#    x 1.939170 0.037100 0.019320 
#    y 0.037100 1.862450 0.067710 
#    z 0.019320 0.067710 1.864280 
# 
# From -- ./inp_files/225794.got.cif
#   From: 2010.05.17/outbox.cif.g08.bks.cpg/sg2_113_cif.got.tgz:225794.got - 2010.06.03 11:33:40.
