data_PCOD9068898
_publ_section_title
;
Structure prediction by ZEFSAII (Michael W. Deem and Ramdas Pophale) SiO2 
 PCOD9068898
Probable space group: P -1
;
_chemical_formula_sum "Si O2"
_cell_formula_units_Z 12
_cell_length_a 19.279648
_cell_length_b 9.895951
_cell_length_c 14.199286
_cell_angle_alpha 41.593903
_cell_angle_beta 151.806065
_cell_angle_gamma 156.809794
_cell_volume 474.943482
_symmetry_space_group_name_H-M "P -1"
_symmetry_group_IT_number 2
_symmetry_cell_setting 'triclinic'
loop_
_space_group_symop_operation_xyz
x,y,z
-x,-y,-z
loop_
_atom_site_type_symbol
_atom_site_label
_atom_site_fract_x
_atom_site_fract_y
_atom_site_fract_z
Si Si1 0.438547 0.123474 0.177280
Si Si2 0.288479 0.290002 0.654181
Si Si3 0.631784 0.420360 0.599651
Si Si4 0.856262 0.452895 0.001550
Si Si5 0.397444 0.723171 0.901975
Si Si6 0.072043 0.877331 0.207152
O O1 0.499451 0.347671 0.215068
O O2 0.641629 0.392996 0.193179
O O3 0.447004 0.907065 0.342073
O O4 0.169772 0.782890 0.970122
O O5 0.293338 0.375685 0.509860
O O6 0.391859 0.179613 0.844690
O O7 0.000000 0.000000 0.500000
O O8 0.856289 0.642174 0.831190
O O9 0.361373 0.207929 0.421619
O O10 0.567104 0.122870 0.877902
O O11 0.061049 0.702322 0.198640
O O12 0.138556 0.425853 0.808302
O O13 0.000000 0.000000 0.000000
#
# Coordination Sequence:
#
# PCOD9068898 Si02
#       6
#     2   2   2   2   2   2
#     4   8  22  42  61  89 127 163 206 248 305 374
#     4  12  22  40  64  90 128 161 209 256 298 370
#     4   9  23  43  61  94 121 164 209 246 317 357
#     4   8  23  41  62  93 125 164 200 254 308 368
#     4   9  22  41  60  94 122 162 205 246 315 359
#     4  12  21  40  70  90 127 157 206 264 302 368
#
# _framework density 25.266165000000001
#
# number of rings (size 3 to 8) (size 9 to 14) (size 15 to 20)
#    2.000    0.000    1.667    1.500    2.333    4.667 
#    6.000    2.500    0.000    0.000    0.000    0.000 
#    0.000    0.000    0.000    0.000    0.000    0.000 
#
# Total GULP energy -66913.609038 kJ/mol
# GULP energy per Si atom -5576.134087 kJ/mol
# Density = 2.520866 g / cm^3
# Si number density = 25.266165 Si / 1000 Ang^3
#
#
#
# Elastic Constant Matrix: (Units=GPa)
#
#
# Indices 1 2 3 4 5 6 
#
# 1 75.9663 39.2315 29.6504 14.2939 -23.9960 22.4802
# 2 39.2315 89.9035 43.1858 -7.4649 -8.9694 43.1223
# 3 29.6504 43.1858 76.9264 10.4518 -16.8393 22.9243
# 4 14.2939 -7.4649 10.4518 41.9736 5.7885 -7.5897
# 5 -23.9960 -8.9694 -16.8393 5.7885 35.7999 1.4241
# 6 22.4802 43.1223 22.9243 -7.5897 1.4241 66.5375
#
#
#
# Elastic Compliance Matrix: (Units=1/GPa)
#
#
# Indices 1 2 3 4 5 6 
#
# 1 0.029170 -0.010548 0.003715 -0.016933 0.021661 -0.006695
# 2 -0.010548 0.024354 -0.010383 0.010178 -0.007206 -0.007328
# 3 0.003715 -0.010383 0.022871 -0.011264 0.012626 -0.003961
# 4 -0.016933 0.010178 -0.011264 0.038468 -0.020630 0.007835
# 5 0.021661 -0.007206 0.012626 -0.020630 0.050336 -0.010429
# 6 -0.006695 -0.007328 -0.003961 0.007835 -0.010429 0.024522
#
#
# Mechanical properties :
#
#
# Convention : Reuss Voigt Hill
#
# Bulk Modulus (GPa) = 23.82974 51.88129 37.85552
# Shear Modulus (GPa) = 20.99602 37.57743 29.28673
#
# Velocity S-wave (km/s) = 2.88582 3.86069 3.40829
# Velocity P-wave (km/s) = 4.53386 6.36017 5.52303
#
# Compressibility (1/GPa) = 0.04196436
#
# Stress axis : x y z
#
# Youngs Moduli (GPa) = 34.28150 41.06058 43.72315
#
# Poissons Ratio (x) = 0.43309 -0.16244
# Poissons Ratio (y) = 0.36158 0.45400
# Poissons Ratio (z) = -0.12737 0.42635
#
# Static dielectric constant tensor:
#      x y z
#    x 2.138980 -0.038880 0.030730 
#    y -0.038880 2.022980 0.017390 
#    z 0.030730 0.017390 1.935950 
# 
# From -- ./inp_files/131342.got.cif
#   From: 2010.05.17/outbox.cif.g08.bks.cpg/sg2_66_cif.got.tgz:131342.got - 2010.06.03 11:33:40.
