data_PCOD9068878
_publ_section_title
;
Structure prediction by ZEFSAII (Michael W. Deem and Ramdas Pophale) SiO2 
 PCOD9068878
Probable space group: P -1
;
_chemical_formula_sum "Si O2"
_cell_formula_units_Z 16
_cell_length_a 25.163589
_cell_length_b 13.877731
_cell_length_c 9.708852
_cell_angle_alpha 48.998008
_cell_angle_beta 142.132463
_cell_angle_gamma 157.930571
_cell_volume 738.876778
_symmetry_space_group_name_H-M "P -1"
_symmetry_group_IT_number 2
_symmetry_cell_setting 'triclinic'
loop_
_space_group_symop_operation_xyz
x,y,z
-x,-y,-z
loop_
_atom_site_type_symbol
_atom_site_label
_atom_site_fract_x
_atom_site_fract_y
_atom_site_fract_z
Si Si1 0.089729 0.381582 0.128536
Si Si2 0.509111 0.859178 0.143814
Si Si3 0.112466 0.276580 0.993997
Si Si4 0.866443 0.726176 0.412963
Si Si5 0.541966 0.760328 0.021369
Si Si6 0.342405 0.898622 0.272219
Si Si7 0.059332 0.797437 0.517921
Si Si8 0.171921 0.751519 0.351192
O O1 0.129938 0.334161 0.136014
O O2 0.893489 0.191343 0.879608
O O3 0.143921 0.393140 0.375270
O O4 0.206507 0.663400 0.101469
O O5 0.673843 0.034754 0.416881
O O6 0.316856 0.547688 0.093552
O O7 0.544278 0.863836 0.054955
O O8 0.500000 0.000000 0.000000
O O9 0.997454 0.239178 0.718447
O O10 0.000000 0.000000 0.000000
O O11 0.676915 0.550913 0.147833
O O12 0.955381 0.767438 0.427788
O O13 0.000000 0.000000 0.500000
O O14 0.587447 0.878428 0.854952
O O15 0.720861 0.907215 0.283870
O O16 0.254331 0.801544 0.331558
O O17 0.500000 0.000000 0.500000
O O18 0.972580 0.545812 0.612906
#
# Coordination Sequence:
#
# PCOD9068878 Si02
#       8
#     2   2   2   2   2   2   2   2
#     4  12  24  41  69 100 134 181 224 287 351 408
#     4  12  24  44  71 101 141 185 238 287 354 417
#     4  12  27  48  69  98 143 193 235 288 351 422
#     4  12  26  48  68  96 144 189 230 283 349 426
#     4  12  25  42  72 104 133 183 231 292 347 414
#     4  12  21  39  67 104 139 171 223 284 359 409
#     4  12  24  47  73 101 142 179 235 295 351 416
#     4  12  24  42  69 109 138 175 231 300 352 416
#
# _framework density 21.654489999999999
#
# number of rings (size 3 to 8) (size 9 to 14) (size 15 to 20)
#    0.000    0.000    6.250    4.875    0.000    1.500 
#    2.250    1.250    0.000    0.000    0.000    0.000 
#    0.000    0.000    0.000    0.000    0.000    0.000 
#
# Total GULP energy -89312.902858 kJ/mol
# GULP energy per Si atom -5582.056429 kJ/mol
# Density = 2.160520 g / cm^3
# Si number density = 21.654490 Si / 1000 Ang^3
#
#
#
# Elastic Constant Matrix: (Units=GPa)
#
#
# Indices 1 2 3 4 5 6 
#
# 1 -44.0575 -6.8460 46.5200 -43.9928 -36.7439 47.3562
# 2 -6.8460 78.5599 20.0202 9.8653 -1.3678 6.3391
# 3 46.5200 20.0202 89.2543 47.7522 10.1765 -0.2715
# 4 -43.9928 9.8653 47.7522 17.9375 -5.2902 11.5319
# 5 -36.7439 -1.3678 10.1765 -5.2902 34.9997 12.3072
# 6 47.3562 6.3391 -0.2715 11.5319 12.3072 10.5269
#
#
#
# Elastic Compliance Matrix: (Units=1/GPa)
#
#
# Indices 1 2 3 4 5 6 
#
# 1 0.002558 -0.000086 0.005485 -0.012153 -0.002469 0.004889
# 2 -0.000086 0.013667 -0.000180 -0.005445 0.000568 -0.002546
# 3 0.005485 -0.000180 0.014501 -0.012696 0.005489 -0.016703
# 4 -0.012153 -0.005445 -0.012696 0.040787 -0.013020 0.028166
# 5 -0.002469 0.000568 0.005489 -0.013020 0.023071 -0.001802
# 6 0.004889 -0.002546 -0.016703 0.028166 -0.001802 0.045355
#
#
# Mechanical properties :
#
#
# Convention : Reuss Voigt Hill
#
# Bulk Modulus (GPa) = 24.29367 27.01613 25.65490
# Shear Modulus (GPa) = 34.91089 16.96363 25.93726
#
# Velocity S-wave (km/s) = 4.01955 2.80192 3.46465
# Velocity P-wave (km/s) = 5.72586 4.79278 5.27998
#
# Compressibility (1/GPa) = 0.04116299
#
# Stress axis : x y z
#
# Youngs Moduli (GPa) = 391.00587 73.17149 68.96041
#
# Poissons Ratio (x) = 0.00631 -0.37825
# Poissons Ratio (y) = 0.03372 0.01240
# Poissons Ratio (z) = -2.14469 0.01316
#
# Static dielectric constant tensor:
#      x y z
#    x 1.769690 0.039560 0.041230 
#    y 0.039560 1.927530 -0.036630 
#    z 0.041230 -0.036630 1.807400 
# 
# From -- ./inp_files/306176.got.cif
#   From: 2010.05.17/outbox.cif.g08.bks.cpg/sg2_154_cif.got.tgz:306176.got - 2010.06.03 11:33:40.
