data_PCOD9068019
_publ_section_title
;
Structure prediction by ZEFSAII (Michael W. Deem and Ramdas Pophale) SiO2 
 PCOD9068019
Probable space group: P -1
;
_chemical_formula_sum "Si O2"
_cell_formula_units_Z 16
_cell_length_a 8.929926
_cell_length_b 15.823170
_cell_length_c 9.277835
_cell_angle_alpha 66.614181
_cell_angle_beta 78.256775
_cell_angle_gamma 38.780612
_cell_volume 740.757004
_symmetry_space_group_name_H-M "P -1"
_symmetry_group_IT_number 2
_symmetry_cell_setting 'triclinic'
loop_
_space_group_symop_operation_xyz
x,y,z
-x,-y,-z
loop_
_atom_site_type_symbol
_atom_site_label
_atom_site_fract_x
_atom_site_fract_y
_atom_site_fract_z
Si Si1 0.392076 0.234121 0.148915
Si Si2 0.037682 0.037776 0.821321
Si Si3 0.662141 0.555937 0.146615
Si Si4 0.218737 0.513781 0.494512
Si Si5 0.696500 0.715129 0.535697
Si Si6 0.821397 0.309734 0.818353
Si Si7 0.042505 0.246702 0.118405
Si Si8 0.156738 0.988079 0.366749
O O1 0.287778 0.300062 0.284588
O O2 0.293280 0.183122 0.144209
O O3 0.684393 0.099688 0.191103
O O4 0.303170 0.357365 0.978106
O O5 0.973572 0.172360 0.777656
O O6 0.851165 0.075292 0.725893
O O7 0.000000 0.000000 0.000000
O O8 0.684971 0.540406 0.325487
O O9 0.390073 0.652331 0.094550
O O10 0.844721 0.399731 0.139985
O O11 0.275046 0.395813 0.473782
O O12 0.306578 0.555054 0.348785
O O13 0.927154 0.663561 0.467878
O O14 0.430020 0.876839 0.441834
O O15 0.977838 0.277101 0.940906
O O16 0.047239 0.139036 0.245741
O O17 0.000000 0.000000 0.500000
#
# Coordination Sequence:
#
# PCOD9068019 Si02
#       8
#     2   2   2   2   2   2   2   2
#     4  12  26  47  75 101 148 184 232 295 348 424
#     4  12  25  49  70 105 139 187 233 286 358 410
#     4  12  25  47  74 104 143 185 237 290 354 412
#     4  11  27  44  74 105 140 186 237 290 350 419
#     4  11  26  47  70 105 144 181 233 292 360 402
#     4  12  27  45  72 103 146 181 240 291 345 423
#     4  12  28  44  73 108 137 191 235 285 358 419
#     4  12  27  46  74 102 143 187 233 290 349 420
#
# _framework density 21.599526000000001
#
# number of rings (size 3 to 8) (size 9 to 14) (size 15 to 20)
#    0.000    0.250    5.000    2.625    8.750    1.000 
#    0.000    0.000    0.000    0.000    0.000    0.000 
#    0.000    0.000    0.000    0.000    0.000    0.000 
#
# Total GULP energy -89497.434989 kJ/mol
# GULP energy per Si atom -5593.589687 kJ/mol
# Density = 2.155036 g / cm^3
# Si number density = 21.599526 Si / 1000 Ang^3
#
#
#
# Elastic Constant Matrix: (Units=GPa)
#
#
# Indices 1 2 3 4 5 6 
#
# 1 90.2170 13.0708 27.9087 2.1294 9.5695 9.4538
# 2 13.0708 64.4377 2.2983 -5.4652 -3.5285 6.8191
# 3 27.9087 2.2983 105.2482 2.3339 11.2696 26.6316
# 4 2.1294 -5.4652 2.3339 27.2597 2.2092 3.1239
# 5 9.5695 -3.5285 11.2696 2.2092 40.4507 1.1039
# 6 9.4538 6.8191 26.6316 3.1239 1.1039 43.6436
#
#
#
# Elastic Compliance Matrix: (Units=1/GPa)
#
#
# Indices 1 2 3 4 5 6 
#
# 1 0.012690 -0.002642 -0.002928 -0.001032 -0.002349 -0.000416
# 2 -0.002642 0.016733 0.000782 0.003677 0.001743 -0.002827
# 3 -0.002928 0.000782 0.012276 0.000331 -0.002488 -0.006940
# 4 -0.001032 0.003677 0.000331 0.037967 -0.001513 -0.003232
# 5 -0.002349 0.001743 -0.002488 -0.001513 0.026172 0.001201
# 6 -0.000416 -0.002827 -0.006940 -0.003232 0.001201 0.027880
#
#
# Mechanical properties :
#
#
# Convention : Reuss Voigt Hill
#
# Bulk Modulus (GPa) = 31.12874 38.49540 34.81207
# Shear Modulus (GPa) = 32.46748 36.71247 34.58997
#
# Velocity S-wave (km/s) = 3.88126 4.12720 4.00612
# Velocity P-wave (km/s) = 5.87611 6.36967 6.12786
#
# Compressibility (1/GPa) = 0.03212465
#
# Stress axis : x y z
#
# Youngs Moduli (GPa) = 78.80260 59.76118 81.46266
#
# Poissons Ratio (x) = 0.15788 0.23848
# Poissons Ratio (y) = 0.20818 -0.06372
# Poissons Ratio (z) = 0.23070 -0.04675
#
# Static dielectric constant tensor:
#      x y z
#    x 1.766940 -0.025490 -0.014030 
#    y -0.025490 1.784400 -0.037830 
#    z -0.014030 -0.037830 1.738020 
# 
# From -- ./inp_files/206335.got.cif
#   From: 2010.05.17/outbox.cif.g08.bks.cpg/sg2_104_cif.got.tgz:206335.got - 2010.06.03 11:33:40.
