data_PCOD9068852
_publ_section_title
;
Structure prediction by ZEFSAII (Michael W. Deem and Ramdas Pophale) SiO2 
 PCOD9068852
Probable space group: P -1
;
_chemical_formula_sum "Si O2"
_cell_formula_units_Z 10
_cell_length_a 8.631616
_cell_length_b 11.190573
_cell_length_c 10.895770
_cell_angle_alpha 26.497733
_cell_angle_beta 94.367299
_cell_angle_gamma 93.144269
_cell_volume 467.991850
_symmetry_space_group_name_H-M "P -1"
_symmetry_group_IT_number 2
_symmetry_cell_setting 'triclinic'
loop_
_space_group_symop_operation_xyz
x,y,z
-x,-y,-z
loop_
_atom_site_type_symbol
_atom_site_label
_atom_site_fract_x
_atom_site_fract_y
_atom_site_fract_z
Si Si1 0.765216 0.022819 0.684498
Si Si2 0.263963 0.477718 0.327681
Si Si3 0.898030 0.248553 0.722712
Si Si4 0.940375 0.457380 0.172931
Si Si5 0.543183 0.043076 0.111514
O O1 0.848005 0.193947 0.635109
O O2 0.827048 0.199590 0.410944
O O3 0.595735 0.010961 0.748896
O O4 0.838351 0.723500 0.957655
O O5 0.235402 0.667594 0.269796
O O6 0.326010 0.186504 0.640094
O O7 0.102221 0.452015 0.267533
O O8 0.399156 0.662533 0.112882
O O9 0.000000 0.500000 0.500000
O O10 0.000000 0.000000 0.000000
O O11 0.000000 0.500000 0.000000
O O12 0.500000 0.000000 0.000000
#
# Coordination Sequence:
#
# PCOD9068852 Si02
#       5
#     2   2   2   2   2
#     4  12  24  43  68 100 135 172 221 278 334 394
#     4  12  24  42  66 100 139 172 216 271 335 402
#     4  12  21  36  66 103 132 164 217 278 337 394
#     4  12  27  48  70  93 129 185 241 275 307 380
#     4  12  26  40  66 107 144 166 203 272 356 413
#
# _framework density 21.367892999999999
#
# number of rings (size 3 to 8) (size 9 to 14) (size 15 to 20)
#    0.000    0.000    6.000    4.800    2.800    0.000 
#    0.000    6.000    0.000    0.000    0.000    0.000 
#    0.000    0.000    0.000    0.000    0.000    0.000 
#
# Total GULP energy -55685.650656 kJ/mol
# GULP energy per Si atom -5568.565066 kJ/mol
# Density = 2.131926 g / cm^3
# Si number density = 21.367893 Si / 1000 Ang^3
#
#
#
# Elastic Constant Matrix: (Units=GPa)
#
#
# Indices 1 2 3 4 5 6 
#
# 1 86.0586 20.7466 36.1500 7.7647 -7.3445 -13.6790
# 2 20.7466 43.6685 -0.4891 12.4985 17.6043 -11.3178
# 3 36.1500 -0.4891 130.4626 -3.4412 -0.4044 4.3190
# 4 7.7647 12.4985 -3.4412 31.6509 -8.0739 -11.2718
# 5 -7.3445 17.6043 -0.4044 -8.0739 55.5362 -7.3205
# 6 -13.6790 -11.3178 4.3190 -11.2718 -7.3205 24.0024
#
#
#
# Elastic Compliance Matrix: (Units=1/GPa)
#
#
# Indices 1 2 3 4 5 6 
#
# 1 0.018447 -0.010583 -0.005366 0.005152 0.008000 0.011348
# 2 -0.010583 0.039232 0.002611 -0.017204 -0.016463 -0.001102
# 3 -0.005366 0.002611 0.009283 -0.000905 -0.002207 -0.004595
# 4 0.005152 -0.017204 -0.000905 0.049472 0.016381 0.023215
# 5 0.008000 -0.016463 -0.002207 0.016381 0.028435 0.013558
# 6 0.011348 -0.001102 -0.004595 0.023215 0.013558 0.063474
#
#
# Mechanical properties :
#
#
# Convention : Reuss Voigt Hill
#
# Bulk Modulus (GPa) = 24.82200 41.44496 33.13348
# Shear Modulus (GPa) = 20.12491 35.82339 27.97415
#
# Velocity S-wave (km/s) = 3.07225 4.09896 3.62217
# Velocity P-wave (km/s) = 4.92206 6.46838 5.74746
#
# Compressibility (1/GPa) = 0.04028684
#
# Stress axis : x y z
#
# Youngs Moduli (GPa) = 54.20954 25.48928 107.72215
#
# Poissons Ratio (x) = 0.26975 0.57805
# Poissons Ratio (y) = 0.57368 -0.28128
# Poissons Ratio (z) = 0.29090 -0.06656
#
# Static dielectric constant tensor:
#      x y z
#    x 1.962560 -0.102860 -0.223970 
#    y -0.102860 1.802980 0.163320 
#    z -0.223970 0.163320 1.930450 
# 
# From -- ./inp_files/21814.got.cif
#   From: 2010.05.17/outbox.cif.g08.bks.cpg/sg2_11_cif.got.tgz:21814.got - 2010.06.03 11:33:40.
