data_PCOD9068884
_publ_section_title
;
Structure prediction by ZEFSAII (Michael W. Deem and Ramdas Pophale) SiO2 
 PCOD9068884
Probable space group: P -1
;
_chemical_formula_sum "Si O2"
_cell_formula_units_Z 13
_cell_length_a 14.169068
_cell_length_b 14.965504
_cell_length_c 11.692977
_cell_angle_alpha 30.851535
_cell_angle_beta 149.348288
_cell_angle_gamma 150.492402
_cell_volume 559.925345
_symmetry_space_group_name_H-M "P -1"
_symmetry_group_IT_number 2
_symmetry_cell_setting 'triclinic'
loop_
_space_group_symop_operation_xyz
x,y,z
-x,-y,-z
loop_
_atom_site_type_symbol
_atom_site_label
_atom_site_fract_x
_atom_site_fract_y
_atom_site_fract_z
Si Si1 0.000000 0.500000 0.000000
Si Si2 0.059663 0.301962 0.057586
Si Si3 0.040538 0.143022 0.551202
Si Si4 0.703001 0.065673 0.469797
Si Si5 0.351342 0.266260 0.091907
Si Si6 0.069976 0.729279 0.294525
Si Si7 0.510457 0.699142 0.057017
O O1 0.995496 0.421782 0.948285
O O2 0.987897 0.288314 0.263067
O O3 0.307817 0.470865 0.098404
O O4 0.915283 0.246088 0.853623
O O5 0.038002 0.090038 0.309053
O O6 0.297825 0.261661 0.703022
O O7 0.919916 0.119955 0.571033
O O8 0.750977 0.154513 0.550873
O O9 0.578642 0.831898 0.627291
O O10 0.584628 0.155699 0.175266
O O11 0.500000 0.500000 0.000000
O O12 0.113464 0.219122 0.920662
O O13 0.383072 0.225519 0.039221
O O14 0.000000 0.500000 0.500000
#
# Coordination Sequence:
#
# PCOD9068884 Si02
#       7
#     1   2   2   2   2   2   2
#     4  12  28  56  80  98 148 200 258 328 366 416
#     4  12  26  50  76 109 150 197 254 307 365 439
#     4  12  26  51  79 107 147 200 247 315 376 428
#     4  12  23  46  69 110 161 186 238 300 369 459
#     4  12  22  38  66 108 153 191 232 282 370 458
#     4  12  21  39  71 104 153 192 225 296 365 442
#     4  12  25  45  75 114 150 193 240 299 375 460
#
# _framework density 23.217381
#
# number of rings (size 3 to 8) (size 9 to 14) (size 15 to 20)
#    0.000    0.000    7.692    2.308    0.000    1.846 
#    2.769    1.538    0.000    0.000    0.000    0.000 
#    0.000    0.000    0.000    0.000    0.000    0.000 
#
# Total GULP energy -72387.533468 kJ/mol
# GULP energy per Si atom -5568.271805 kJ/mol
# Density = 2.316454 g / cm^3
# Si number density = 23.217381 Si / 1000 Ang^3
#
#
#
# Elastic Constant Matrix: (Units=GPa)
#
#
# Indices 1 2 3 4 5 6 
#
# 1 61.9899 33.0249 40.1748 22.9989 12.3718 -38.0722
# 2 33.0249 93.1797 45.4041 -29.4744 -1.9416 5.0522
# 3 40.1748 45.4041 117.8038 -48.9559 -2.2714 16.1091
# 4 22.9989 -29.4744 -48.9559 39.5480 7.7213 10.2918
# 5 12.3718 -1.9416 -2.2714 7.7213 35.6299 -8.1664
# 6 -38.0722 5.0522 16.1091 10.2918 -8.1664 28.6076
#
#
#
# Elastic Compliance Matrix: (Units=1/GPa)
#
#
# Indices 1 2 3 4 5 6 
#
# 1 -0.000591 0.001874 0.006828 0.014142 -0.004949 -0.011462
# 2 0.001874 0.012566 -0.007142 -0.002252 0.001324 0.005484
# 3 0.006828 -0.007142 0.005925 -0.004342 0.000560 0.008734
# 4 0.014142 -0.002252 -0.004342 0.005452 -0.002114 0.019098
# 5 -0.004949 0.001324 0.000560 -0.002114 0.030912 0.002449
# 6 -0.011462 0.005484 0.008734 0.019098 0.002449 0.007643
#
#
# Mechanical properties :
#
#
# Convention : Reuss Voigt Hill
#
# Bulk Modulus (GPa) = 47.57433 56.68676 52.13054
# Shear Modulus (GPa) = 75.99381 31.04844 53.52113
#
# Velocity S-wave (km/s) = 5.72735 3.66087 4.80648
# Velocity P-wave (km/s) = 8.01698 6.50676 7.30102
#
# Compressibility (1/GPa) = 0.02101974
#
# Stress axis : x y z
#
# Youngs Moduli (GPa) = -1692.88018 79.57886 168.77223
#
# Poissons Ratio (x) = -0.14912 -1.15241
# Poissons Ratio (y) = 3.17217 1.20544
# Poissons Ratio (z) = 11.55927 0.56839
#
# Static dielectric constant tensor:
#      x y z
#    x 1.901480 0.012800 0.018950 
#    y 0.012800 1.917550 -0.057050 
#    z 0.018950 -0.057050 1.902230 
# 
# From -- ./inp_files/454440.got.cif
#   From: 2010.05.17/outbox.cif.g08.bks.cpg/sg2_228_cif.got.tgz:454440.got - 2010.06.03 11:33:40.
