data_PCOD9068736
_publ_section_title
;
Structure prediction by ZEFSAII (Michael W. Deem and Ramdas Pophale) SiO2 
 PCOD9068736
Probable space group: P -1
;
_chemical_formula_sum "Si O2"
_cell_formula_units_Z 16
_cell_length_a 11.310669
_cell_length_b 10.698913
_cell_length_c 10.883359
_cell_angle_alpha 153.726252
_cell_angle_beta 90.340796
_cell_angle_gamma 90.811354
_cell_volume 582.414714
_symmetry_space_group_name_H-M "P -1"
_symmetry_group_IT_number 2
_symmetry_cell_setting 'triclinic'
loop_
_space_group_symop_operation_xyz
x,y,z
-x,-y,-z
loop_
_atom_site_type_symbol
_atom_site_label
_atom_site_fract_x
_atom_site_fract_y
_atom_site_fract_z
Si Si1 0.633320 0.622906 0.362033
Si Si2 0.674805 0.425066 0.918145
Si Si3 0.759943 0.031900 0.195027
Si Si4 0.435161 0.988265 0.630545
Si Si5 0.450446 0.285283 0.207888
Si Si6 0.075113 0.791724 0.237180
Si Si7 0.880113 0.770838 0.601019
Si Si8 0.907313 0.613054 0.730907
O O1 0.743875 0.659416 0.485106
O O2 0.564784 0.913899 0.613540
O O3 0.683196 0.518063 0.141571
O O4 0.526067 0.402499 0.197611
O O5 0.798238 0.281988 0.768335
O O6 0.581806 0.198902 0.658412
O O7 0.625770 0.712720 0.116970
O O8 0.659545 0.137545 0.380162
O O9 0.831678 0.328168 0.436279
O O10 0.682096 0.825162 0.920399
O O11 0.860365 0.800372 0.009368
O O12 0.500000 0.500000 0.500000
O O13 0.500000 0.000000 0.000000
O O14 0.102499 0.966234 0.263008
O O15 0.000000 0.000000 0.500000
O O16 0.000000 0.500000 0.000000
O O17 0.969349 0.522856 0.350977
O O18 0.907199 0.809494 0.780877
#
# Coordination Sequence:
#
# PCOD9068736 Si02
#       8
#     2   2   2   2   2   2   2   2
#     4  12  26  51  80 120 168 214 280 339 412 509
#     4  12  28  50  76 118 155 220 267 342 417 478
#     4  12  26  49  77 120 157 215 272 332 411 481
#     4  12  27  48  80 117 164 214 273 333 411 490
#     4  12  26  46  77 115 159 209 262 336 413 485
#     4  12  29  51  80 116 159 213 275 344 406 495
#     4  11  28  53  82 122 163 221 276 341 427 483
#     4  11  28  51  85 117 167 218 276 345 408 508
#
# _framework density 27.471833
#
# number of rings (size 3 to 8) (size 9 to 14) (size 15 to 20)
#    0.000    0.250    0.000    8.250    5.250   11.000 
#    0.000    0.000    0.000    0.000    0.000    0.000 
#    0.000    0.000    0.000    0.000    0.000    0.000 
#
# Total GULP energy -89405.194038 kJ/mol
# GULP energy per Si atom -5587.824627 kJ/mol
# Density = 2.740931 g / cm^3
# Si number density = 27.471833 Si / 1000 Ang^3
#
#
#
# Elastic Constant Matrix: (Units=GPa)
#
#
# Indices 1 2 3 4 5 6 
#
# 1 95.0836 39.0178 27.8546 22.1021 -2.0610 -45.2401
# 2 39.0178 129.9957 38.1914 20.7248 8.6251 -35.2864
# 3 27.8546 38.1914 182.0171 17.8798 -1.3360 -21.2650
# 4 22.1021 20.7248 17.8798 46.9716 -10.7837 -0.8998
# 5 -2.0610 8.6251 -1.3360 -10.7837 54.3208 6.9912
# 6 -45.2401 -35.2864 -21.2650 -0.8998 6.9912 57.7925
#
#
#
# Elastic Compliance Matrix: (Units=1/GPa)
#
#
# Indices 1 2 3 4 5 6 
#
# 1 0.020603 0.000191 -0.000310 -0.010122 -0.003374 0.016382
# 2 0.000191 0.010837 -0.001033 -0.005184 -0.003636 0.006746
# 3 -0.000310 -0.001033 0.006087 -0.001740 -0.000219 0.001366
# 4 -0.010122 -0.005184 -0.001740 0.030615 0.008047 -0.012226
# 5 -0.003374 -0.003636 -0.000219 0.008047 0.021404 -0.007406
# 6 0.016382 0.006746 0.001366 -0.012226 -0.007406 0.035454
#
#
# Mechanical properties :
#
#
# Convention : Reuss Voigt Hill
#
# Bulk Modulus (GPa) = 28.38842 68.58045 48.48444
# Shear Modulus (GPa) = 35.95968 51.95250 43.95609
#
# Velocity S-wave (km/s) = 3.62189 4.35342 4.00439
# Velocity P-wave (km/s) = 5.27701 7.09139 6.25038
#
# Compressibility (1/GPa) = 0.03522563
#
# Stress axis : x y z
#
# Youngs Moduli (GPa) = 48.53593 92.27300 164.28563
#
# Poissons Ratio (x) = -0.01764 0.05088
# Poissons Ratio (y) = -0.00928 0.16963
# Poissons Ratio (z) = 0.01503 0.09527
#
# Static dielectric constant tensor:
#      x y z
#    x 1.850180 0.297100 -0.219660 
#    y 0.297100 2.168740 0.050730 
#    z -0.219660 0.050730 1.972500 
# 
# From -- ./inp_files/610988.got.cif
#   From: 2010.05.17/outbox.cif.g08.bks.cpg/sg2_306_cif.got.tgz:610988.got - 2010.06.03 11:33:40.
