data_PCOD9068407
_publ_section_title
;
Structure prediction by ZEFSAII (Michael W. Deem and Ramdas Pophale) SiO2 
 PCOD9068407
Probable space group: P -1
;
_chemical_formula_sum "Si O2"
_cell_formula_units_Z 16
_cell_length_a 12.213564
_cell_length_b 12.749192
_cell_length_c 12.972163
_cell_angle_alpha 147.005117
_cell_angle_beta 41.162112
_cell_angle_gamma 145.021528
_cell_volume 616.493631
_symmetry_space_group_name_H-M "P -1"
_symmetry_group_IT_number 2
_symmetry_cell_setting 'triclinic'
loop_
_space_group_symop_operation_xyz
x,y,z
-x,-y,-z
loop_
_atom_site_type_symbol
_atom_site_label
_atom_site_fract_x
_atom_site_fract_y
_atom_site_fract_z
Si Si1 0.253375 0.961798 0.755471
Si Si2 0.044620 0.186075 0.389996
Si Si3 0.045373 0.197930 0.987717
Si Si4 0.332252 0.608373 0.407605
Si Si5 0.633114 0.206369 0.000908
Si Si6 0.273860 0.399546 0.611492
Si Si7 0.440147 0.613495 0.991544
Si Si8 0.689458 0.937838 0.561971
O O1 0.153190 0.077827 0.863617
O O2 0.288836 0.782068 0.525965
O O3 0.449162 0.165517 0.835380
O O4 0.106016 0.817030 0.834183
O O5 0.143165 0.380520 0.394599
O O6 0.151375 0.296199 0.511163
O O7 0.067826 0.976395 0.168144
O O8 0.818171 0.075335 0.486754
O O9 0.212866 0.444605 0.037248
O O10 0.451938 0.526019 0.188803
O O11 0.472450 0.756173 0.525720
O O12 0.760161 0.413702 0.158615
O O13 0.532605 0.306407 0.080873
O O14 0.707545 0.104472 0.777174
O O15 0.500000 0.000000 0.000000
O O16 0.500000 0.500000 0.500000
O O17 0.227064 0.209041 0.571734
#
# Coordination Sequence:
#
# PCOD9068407 Si02
#       8
#     2   2   2   2   2   2   2   2
#     4  11  27  47  76 109 143 189 241 304 361 425
#     4  12  25  45  71 101 147 188 236 303 356 426
#     4  11  26  50  74 108 145 188 246 298 363 430
#     4  12  24  44  73 102 141 189 232 295 365 417
#     4  12  24  41  73 102 140 187 240 288 354 429
#     4  12  23  44  68  97 141 188 238 293 357 425
#     4  12  24  48  74 102 147 191 235 301 358 429
#     4  12  25  44  68 105 138 191 242 293 356 433
#
# _framework density 25.953227999999999
#
# number of rings (size 3 to 8) (size 9 to 14) (size 15 to 20)
#    0.000    0.250    7.500    0.750    1.750    1.500 
#    0.000    0.000    0.000    0.000    0.000    0.000 
#    0.000    0.000    0.000    0.000    0.000    0.000 
#
# Total GULP energy -89705.832907 kJ/mol
# GULP energy per Si atom -5606.614557 kJ/mol
# Density = 2.589416 g / cm^3
# Si number density = 25.953228 Si / 1000 Ang^3
#
#
#
# Elastic Constant Matrix: (Units=GPa)
#
#
# Indices 1 2 3 4 5 6 
#
# 1 54.0110 29.9624 -2.8883 11.3958 8.0472 -4.5755
# 2 29.9624 179.8053 44.8759 5.4849 5.6695 -1.4710
# 3 -2.8883 44.8759 135.4554 16.4573 -2.1949 -2.2185
# 4 11.3958 5.4849 16.4573 41.6474 -6.3399 9.1986
# 5 8.0472 5.6695 -2.1949 -6.3399 34.3494 6.9164
# 6 -4.5755 -1.4710 -2.2185 9.1986 6.9164 28.1955
#
#
#
# Elastic Compliance Matrix: (Units=1/GPa)
#
#
# Indices 1 2 3 4 5 6 
#
# 1 0.025851 -0.004437 0.003440 -0.011535 -0.009303 0.010279
# 2 -0.004437 0.006879 -0.002586 0.001629 0.000274 -0.001163
# 3 0.003440 -0.002586 0.008953 -0.005031 -0.001360 0.003103
# 4 -0.011535 0.001629 -0.005031 0.034314 0.011718 -0.016252
# 5 -0.009303 0.000274 -0.001360 0.011718 0.036203 -0.014306
# 6 0.010279 -0.001163 0.003103 -0.016252 -0.014306 0.046130
#
#
# Mechanical properties :
#
#
# Convention : Reuss Voigt Hill
#
# Bulk Modulus (GPa) = 28.97165 57.01907 42.99536
# Shear Modulus (GPa) = 28.24860 40.65991 34.45426
#
# Velocity S-wave (km/s) = 3.30273 3.96240 3.64751
# Velocity P-wave (km/s) = 5.07261 6.55376 5.86017
#
# Compressibility (1/GPa) = 0.03451650
#
# Stress axis : x y z
#
# Youngs Moduli (GPa) = 38.68352 145.37997 111.69966
#
# Poissons Ratio (x) = 0.64506 -0.38428
# Poissons Ratio (y) = 0.17164 0.28885
# Poissons Ratio (z) = -0.13308 0.37594
#
# Static dielectric constant tensor:
#      x y z
#    x 2.102320 0.023240 -0.023950 
#    y 0.023240 2.007280 0.004310 
#    z -0.023950 0.004310 2.028650 
# 
# From -- ./inp_files/534555.got.cif
#   From: 2010.05.17/outbox.cif.g08.bks.cpg/sg2_268_cif.got.tgz:534555.got - 2010.06.03 11:33:40.
