data_PCOD9068538
_publ_section_title
;
Structure prediction by ZEFSAII (Michael W. Deem and Ramdas Pophale) SiO2 
 PCOD9068538
Probable space group: P -1
;
_chemical_formula_sum "Si O2"
_cell_formula_units_Z 12
_cell_length_a 4.721624
_cell_length_b 13.904785
_cell_length_c 15.634603
_cell_angle_alpha 33.483529
_cell_angle_beta 124.827495
_cell_angle_gamma 125.212243
_cell_volume 453.319208
_symmetry_space_group_name_H-M "P -1"
_symmetry_group_IT_number 2
_symmetry_cell_setting 'triclinic'
loop_
_space_group_symop_operation_xyz
x,y,z
-x,-y,-z
loop_
_atom_site_type_symbol
_atom_site_label
_atom_site_fract_x
_atom_site_fract_y
_atom_site_fract_z
Si Si1 0.580287 0.102399 0.849825
Si Si2 0.406047 0.398171 0.353703
Si Si3 0.154130 0.352306 0.523296
Si Si4 0.708472 0.750717 0.063338
Si Si5 0.637704 0.818626 0.669769
Si Si6 0.275546 0.682259 0.882840
O O1 0.251707 0.174551 0.707471
O O2 0.925115 0.252860 0.823230
O O3 0.500000 0.000000 0.000000
O O4 0.672629 0.953542 0.914877
O O5 0.132468 0.344514 0.422353
O O6 0.431332 0.602002 0.178504
O O7 0.363112 0.280141 0.348542
O O8 0.781838 0.379235 0.472024
O O9 0.500000 0.500000 0.500000
O O10 0.622504 0.700276 0.988120
O O11 0.406533 0.705634 0.790092
O O12 0.053321 0.834243 0.753210
O O13 0.500000 0.000000 0.500000
O O14 0.000000 0.500000 0.000000
#
# Coordination Sequence:
#
# PCOD9068538 Si02
#       6
#     2   2   2   2   2   2
#     4  11  27  45  72 108 147 192 246 306 369 444
#     4  12  27  47  74 104 149 194 241 305 371 439
#     4  12  26  45  74 105 144 191 243 295 369 439
#     4  11  27  45  73 104 149 188 250 299 372 437
#     4  12  29  49  74 112 152 195 254 312 378 444
#     4  12  27  49  79 109 147 201 254 308 376 449
#
# _framework density 26.471412000000001
#
# number of rings (size 3 to 8) (size 9 to 14) (size 15 to 20)
#    0.000    0.333    3.333    3.500   11.667    0.000 
#    0.000    0.000    0.000    0.000    0.000    0.000 
#    0.000    0.000    0.000    0.000    0.000    0.000 
#
# Total GULP energy -67235.897516 kJ/mol
# GULP energy per Si atom -5602.991460 kJ/mol
# Density = 2.641116 g / cm^3
# Si number density = 26.471412 Si / 1000 Ang^3
#
#
#
# Elastic Constant Matrix: (Units=GPa)
#
#
# Indices 1 2 3 4 5 6 
#
# 1 120.7914 23.7143 25.6324 5.0672 -2.3171 -12.6003
# 2 23.7143 116.6689 30.2286 16.0569 -8.7078 -15.3171
# 3 25.6324 30.2286 130.6203 9.4733 -1.0172 -12.3044
# 4 5.0672 16.0569 9.4733 38.0056 -3.1530 3.4177
# 5 -2.3171 -8.7078 -1.0172 -3.1530 64.4362 14.7443
# 6 -12.6003 -15.3171 -12.3044 3.4177 14.7443 32.4361
#
#
#
# Elastic Compliance Matrix: (Units=1/GPa)
#
#
# Indices 1 2 3 4 5 6 
#
# 1 0.009070 -0.001090 -0.001207 -0.000750 -0.000534 0.002873
# 2 -0.001090 0.010326 -0.001466 -0.004224 0.000148 0.004274
# 3 -0.001207 -0.001466 0.008594 -0.001665 -0.000790 0.002634
# 4 -0.000750 -0.004224 -0.001665 0.029456 0.002450 -0.007135
# 5 -0.000534 0.000148 -0.000790 0.002450 0.017619 -0.008704
# 6 0.002873 0.004274 0.002634 -0.007135 -0.008704 0.039672
#
#
# Mechanical properties :
#
#
# Convention : Reuss Voigt Hill
#
# Bulk Modulus (GPa) = 48.86337 58.58125 53.72231
# Shear Modulus (GPa) = 38.73426 46.20924 42.47175
#
# Velocity S-wave (km/s) = 3.82939 4.18260 4.00989
# Velocity P-wave (km/s) = 6.16858 6.74564 6.46355
#
# Compressibility (1/GPa) = 0.02046523
#
# Stress axis : x y z
#
# Youngs Moduli (GPa) = 110.25687 96.84081 116.35459
#
# Poissons Ratio (x) = 0.10559 0.14039
# Poissons Ratio (y) = 0.12022 0.17053
# Poissons Ratio (z) = 0.13304 0.14193
#
# Static dielectric constant tensor:
#      x y z
#    x 2.054350 0.033310 0.040820 
#    y 0.033310 2.197640 -0.029640 
#    z 0.040820 -0.029640 2.094910 
# 
# From -- ./inp_files/45751.got.cif
#   From: 2010.05.17/outbox.cif.g08.bks.cpg/sg2_23_cif.got.tgz:45751.got - 2010.06.03 11:33:40.
