data_PCOD9068057
_publ_section_title
;
Structure prediction by ZEFSAII (Michael W. Deem and Ramdas Pophale) SiO2 
 PCOD9068057
Probable space group: P -1
;
_chemical_formula_sum "Si O2"
_cell_formula_units_Z 14
_cell_length_a 8.031788
_cell_length_b 11.145011
_cell_length_c 18.909132
_cell_angle_alpha 149.453390
_cell_angle_beta 50.808177
_cell_angle_gamma 138.321837
_cell_volume 571.708994
_symmetry_space_group_name_H-M "P -1"
_symmetry_group_IT_number 2
_symmetry_cell_setting 'triclinic'
loop_
_space_group_symop_operation_xyz
x,y,z
-x,-y,-z
loop_
_atom_site_type_symbol
_atom_site_label
_atom_site_fract_x
_atom_site_fract_y
_atom_site_fract_z
Si Si1 0.976068 0.770698 0.147847
Si Si2 0.123843 0.285933 0.155063
Si Si3 0.748973 0.289660 0.373722
Si Si4 0.927320 0.877408 0.566154
Si Si5 0.395203 0.234946 0.545048
Si Si6 0.409943 0.203024 0.151006
Si Si7 0.487907 0.685227 0.158508
O O1 0.713674 0.736354 0.176024
O O2 0.048043 0.897410 0.270708
O O3 0.168545 0.006332 0.162624
O O4 0.000000 0.500000 0.000000
O O5 0.352105 0.302496 0.144568
O O6 0.229862 0.525929 0.190231
O O7 0.962568 0.302630 0.270924
O O8 0.000000 0.000000 0.000000
O O9 0.781374 0.578864 0.489793
O O10 0.670431 0.284184 0.476131
O O11 0.544103 0.968705 0.252683
O O12 0.764196 0.842500 0.523469
O O13 0.215984 0.992181 0.523437
O O14 0.423517 0.519503 0.708913
O O15 0.500000 0.000000 0.000000
O O16 0.500000 0.500000 0.000000
#
# Coordination Sequence:
#
# PCOD9068057 Si02
#       7
#     2   2   2   2   2   2   2
#     4  12  26  47  74 106 146 192 246 297 361 434
#     4  12  26  47  72 109 147 191 241 299 363 425
#     4  12  25  47  76 104 153 187 244 302 358 444
#     4  11  26  47  73 111 147 194 242 299 368 428
#     4  11  26  47  73 111 147 194 242 299 368 428
#     4  12  26  47  74 106 146 192 246 297 361 434
#     4  12  26  47  72 109 147 191 241 299 363 425
#
# _framework density 24.487981000000001
#
# number of rings (size 3 to 8) (size 9 to 14) (size 15 to 20)
#    0.000    0.286    4.286    3.857    4.000    2.286 
#    0.000    2.857    0.000    0.000    0.000    0.000 
#    0.000    0.000    0.000    0.000    0.000    0.000 
#
# Total GULP energy -78127.918727 kJ/mol
# GULP energy per Si atom -5580.565623 kJ/mol
# Density = 2.443224 g / cm^3
# Si number density = 24.487981 Si / 1000 Ang^3
#
#
#
# Elastic Constant Matrix: (Units=GPa)
#
#
# Indices 1 2 3 4 5 6 
#
# 1 52.0285 11.6564 44.4554 -0.6419 19.9927 6.7764
# 2 11.6564 213.1983 41.1107 2.8127 -13.4344 -4.4002
# 3 44.4554 41.1107 221.1230 7.1079 6.1159 4.5485
# 4 -0.6419 2.8127 7.1079 48.3323 -0.2756 -7.9989
# 5 19.9927 -13.4344 6.1159 -0.2756 37.0769 -6.2248
# 6 6.7764 -4.4002 4.5485 -7.9989 -6.2248 25.4335
#
#
#
# Elastic Compliance Matrix: (Units=1/GPa)
#
#
# Indices 1 2 3 4 5 6 
#
# 1 0.034303 -0.002389 -0.005557 -0.001019 -0.020799 -0.013970
# 2 -0.002389 0.005235 -0.000658 0.000219 0.003739 0.002644
# 3 -0.005557 -0.000658 0.005722 -0.000773 0.001903 0.000566
# 4 -0.001019 0.000219 -0.000773 0.022106 0.002256 0.007952
# 5 -0.020799 0.003739 0.001903 0.002256 0.042074 0.016855
# 6 -0.013970 0.002644 0.000566 0.007952 0.016855 0.050023
#
#
# Mechanical properties :
#
#
# Convention : Reuss Voigt Hill
#
# Bulk Modulus (GPa) = 35.64765 75.64388 55.64577
# Shear Modulus (GPa) = 26.87852 48.11035 37.49444
#
# Velocity S-wave (km/s) = 3.31663 4.43725 3.91722
# Velocity P-wave (km/s) = 5.40884 7.56370 6.57514
#
# Compressibility (1/GPa) = 0.02805234
#
# Stress axis : x y z
#
# Youngs Moduli (GPa) = 29.15217 191.01189 174.75318
#
# Poissons Ratio (x) = 0.45642 0.97106
# Poissons Ratio (y) = 0.06966 0.11495
# Poissons Ratio (z) = 0.16199 0.12565
#
# Static dielectric constant tensor:
#      x y z
#    x 2.009580 0.144210 0.001730 
#    y 0.144210 2.039160 -0.052720 
#    z 0.001730 -0.052720 1.891060 
# 
# From -- ./inp_files/316115.got.cif
#   From: 2010.05.17/outbox.cif.g08.bks.cpg/sg2_159_cif.got.tgz:316115.got - 2010.06.03 11:33:40.
