data_PCOD9068845
_publ_section_title
;
Structure prediction by ZEFSAII (Michael W. Deem and Ramdas Pophale) SiO2 
 PCOD9068845
Probable space group: P -1
;
_chemical_formula_sum "Si O2"
_cell_formula_units_Z 16
_cell_length_a 16.466057
_cell_length_b 8.061191
_cell_length_c 13.506662
_cell_angle_alpha 136.635279
_cell_angle_beta 47.642257
_cell_angle_gamma 144.748421
_cell_volume 695.852700
_symmetry_space_group_name_H-M "P -1"
_symmetry_group_IT_number 2
_symmetry_cell_setting 'triclinic'
loop_
_space_group_symop_operation_xyz
x,y,z
-x,-y,-z
loop_
_atom_site_type_symbol
_atom_site_label
_atom_site_fract_x
_atom_site_fract_y
_atom_site_fract_z
Si Si1 0.780654 0.283826 0.729971
Si Si2 0.894122 0.937697 0.976974
Si Si3 0.665712 0.025246 0.047325
Si Si4 0.267036 0.620642 0.408432
Si Si5 0.519293 0.242313 0.169029
Si Si6 0.071905 0.896764 0.194512
Si Si7 0.528405 0.656757 0.199643
Si Si8 0.082165 0.557677 0.706067
O O1 0.760894 0.265305 0.619604
O O2 0.776526 0.562039 0.889766
O O3 0.932542 0.402748 0.700798
O O4 0.642539 0.950464 0.741249
O O5 0.862243 0.143210 0.144426
O O6 0.970923 0.079820 0.869721
O O7 0.000000 0.000000 0.000000
O O8 0.628813 0.890329 0.129776
O O9 0.619953 0.237956 0.161109
O O10 0.569711 0.695401 0.921873
O O11 0.826558 0.192551 0.950410
O O12 0.426834 0.742537 0.342827
O O13 0.202036 0.653114 0.571598
O O14 0.172562 0.248041 0.306039
O O15 0.578408 0.575319 0.219701
O O16 0.500000 0.000000 0.000000
O O17 0.956870 0.688097 0.282785
#
# Coordination Sequence:
#
# PCOD9068845 Si02
#       8
#     2   2   2   2   2   2   2   2
#     4  10  19  34  51  81 112 140 186 223 270 323
#     4   9  21  36  53  73 110 149 181 226 263 322
#     4   9  17  31  49  80 110 132 174 231 271 308
#     4  10  19  32  52  79 115 145 171 228 276 328
#     4  10  18  28  52  84 108 134 175 233 279 313
#     4  10  20  34  55  81 107 138 184 231 268 321
#     4   9  17  29  48  78 112 136 169 218 284 314
#     4  11  20  34  52  79 111 148 185 212 278 329
#
# _framework density 22.993371
#
# number of rings (size 3 to 8) (size 9 to 14) (size 15 to 20)
#    0.000    2.250    1.250    3.375    5.250    0.000 
#    0.000    0.000    0.000    0.750    0.000    1.750 
#    0.000    0.000    0.000    0.000    0.000    0.000 
#
# Total GULP energy -89241.424195 kJ/mol
# GULP energy per Si atom -5577.589012 kJ/mol
# Density = 2.294104 g / cm^3
# Si number density = 22.993371 Si / 1000 Ang^3
#
#
#
# Elastic Constant Matrix: (Units=GPa)
#
#
# Indices 1 2 3 4 5 6 
#
# 1 -11.5027 -63.5446 -123.8340 -26.6877 65.2959 -63.7568
# 2 -63.5446 7.2882 -76.5445 -25.4655 47.2299 -40.3309
# 3 -123.8340 -76.5445 -56.7457 -38.5567 77.2018 -52.8420
# 4 -26.6877 -25.4655 -38.5567 20.3861 2.0541 -3.3257
# 5 65.2959 47.2299 77.2018 2.0541 3.2330 6.2467
# 6 -63.7568 -40.3309 -52.8420 -3.3257 6.2467 10.2241
#
#
#
# Elastic Compliance Matrix: (Units=1/GPa)
#
#
# Indices 1 2 3 4 5 6 
#
# 1 0.008219 -0.004838 -0.004480 -0.003697 0.006061 0.004110
# 2 -0.004838 0.015352 -0.005521 0.001949 0.004287 -0.000130
# 3 -0.004480 -0.005521 0.007867 0.000628 0.000236 -0.008992
# 4 -0.003697 0.001949 0.000628 0.045312 0.014728 -0.006378
# 5 0.006061 0.004287 0.000236 0.014728 0.044464 0.033549
# 6 0.004110 -0.000130 -0.008992 -0.006378 0.033549 0.053881
#
#
# Mechanical properties :
#
#
# Convention : Reuss Voigt Hill
#
# Bulk Modulus (GPa) = 567.83059 -65.42293 251.20383
# Shear Modulus (GPa) = 24.34759 20.29950 22.32354
#
# Velocity S-wave (km/s) = 3.25760 2.97449 3.11926
# Velocity P-wave (km/s) = 16.17527 4.08876 11.06620
#
# Compressibility (1/GPa) = 0.00176109
#
# Stress axis : x y z
#
# Youngs Moduli (GPa) = 121.66928 65.13890 127.10822
#
# Poissons Ratio (x) = 0.31514 0.56942
# Poissons Ratio (y) = 0.58863 0.70173
# Poissons Ratio (z) = 0.54505 0.35962
#
# Static dielectric constant tensor:
#      x y z
#    x 2.071560 -0.011060 -0.074890 
#    y -0.011060 1.860190 0.020090 
#    z -0.074890 0.020090 1.832700 
# 
# From -- ./inp_files/446306.got.cif
#   From: 2010.05.17/outbox.cif.g08.bks.cpg/sg2_224_cif.got.tgz:446306.got - 2010.06.03 11:33:40.
