data_PCOD9068238
_publ_section_title
;
Structure prediction by ZEFSAII (Michael W. Deem and Ramdas Pophale) SiO2 
 PCOD9068238
Probable space group: P -1
;
_chemical_formula_sum "Si O2"
_cell_formula_units_Z 12
_cell_length_a 17.974385
_cell_length_b 5.154601
_cell_length_c 10.276027
_cell_angle_alpha 57.352745
_cell_angle_beta 144.514497
_cell_angle_gamma 125.941968
_cell_volume 443.606567
_symmetry_space_group_name_H-M "P -1"
_symmetry_group_IT_number 2
_symmetry_cell_setting 'triclinic'
loop_
_space_group_symop_operation_xyz
x,y,z
-x,-y,-z
loop_
_atom_site_type_symbol
_atom_site_label
_atom_site_fract_x
_atom_site_fract_y
_atom_site_fract_z
Si Si1 0.458771 0.875345 0.312897
Si Si2 0.277869 0.266026 0.716694
Si Si3 0.105442 0.561962 0.749820
Si Si4 0.734062 0.758845 0.783760
Si Si5 0.918096 0.411452 0.774898
Si Si6 0.546483 0.399363 0.910690
O O1 0.458392 0.755689 0.195191
O O2 0.599886 0.866364 0.575106
O O3 0.453606 0.233019 0.207042
O O4 0.331010 0.605164 0.266097
O O5 0.185809 0.387136 0.453168
O O6 0.408234 0.235212 0.834942
O O7 0.198274 0.927932 0.761165
O O8 0.330694 0.543581 0.827328
O O9 0.000000 0.500000 0.500000
O O10 0.020476 0.506782 0.775762
O O11 0.836312 0.030799 0.770252
O O12 0.000000 0.500000 0.000000
O O13 0.808566 0.690324 0.038856
#
# Coordination Sequence:
#
# PCOD9068238 Si02
#       6
#     2   2   2   2   2   2
#     4  11  26  48  81 114 152 201 254 335 390 459
#     4  11  26  48  76 112 152 201 260 322 388 465
#     4  12  28  47  74 111 156 210 258 318 384 470
#     4  11  26  48  76 112 152 201 260 322 388 465
#     4  12  28  47  74 111 156 210 258 318 384 470
#     4  11  26  48  81 114 152 201 254 335 390 459
#
# _framework density 27.050999999999998
#
# number of rings (size 3 to 8) (size 9 to 14) (size 15 to 20)
#    0.000    0.667    3.333    2.000    9.333    5.333 
#    0.000    0.000    0.000    0.000    0.000    0.000 
#    0.000    0.000    0.000    0.000    0.000    0.000 
#
# Total GULP energy -67377.904573 kJ/mol
# GULP energy per Si atom -5614.825381 kJ/mol
# Density = 2.698943 g / cm^3
# Si number density = 27.051000 Si / 1000 Ang^3
#
#
#
# Elastic Constant Matrix: (Units=GPa)
#
#
# Indices 1 2 3 4 5 6 
#
# 1 172.7639 72.6440 73.5554 39.4056 -26.6096 38.3794
# 2 72.6440 208.0076 61.3110 11.7445 -8.9009 52.6261
# 3 73.5554 61.3110 243.1926 -14.3423 -17.0401 11.6282
# 4 39.4056 11.7445 -14.3423 54.9695 5.4275 0.8043
# 5 -26.6096 -8.9009 -17.0401 5.4275 47.3182 15.4501
# 6 38.3794 52.6261 11.6282 0.8043 15.4501 64.2886
#
#
#
# Elastic Compliance Matrix: (Units=1/GPa)
#
#
# Indices 1 2 3 4 5 6 
#
# 1 0.014216 -0.000087 -0.003698 -0.012113 0.011411 -0.010338
# 2 -0.000087 0.007043 -0.001360 -0.002006 0.003031 -0.006171
# 3 -0.003698 -0.001360 0.005593 0.004531 -0.001711 0.002664
# 4 -0.012113 -0.002006 0.004531 0.029558 -0.012432 0.010672
# 5 0.011411 0.003031 -0.001711 -0.012432 0.034522 -0.017125
# 6 -0.010338 -0.006171 0.002664 0.010672 -0.017125 0.030278
#
#
# Mechanical properties :
#
#
# Convention : Reuss Voigt Hill
#
# Bulk Modulus (GPa) = 60.38111 115.44279 87.91195
# Shear Modulus (GPa) = 36.49044 61.07882 48.78463
#
# Velocity S-wave (km/s) = 3.67679 4.75691 4.25129
# Velocity P-wave (km/s) = 6.35568 8.54046 7.52776
#
# Compressibility (1/GPa) = 0.01656147
#
# Stress axis : x y z
#
# Youngs Moduli (GPa) = 70.34103 141.98505 178.78063
#
# Poissons Ratio (x) = 0.01237 0.66121
# Poissons Ratio (y) = 0.00613 0.24317
# Poissons Ratio (z) = 0.26015 0.19312
#
# Static dielectric constant tensor:
#      x y z
#    x 2.141030 0.004020 0.018020 
#    y 0.004020 2.053410 0.003840 
#    z 0.018020 0.003840 2.141250 
# 
# From -- ./inp_files/456548.got.cif
#   From: 2010.05.17/outbox.cif.g08.bks.cpg/sg2_229_cif.got.tgz:456548.got - 2010.06.03 11:33:40.
