data_PCOD9068817
_publ_section_title
;
Structure prediction by ZEFSAII (Michael W. Deem and Ramdas Pophale) SiO2 
 PCOD9068817
Probable space group: P -1
;
_chemical_formula_sum "Si O2"
_cell_formula_units_Z 14
_cell_length_a 25.623213
_cell_length_b 9.807861
_cell_length_c 9.590520
_cell_angle_alpha 135.956675
_cell_angle_beta 27.005589
_cell_angle_gamma 145.307134
_cell_volume 622.031074
_symmetry_space_group_name_H-M "P -1"
_symmetry_group_IT_number 2
_symmetry_cell_setting 'triclinic'
loop_
_space_group_symop_operation_xyz
x,y,z
-x,-y,-z
loop_
_atom_site_type_symbol
_atom_site_label
_atom_site_fract_x
_atom_site_fract_y
_atom_site_fract_z
Si Si1 0.705647 0.544875 0.226982
Si Si2 0.957842 0.518407 0.269446
Si Si3 0.736730 0.623430 0.885125
Si Si4 0.790280 0.040374 0.493922
Si Si5 0.603254 0.876506 0.297654
Si Si6 0.811333 0.240431 0.863017
Si Si7 0.475725 0.868862 0.108260
O O1 0.548477 0.376012 0.539511
O O2 0.788528 0.817193 0.281134
O O3 0.687909 0.539651 0.098694
O O4 0.784947 0.425332 0.992743
O O5 0.885296 0.660895 0.546018
O O6 0.849752 0.250709 0.392959
O O7 0.084637 0.643018 0.168901
O O8 0.000000 0.500000 0.000000
O O9 0.636009 0.410246 0.860723
O O10 0.715500 0.830329 0.056051
O O11 0.864509 0.151935 0.547510
O O12 0.628002 0.935640 0.831795
O O13 0.580642 0.031997 0.573099
O O14 0.665577 0.019325 0.111782
O O15 0.500000 0.000000 0.000000
#
# Coordination Sequence:
#
# PCOD9068817 Si02
#       7
#     2   2   2   2   2   2   2
#     4  12  25  45  78 109 145 191 241 298 372 427
#     4  12  28  51  75 103 149 196 247 296 356 438
#     4  12  25  44  75 110 142 193 245 297 358 431
#     4  12  26  46  75 106 144 196 237 301 365 424
#     4  12  25  43  75 112 146 186 241 301 364 428
#     4  12  28  49  70 107 157 188 239 298 365 435
#     4  12  20  41  74 107 147 181 239 302 360 417
#
# _framework density 22.506914999999999
#
# number of rings (size 3 to 8) (size 9 to 14) (size 15 to 20)
#    0.000    0.000    7.143    3.000    2.000    4.000 
#    0.000    0.000    0.000    0.000    0.000    0.000 
#    0.000    0.000    0.000    0.000    0.000    0.000 
#
# Total GULP energy -78432.845767 kJ/mol
# GULP energy per Si atom -5602.346126 kJ/mol
# Density = 2.245569 g / cm^3
# Si number density = 22.506915 Si / 1000 Ang^3
#
#
#
# Elastic Constant Matrix: (Units=GPa)
#
#
# Indices 1 2 3 4 5 6 
#
# 1 102.9040 45.7254 19.0763 2.7864 16.5240 12.3063
# 2 45.7254 96.1980 49.5811 24.3822 10.3464 -1.4983
# 3 19.0763 49.5811 74.3997 5.7025 20.7620 -0.4546
# 4 2.7864 24.3822 5.7025 24.0793 -3.5757 4.7369
# 5 16.5240 10.3464 20.7620 -3.5757 37.9903 -0.7595
# 6 12.3063 -1.4983 -0.4546 4.7369 -0.7595 23.9486
#
#
#
# Elastic Compliance Matrix: (Units=1/GPa)
#
#
# Indices 1 2 3 4 5 6 
#
# 1 0.016483 -0.012858 0.004939 0.011407 -0.005525 -0.011612
# 2 -0.012858 0.032781 -0.017143 -0.029953 0.003502 0.014368
# 3 0.004939 -0.017143 0.025777 0.010167 -0.010720 -0.005472
# 4 0.011407 -0.029953 0.010167 0.073037 0.004077 -0.021860
# 5 -0.005525 0.003502 -0.010720 0.004077 0.034077 0.003129
# 6 -0.011612 0.014368 -0.005472 -0.021860 0.003129 0.052941
#
#
# Mechanical properties :
#
#
# Convention : Reuss Voigt Hill
#
# Bulk Modulus (GPa) = 40.13103 55.80748 47.96925
# Shear Modulus (GPa) = 17.03427 27.81157 22.42292
#
# Velocity S-wave (km/s) = 2.75407 3.51905 3.15980
# Velocity P-wave (km/s) = 5.28984 6.43126 5.88828
#
# Compressibility (1/GPa) = 0.02491837
#
# Stress axis : x y z
#
# Youngs Moduli (GPa) = 60.66962 30.50501 38.79357
#
# Poissons Ratio (x) = 0.39224 -0.19161
# Poissons Ratio (y) = 0.78010 0.66503
# Poissons Ratio (z) = -0.29966 0.52294
#
# Static dielectric constant tensor:
#      x y z
#    x 1.828660 0.037970 -0.028440 
#    y 0.037970 1.848970 -0.027730 
#    z -0.028440 -0.027730 1.819480 
# 
# From -- ./inp_files/184676.got.cif
#   From: 2010.05.17/outbox.cif.g08.bks.cpg/sg2_93_cif.got.tgz:184676.got - 2010.06.03 11:33:40.
