data_PCOD9068609
_publ_section_title
;
Structure prediction by ZEFSAII (Michael W. Deem and Ramdas Pophale) SiO2 
 PCOD9068609
Probable space group: P -1
;
_chemical_formula_sum "Si O2"
_cell_formula_units_Z 12
_cell_length_a 17.598307
_cell_length_b 10.541168
_cell_length_c 5.064747
_cell_angle_alpha 92.333323
_cell_angle_beta 75.852655
_cell_angle_gamma 144.687787
_cell_volume 505.055464
_symmetry_space_group_name_H-M "P -1"
_symmetry_group_IT_number 2
_symmetry_cell_setting 'triclinic'
loop_
_space_group_symop_operation_xyz
x,y,z
-x,-y,-z
loop_
_atom_site_type_symbol
_atom_site_label
_atom_site_fract_x
_atom_site_fract_y
_atom_site_fract_z
Si Si1 0.009258 0.104879 0.253526
Si Si2 0.400570 0.380844 0.828783
Si Si3 0.870270 0.134978 0.096373
Si Si4 0.683197 0.441946 0.074395
Si Si5 0.106875 0.573837 0.616866
Si Si6 0.381130 0.786420 0.379189
O O1 0.900334 0.073413 0.298766
O O2 0.161382 0.375229 0.150646
O O3 0.000000 0.000000 0.500000
O O4 0.000000 0.000000 0.000000
O O5 0.500000 0.500000 0.500000
O O6 0.339782 0.439935 0.899964
O O7 0.272369 0.108746 0.929440
O O8 0.500000 0.500000 0.000000
O O9 0.852329 0.256031 0.208418
O O10 0.010996 0.335168 0.813910
O O11 0.680589 0.399861 0.378665
O O12 0.581708 0.232285 0.932015
O O13 0.257450 0.720824 0.415813
O O14 0.000000 0.500000 0.500000
O O15 0.500000 0.000000 0.500000
#
# Coordination Sequence:
#
# PCOD9068609 Si02
#       6
#     2   2   2   2   2   2
#     4  12  25  44  77 110 143 190 248 314 376 446
#     4  12  30  48  75 112 154 199 251 316 390 459
#     4  11  27  49  74 112 152 200 257 316 383 462
#     4  12  26  49  75 110 147 197 256 307 387 453
#     4  11  27  48  80 110 154 208 258 315 383 460
#     4  12  28  49  77 112 153 203 257 317 379 457
#
# _framework density 23.759768000000001
#
# number of rings (size 3 to 8) (size 9 to 14) (size 15 to 20)
#    0.000    0.333    3.333    3.500   14.000    0.000 
#    0.000    0.000    0.000    0.000    0.000    0.000 
#    0.000    0.000    0.000    0.000    0.000    0.000 
#
# Total GULP energy -67113.180765 kJ/mol
# GULP energy per Si atom -5592.765064 kJ/mol
# Density = 2.370569 g / cm^3
# Si number density = 23.759768 Si / 1000 Ang^3
#
#
#
# Elastic Constant Matrix: (Units=GPa)
#
#
# Indices 1 2 3 4 5 6 
#
# 1 95.8668 48.3106 21.2700 2.5151 16.3444 17.8252
# 2 48.3106 166.5018 22.2267 19.0361 -6.6996 7.1050
# 3 21.2700 22.2267 100.4974 23.2246 18.6367 2.8335
# 4 2.5151 19.0361 23.2246 35.1588 -4.5485 2.5235
# 5 16.3444 -6.6996 18.6367 -4.5485 50.2335 1.8237
# 6 17.8252 7.1050 2.8335 2.5235 1.8237 34.1149
#
#
#
# Elastic Compliance Matrix: (Units=1/GPa)
#
#
# Indices 1 2 3 4 5 6 
#
# 1 0.014869 -0.004231 -0.001761 0.002314 -0.004297 -0.006683
# 2 -0.004231 0.007737 -0.000488 -0.003327 0.002261 0.000765
# 3 -0.001761 -0.000488 0.013565 -0.009332 -0.005401 0.000874
# 4 0.002314 -0.003327 -0.009332 0.037185 0.005734 -0.002798
# 5 -0.004297 0.002261 -0.005401 0.005734 0.024111 0.000510
# 6 -0.006683 0.000765 0.000874 -0.002798 0.000510 0.032752
#
#
# Mechanical properties :
#
#
# Convention : Reuss Voigt Hill
#
# Bulk Modulus (GPa) = 43.08256 60.72007 51.90132
# Shear Modulus (GPa) = 33.13116 41.97203 37.55160
#
# Velocity S-wave (km/s) = 3.73825 4.20756 3.97983
# Velocity P-wave (km/s) = 6.06668 7.01541 6.55822
#
# Compressibility (1/GPa) = 0.02321125
#
# Stress axis : x y z
#
# Youngs Moduli (GPa) = 67.25610 129.24154 73.72169
#
# Poissons Ratio (x) = 0.54687 0.12979
# Poissons Ratio (y) = 0.28459 0.03595
# Poissons Ratio (z) = 0.11841 0.06302
#
# Static dielectric constant tensor:
#      x y z
#    x 2.015010 0.061230 -0.039360 
#    y 0.061230 1.933260 0.039000 
#    z -0.039360 0.039000 1.928790 
# 
# From -- ./inp_files/90402.got.cif
#   From: 2010.05.17/outbox.cif.g08.bks.cpg/sg2_46_cif.got.tgz:90402.got - 2010.06.03 11:33:40.
