data_PCOD9068200
_publ_section_title
;
Structure prediction by ZEFSAII (Michael W. Deem and Ramdas Pophale) SiO2 
 PCOD9068200
Probable space group: P -1
;
_chemical_formula_sum "Si O2"
_cell_formula_units_Z 16
_cell_length_a 9.607546
_cell_length_b 10.833486
_cell_length_c 17.717254
_cell_angle_alpha 134.395204
_cell_angle_beta 44.155769
_cell_angle_gamma 99.718778
_cell_volume 682.027972
_symmetry_space_group_name_H-M "P -1"
_symmetry_group_IT_number 2
_symmetry_cell_setting 'triclinic'
loop_
_space_group_symop_operation_xyz
x,y,z
-x,-y,-z
loop_
_atom_site_type_symbol
_atom_site_label
_atom_site_fract_x
_atom_site_fract_y
_atom_site_fract_z
Si Si1 0.453863 0.979869 0.315046
Si Si2 0.656422 0.731587 0.837265
Si Si3 0.468584 0.711131 0.066730
Si Si4 0.801651 0.277090 0.199086
Si Si5 0.223515 0.461110 0.544155
Si Si6 0.594155 0.448586 0.200696
Si Si7 0.150684 0.989740 0.568164
Si Si8 0.912699 0.746165 0.155984
O O1 0.570880 0.786793 0.122644
O O2 0.675721 0.917927 0.262068
O O3 0.313634 0.222917 0.435769
O O4 0.235590 0.999639 0.456340
O O5 0.548059 0.653376 0.787363
O O6 0.970703 0.586287 0.642307
O O7 0.605606 0.678160 0.918622
O O8 0.500000 0.000000 0.000000
O O9 0.145516 0.919273 0.274454
O O10 0.500000 0.500000 0.000000
O O11 0.494829 0.394250 0.381992
O O12 0.880130 0.360128 0.270196
O O13 0.778471 0.380797 0.171980
O O14 0.000000 0.000000 0.000000
O O15 0.374000 0.722713 0.392500
O O16 0.811801 0.311572 0.990955
O O17 0.168928 0.145512 0.682893
O O18 0.000000 0.500000 0.000000
#
# Coordination Sequence:
#
# PCOD9068200 Si02
#       8
#     2   2   2   2   2   2   2   2
#     4  12  25  43  75 105 141 186 244 297 363 432
#     4  12  28  48  75 108 149 195 247 298 366 434
#     4  12  26  48  75 104 147 192 242 304 361 432
#     4  11  26  48  74 102 145 185 238 299 362 427
#     4  11  27  47  72 108 139 189 243 296 358 433
#     4  12  26  46  74 103 145 191 236 296 363 433
#     4  12  25  47  72 105 144 187 238 300 364 433
#     4  12  25  44  70 109 147 186 238 300 366 431
#
# _framework density 23.459446
#
# number of rings (size 3 to 8) (size 9 to 14) (size 15 to 20)
#    0.000    0.250    2.500    6.000    8.750    2.500 
#    0.000    0.000    0.000    0.000    0.000    0.000 
#    0.000    0.000    0.000    0.000    0.000    0.000 
#
# Total GULP energy -89598.764871 kJ/mol
# GULP energy per Si atom -5599.922804 kJ/mol
# Density = 2.340605 g / cm^3
# Si number density = 23.459446 Si / 1000 Ang^3
#
#
#
# Elastic Constant Matrix: (Units=GPa)
#
#
# Indices 1 2 3 4 5 6 
#
# 1 93.5662 -8.5105 9.3564 -7.6183 8.7141 13.0206
# 2 -8.5105 65.6800 11.3892 14.8558 5.3627 -0.2840
# 3 9.3564 11.3892 74.4906 -0.9869 -2.1438 -0.1065
# 4 -7.6183 14.8558 -0.9869 42.6100 6.5115 0.1878
# 5 8.7141 5.3627 -2.1438 6.5115 59.5751 -3.2132
# 6 13.0206 -0.2840 -0.1065 0.1878 -3.2132 36.8862
#
#
#
# Elastic Compliance Matrix: (Units=1/GPa)
#
#
# Indices 1 2 3 4 5 6 
#
# 1 0.012018 0.001611 -0.001806 0.001934 -0.002420 -0.004456
# 2 0.001611 0.017324 -0.002964 -0.005617 -0.001316 -0.000530
# 3 -0.001806 -0.002964 0.014146 0.000885 0.000983 0.000737
# 4 0.001934 -0.005617 0.000885 0.026206 -0.002669 -0.001089
# 5 -0.002420 -0.001316 0.000983 -0.002669 0.017715 0.002404
# 6 -0.004456 -0.000530 0.000737 -0.001089 0.002404 0.028896
#
#
# Mechanical properties :
#
#
# Convention : Reuss Voigt Hill
#
# Bulk Modulus (GPa) = 26.90436 28.68966 27.79701
# Shear Modulus (GPa) = 37.03378 42.58103 39.80741
#
# Velocity S-wave (km/s) = 3.97751 4.26501 4.12377
# Velocity P-wave (km/s) = 5.70854 6.04233 5.87781
#
# Compressibility (1/GPa) = 0.03716870
#
# Stress axis : x y z
#
# Youngs Moduli (GPa) = 83.21076 57.72421 70.69313
#
# Poissons Ratio (x) = -0.09300 0.12769
# Poissons Ratio (y) = -0.13406 0.20954
# Poissons Ratio (z) = 0.15029 0.17110
#
# Static dielectric constant tensor:
#      x y z
#    x 1.863480 0.017050 -0.017010 
#    y 0.017050 1.886910 -0.075860 
#    z -0.017010 -0.075860 1.847180 
# 
# From -- ./inp_files/560016.got.cif
#   From: 2010.05.17/outbox.cif.g08.bks.cpg/sg2_281_cif.got.tgz:560016.got - 2010.06.03 11:33:40.
