data_PCOD9068321
_publ_section_title
;
Structure prediction by ZEFSAII (Michael W. Deem and Ramdas Pophale) SiO2 
 PCOD9068321
Probable space group: P -1
;
_chemical_formula_sum "Si O2"
_cell_formula_units_Z 16
_cell_length_a 5.236583
_cell_length_b 19.745835
_cell_length_c 16.942938
_cell_angle_alpha 157.507727
_cell_angle_beta 81.783709
_cell_angle_gamma 96.959406
_cell_volume 663.056458
_symmetry_space_group_name_H-M "P -1"
_symmetry_group_IT_number 2
_symmetry_cell_setting 'triclinic'
loop_
_space_group_symop_operation_xyz
x,y,z
-x,-y,-z
loop_
_atom_site_type_symbol
_atom_site_label
_atom_site_fract_x
_atom_site_fract_y
_atom_site_fract_z
Si Si1 0.423737 0.508526 0.919760
Si Si2 0.067094 0.828379 0.094047
Si Si3 0.194879 0.517023 0.437210
Si Si4 0.105203 0.538425 0.276643
Si Si5 0.944088 0.800223 0.446970
Si Si6 0.600414 0.852167 0.022008
Si Si7 0.276597 0.914484 0.868560
Si Si8 0.253518 0.879219 0.378641
O O1 0.641225 0.493500 0.824659
O O2 0.235992 0.344527 0.739419
O O3 0.500000 0.500000 0.000000
O O4 0.297511 0.707341 0.137518
O O5 0.134803 0.994348 0.323952
O O6 0.296084 0.841305 0.035442
O O7 0.068349 0.630887 0.915522
O O8 0.781802 0.848964 0.089015
O O9 0.117079 0.539782 0.372336
O O10 0.335104 0.326050 0.221684
O O11 0.317173 0.704864 0.650336
O O12 0.000000 0.500000 0.500000
O O13 0.988143 0.723190 0.449157
O O14 0.201172 0.805261 0.389185
O O15 0.678628 0.024673 0.157336
O O16 0.500000 0.000000 0.000000
O O17 0.000000 0.000000 0.000000
O O18 0.500000 0.000000 0.500000
O O19 0.000000 0.000000 0.500000
#
# Coordination Sequence:
#
# PCOD9068321 Si02
#       8
#     2   2   2   2   2   2   2   2
#     4  12  27  52  77 116 162 204 268 326 399 477
#     4  11  28  47  78 110 157 197 266 319 391 464
#     4  11  26  51  79 112 159 204 264 325 394 465
#     4  11  28  50  80 115 154 213 261 329 394 474
#     4  12  28  47  82 113 159 209 262 328 395 472
#     4  11  26  49  73 111 153 203 258 326 386 469
#     4  12  26  45  76 110 148 201 256 320 394 465
#     4  12  28  48  80 114 158 210 259 324 395 470
#
# _framework density 24.130679000000001
#
# number of rings (size 3 to 8) (size 9 to 14) (size 15 to 20)
#    0.000    0.500    2.500    3.375   12.250    2.500 
#    0.000    0.000    0.000    0.000    0.000    0.000 
#    0.000    0.000    0.000    0.000    0.000    0.000 
#
# Total GULP energy -89403.188099 kJ/mol
# GULP energy per Si atom -5587.699256 kJ/mol
# Density = 2.407576 g / cm^3
# Si number density = 24.130679 Si / 1000 Ang^3
#
#
#
# Elastic Constant Matrix: (Units=GPa)
#
#
# Indices 1 2 3 4 5 6 
#
# 1 91.8721 30.5276 39.9088 0.7903 20.0109 8.2561
# 2 30.5276 157.0311 32.2583 4.1031 17.9419 12.9210
# 3 39.9088 32.2583 191.0162 10.0379 31.9409 15.3241
# 4 0.7903 4.1031 10.0379 51.3262 8.8977 7.9328
# 5 20.0109 17.9419 31.9409 8.8977 43.0807 5.0764
# 6 8.2561 12.9210 15.3241 7.9328 5.0764 45.3389
#
#
#
# Elastic Compliance Matrix: (Units=1/GPa)
#
#
# Indices 1 2 3 4 5 6 
#
# 1 0.013210 -0.001665 -0.001741 0.001176 -0.004268 -0.001070
# 2 -0.001665 0.007091 -0.000459 0.000055 -0.001688 -0.001383
# 3 -0.001741 -0.000459 0.006383 -0.000384 -0.003506 -0.001250
# 4 0.001176 0.000055 -0.000384 0.020766 -0.004189 -0.003264
# 5 -0.004268 -0.001688 -0.003506 -0.004189 0.029376 -0.000113
# 6 -0.001070 -0.001383 -0.001250 -0.003264 -0.000113 0.023651
#
#
# Mechanical properties :
#
#
# Convention : Reuss Voigt Hill
#
# Bulk Modulus (GPa) = 52.76102 71.70099 62.23101
# Shear Modulus (GPa) = 43.65761 50.43080 47.04420
#
# Velocity S-wave (km/s) = 4.25810 4.57651 4.42017
# Velocity P-wave (km/s) = 6.78877 7.59632 7.20387
#
# Compressibility (1/GPa) = 0.01895338
#
# Stress axis : x y z
#
# Youngs Moduli (GPa) = 75.69950 141.01400 156.66203
#
# Poissons Ratio (x) = 0.23485 0.27273
# Poissons Ratio (y) = 0.12607 0.07197
# Poissons Ratio (z) = 0.13178 0.06478
#
# Static dielectric constant tensor:
#      x y z
#    x 1.952800 -0.056700 -0.039270 
#    y -0.056700 1.951510 -0.027950 
#    z -0.039270 -0.027950 1.833170 
# 
# From -- ./inp_files/551014.got.cif
#   From: 2010.05.17/outbox.cif.g08.bks.cpg/sg2_276_cif.got.tgz:551014.got - 2010.06.03 11:33:40.
