data_PCOD9068262
_publ_section_title
;
Structure prediction by ZEFSAII (Michael W. Deem and Ramdas Pophale) SiO2 
 PCOD9068262
Probable space group: P -1
;
_chemical_formula_sum "Si O2"
_cell_formula_units_Z 16
_cell_length_a 15.927188
_cell_length_b 14.489542
_cell_length_c 15.577818
_cell_angle_alpha 151.699060
_cell_angle_beta 153.364901
_cell_angle_gamma 46.891933
_cell_volume 667.064745
_symmetry_space_group_name_H-M "P -1"
_symmetry_group_IT_number 2
_symmetry_cell_setting 'triclinic'
loop_
_space_group_symop_operation_xyz
x,y,z
-x,-y,-z
loop_
_atom_site_type_symbol
_atom_site_label
_atom_site_fract_x
_atom_site_fract_y
_atom_site_fract_z
Si Si1 0.222146 0.783662 0.631234
Si Si2 0.851178 0.862490 0.378095
Si Si3 0.935910 0.676997 0.623539
Si Si4 0.279516 0.164273 0.574850
Si Si5 0.455270 0.606232 0.361162
Si Si6 0.646219 0.147057 0.383851
Si Si7 0.577332 0.001249 0.668987
Si Si8 0.907002 0.670362 0.791929
O O1 0.305976 0.773239 0.605113
O O2 0.068858 0.535377 0.319955
O O3 0.088483 0.914135 0.614801
O O4 0.419929 0.917097 0.985122
O O5 0.787241 0.781336 0.350937
O O6 0.818463 0.075071 0.511339
O O7 0.691453 0.654229 0.003749
O O8 0.760833 0.699278 0.424482
O O9 0.867954 0.635614 0.626112
O O10 0.000000 0.500000 0.500000
O O11 0.167574 0.903887 0.017635
O O12 0.504783 0.164630 0.783691
O O13 0.110414 0.906163 0.189091
O O14 0.372683 0.685101 0.431494
O O15 0.698678 0.656063 0.634955
O O16 0.467298 0.764074 0.421643
O O17 0.500000 0.000000 0.500000
#
# Coordination Sequence:
#
# PCOD9068262 Si02
#       8
#     2   2   2   2   2   2   2   2
#     4  11  26  48  78 103 144 184 239 294 364 425
#     4  12  26  47  75 108 141 187 241 294 358 423
#     4  12  28  43  69 104 146 190 238 288 354 422
#     4  12  25  45  71 101 144 191 233 292 352 418
#     4  12  26  46  76 103 150 185 236 299 351 424
#     4  11  26  52  72 108 141 188 236 300 358 424
#     4  12  25  45  70 102 143 187 239 288 345 423
#     4  12  24  48  71 105 144 191 236 294 357 422
#
# _framework density 23.985678
#
# number of rings (size 3 to 8) (size 9 to 14) (size 15 to 20)
#    0.000    0.250    5.000    3.750    5.250    1.500 
#    2.250    0.000    0.000    0.000    0.000    0.000 
#    0.000    0.000    0.000    0.000    0.000    0.000 
#
# Total GULP energy -89719.981454 kJ/mol
# GULP energy per Si atom -5607.498841 kJ/mol
# Density = 2.393109 g / cm^3
# Si number density = 23.985678 Si / 1000 Ang^3
#
#
#
# Elastic Constant Matrix: (Units=GPa)
#
#
# Indices 1 2 3 4 5 6 
#
# 1 118.1288 5.8027 17.6878 6.7009 -25.0781 -20.8545
# 2 5.8027 75.5902 14.7060 -5.4896 3.3159 -23.1805
# 3 17.6878 14.7060 32.9504 4.9587 -8.2550 -5.2127
# 4 6.7009 -5.4896 4.9587 34.2880 -8.6452 2.0601
# 5 -25.0781 3.3159 -8.2550 -8.6452 29.8070 -0.0552
# 6 -20.8545 -23.1805 -5.2127 2.0601 -0.0552 42.0817
#
#
#
# Elastic Compliance Matrix: (Units=1/GPa)
#
#
# Indices 1 2 3 4 5 6 
#
# 1 0.011947 0.001361 -0.003851 0.000322 0.008939 0.006190
# 2 0.001361 0.017894 -0.008215 0.002633 -0.002339 0.009382
# 3 -0.003851 -0.008215 0.038248 -0.004231 0.007037 -0.001479
# 4 0.000322 0.002633 -0.004231 0.032219 0.008150 -0.000481
# 5 0.008939 -0.002339 0.007037 0.008150 0.045649 0.003674
# 6 0.006190 0.009382 -0.001479 -0.000481 0.003674 0.031844
#
#
# Mechanical properties :
#
#
# Convention : Reuss Voigt Hill
#
# Bulk Modulus (GPa) = 21.42247 33.67359 27.54803
# Shear Modulus (GPa) = 23.28072 33.80018 28.54045
#
# Velocity S-wave (km/s) = 3.11884 3.75798 3.45323
# Velocity P-wave (km/s) = 4.68191 5.73580 5.23544
#
# Compressibility (1/GPa) = 0.04667996
#
# Stress axis : x y z
#
# Youngs Moduli (GPa) = 83.70225 55.88506 26.14525
#
# Poissons Ratio (x) = -0.07608 0.10068
# Poissons Ratio (y) = -0.11395 0.21479
# Poissons Ratio (z) = 0.32231 0.45910
#
# Static dielectric constant tensor:
#      x y z
#    x 1.889470 -0.005870 0.018410 
#    y -0.005870 1.905770 -0.010700 
#    z 0.018410 -0.010700 1.905460 
# 
# From -- ./inp_files/505047.got.cif
#   From: 2010.05.17/outbox.cif.g08.bks.cpg/sg2_253_cif.got.tgz:505047.got - 2010.06.03 11:33:40.
