data_PCOD9068915
_publ_section_title
;
Structure prediction by ZEFSAII (Michael W. Deem and Ramdas Pophale) SiO2 
 PCOD9068915
Probable space group: P -1
;
_chemical_formula_sum "Si O2"
_cell_formula_units_Z 15
_cell_length_a 9.341887
_cell_length_b 14.945009
_cell_length_c 14.952317
_cell_angle_alpha 148.689265
_cell_angle_beta 70.560319
_cell_angle_gamma 132.936607
_cell_volume 600.211028
_symmetry_space_group_name_H-M "P -1"
_symmetry_group_IT_number 2
_symmetry_cell_setting 'triclinic'
loop_
_space_group_symop_operation_xyz
x,y,z
-x,-y,-z
loop_
_atom_site_type_symbol
_atom_site_label
_atom_site_fract_x
_atom_site_fract_y
_atom_site_fract_z
Si Si1 0.825318 0.693255 0.153151
Si Si2 0.623566 0.967270 0.883584
Si Si3 0.441852 0.197883 0.441645
Si Si4 0.913439 0.050911 0.296023
Si Si5 0.370025 0.863377 0.314154
Si Si6 0.493282 0.594535 0.856637
Si Si7 0.500000 0.500000 0.500000
Si Si8 0.070176 0.457527 0.754042
O O1 0.708108 0.657885 0.239622
O O2 0.787116 0.786802 0.158324
O O3 0.677893 0.377836 0.903987
O O4 0.133612 0.946420 0.299627
O O5 0.489073 0.780289 0.657473
O O6 0.633488 0.791487 0.775361
O O7 0.500000 0.000000 0.000000
O O8 0.875457 0.296824 0.076496
O O9 0.563355 0.489276 0.695744
O O10 0.499153 0.092340 0.404801
O O11 0.211906 0.283498 0.413606
O O12 0.924781 0.228209 0.508408
O O13 0.743306 0.903333 0.116550
O O14 0.088070 0.683977 0.242234
O O15 0.500000 0.000000 0.500000
O O16 0.329746 0.590618 0.836390
#
# Coordination Sequence:
#
# PCOD9068915 Si02
#       8
#     2   2   2   2   2   2   1   2
#     4  12  21  42  68 107 153 196 240 313 389 454
#     4  12  26  47  81 102 145 207 253 313 379 433
#     4  12  23  44  72 110 149 199 251 308 390 454
#     4  12  25  44  74 106 148 200 256 311 379 453
#     4  12  24  40  70 109 155 197 243 312 389 464
#     4  12  25  43  73 113 150 191 252 315 389 466
#     4  12  24  50  76 104 142 204 258 310 376 428
#     4  12  23  46  72 104 149 194 246 318 382 445
#
# _framework density 24.991208
#
# number of rings (size 3 to 8) (size 9 to 14) (size 15 to 20)
#    0.000    0.000    6.667    4.400    0.000    0.000 
#    0.000    3.333    2.933    0.000    0.000    0.000 
#    0.000    0.000    0.000    0.000    0.000    0.000 
#
# Total GULP energy -83740.935760 kJ/mol
# GULP energy per Si atom -5582.729051 kJ/mol
# Density = 2.493433 g / cm^3
# Si number density = 24.991208 Si / 1000 Ang^3
#
#
#
# Elastic Constant Matrix: (Units=GPa)
#
#
# Indices 1 2 3 4 5 6 
#
# 1 73.2361 10.9039 40.2702 -4.6927 -3.0941 -2.1590
# 2 10.9039 119.4885 15.7896 -15.2288 -10.6976 8.8786
# 3 40.2702 15.7896 170.7633 -26.1939 -19.6831 -1.3618
# 4 -4.6927 -15.2288 -26.1939 50.2139 8.5198 -11.9546
# 5 -3.0941 -10.6976 -19.6831 8.5198 45.6898 -9.2673
# 6 -2.1590 8.8786 -1.3618 -11.9546 -9.2673 36.6150
#
#
#
# Elastic Compliance Matrix: (Units=1/GPa)
#
#
# Indices 1 2 3 4 5 6 
#
# 1 0.015864 -0.001125 -0.003782 -0.000559 -0.000563 0.000742
# 2 -0.001125 0.008957 -0.000106 0.002033 0.001345 -0.001238
# 3 -0.003782 -0.000106 0.007641 0.003602 0.002736 0.001955
# 4 -0.000559 0.002033 0.003602 0.024267 -0.001062 0.007262
# 5 -0.000563 0.001345 0.002736 -0.001062 0.024685 0.005643
# 6 0.000742 -0.001238 0.001955 0.007262 0.005643 0.031527
#
#
# Mechanical properties :
#
#
# Convention : Reuss Voigt Hill
#
# Bulk Modulus (GPa) = 44.56922 55.26837 49.91880
# Shear Modulus (GPa) = 38.33023 46.27203 42.30113
#
# Velocity S-wave (km/s) = 3.92056 4.30761 4.11863
# Velocity P-wave (km/s) = 6.19411 6.84864 6.52958
#
# Compressibility (1/GPa) = 0.02243701
#
# Stress axis : x y z
#
# Youngs Moduli (GPa) = 63.03705 111.64220 130.87081
#
# Poissons Ratio (x) = 0.12557 0.49493
# Poissons Ratio (y) = 0.07090 0.01386
# Poissons Ratio (z) = 0.23840 0.01183
#
# Static dielectric constant tensor:
#      x y z
#    x 1.946480 0.092560 0.055680 
#    y 0.092560 1.966480 -0.018570 
#    z 0.055680 -0.018570 1.982810 
# 
# From -- ./inp_files/505769.got.cif
#   From: 2010.05.17/outbox.cif.g08.bks.cpg/sg2_253_cif.got.tgz:505769.got - 2010.06.03 11:33:40.
