data_PCOD9068035
_publ_section_title
;
Structure prediction by ZEFSAII (Michael W. Deem and Ramdas Pophale) SiO2 
 PCOD9068035
Probable space group: P -1
;
_chemical_formula_sum "Si O2"
_cell_formula_units_Z 16
_cell_length_a 9.390827
_cell_length_b 5.927201
_cell_length_c 16.134168
_cell_angle_alpha 108.501553
_cell_angle_beta 118.528205
_cell_angle_gamma 54.732160
_cell_volume 643.113825
_symmetry_space_group_name_H-M "P -1"
_symmetry_group_IT_number 2
_symmetry_cell_setting 'triclinic'
loop_
_space_group_symop_operation_xyz
x,y,z
-x,-y,-z
loop_
_atom_site_type_symbol
_atom_site_label
_atom_site_fract_x
_atom_site_fract_y
_atom_site_fract_z
Si Si1 0.749691 0.193747 0.256021
Si Si2 0.363842 0.376133 0.938847
Si Si3 0.075788 0.714129 0.542809
Si Si4 0.491556 0.300694 0.545312
Si Si5 0.639544 0.255778 0.751339
Si Si6 0.509409 0.955396 0.777235
Si Si7 0.929256 0.061378 0.117704
Si Si8 0.789391 0.740063 0.954737
O O1 0.910581 0.218237 0.349140
O O2 0.543332 0.477213 0.225011
O O3 0.681413 0.045867 0.284844
O O4 0.828564 0.048750 0.173445
O O5 0.456392 0.154375 0.865813
O O6 0.155724 0.612562 0.878856
O O7 0.500000 0.500000 0.000000
O O8 0.334604 0.269845 0.005683
O O9 0.288706 0.506618 0.550981
O O10 0.000000 0.500000 0.500000
O O11 0.000000 0.000000 0.500000
O O12 0.500000 0.500000 0.500000
O O13 0.637472 0.280531 0.655006
O O14 0.500000 0.000000 0.500000
O O15 0.571616 0.036278 0.722251
O O16 0.846199 0.122795 0.833632
O O17 0.703900 0.708759 0.841443
O O18 0.833097 0.987034 0.007628
O O19 0.000000 0.500000 0.000000
#
# Coordination Sequence:
#
# PCOD9068035 Si02
#       8
#     2   2   2   2   2   2   2   2
#     4  11  26  47  72 103 149 187 252 311 379 452
#     4  12  24  42  68  97 140 198 244 302 372 432
#     4  11  27  48  81 115 152 201 256 319 399 476
#     4  11  27  52  78 111 158 199 247 321 398 475
#     4  11  28  45  74 107 143 190 252 307 382 448
#     4  12  24  45  69  99 148 190 246 311 365 447
#     4  12  25  45  70 104 143 195 249 307 367 443
#     4  12  26  42  66 100 142 193 249 297 370 438
#
# _framework density 24.878955000000001
#
# number of rings (size 3 to 8) (size 9 to 14) (size 15 to 20)
#    0.000    0.500    3.750    3.375   12.250    1.000 
#    0.000    0.000    0.000    0.000    0.000    0.000 
#    0.000    0.000    0.000    0.000    0.000    0.000 
#
# Total GULP energy -89175.084443 kJ/mol
# GULP energy per Si atom -5573.442778 kJ/mol
# Density = 2.482233 g / cm^3
# Si number density = 24.878955 Si / 1000 Ang^3
#
#
#
# Elastic Constant Matrix: (Units=GPa)
#
#
# Indices 1 2 3 4 5 6 
#
# 1 96.2534 1.2499 23.1244 -8.8920 1.7119 14.5427
# 2 1.2499 91.5141 5.8819 -16.0416 7.1627 -14.1761
# 3 23.1244 5.8819 93.8560 -7.0541 11.5917 13.5738
# 4 -8.8920 -16.0416 -7.0541 34.3483 9.8997 3.9898
# 5 1.7119 7.1627 11.5917 9.8997 44.2672 -5.3336
# 6 14.5427 -14.1761 13.5738 3.9898 -5.3336 49.2597
#
#
#
# Elastic Compliance Matrix: (Units=1/GPa)
#
#
# Indices 1 2 3 4 5 6 
#
# 1 0.011696 0.000144 -0.002035 0.003367 -0.001086 -0.003241
# 2 0.000144 0.012772 -0.000387 0.006473 -0.003071 0.002883
# 3 -0.002035 -0.000387 0.012528 0.003562 -0.004385 -0.003726
# 4 0.003367 0.006473 0.003562 0.037413 -0.010999 -0.004334
# 5 -0.001086 -0.003071 -0.004385 -0.010999 0.027278 0.004490
# 6 -0.003241 0.002883 -0.003726 -0.004334 0.004490 0.023951
#
#
# Mechanical properties :
#
#
# Convention : Reuss Voigt Hill
#
# Bulk Modulus (GPa) = 30.82522 38.01510 34.42016
# Shear Modulus (GPa) = 35.45905 42.33288 38.89596
#
# Velocity S-wave (km/s) = 3.77936 4.12946 3.95829
# Velocity P-wave (km/s) = 5.60908 6.16845 5.89540
#
# Compressibility (1/GPa) = 0.03244096
#
# Stress axis : x y z
#
# Youngs Moduli (GPa) = 85.49723 78.29793 79.81869
#
# Poissons Ratio (x) = -0.01129 0.16242
# Poissons Ratio (y) = -0.01233 0.03090
# Poissons Ratio (z) = 0.17397 0.03031
#
# Static dielectric constant tensor:
#      x y z
#    x 2.504740 -0.573960 -0.145520 
#    y -0.573960 3.616150 0.327610 
#    z -0.145520 0.327610 2.165350 
# 
# From -- ./inp_files/553653.got.cif
#   From: 2010.05.17/outbox.cif.g08.bks.cpg/sg2_277_cif.got.tgz:553653.got - 2010.06.03 11:33:40.
