data_PCOD9068661
_publ_section_title
;
Structure prediction by ZEFSAII (Michael W. Deem and Ramdas Pophale) SiO2 
 PCOD9068661
Probable space group: P -1
;
_chemical_formula_sum "Si O2"
_cell_formula_units_Z 14
_cell_length_a 7.213090
_cell_length_b 9.978800
_cell_length_c 11.665813
_cell_angle_alpha 110.434524
_cell_angle_beta 39.564475
_cell_angle_gamma 112.893891
_cell_volume 490.964198
_symmetry_space_group_name_H-M "P -1"
_symmetry_group_IT_number 2
_symmetry_cell_setting 'triclinic'
loop_
_space_group_symop_operation_xyz
x,y,z
-x,-y,-z
loop_
_atom_site_type_symbol
_atom_site_label
_atom_site_fract_x
_atom_site_fract_y
_atom_site_fract_z
Si Si1 0.700069 0.133533 0.884816
Si Si2 0.187717 0.001689 0.526427
Si Si3 0.108331 0.174081 0.987441
Si Si4 0.767653 0.215110 0.371035
Si Si5 0.200803 0.470561 0.501778
Si Si6 0.265375 0.636084 0.902652
Si Si7 0.398608 0.652394 0.128578
O O1 0.555447 0.156656 0.839055
O O2 0.023888 0.101961 0.716982
O O3 0.658656 0.300357 0.984783
O O4 0.500000 0.000000 0.000000
O O5 0.522397 0.087824 0.394001
O O6 0.159090 0.848450 0.560049
O O7 0.000000 0.000000 0.500000
O O8 0.056223 0.235112 0.159393
O O9 0.839641 0.222142 0.054629
O O10 0.376254 0.305189 0.853345
O O11 0.000000 0.000000 0.000000
O O12 0.664154 0.368051 0.466884
O O13 0.456429 0.392749 0.309332
O O14 0.000000 0.500000 0.500000
O O15 0.955821 0.388538 0.682663
O O16 0.000000 0.500000 0.000000
O O17 0.500000 0.500000 0.000000
#
# Coordination Sequence:
#
# PCOD9068661 Si02
#       7
#     2   2   2   2   2   2   2
#     4  12  28  48  76 112 160 203 275 334 412 496
#     4  11  28  50  81 117 162 218 278 345 427 505
#     4  12  27  50  80 117 164 215 274 350 423 499
#     4  11  27  50  79 119 165 212 281 352 414 504
#     4  12  28  47  85 116 167 218 287 344 427 500
#     4  12  28  51  80 116 162 220 277 341 422 503
#     4  12  26  49  78 113 161 213 270 343 419 491
#
# _framework density 28.515319000000002
#
# number of rings (size 3 to 8) (size 9 to 14) (size 15 to 20)
#    0.000    0.286    1.429    6.000   10.000    2.857 
#    0.000    0.714    0.000    0.000    0.000    0.000 
#    0.000    0.000    0.000    0.000    0.000    0.000 
#
# Total GULP energy -78234.614173 kJ/mol
# GULP energy per Si atom -5588.186727 kJ/mol
# Density = 2.845042 g / cm^3
# Si number density = 28.515319 Si / 1000 Ang^3
#
#
#
# Elastic Constant Matrix: (Units=GPa)
#
#
# Indices 1 2 3 4 5 6 
#
# 1 90.1469 72.9567 8.8323 -13.5462 15.8494 21.2921
# 2 72.9567 239.0878 81.3043 5.0588 -13.1705 -8.8338
# 3 8.8323 81.3043 188.1109 13.3031 -3.7458 8.4751
# 4 -13.5462 5.0588 13.3031 53.5626 -3.4905 -0.2837
# 5 15.8494 -13.1705 -3.7458 -3.4905 33.3678 -14.3742
# 6 21.2921 -8.8338 8.4751 -0.2837 -14.3742 54.5624
#
#
#
# Elastic Compliance Matrix: (Units=1/GPa)
#
#
# Indices 1 2 3 4 5 6 
#
# 1 0.037081 -0.016131 0.005249 0.007226 -0.034211 -0.026873
# 2 -0.016131 0.012185 -0.004568 -0.002883 0.017504 0.013574
# 3 0.005249 -0.004568 0.007204 -0.000443 -0.005886 -0.005460
# 4 0.007226 -0.002883 -0.000443 0.020577 -0.004295 -0.004242
# 5 -0.034211 0.017504 -0.005886 -0.004295 0.066975 0.034721
# 6 -0.026873 0.013574 -0.005460 -0.004242 0.034721 0.040985
#
#
# Mechanical properties :
#
#
# Convention : Reuss Voigt Hill
#
# Bulk Modulus (GPa) = 39.10645 93.72581 66.41613
# Shear Modulus (GPa) = 22.27858 51.91537 37.09697
#
# Velocity S-wave (km/s) = 2.79818 4.27149 3.61078
# Velocity P-wave (km/s) = 4.91769 7.56753 6.38166
#
# Compressibility (1/GPa) = 0.02557123
#
# Stress axis : x y z
#
# Youngs Moduli (GPa) = 26.96772 82.06789 138.80969
#
# Poissons Ratio (x) = 1.32381 -0.72865
# Poissons Ratio (y) = 0.43501 0.63412
# Poissons Ratio (z) = -0.14156 0.37491
#
# Static dielectric constant tensor:
#      x y z
#    x 5.277920 1.156490 0.851250 
#    y 1.156490 2.002540 -0.678250 
#    z 0.851250 -0.678250 0.988590 
# 
# From -- ./inp_files/493266.got.cif
#   From: 2010.05.17/outbox.cif.g08.bks.cpg/sg2_247_cif.got.tgz:493266.got - 2010.06.03 11:33:40.
