data_PCOD9068067
_publ_section_title
;
Structure prediction by ZEFSAII (Michael W. Deem and Ramdas Pophale) SiO2 
 PCOD9068067
Probable space group: P -1
;
_chemical_formula_sum "Si O2"
_cell_formula_units_Z 14
_cell_length_a 15.144190
_cell_length_b 12.720392
_cell_length_c 9.992864
_cell_angle_alpha 41.270875
_cell_angle_beta 124.052235
_cell_angle_gamma 150.775231
_cell_volume 591.782952
_symmetry_space_group_name_H-M "P -1"
_symmetry_group_IT_number 2
_symmetry_cell_setting 'triclinic'
loop_
_space_group_symop_operation_xyz
x,y,z
-x,-y,-z
loop_
_atom_site_type_symbol
_atom_site_label
_atom_site_fract_x
_atom_site_fract_y
_atom_site_fract_z
Si Si1 0.497148 0.836511 0.240896
Si Si2 0.760390 0.666686 0.302109
Si Si3 0.118625 0.567424 0.918088
Si Si4 0.438584 0.700552 0.768803
Si Si5 0.502536 0.374442 0.818061
Si Si6 0.096862 0.156054 0.292500
Si Si7 0.827424 0.310869 0.433708
O O1 0.327490 0.583567 0.439917
O O2 0.515974 0.731816 0.239387
O O3 0.680947 0.094844 0.236700
O O4 0.500000 0.000000 0.000000
O O5 0.687849 0.562401 0.188248
O O6 0.662744 0.705686 0.234371
O O7 0.976633 0.957174 0.251152
O O8 0.049629 0.525491 0.753818
O O9 0.000000 0.500000 0.000000
O O10 0.133524 0.393417 0.104133
O O11 0.303087 0.690038 0.664918
O O12 0.651731 0.971447 0.628820
O O13 0.480007 0.707323 0.952352
O O14 0.710952 0.706947 0.675093
O O15 0.000000 0.000000 0.500000
O O16 0.000000 0.500000 0.500000
#
# Coordination Sequence:
#
# PCOD9068067 Si02
#       7
#     2   2   2   2   2   2   2
#     4  12  23  46  73 102 143 190 241 298 353 418
#     4  12  27  46  74 105 147 197 233 296 372 423
#     4  12  26  46  73 108 139 186 247 296 357 429
#     4  11  26  49  72 106 148 191 243 297 360 438
#     4  12  26  46  74 105 149 188 243 298 361 433
#     4  12  26  46  69 107 147 183 239 301 354 427
#     4  11  26  47  74 107 147 187 245 306 358 423
#
# _framework density 23.657321
#
# number of rings (size 3 to 8) (size 9 to 14) (size 15 to 20)
#    0.000    0.286    5.714    1.714    8.000    2.857 
#    0.000    0.000    0.000    0.000    0.000    0.000 
#    0.000    0.000    0.000    0.000    0.000    0.000 
#
# Total GULP energy -78117.810008 kJ/mol
# GULP energy per Si atom -5579.843572 kJ/mol
# Density = 2.360348 g / cm^3
# Si number density = 23.657321 Si / 1000 Ang^3
#
#
#
# Elastic Constant Matrix: (Units=GPa)
#
#
# Indices 1 2 3 4 5 6 
#
# 1 26.4519 -1.6925 11.2675 -5.2641 -11.8314 -6.9541
# 2 -1.6925 108.8388 19.1329 3.8856 9.6890 -17.6548
# 3 11.2675 19.1329 94.1447 21.1169 -18.9166 -4.1177
# 4 -5.2641 3.8856 21.1169 39.6678 -1.6500 -3.0846
# 5 -11.8314 9.6890 -18.9166 -1.6500 29.9932 8.1893
# 6 -6.9541 -17.6548 -4.1177 -3.0846 8.1893 26.3368
#
#
#
# Elastic Compliance Matrix: (Units=1/GPa)
#
#
# Indices 1 2 3 4 5 6 
#
# 1 0.051703 0.002051 -0.005911 0.011242 0.013564 0.011202
# 2 0.002051 0.012615 -0.004598 0.001987 -0.009158 0.011360
# 3 -0.005911 -0.004598 0.016124 -0.008980 0.010595 -0.006469
# 4 0.011242 0.001987 -0.008980 0.031765 -0.002109 0.007272
# 5 0.013564 -0.009158 0.010595 -0.002109 0.053032 -0.017638
# 6 0.011202 0.011360 -0.006469 0.007272 -0.017638 0.053867
#
#
# Mechanical properties :
#
#
# Convention : Reuss Voigt Hill
#
# Bulk Modulus (GPa) = 15.74157 31.87236 23.80697
# Shear Modulus (GPa) = 19.44026 32.58138 26.01082
#
# Velocity S-wave (km/s) = 2.86972 3.71512 3.31944
# Velocity P-wave (km/s) = 4.20105 5.64841 4.97762
#
# Compressibility (1/GPa) = 0.06352605
#
# Stress axis : x y z
#
# Youngs Moduli (GPa) = 19.34129 79.26962 62.01891
#
# Poissons Ratio (x) = -0.16261 0.36660
# Poissons Ratio (y) = -0.03967 0.28518
# Poissons Ratio (z) = 0.11433 0.36450
#
# Static dielectric constant tensor:
#      x y z
#    x 1.889560 -0.059180 0.032810 
#    y -0.059180 2.034750 0.068090 
#    z 0.032810 0.068090 2.138650 
# 
# From -- ./inp_files/306560.got.cif
#   From: 2010.05.17/outbox.cif.g08.bks.cpg/sg2_154_cif.got.tgz:306560.got - 2010.06.03 11:33:40.
