data_PCOD9068292
_publ_section_title
;
Structure prediction by ZEFSAII (Michael W. Deem and Ramdas Pophale) SiO2 
 PCOD9068292
Probable space group: P -1
;
_chemical_formula_sum "Si O2"
_cell_formula_units_Z 14
_cell_length_a 11.631502
_cell_length_b 5.055666
_cell_length_c 10.823781
_cell_angle_alpha 107.533940
_cell_angle_beta 99.908988
_cell_angle_gamma 113.771341
_cell_volume 523.066759
_symmetry_space_group_name_H-M "P -1"
_symmetry_group_IT_number 2
_symmetry_cell_setting 'triclinic'
loop_
_space_group_symop_operation_xyz
x,y,z
-x,-y,-z
loop_
_atom_site_type_symbol
_atom_site_label
_atom_site_fract_x
_atom_site_fract_y
_atom_site_fract_z
Si Si1 0.208469 0.726085 0.893613
Si Si2 0.413770 0.426428 0.097332
Si Si3 0.083446 0.829767 0.632238
Si Si4 0.953022 0.135831 0.807164
Si Si5 0.405634 0.657614 0.486602
Si Si6 0.666505 0.562312 0.300256
Si Si7 0.211080 0.505360 0.204935
O O1 0.137302 0.782775 0.768291
O O2 0.089586 0.454511 0.912202
O O3 0.295958 0.583025 0.830180
O O4 0.305926 0.057155 0.020088
O O5 0.523806 0.528527 0.238588
O O6 0.500000 0.500000 0.000000
O O7 0.323225 0.588459 0.132567
O O8 0.000000 0.500000 0.500000
O O9 0.994920 0.996123 0.676609
O O10 0.212494 0.082883 0.616582
O O11 0.098443 0.137340 0.137897
O O12 0.500000 0.500000 0.500000
O O13 0.345762 0.635572 0.608240
O O14 0.286208 0.511283 0.346994
O O15 0.847766 0.254936 0.771703
O O16 0.500000 0.000000 0.500000
#
# Coordination Sequence:
#
# PCOD9068292 Si02
#       7
#     2   2   2   2   2   2   2
#     4  11  26  48  82 116 166 214 276 338 405 494
#     4  12  27  52  84 120 163 221 279 338 412 493
#     4  11  26  50  84 122 166 217 273 342 409 497
#     4  11  27  53  76 122 158 215 275 331 420 477
#     4  12  28  49  77 116 164 213 269 330 421 484
#     4  11  27  48  82 123 164 216 276 345 414 495
#     4  12  28  51  82 116 170 210 272 347 405 494
#
# _framework density 26.765224
#
# number of rings (size 3 to 8) (size 9 to 14) (size 15 to 20)
#    0.000    0.571    4.286    1.286    8.000    3.429 
#    0.000    2.143    0.000    0.000    0.000    0.000 
#    0.000    0.000    0.000    0.000    0.000    0.000 
#
# Total GULP energy -78623.986156 kJ/mol
# GULP energy per Si atom -5615.999011 kJ/mol
# Density = 2.670431 g / cm^3
# Si number density = 26.765224 Si / 1000 Ang^3
#
#
#
# Elastic Constant Matrix: (Units=GPa)
#
#
# Indices 1 2 3 4 5 6 
#
# 1 209.8846 75.3227 70.3605 9.1699 4.4663 -22.8299
# 2 75.3227 192.1583 67.8095 11.0233 6.7132 5.6798
# 3 70.3605 67.8095 143.0127 12.2221 21.9579 9.5014
# 4 9.1699 11.0233 12.2221 53.1128 6.4536 -0.5980
# 5 4.4663 6.7132 21.9579 6.4536 38.3018 -9.0215
# 6 -22.8299 5.6798 9.5014 -0.5980 -9.0215 64.5992
#
#
#
# Elastic Compliance Matrix: (Units=1/GPa)
#
#
# Indices 1 2 3 4 5 6 
#
# 1 0.006708 -0.001725 -0.002985 -0.000326 0.002050 0.003245
# 2 -0.001725 0.006734 -0.002271 -0.000614 0.000228 -0.000841
# 3 -0.002985 -0.002271 0.010754 -0.000789 -0.006061 -0.003291
# 4 -0.000326 -0.000614 -0.000789 0.019523 -0.002726 -0.000145
# 5 0.002050 0.000228 -0.006061 -0.002726 0.031159 0.005922
# 6 0.003245 -0.000841 -0.003291 -0.000145 0.005922 0.018010
#
#
# Mechanical properties :
#
#
# Convention : Reuss Voigt Hill
#
# Bulk Modulus (GPa) = 97.70618 108.00454 102.85536
# Shear Modulus (GPa) = 45.34759 53.30695 49.32727
#
# Velocity S-wave (km/s) = 4.12062 4.46763 4.29763
# Velocity P-wave (km/s) = 7.69568 8.18860 7.94596
#
# Compressibility (1/GPa) = 0.01023477
#
# Stress axis : x y z
#
# Youngs Moduli (GPa) = 149.08343 148.50882 92.98676
#
# Poissons Ratio (x) = 0.25615 0.27754
# Poissons Ratio (y) = 0.25715 0.21115
# Poissons Ratio (z) = 0.44498 0.33722
#
# Static dielectric constant tensor:
#      x y z
#    x 2.130970 0.001810 0.015570 
#    y 0.001810 2.080910 -0.022400 
#    z 0.015570 -0.022400 2.114950 
# 
# From -- ./inp_files/79587.got.cif
#   From: 2010.05.17/outbox.cif.g08.bks.cpg/sg2_40_cif.got.tgz:79587.got - 2010.06.03 11:33:40.
