data_PCOD9068154
_publ_section_title
;
Structure prediction by ZEFSAII (Michael W. Deem and Ramdas Pophale) SiO2 
 PCOD9068154
Probable space group: P -1
;
_chemical_formula_sum "Si O2"
_cell_formula_units_Z 12
_cell_length_a 9.221495
_cell_length_b 11.433218
_cell_length_c 15.437343
_cell_angle_alpha 140.923874
_cell_angle_beta 47.542109
_cell_angle_gamma 153.132943
_cell_volume 462.776696
_symmetry_space_group_name_H-M "P -1"
_symmetry_group_IT_number 2
_symmetry_cell_setting 'triclinic'
loop_
_space_group_symop_operation_xyz
x,y,z
-x,-y,-z
loop_
_atom_site_type_symbol
_atom_site_label
_atom_site_fract_x
_atom_site_fract_y
_atom_site_fract_z
Si Si1 0.706364 0.637817 0.407300
Si Si2 0.126008 0.758356 0.036932
Si Si3 0.894408 0.756034 0.844292
Si Si4 0.747751 0.787498 0.287178
Si Si5 0.891824 0.424927 0.768731
Si Si6 0.222946 0.850789 0.617275
O O1 0.500000 0.500000 0.500000
O O2 0.599016 0.610530 0.337455
O O3 0.860825 0.551173 0.296546
O O4 0.000000 0.000000 0.500000
O O5 0.908455 0.570831 0.930129
O O6 0.000000 0.500000 0.000000
O O7 0.059605 0.897664 0.199233
O O8 0.500000 0.000000 0.000000
O O9 0.515542 0.466828 0.823297
O O10 0.010221 0.646773 0.772395
O O11 0.035226 0.866322 0.756329
O O12 0.000000 0.000000 0.000000
O O13 0.750403 0.015126 0.407483
O O14 0.555081 0.090561 0.676467
O O15 0.000000 0.500000 0.500000
#
# Coordination Sequence:
#
# PCOD9068154 Si02
#       6
#     2   2   2   2   2   2
#     4  12  32  50  81 117 167 216 273 335 414 493
#     4  12  28  49  85 123 166 212 275 343 422 492
#     4  11  26  47  84 113 164 210 277 339 417 488
#     4  11  28  52  80 123 160 216 276 345 416 496
#     4  11  28  50  78 123 160 213 278 343 413 495
#     4  11  28  50  84 115 165 220 278 344 415 495
#
# _framework density 25.930432
#
# number of rings (size 3 to 8) (size 9 to 14) (size 15 to 20)
#    0.000    0.667    1.667    2.000   18.667    4.000 
#    0.000    2.500    0.000    0.000    0.000    0.000 
#    0.000    0.000    0.000    0.000    0.000    0.000 
#
# Total GULP energy -67084.739211 kJ/mol
# GULP energy per Si atom -5590.394934 kJ/mol
# Density = 2.587141 g / cm^3
# Si number density = 25.930432 Si / 1000 Ang^3
#
#
#
# Elastic Constant Matrix: (Units=GPa)
#
#
# Indices 1 2 3 4 5 6 
#
# 1 158.6492 59.9735 38.8833 11.3194 6.8574 -21.4089
# 2 59.9735 160.0322 69.9188 6.8153 10.4215 -19.7127
# 3 38.8833 69.9188 161.6893 9.7631 13.6237 5.3311
# 4 11.3194 6.8153 9.7631 48.4710 -6.3819 -0.2549
# 5 6.8574 10.4215 13.6237 -6.3819 29.1428 -1.9321
# 6 -21.4089 -19.7127 5.3311 -0.2549 -1.9321 37.9575
#
#
#
# Elastic Compliance Matrix: (Units=1/GPa)
#
#
# Indices 1 2 3 4 5 6 
#
# 1 0.007911 -0.001976 -0.001012 -0.001448 -0.000765 0.003529
# 2 -0.001976 0.009084 -0.003495 -0.000213 -0.000928 0.004045
# 3 -0.001012 -0.003495 0.008397 -0.001376 -0.002986 -0.003727
# 4 -0.001448 -0.000213 -0.001376 0.022047 0.005869 -0.000287
# 5 -0.000765 -0.000928 -0.002986 0.005869 0.037603 0.001460
# 6 0.003529 0.004045 -0.003727 -0.000287 0.001460 0.031033
#
#
# Mechanical properties :
#
#
# Convention : Reuss Voigt Hill
#
# Bulk Modulus (GPa) = 80.48636 90.88021 85.68329
# Shear Modulus (GPa) = 37.54166 43.88728 40.71447
#
# Velocity S-wave (km/s) = 3.80910 4.11846 3.96680
# Velocity P-wave (km/s) = 7.10299 7.59865 7.35499
#
# Compressibility (1/GPa) = 0.01242446
#
# Stress axis : x y z
#
# Youngs Moduli (GPa) = 126.40634 110.07993 119.08680
#
# Poissons Ratio (x) = 0.21754 0.12056
# Poissons Ratio (y) = 0.24981 0.41626
# Poissons Ratio (z) = 0.12797 0.38478
#
# Static dielectric constant tensor:
#      x y z
#    x 2.404710 -0.200580 0.113290 
#    y -0.200580 2.160880 -0.173990 
#    z 0.113290 -0.173990 2.046300 
# 
# From -- ./inp_files/500951.got.cif
#   From: 2010.05.17/outbox.cif.g08.bks.cpg/sg2_251_cif.got.tgz:500951.got - 2010.06.03 11:33:40.
