data_PCOD9068544
_publ_section_title
;
Structure prediction by ZEFSAII (Michael W. Deem and Ramdas Pophale) SiO2 
 PCOD9068544
Probable space group: P -1
;
_chemical_formula_sum "Si O2"
_cell_formula_units_Z 14
_cell_length_a 13.043767
_cell_length_b 5.292994
_cell_length_c 11.242678
_cell_angle_alpha 125.077997
_cell_angle_beta 68.534485
_cell_angle_gamma 93.443018
_cell_volume 579.542290
_symmetry_space_group_name_H-M "P -1"
_symmetry_group_IT_number 2
_symmetry_cell_setting 'triclinic'
loop_
_space_group_symop_operation_xyz
x,y,z
-x,-y,-z
loop_
_atom_site_type_symbol
_atom_site_label
_atom_site_fract_x
_atom_site_fract_y
_atom_site_fract_z
Si Si1 0.384555 0.240964 0.088419
Si Si2 0.555939 0.076033 0.252976
Si Si3 0.929683 0.289323 0.321293
Si Si4 0.167185 0.178802 0.307188
Si Si5 0.897548 0.611687 0.163404
Si Si6 0.340498 0.321497 0.684513
Si Si7 0.332016 0.938660 0.350943
O O1 0.270811 0.174359 0.174691
O O2 0.395933 0.581051 0.222440
O O3 0.500000 0.000000 0.000000
O O4 0.380236 0.193447 0.935789
O O5 0.598399 0.399462 0.305343
O O6 0.583421 0.929723 0.331345
O O7 0.421834 0.123572 0.303885
O O8 0.867260 0.509184 0.512274
O O9 0.929543 0.476776 0.247272
O O10 0.056171 0.154120 0.276647
O O11 0.873062 0.988260 0.256590
O O12 0.220059 0.933276 0.320718
O O13 0.778172 0.517917 0.161897
O O14 0.000000 0.500000 0.000000
O O15 0.307266 0.121998 0.533499
#
# Coordination Sequence:
#
# PCOD9068544 Si02
#       7
#     2   2   2   2   2   2   2
#     4  12  27  47  76 113 157 196 252 317 382 445
#     4  12  28  46  74 112 152 195 248 307 378 451
#     4  11  27  50  74 111 141 199 257 313 365 443
#     4  11  27  45  79 103 151 194 255 312 376 440
#     4  12  27  48  75 104 151 192 253 310 379 440
#     4  12  28  49  76 107 153 204 249 303 380 455
#     4  12  26  49  77 110 155 200 254 307 375 463
#
# _framework density 24.156991999999999
#
# number of rings (size 3 to 8) (size 9 to 14) (size 15 to 20)
#    0.000    0.286    2.857    4.286   10.000    1.143 
#    0.000    0.000    0.000    0.000    0.000    0.000 
#    0.000    0.000    0.000    0.000    0.000    0.000 
#
# Total GULP energy -78321.298918 kJ/mol
# GULP energy per Si atom -5594.378494 kJ/mol
# Density = 2.410201 g / cm^3
# Si number density = 24.156992 Si / 1000 Ang^3
#
#
#
# Elastic Constant Matrix: (Units=GPa)
#
#
# Indices 1 2 3 4 5 6 
#
# 1 99.3613 31.8930 24.2176 -6.8614 -16.9523 -22.2766
# 2 31.8930 100.3606 0.9744 5.3033 -13.2706 4.3249
# 3 24.2176 0.9744 58.5611 -12.6028 -37.1786 20.7662
# 4 -6.8614 5.3033 -12.6028 46.1599 1.7027 3.1801
# 5 -16.9523 -13.2706 -37.1786 1.7027 34.0644 -3.4060
# 6 -22.2766 4.3249 20.7662 3.1801 -3.4060 29.2051
#
#
#
# Elastic Compliance Matrix: (Units=1/GPa)
#
#
# Indices 1 2 3 4 5 6 
#
# 1 -0.006171 0.010584 0.060007 0.014974 0.061457 -0.043405
# 2 0.010584 0.001399 -0.041563 -0.010998 -0.035554 0.034470
# 3 0.060007 -0.041563 -0.162152 -0.035802 -0.146109 0.154083
# 4 0.014974 -0.010998 -0.035802 0.014330 -0.033319 0.033061
# 5 0.061457 -0.035554 -0.146109 -0.033319 -0.096878 0.148363
# 6 -0.043405 0.034470 0.154083 0.033061 0.148363 -0.099829
#
#
# Mechanical properties :
#
#
# Convention : Reuss Voigt Hill
#
# Bulk Modulus (GPa) = -9.18549 41.38369 16.09910
# Shear Modulus (GPa) = -11.27023 35.29905 12.01441
#
# Velocity S-wave (km/s) = -2.16230 3.82676 2.23255
# Velocity P-wave (km/s) = 3.16934 6.05754 3.65028
#
# Compressibility (1/GPa) = -0.10886733
#
# Stress axis : x y z
#
# Youngs Moduli (GPa) = -162.05728 714.98189 -6.16706
#
# Poissons Ratio (x) = -7.56734 0.37007
# Poissons Ratio (y) = 1.71521 -0.25632
# Poissons Ratio (z) = 9.72460 29.71672
#
# Static dielectric constant tensor:
#      x y z
#    x 1.953580 -0.048880 0.031250 
#    y -0.048880 1.956060 -0.055990 
#    z 0.031250 -0.055990 1.989740 
# 
# From -- ./inp_files/411362.got.cif
#   From: 2010.05.17/outbox.cif.g08.bks.cpg/sg2_206_cif.got.tgz:411362.got - 2010.06.03 11:33:40.
