data_PCOD9068727
_publ_section_title
;
Structure prediction by ZEFSAII (Michael W. Deem and Ramdas Pophale) SiO2 
 PCOD9068727
Probable space group: P -1
;
_chemical_formula_sum "Si O2"
_cell_formula_units_Z 12
_cell_length_a 11.700862
_cell_length_b 8.465269
_cell_length_c 9.092477
_cell_angle_alpha 146.916926
_cell_angle_beta 97.920131
_cell_angle_gamma 93.914634
_cell_volume 457.940727
_symmetry_space_group_name_H-M "P -1"
_symmetry_group_IT_number 2
_symmetry_cell_setting 'triclinic'
loop_
_space_group_symop_operation_xyz
x,y,z
-x,-y,-z
loop_
_atom_site_type_symbol
_atom_site_label
_atom_site_fract_x
_atom_site_fract_y
_atom_site_fract_z
Si Si1 0.295938 0.823993 0.889012
Si Si2 0.849019 0.377978 0.850072
Si Si3 0.102774 0.252164 0.573606
Si Si4 0.537514 0.249124 0.392097
Si Si5 0.579648 0.351660 0.802058
Si Si6 0.902096 0.898310 0.034424
O O1 0.203296 0.502977 0.686536
O O2 0.357207 0.806783 0.729239
O O3 0.212715 0.031998 0.001901
O O4 0.410955 0.955763 0.125720
O O5 0.717376 0.389670 0.893857
O O6 0.847851 0.027567 0.591630
O O7 0.928746 0.585397 0.159700
O O8 0.866843 0.561979 0.841751
O O9 0.978133 0.114319 0.349400
O O10 0.500000 0.500000 0.500000
O O11 0.582088 0.422798 0.686899
O O12 0.500000 0.000000 0.500000
O O13 0.500000 0.500000 0.000000
O O14 0.000000 0.000000 0.000000
#
# Coordination Sequence:
#
# PCOD9068727 Si02
#       6
#     2   2   2   2   2   2
#     4  11  28  51  84 121 162 221 276 348 409 495
#     4  12  29  52  81 118 168 213 272 337 412 487
#     4  12  28  52  81 118 164 214 272 332 413 484
#     4  11  28  50  82 116 167 213 283 337 418 489
#     4  12  29  48  80 118 161 214 268 336 413 491
#     4  12  29  53  84 120 162 220 280 339 407 490
#
# _framework density 26.204263999999998
#
# number of rings (size 3 to 8) (size 9 to 14) (size 15 to 20)
#    0.000    0.333    0.000    5.500   21.000    1.333 
#    0.000    0.000    0.000    0.000    0.000    0.000 
#    0.000    0.000    0.000    0.000    0.000    0.000 
#
# Total GULP energy -67165.495015 kJ/mol
# GULP energy per Si atom -5597.124585 kJ/mol
# Density = 2.614462 g / cm^3
# Si number density = 26.204264 Si / 1000 Ang^3
#
#
#
# Elastic Constant Matrix: (Units=GPa)
#
#
# Indices 1 2 3 4 5 6 
#
# 1 138.8582 67.4308 17.6815 18.6909 -27.5612 -4.6214
# 2 67.4308 181.8611 42.1630 23.2188 -16.8534 5.0962
# 3 17.6815 42.1630 111.9812 7.5837 -22.8840 -5.4596
# 4 18.6909 23.2188 7.5837 63.4928 7.4687 3.0627
# 5 -27.5612 -16.8534 -22.8840 7.4687 58.3092 0.2241
# 6 -4.6214 5.0962 -5.4596 3.0627 0.2241 43.9043
#
#
#
# Elastic Compliance Matrix: (Units=1/GPa)
#
#
# Indices 1 2 3 4 5 6 
#
# 1 0.009897 -0.003179 0.000773 -0.002437 0.004368 0.001655
# 2 -0.003179 0.007421 -0.002275 -0.001432 -0.000062 -0.001379
# 3 0.000773 -0.002275 0.010658 -0.001228 0.004041 0.001736
# 4 -0.002437 -0.001432 -0.001228 0.017715 -0.004311 -0.001457
# 5 0.004368 -0.000062 0.004041 -0.004311 0.021331 0.001161
# 6 0.001655 -0.001379 0.001736 -0.001457 0.001161 0.023423
#
#
# Mechanical properties :
#
#
# Convention : Reuss Voigt Hill
#
# Bulk Modulus (GPa) = 53.72555 76.36122 65.04339
# Shear Modulus (GPa) = 47.16468 53.50293 50.33381
#
# Velocity S-wave (km/s) = 4.24711 4.52349 4.38748
# Velocity P-wave (km/s) = 6.67815 7.51576 7.10930
#
# Compressibility (1/GPa) = 0.01861312
#
# Stress axis : x y z
#
# Youngs Moduli (GPa) = 101.03870 134.75829 93.82426
#
# Poissons Ratio (x) = 0.42843 -0.07250
# Poissons Ratio (y) = 0.32123 0.21344
# Poissons Ratio (z) = -0.07807 0.30656
#
# Static dielectric constant tensor:
#      x y z
#    x 2.042550 0.128240 0.005500 
#    y 0.128240 2.021230 0.173100 
#    z 0.005500 0.173100 1.988000 
# 
# From -- ./inp_files/246261.got.cif
#   From: 2010.05.17/outbox.cif.g08.bks.cpg/sg2_124_cif.got.tgz:246261.got - 2010.06.03 11:33:40.
