data_PCOD9068543
_publ_section_title
;
Structure prediction by ZEFSAII (Michael W. Deem and Ramdas Pophale) SiO2 
 PCOD9068543
Probable space group: P -1
;
_chemical_formula_sum "Si O2"
_cell_formula_units_Z 12
_cell_length_a 10.440291
_cell_length_b 11.695371
_cell_length_c 5.058003
_cell_angle_alpha 73.787382
_cell_angle_beta 69.333448
_cell_angle_gamma 51.312558
_cell_volume 449.601020
_symmetry_space_group_name_H-M "P -1"
_symmetry_group_IT_number 2
_symmetry_cell_setting 'triclinic'
loop_
_space_group_symop_operation_xyz
x,y,z
-x,-y,-z
loop_
_atom_site_type_symbol
_atom_site_label
_atom_site_fract_x
_atom_site_fract_y
_atom_site_fract_z
Si Si1 0.955200 0.103305 0.714239
Si Si2 0.778017 0.866805 0.335228
Si Si3 0.343801 0.565778 0.181619
Si Si4 0.323631 0.439097 0.827969
Si Si5 0.992799 0.435125 0.829617
Si Si6 0.514421 0.878098 0.881254
O O1 0.084804 0.147124 0.565959
O O2 0.775046 0.258058 0.791557
O O3 0.000000 0.000000 0.500000
O O4 0.000000 0.000000 0.000000
O O5 0.882893 0.741393 0.125138
O O6 0.657651 0.835407 0.590599
O O7 0.662927 0.030661 0.199525
O O8 0.343540 0.483685 0.494373
O O9 0.196443 0.552633 0.104550
O O10 0.455981 0.470698 0.884540
O O11 0.129313 0.463615 0.889911
O O12 0.435590 0.264318 0.911553
O O13 0.000000 0.500000 0.500000
O O14 0.500000 0.000000 0.000000
#
# Coordination Sequence:
#
# PCOD9068543 Si02
#       6
#     2   2   2   2   2   2
#     4  12  30  53  81 111 154 214 269 331 392 469
#     4  11  27  48  73 118 158 201 265 318 401 483
#     4  12  29  52  77 113 151 208 270 328 389 463
#     4  12  26  48  78 109 154 200 256 319 397 466
#     4  12  24  43  75 112 149 194 245 313 392 474
#     4  11  27  45  78 117 160 205 250 327 404 480
#
# _framework density 26.690331
#
# number of rings (size 3 to 8) (size 9 to 14) (size 15 to 20)
#    0.000    0.333    3.333    3.500    9.333    0.000 
#    0.000    0.000    0.000    0.000    0.000    0.000 
#    0.000    0.000    0.000    0.000    0.000    0.000 
#
# Total GULP energy -67188.464432 kJ/mol
# GULP energy per Si atom -5599.038703 kJ/mol
# Density = 2.662958 g / cm^3
# Si number density = 26.690331 Si / 1000 Ang^3
#
#
#
# Elastic Constant Matrix: (Units=GPa)
#
#
# Indices 1 2 3 4 5 6 
#
# 1 218.1785 77.2858 72.2682 27.9437 -11.9112 -9.5508
# 2 77.2858 231.1415 141.6104 -0.2372 -9.0366 -16.2283
# 3 72.2682 141.6104 185.2335 -11.6593 7.5475 -13.3418
# 4 27.9437 -0.2372 -11.6593 49.8170 9.6241 7.4189
# 5 -11.9112 -9.0366 7.5475 9.6241 71.6455 21.0125
# 6 -9.5508 -16.2283 -13.3418 7.4189 21.0125 66.7533
#
#
#
# Elastic Compliance Matrix: (Units=1/GPa)
#
#
# Indices 1 2 3 4 5 6 
#
# 1 0.006225 -0.000586 -0.002312 -0.004404 0.001728 0.000232
# 2 -0.000586 0.008582 -0.006479 -0.001538 0.001781 0.000318
# 3 -0.002312 -0.006479 0.011745 0.004512 -0.003335 0.000990
# 4 -0.004404 -0.001538 0.004512 0.024641 -0.004273 -0.001496
# 5 0.001728 0.001781 -0.003335 -0.004273 0.016803 -0.004801
# 6 0.000232 0.000318 0.000990 -0.001496 -0.004801 0.016966
#
#
# Mechanical properties :
#
#
# Convention : Reuss Voigt Hill
#
# Bulk Modulus (GPa) = 128.22164 135.20916 131.71540
# Shear Modulus (GPa) = 47.03055 60.53577 53.78316
#
# Velocity S-wave (km/s) = 4.20227 4.76760 4.49383
# Velocity P-wave (km/s) = 8.46701 9.00417 8.73972
#
# Compressibility (1/GPa) = 0.00779900
#
# Stress axis : x y z
#
# Youngs Moduli (GPa) = 160.63622 116.52529 85.14509
#
# Poissons Ratio (x) = 0.06826 0.19684
# Poissons Ratio (y) = 0.09411 0.55163
# Poissons Ratio (z) = 0.37136 0.75493
#
# Static dielectric constant tensor:
#      x y z
#    x 2.644870 0.047480 -0.013330 
#    y 0.047480 2.310060 -0.230420 
#    z -0.013330 -0.230420 2.234540 
# 
# From -- ./inp_files/68925.got.cif
#   From: 2010.05.17/outbox.cif.g08.bks.cpg/sg2_35_cif.got.tgz:68925.got - 2010.06.03 11:33:40.
