data_PCOD9068419
_publ_section_title
;
Structure prediction by ZEFSAII (Michael W. Deem and Ramdas Pophale) SiO2 
 PCOD9068419
Probable space group: P -1
;
_chemical_formula_sum "Si O2"
_cell_formula_units_Z 13
_cell_length_a 12.258695
_cell_length_b 9.357803
_cell_length_c 5.619948
_cell_angle_alpha 84.617681
_cell_angle_beta 129.826157
_cell_angle_gamma 84.381917
_cell_volume 482.297179
_symmetry_space_group_name_H-M "P -1"
_symmetry_group_IT_number 2
_symmetry_cell_setting 'triclinic'
loop_
_space_group_symop_operation_xyz
x,y,z
-x,-y,-z
loop_
_atom_site_type_symbol
_atom_site_label
_atom_site_fract_x
_atom_site_fract_y
_atom_site_fract_z
Si Si1 0.844004 0.438797 0.259495
Si Si2 0.475020 0.851716 0.599370
Si Si3 0.551550 0.362922 0.764036
Si Si4 0.000000 0.500000 0.000000
Si Si5 0.290431 0.296361 0.726491
Si Si6 0.010642 0.193818 0.806176
Si Si7 0.783092 0.985561 0.560765
O O1 0.838590 0.559058 0.452508
O O2 0.965209 0.294377 0.497916
O O3 0.872642 0.510065 0.039144
O O4 0.688190 0.398031 0.087080
O O5 0.391488 0.773717 0.305466
O O6 0.370207 0.901824 0.666018
O O7 0.834086 0.907387 0.898593
O O8 0.500000 0.000000 0.500000
O O9 0.500000 0.500000 0.500000
O O10 0.413629 0.331658 0.717817
O O11 0.012676 0.677225 0.046809
O O12 0.238326 0.149843 0.607856
O O13 0.379225 0.259031 0.101441
O O14 0.903354 0.079463 0.662997
#
# Coordination Sequence:
#
# PCOD9068419 Si02
#       7
#     2   2   2   1   2   2   2
#     4  12  28  49  83 110 155 202 265 315 383 446
#     4  12  26  46  77 114 155 200 244 317 387 454
#     4  12  27  48  80 122 153 197 257 322 381 459
#     4  12  28  54  74 114 150 210 262 316 368 452
#     4  12  27  49  80 117 156 202 251 323 389 453
#     4  11  27  50  77 110 152 207 252 321 370 459
#     4  11  26  50  76 114 158 198 259 302 394 468
#
# _framework density 26.954336999999999
#
# number of rings (size 3 to 8) (size 9 to 14) (size 15 to 20)
#    0.000    0.308    3.077    4.154   10.769    0.000 
#    0.000    3.077    0.000    0.000    0.000    0.000 
#    0.000    0.000    0.000    0.000    0.000    0.000 
#
# Total GULP energy -72591.467529 kJ/mol
# GULP energy per Si atom -5583.959041 kJ/mol
# Density = 2.689299 g / cm^3
# Si number density = 26.954337 Si / 1000 Ang^3
#
#
#
# Elastic Constant Matrix: (Units=GPa)
#
#
# Indices 1 2 3 4 5 6 
#
# 1 105.4463 63.8326 20.1191 3.3045 -2.0589 -4.8084
# 2 63.8326 190.2138 50.3189 34.0333 -3.0938 12.6743
# 3 20.1191 50.3189 59.9368 11.0082 5.3618 17.9054
# 4 3.3045 34.0333 11.0082 67.5846 -0.0339 10.6466
# 5 -2.0589 -3.0938 5.3618 -0.0339 44.0455 -6.2769
# 6 -4.8084 12.6743 17.9054 10.6466 -6.2769 39.6839
#
#
#
# Elastic Compliance Matrix: (Units=1/GPa)
#
#
# Indices 1 2 3 4 5 6 
#
# 1 0.012511 -0.004059 -0.002204 0.001216 0.001090 0.003653
# 2 -0.004059 0.008663 -0.005488 -0.003315 0.001125 0.000285
# 3 -0.002204 -0.005488 0.025721 0.000420 -0.005195 -0.011054
# 4 0.001216 -0.003315 0.000420 0.016910 -0.000732 -0.003636
# 5 0.001090 0.001125 -0.005195 -0.000732 0.024344 0.006164
# 6 0.003653 0.000285 -0.011054 -0.003636 0.006164 0.032489
#
#
# Mechanical properties :
#
#
# Convention : Reuss Voigt Hill
#
# Bulk Modulus (GPa) = 42.74589 69.34868 56.04729
# Shear Modulus (GPa) = 32.90849 45.01789 38.96319
#
# Velocity S-wave (km/s) = 3.49793 4.09119 3.80613
# Velocity P-wave (km/s) = 5.67512 6.93550 6.33672
#
# Compressibility (1/GPa) = 0.02339406
#
# Stress axis : x y z
#
# Youngs Moduli (GPa) = 79.93185 115.42960 38.87881
#
# Poissons Ratio (x) = 0.46847 0.08570
# Poissons Ratio (y) = 0.32441 0.21335
# Poissons Ratio (z) = 0.17619 0.63344
#
# Static dielectric constant tensor:
#      x y z
#    x 2.005190 0.076200 0.033200 
#    y 0.076200 1.996040 0.035520 
#    z 0.033200 0.035520 1.758420 
# 
# From -- ./inp_files/59539.got.cif
#   From: 2010.05.17/outbox.cif.g08.bks.cpg/sg2_30_cif.got.tgz:59539.got - 2010.06.03 11:33:40.
