data_PCOD9068595
_publ_section_title
;
Structure prediction by ZEFSAII (Michael W. Deem and Ramdas Pophale) SiO2 
 PCOD9068595
Probable space group: P -1
;
_chemical_formula_sum "Si O2"
_cell_formula_units_Z 10
_cell_length_a 5.278106
_cell_length_b 12.437022
_cell_length_c 9.864860
_cell_angle_alpha 141.672438
_cell_angle_beta 97.157033
_cell_angle_gamma 86.965371
_cell_volume 397.407075
_symmetry_space_group_name_H-M "P -1"
_symmetry_group_IT_number 2
_symmetry_cell_setting 'triclinic'
loop_
_space_group_symop_operation_xyz
x,y,z
-x,-y,-z
loop_
_atom_site_type_symbol
_atom_site_label
_atom_site_fract_x
_atom_site_fract_y
_atom_site_fract_z
Si Si1 0.735028 0.886864 0.878852
Si Si2 0.360830 0.157189 0.477823
Si Si3 0.866369 0.509627 0.201328
Si Si4 0.159856 0.840391 0.302769
Si Si5 0.624403 0.560875 0.710411
O O1 0.676895 0.805734 0.646304
O O2 0.737577 0.754671 0.872902
O O3 0.500000 0.000000 0.000000
O O4 0.000000 0.000000 0.000000
O O5 0.193100 0.303292 0.679250
O O6 0.636361 0.189926 0.595928
O O7 0.295315 0.952995 0.298189
O O8 0.601697 0.450065 0.204619
O O9 0.124562 0.538312 0.335535
O O10 0.922540 0.348530 0.949577
O O11 0.000000 0.000000 0.500000
O O12 0.500000 0.500000 0.500000
#
# Coordination Sequence:
#
# PCOD9068595 Si02
#       5
#     2   2   2   2   2
#     4  12  27  45  77 112 152 193 245 309 381 446
#     4  11  27  48  75 107 149 200 251 308 376 443
#     4  12  28  49  80 109 154 197 251 312 377 445
#     4  11  28  49  74 108 147 200 260 311 366 446
#     4  12  26  48  76 115 150 192 248 307 376 459
#
# _framework density 25.163117
#
# number of rings (size 3 to 8) (size 9 to 14) (size 15 to 20)
#    0.000    0.400    2.000    4.800   16.800    0.800 
#    0.000    0.000    0.000    0.000    0.000    0.000 
#    0.000    0.000    0.000    0.000    0.000    0.000 
#
# Total GULP energy -55929.975757 kJ/mol
# GULP energy per Si atom -5592.997576 kJ/mol
# Density = 2.510584 g / cm^3
# Si number density = 25.163117 Si / 1000 Ang^3
#
#
#
# Elastic Constant Matrix: (Units=GPa)
#
#
# Indices 1 2 3 4 5 6 
#
# 1 167.8325 53.7632 36.5016 8.2687 -7.2615 -37.4908
# 2 53.7632 137.2553 31.2390 30.7653 2.5042 -15.6894
# 3 36.5016 31.2390 130.3535 13.8924 -7.5825 -16.2770
# 4 8.2687 30.7653 13.8924 44.7870 0.6421 0.4764
# 5 -7.2615 2.5042 -7.5825 0.6421 44.6049 -1.0470
# 6 -37.4908 -15.6894 -16.2770 0.4764 -1.0470 64.9758
#
#
#
# Elastic Compliance Matrix: (Units=1/GPa)
#
#
# Indices 1 2 3 4 5 6 
#
# 1 0.007868 -0.002568 -0.001119 0.000601 0.001312 0.003656
# 2 -0.002568 0.009977 -0.000999 -0.006062 -0.001044 0.000705
# 3 -0.001119 -0.000999 0.008666 -0.001830 0.001404 0.001320
# 4 0.000601 -0.006062 -0.001830 0.026972 -0.000303 -0.001778
# 5 0.001312 -0.001044 0.001404 -0.000303 0.022963 0.001229
# 6 0.003656 0.000705 0.001320 -0.001778 0.001229 0.018034
#
#
# Mechanical properties :
#
#
# Convention : Reuss Voigt Hill
#
# Bulk Modulus (GPa) = 58.34286 75.38320 66.86303
# Shear Modulus (GPa) = 45.63513 51.80273 48.71893
#
# Velocity S-wave (km/s) = 4.26323 4.54219 4.40492
# Velocity P-wave (km/s) = 6.88982 7.58495 7.24573
#
# Compressibility (1/GPa) = 0.01714006
#
# Stress axis : x y z
#
# Youngs Moduli (GPa) = 127.09342 100.22716 115.39868
#
# Poissons Ratio (x) = 0.25738 0.12913
# Poissons Ratio (y) = 0.32637 0.11523
# Poissons Ratio (z) = 0.14222 0.10008
#
# Static dielectric constant tensor:
#      x y z
#    x 2.062300 0.134260 -0.027370 
#    y 0.134260 2.034960 -0.010950 
#    z -0.027370 -0.010950 2.074730 
# 
# From -- ./inp_files/16868.got.cif
#   From: 2010.05.17/outbox.cif.g08.bks.cpg/sg2_9_cif.got.tgz:16868.got - 2010.06.03 11:33:40.
