data_PCOD9068440
_publ_section_title
;
Structure prediction by ZEFSAII (Michael W. Deem and Ramdas Pophale) SiO2 
 PCOD9068440
Probable space group: P -1
;
_chemical_formula_sum "Si O2"
_cell_formula_units_Z 12
_cell_length_a 9.878010
_cell_length_b 11.343203
_cell_length_c 4.930703
_cell_angle_alpha 103.500664
_cell_angle_beta 80.727841
_cell_angle_gamma 73.730432
_cell_volume 500.280618
_symmetry_space_group_name_H-M "P -1"
_symmetry_group_IT_number 2
_symmetry_cell_setting 'triclinic'
loop_
_space_group_symop_operation_xyz
x,y,z
-x,-y,-z
loop_
_atom_site_type_symbol
_atom_site_label
_atom_site_fract_x
_atom_site_fract_y
_atom_site_fract_z
Si Si1 0.337130 0.979275 0.274781
Si Si2 0.559175 0.381450 0.128365
Si Si3 0.160207 0.929693 0.803704
Si Si4 0.739440 0.341414 0.576732
Si Si5 0.631957 0.786702 0.917388
Si Si6 0.892015 0.539162 0.807369
O O1 0.225718 0.984004 0.556182
O O2 0.336893 0.121511 0.269026
O O3 0.273734 0.932014 0.001922
O O4 0.506668 0.886428 0.199939
O O5 0.665245 0.291177 0.821368
O O6 0.500000 0.500000 0.000000
O O7 0.639545 0.404511 0.383261
O O8 0.446307 0.312425 0.218772
O O9 0.156445 0.788626 0.654765
O O10 0.000000 0.000000 0.000000
O O11 0.801697 0.441905 0.750529
O O12 0.781788 0.686129 0.932869
O O13 0.000000 0.500000 0.500000
O O14 0.000000 0.500000 0.000000
#
# Coordination Sequence:
#
# PCOD9068440 Si02
#       6
#     2   2   2   2   2   2
#     4  11  27  48  78 115 152 210 253 318 394 463
#     4  12  24  44  79 113 147 195 257 322 380 455
#     4  12  26  49  77 114 154 201 258 318 386 467
#     4  12  25  48  76 110 149 199 264 313 386 460
#     4  11  26  50  78 112 161 200 263 320 388 471
#     4  12  30  49  75 112 156 209 256 321 396 457
#
# _framework density 23.986536999999998
#
# number of rings (size 3 to 8) (size 9 to 14) (size 15 to 20)
#    0.000    0.333    5.000    2.000    2.333    6.667 
#    0.000    0.000    0.000    0.000    0.000    0.000 
#    0.000    0.000    0.000    0.000    0.000    0.000 
#
# Total GULP energy -67043.317391 kJ/mol
# GULP energy per Si atom -5586.943116 kJ/mol
# Density = 2.393194 g / cm^3
# Si number density = 23.986537 Si / 1000 Ang^3
#
#
#
# Elastic Constant Matrix: (Units=GPa)
#
#
# Indices 1 2 3 4 5 6 
#
# 1 115.6725 91.1657 61.5726 -4.7969 -7.9364 -25.8575
# 2 91.1657 204.8762 63.4729 6.1495 -4.6939 -4.5010
# 3 61.5726 63.4729 143.2066 -20.9875 3.2304 -13.9856
# 4 -4.7969 6.1495 -20.9875 43.4067 -5.8440 -8.9954
# 5 -7.9364 -4.6939 3.2304 -5.8440 54.6938 -5.5024
# 6 -25.8575 -4.5010 -13.9856 -8.9954 -5.5024 36.0546
#
#
#
# Elastic Compliance Matrix: (Units=1/GPa)
#
#
# Indices 1 2 3 4 5 6 
#
# 1 0.020126 -0.007724 -0.003154 0.005348 0.004450 0.014260
# 2 -0.007724 0.008862 -0.001879 -0.004554 -0.001391 -0.006510
# 3 -0.003154 -0.001879 0.010240 0.005392 -0.000369 0.002765
# 4 0.005348 -0.004554 0.005392 0.030338 0.004681 0.013642
# 5 0.004450 -0.001391 -0.000369 0.004681 0.020046 0.007101
# 6 0.014260 -0.006510 0.002765 0.013642 0.007101 0.042709
#
#
# Mechanical properties :
#
#
# Convention : Reuss Voigt Hill
#
# Bulk Modulus (GPa) = 72.91246 99.57532 86.24389
# Shear Modulus (GPa) = 30.78694 43.33394 37.06044
#
# Velocity S-wave (km/s) = 3.58650 4.25502 3.93498
# Velocity P-wave (km/s) = 6.90028 8.10823 7.52852
#
# Compressibility (1/GPa) = 0.01371508
#
# Stress axis : x y z
#
# Youngs Moduli (GPa) = 49.68686 112.84460 97.65438
#
# Poissons Ratio (x) = 0.87159 0.30800
# Poissons Ratio (y) = 0.38377 0.18346
# Poissons Ratio (z) = 0.15671 0.21199
#
# Static dielectric constant tensor:
#      x y z
#    x 2.026850 -0.010080 -0.115350 
#    y -0.010080 2.079500 0.101620 
#    z -0.115350 0.101620 2.064900 
# 
# From -- ./inp_files/25090.got.cif
#   From: 2010.05.17/outbox.cif.g08.bks.cpg/sg2_13_cif.got.tgz:25090.got - 2010.06.03 11:33:40.
