data_PCOD9068298
_publ_section_title
;
Structure prediction by ZEFSAII (Michael W. Deem and Ramdas Pophale) SiO2 
 PCOD9068298
Probable space group: P -1
;
_chemical_formula_sum "Si O2"
_cell_formula_units_Z 14
_cell_length_a 10.942790
_cell_length_b 19.553851
_cell_length_c 13.420775
_cell_angle_alpha 23.753532
_cell_angle_beta 34.078887
_cell_angle_gamma 36.245624
_cell_volume 633.082718
_symmetry_space_group_name_H-M "P -1"
_symmetry_group_IT_number 2
_symmetry_cell_setting 'triclinic'
loop_
_space_group_symop_operation_xyz
x,y,z
-x,-y,-z
loop_
_atom_site_type_symbol
_atom_site_label
_atom_site_fract_x
_atom_site_fract_y
_atom_site_fract_z
Si Si1 0.180908 0.839761 0.637082
Si Si2 0.872625 0.576671 0.231480
Si Si3 0.980909 0.661551 0.375274
Si Si4 0.245684 0.518326 0.774251
Si Si5 0.464399 0.807160 0.299692
Si Si6 0.556888 0.243917 0.074024
Si Si7 0.449221 0.130996 0.508345
O O1 0.376844 0.796419 0.483117
O O2 0.303071 0.879445 0.600909
O O3 0.000000 0.000000 0.500000
O O4 0.064680 0.678774 0.942080
O O5 0.742382 0.551653 0.252753
O O6 0.702857 0.692298 0.267381
O O7 0.963818 0.405458 0.459730
O O8 0.739541 0.786449 0.392741
O O9 0.000000 0.500000 0.500000
O O10 0.187247 0.745832 0.093592
O O11 0.289025 0.714280 0.483053
O O12 0.424408 0.400783 0.884810
O O13 0.000000 0.500000 0.000000
O O14 0.500000 0.000000 0.000000
O O15 0.437293 0.237306 0.270522
O O16 0.564097 0.063810 0.251980
#
# Coordination Sequence:
#
# PCOD9068298 Si02
#       7
#     2   2   2   2   2   2   2
#     4  12  25  46  71 107 142 181 240 299 363 425
#     4  12  25  45  71 106 140 189 239 296 358 427
#     4  12  26  46  72 102 143 190 245 298 360 435
#     4  12  25  46  75 107 146 188 243 300 358 427
#     4  12  26  43  71 107 146 186 235 298 364 426
#     4  11  26  49  69 104 146 192 244 293 362 436
#     4  11  27  46  73 102 144 194 239 299 364 430
#
# _framework density 22.114014000000001
#
# number of rings (size 3 to 8) (size 9 to 14) (size 15 to 20)
#    0.000    0.286    4.286    4.286    0.000    1.143 
#    0.000    0.000    0.000    0.000    0.000    0.000 
#    0.000    0.000    0.000    0.000    0.000    0.000 
#
# Total GULP energy -78228.745408 kJ/mol
# GULP energy per Si atom -5587.767529 kJ/mol
# Density = 2.206368 g / cm^3
# Si number density = 22.114014 Si / 1000 Ang^3
#
#
#
# Elastic Constant Matrix: (Units=GPa)
#
#
# Indices 1 2 3 4 5 6 
#
# 1 115.2229 44.9629 33.3547 -3.0457 -22.2771 4.6801
# 2 44.9629 125.5296 35.9873 17.8974 -1.8491 5.9886
# 3 33.3547 35.9873 141.1339 19.1241 -34.7261 6.3858
# 4 -3.0457 17.8974 19.1241 33.0138 3.5555 1.8313
# 5 -22.2771 -1.8491 -34.7261 3.5555 40.0778 2.6776
# 6 4.6801 5.9886 6.3858 1.8313 2.6776 33.1169
#
#
#
# Elastic Compliance Matrix: (Units=1/GPa)
#
#
# Indices 1 2 3 4 5 6 
#
# 1 0.011796 -0.004352 -0.000704 0.003335 0.005542 -0.001377
# 2 -0.004352 0.010697 -0.001758 -0.004834 -0.002988 -0.000471
# 3 -0.000704 -0.001758 0.011106 -0.006488 0.009870 -0.002163
# 4 0.003335 -0.004834 -0.006488 0.037760 -0.007352 0.000160
# 5 0.005542 -0.002988 0.009870 -0.007352 0.037417 -0.004765
# 6 -0.001377 -0.000471 -0.002163 0.000160 -0.004765 0.031269
#
#
# Mechanical properties :
#
#
# Convention : Reuss Voigt Hill
#
# Bulk Modulus (GPa) = 50.07173 67.83290 58.95231
# Shear Modulus (GPa) = 31.18574 39.08049 35.13312
#
# Velocity S-wave (km/s) = 3.75937 4.20840 3.99021
# Velocity P-wave (km/s) = 6.44480 7.37258 6.92425
#
# Compressibility (1/GPa) = 0.01997135
#
# Stress axis : x y z
#
# Youngs Moduli (GPa) = 84.77196 93.48804 90.04264
#
# Poissons Ratio (x) = 0.40682 0.06341
# Poissons Ratio (y) = 0.36889 0.15829
# Poissons Ratio (z) = 0.05970 0.16435
#
# Static dielectric constant tensor:
#      x y z
#    x 1.443210 0.339720 -0.070500 
#    y 0.339720 1.517820 0.062650 
#    z -0.070500 0.062650 1.817710 
# 
# From -- ./inp_files/523994.got.cif
#   From: 2010.05.17/outbox.cif.g08.bks.cpg/sg2_262_cif.got.tgz:523994.got - 2010.06.03 11:33:40.
