data_PCOD9068646
_publ_section_title
;
Structure prediction by ZEFSAII (Michael W. Deem and Ramdas Pophale) SiO2 
 PCOD9068646
Probable space group: P -1
;
_chemical_formula_sum "Si O2"
_cell_formula_units_Z 11
_cell_length_a 13.032826
_cell_length_b 9.347426
_cell_length_c 9.926032
_cell_angle_alpha 86.802812
_cell_angle_beta 46.829019
_cell_angle_gamma 47.297998
_cell_volume 419.953140
_symmetry_space_group_name_H-M "P -1"
_symmetry_group_IT_number 2
_symmetry_cell_setting 'triclinic'
loop_
_space_group_symop_operation_xyz
x,y,z
-x,-y,-z
loop_
_atom_site_type_symbol
_atom_site_label
_atom_site_fract_x
_atom_site_fract_y
_atom_site_fract_z
Si Si1 0.703508 0.429011 0.240962
Si Si2 0.000000 0.000000 0.500000
Si Si3 0.186322 0.339771 0.143288
Si Si4 0.591186 0.000695 0.552781
Si Si5 0.153501 0.943378 0.067977
Si Si6 0.249763 0.478847 0.323627
O O1 0.500000 0.500000 0.500000
O O2 0.519767 0.736757 0.368019
O O3 0.800527 0.252089 0.033231
O O4 0.983327 0.195740 0.100614
O O5 0.015134 0.927249 0.647266
O O6 0.867723 0.271846 0.653702
O O7 0.330096 0.300112 0.138032
O O8 0.000640 0.376057 0.372006
O O9 0.420897 0.092684 0.831749
O O10 0.935981 0.665410 0.283942
O O11 0.500000 0.000000 0.500000
O O12 0.466476 0.730298 0.835761
#
# Coordination Sequence:
#
# PCOD9068646 Si02
#       6
#     2   1   2   2   2   2
#     4  11  28  51  82 118 158 211 275 333 405 480
#     4  12  26  44  82 110 156 208 270 330 404 466
#     4  11  30  52  80 119 165 210 273 326 408 488
#     4  12  30  53  82 116 163 220 266 335 403 485
#     4  11  27  49  82 116 161 207 272 341 399 481
#     4  11  28  48  80 115 160 212 264 341 400 478
#
# _framework density 26.193397999999998
#
# number of rings (size 3 to 8) (size 9 to 14) (size 15 to 20)
#    0.000    0.727    0.000    3.273   20.364    1.455 
#    0.000    0.000    0.000    0.000    0.000    0.000 
#    0.000    0.000    0.000    0.000    0.000    0.000 
#
# Total GULP energy -61570.386243 kJ/mol
# GULP energy per Si atom -5597.307840 kJ/mol
# Density = 2.613378 g / cm^3
# Si number density = 26.193398 Si / 1000 Ang^3
#
#
#
# Elastic Constant Matrix: (Units=GPa)
#
#
# Indices 1 2 3 4 5 6 
#
# 1 153.3297 43.1998 42.9758 -1.7903 5.9331 -29.2163
# 2 43.1998 147.5245 -4.3993 12.8800 -9.7903 14.1384
# 3 42.9758 -4.3993 107.3562 -2.2669 29.1216 -21.3388
# 4 -1.7903 12.8800 -2.2669 35.4607 -13.1702 11.8350
# 5 5.9331 -9.7903 29.1216 -13.1702 56.1665 1.6239
# 6 -29.2163 14.1384 -21.3388 11.8350 1.6239 35.9397
#
#
#
# Elastic Compliance Matrix: (Units=1/GPa)
#
#
# Indices 1 2 3 4 5 6 
#
# 1 0.009874 -0.003744 -0.002006 -0.001746 -0.001323 0.008943
# 2 -0.003744 0.008656 0.000055 -0.000491 0.001944 -0.006342
# 3 -0.002006 0.000055 0.014109 -0.005384 -0.008614 0.008887
# 4 -0.001746 -0.000491 -0.005384 0.038446 0.012416 -0.017645
# 5 -0.001323 0.001944 -0.008614 0.012416 0.026013 -0.012219
# 6 0.008943 -0.006342 0.008887 -0.017645 -0.012219 0.049228
#
#
# Mechanical properties :
#
#
# Convention : Reuss Voigt Hill
#
# Bulk Modulus (GPa) = 47.05990 63.52923 55.29456
# Shear Modulus (GPa) = 30.33969 47.27566 38.80768
#
# Velocity S-wave (km/s) = 3.40707 4.25298 3.85331
# Velocity P-wave (km/s) = 5.78643 6.95872 6.39947
#
# Compressibility (1/GPa) = 0.02124951
#
# Stress axis : x y z
#
# Youngs Moduli (GPa) = 101.27758 115.52540 70.87446
#
# Poissons Ratio (x) = 0.43249 0.14220
# Poissons Ratio (y) = 0.37915 -0.00390
# Poissons Ratio (z) = 0.20320 -0.00636
#
# Static dielectric constant tensor:
#      x y z
#    x 2.021980 0.028430 0.001520 
#    y 0.028430 2.110200 0.059520 
#    z 0.001520 0.059520 2.099320 
# 
# From -- ./inp_files/184167.got.cif
#   From: 2010.05.17/outbox.cif.g08.bks.cpg/sg2_93_cif.got.tgz:184167.got - 2010.06.03 11:33:40.
