data_PCOD9068239
_publ_section_title
;
Structure prediction by ZEFSAII (Michael W. Deem and Ramdas Pophale) SiO2 
 PCOD9068239
Probable space group: P -1
;
_chemical_formula_sum "Si O2"
_cell_formula_units_Z 14
_cell_length_a 7.927977
_cell_length_b 5.985371
_cell_length_c 18.634071
_cell_angle_alpha 52.941673
_cell_angle_beta 55.201847
_cell_angle_gamma 79.514511
_cell_volume 561.471503
_symmetry_space_group_name_H-M "P -1"
_symmetry_group_IT_number 2
_symmetry_cell_setting 'triclinic'
loop_
_space_group_symop_operation_xyz
x,y,z
-x,-y,-z
loop_
_atom_site_type_symbol
_atom_site_label
_atom_site_fract_x
_atom_site_fract_y
_atom_site_fract_z
Si Si1 0.318211 0.088843 0.570041
Si Si2 0.002295 0.955109 0.093549
Si Si3 0.747223 0.395785 0.589315
Si Si4 0.369287 0.884468 0.756447
Si Si5 0.070294 0.348560 0.239699
Si Si6 0.342479 0.188797 0.085285
Si Si7 0.561690 0.387113 0.791565
O O1 0.332668 0.420187 0.488107
O O2 0.316703 0.996686 0.670379
O O3 0.500000 0.000000 0.500000
O O4 0.101611 0.886889 0.630333
O O5 0.801777 0.052068 0.158357
O O6 0.982718 0.616185 0.180862
O O7 0.000000 0.000000 0.000000
O O8 0.216863 0.118960 0.053783
O O9 0.610966 0.066935 0.678018
O O10 0.668963 0.472432 0.671510
O O11 0.000000 0.500000 0.500000
O O12 0.377898 0.552496 0.813664
O O13 0.266295 0.492240 0.213158
O O14 0.153891 0.178754 0.189036
O O15 0.528815 0.045360 0.878123
O O16 0.500000 0.500000 0.000000
#
# Coordination Sequence:
#
# PCOD9068239 Si02
#       7
#     2   2   2   2   2   2   2
#     4  12  24  46  75 111 157 204 252 317 386 451
#     4  11  28  52  84 113 154 206 265 331 401 459
#     4  12  27  43  75 117 157 211 257 307 384 475
#     4  12  26  49  77 116 157 202 260 326 385 469
#     4  11  26  50  74 111 157 202 259 318 385 474
#     4  11  26  54  80 111 155 207 261 330 396 468
#     4  11  26  48  76 112 157 202 255 321 388 476
#
# _framework density 24.934480000000001
#
# number of rings (size 3 to 8) (size 9 to 14) (size 15 to 20)
#    0.000    0.571    2.857    3.857    4.000    7.429 
#    2.571    2.857    0.000    0.000    0.000    0.000 
#    0.000    0.000    0.000    0.000    0.000    0.000 
#
# Total GULP energy -78452.790988 kJ/mol
# GULP energy per Si atom -5603.770785 kJ/mol
# Density = 2.487773 g / cm^3
# Si number density = 24.934480 Si / 1000 Ang^3
#
#
#
# Elastic Constant Matrix: (Units=GPa)
#
#
# Indices 1 2 3 4 5 6 
#
# 1 135.2673 61.2055 55.4622 -4.2454 10.0830 -5.8984
# 2 61.2055 156.4511 74.8391 -8.9131 10.1768 -36.4401
# 3 55.4622 74.8391 138.1747 6.0656 8.5692 -18.0341
# 4 -4.2454 -8.9131 6.0656 56.6404 0.2443 -0.1401
# 5 10.0830 10.1768 8.5692 0.2443 52.1503 1.1075
# 6 -5.8984 -36.4401 -18.0341 -0.1401 1.1075 53.3993
#
#
#
# Elastic Compliance Matrix: (Units=1/GPa)
#
#
# Indices 1 2 3 4 5 6 
#
# 1 0.009761 -0.002930 -0.002530 0.000541 -0.000865 -0.001757
# 2 -0.002930 0.011019 -0.004049 0.001967 -0.001052 0.005856
# 3 -0.002530 -0.004049 0.010633 -0.001962 -0.000470 0.000553
# 4 0.000541 0.001967 -0.001962 0.018219 -0.000268 0.000793
# 5 -0.000865 -0.001052 -0.000470 -0.000268 0.019656 -0.001381
# 6 -0.001757 0.005856 0.000553 0.000793 -0.001381 0.022746
#
#
# Mechanical properties :
#
#
# Convention : Reuss Voigt Hill
#
# Bulk Modulus (GPa) = 80.68043 90.32297 85.50170
# Shear Modulus (GPa) = 43.40843 48.33041 45.86942
#
# Velocity S-wave (km/s) = 4.17694 4.40738 4.29371
# Velocity P-wave (km/s) = 7.46255 7.88688 7.67764
#
# Compressibility (1/GPa) = 0.01239458
#
# Stress axis : x y z
#
# Youngs Moduli (GPa) = 102.44886 90.74904 94.04340
#
# Poissons Ratio (x) = 0.26593 0.23795
# Poissons Ratio (y) = 0.30021 0.38078
# Poissons Ratio (z) = 0.25922 0.36745
#
# Static dielectric constant tensor:
#      x y z
#    x 2.031430 0.027220 -0.036750 
#    y 0.027220 1.996320 0.012450 
#    z -0.036750 0.012450 1.954100 
# 
# From -- ./inp_files/98680.got.cif
#   From: 2010.05.17/outbox.cif.g08.bks.cpg/sg2_50_cif.got.tgz:98680.got - 2010.06.03 11:33:40.
