data_PCOD9068874
_publ_section_title
;
Structure prediction by ZEFSAII (Michael W. Deem and Ramdas Pophale) SiO2 
 PCOD9068874
Probable space group: P -1
;
_chemical_formula_sum "Si O2"
_cell_formula_units_Z 16
_cell_length_a 12.084858
_cell_length_b 8.393622
_cell_length_c 9.854457
_cell_angle_alpha 68.218377
_cell_angle_beta 66.310102
_cell_angle_gamma 105.182575
_cell_volume 744.139147
_symmetry_space_group_name_H-M "P -1"
_symmetry_group_IT_number 2
_symmetry_cell_setting 'triclinic'
loop_
_space_group_symop_operation_xyz
x,y,z
-x,-y,-z
loop_
_atom_site_type_symbol
_atom_site_label
_atom_site_fract_x
_atom_site_fract_y
_atom_site_fract_z
Si Si1 0.696481 0.539670 0.443523
Si Si2 0.568087 0.840201 0.768949
Si Si3 0.989810 0.164905 0.855629
Si Si4 0.314334 0.080901 0.593100
Si Si5 0.240680 0.126620 0.106372
Si Si6 0.132550 0.702650 0.901963
Si Si7 0.468644 0.130217 0.785284
Si Si8 0.668576 0.472804 0.166505
O O1 0.684812 0.713280 0.470572
O O2 0.610210 0.337145 0.631328
O O3 0.635970 0.497280 0.331667
O O4 0.861587 0.646400 0.302149
O O5 0.613989 0.942311 0.567655
O O6 0.698096 0.857154 0.780379
O O7 0.457861 0.622151 0.846258
O O8 0.502939 0.954199 0.846692
O O9 0.904698 0.058903 0.797151
O O10 0.893549 0.235134 0.958238
O O11 0.000000 0.000000 0.000000
O O12 0.391045 0.087688 0.692368
O O13 0.164611 0.890784 0.735278
O O14 0.362678 0.137653 0.943465
O O15 0.227964 0.314787 0.008420
O O16 0.260769 0.663839 0.830183
O O17 0.000000 0.500000 0.000000
#
# Coordination Sequence:
#
# PCOD9068874 Si02
#       8
#     2   2   2   2   2   2   2   2
#     4  12  23  38  71  96 125 167 222 266 317 373
#     4  12  26  40  64  99 133 163 215 271 325 376
#     4  12  21  43  67  96 126 171 215 261 317 385
#     4  12  22  41  66  97 128 168 216 269 314 379
#     4  12  25  44  66  93 133 175 210 261 329 389
#     4  12  22  35  68 102 125 160 223 270 312 368
#     4  12  22  43  67  94 126 171 219 265 314 379
#     4  12  21  39  64  98 127 166 212 271 315 380
#
# _framework density 21.501356000000001
#
# number of rings (size 3 to 8) (size 9 to 14) (size 15 to 20)
#    0.000    0.000    8.750    3.000    0.000    0.000 
#    0.000    1.250    2.750    0.000    0.000    0.000 
#    0.000    0.000    0.000    0.000    0.000    0.000 
#
# Total GULP energy -89357.864102 kJ/mol
# GULP energy per Si atom -5584.866506 kJ/mol
# Density = 2.145242 g / cm^3
# Si number density = 21.501356 Si / 1000 Ang^3
#
#
#
# Elastic Constant Matrix: (Units=GPa)
#
#
# Indices 1 2 3 4 5 6 
#
# 1 42.5445 18.6248 10.4067 7.9697 -0.3197 17.6752
# 2 18.6248 116.4216 15.3459 -12.1260 -6.7352 14.2600
# 3 10.4067 15.3459 46.7578 -5.1953 -17.5186 12.2241
# 4 7.9697 -12.1260 -5.1953 35.2367 8.0916 -11.6392
# 5 -0.3197 -6.7352 -17.5186 8.0916 29.4061 1.1800
# 6 17.6752 14.2600 12.2241 -11.6392 1.1800 45.8637
#
#
#
# Elastic Compliance Matrix: (Units=1/GPa)
#
#
# Indices 1 2 3 4 5 6 
#
# 1 0.035939 -0.004949 -0.003183 -0.015997 0.002388 -0.015585
# 2 -0.004949 0.010032 -0.001839 0.004458 -0.000095 0.000412
# 3 -0.003183 -0.001839 0.031727 -0.002234 0.019370 -0.007723
# 4 -0.015997 0.004458 -0.002234 0.041437 -0.012536 0.016213
# 5 0.002388 -0.000095 0.019370 -0.012536 0.049421 -0.010506
# 6 -0.015585 0.000412 -0.007723 0.016213 -0.010506 0.034125
#
#
# Mechanical properties :
#
#
# Convention : Reuss Voigt Hill
#
# Bulk Modulus (GPa) = 17.31417 32.71987 25.01702
# Shear Modulus (GPa) = 20.67184 32.85775 26.76479
#
# Velocity S-wave (km/s) = 3.10404 3.91342 3.53199
# Velocity P-wave (km/s) = 4.57349 5.97248 5.31918
#
# Compressibility (1/GPa) = 0.05775618
#
# Stress axis : x y z
#
# Youngs Moduli (GPa) = 27.82476 99.68095 31.51900
#
# Poissons Ratio (x) = 0.49333 0.10032
# Poissons Ratio (y) = 0.13771 0.05796
# Poissons Ratio (z) = 0.08856 0.18331
#
# Static dielectric constant tensor:
#      x y z
#    x 1.799660 -0.002220 -0.041010 
#    y -0.002220 1.787020 -0.016970 
#    z -0.041010 -0.016970 1.797110 
# 
# From -- ./inp_files/242943.got.cif
#   From: 2010.05.17/outbox.cif.g08.bks.cpg/sg2_122_cif.got.tgz:242943.got - 2010.06.03 11:33:40.
