data_PCOD9069829
_publ_section_title
;
Structure prediction by ZEFSAII (Michael W. Deem and Ramdas Pophale) SiO2 
 PCOD9069829
Probable space group: P -1
;
_chemical_formula_sum "Si O2"
_cell_formula_units_Z 13
_cell_length_a 9.001800
_cell_length_b 11.564239
_cell_length_c 5.097638
_cell_angle_alpha 80.403538
_cell_angle_beta 73.255476
_cell_angle_gamma 80.551288
_cell_volume 497.242785
_symmetry_space_group_name_H-M "P -1"
_symmetry_group_IT_number 2
_symmetry_cell_setting 'triclinic'
loop_
_space_group_symop_operation_xyz
x,y,z
-x,-y,-z
loop_
_atom_site_type_symbol
_atom_site_label
_atom_site_fract_x
_atom_site_fract_y
_atom_site_fract_z
Si Si1 0.616995 0.757710 0.812218
Si Si2 0.595120 0.534147 0.190112
Si Si3 0.909525 0.961759 0.306366
Si Si4 0.085391 0.316247 0.627936
Si Si5 0.336561 0.846009 0.545564
Si Si6 0.109672 0.644639 0.770983
Si Si7 0.500000 0.000000 0.000000
O O1 0.745457 0.680161 0.590495
O O2 0.466665 0.782317 0.693435
O O3 0.602450 0.672400 0.097362
O O4 0.633165 0.890006 0.859199
O O5 0.500000 0.500000 0.500000
O O6 0.763335 0.459016 0.154415
O O7 0.500000 0.500000 0.000000
O O8 0.917676 0.823286 0.355546
O O9 0.737314 0.032036 0.324976
O O10 0.000000 0.000000 0.500000
O O11 0.000000 0.000000 0.000000
O O12 0.960503 0.381981 0.464219
O O13 0.026719 0.338031 0.947055
O O14 0.201689 0.759813 0.635003
O O15 0.408120 0.897278 0.228934
#
# Coordination Sequence:
#
# PCOD9069829 Si02
#       7
#     2   2   2   2   2   2   1
#     4  12  30  47  78 111 159 199 253 326 384 449
#     4  12  27  52  82 113 147 203 264 316 373 456
#     4  12  24  41  69 104 147 197 245 302 370 443
#     4  12  27  47  72 114 154 195 249 321 384 446
#     4  12  26  45  76 107 150 204 254 308 372 464
#     4  12  27  49  80 109 150 202 261 305 379 461
#     4  12  28  44  74 116 156 192 260 310 392 436
#
# _framework density 26.144169999999999
#
# number of rings (size 3 to 8) (size 9 to 14) (size 15 to 20)
#    0.000    0.000    6.154    2.308    6.462    1.231 
#    0.000    0.000    0.000    0.000    0.000    0.000 
#    0.000    0.000    0.000    0.000    0.000    0.000 
#
# Total GULP energy -72625.728792 kJ/mol
# GULP energy per Si atom -5586.594522 kJ/mol
# Density = 2.608466 g / cm^3
# Si number density = 26.144170 Si / 1000 Ang^3
#
#
#
# Elastic Constant Matrix: (Units=GPa)
#
#
# Indices 1 2 3 4 5 6 
#
# 1 85.6489 36.7593 39.2522 -15.5464 1.9389 -22.2914
# 2 36.7593 165.1301 45.2427 -26.6859 -8.8957 -15.2726
# 3 39.2522 45.2427 212.4895 -19.2690 -6.5972 2.5925
# 4 -15.5464 -26.6859 -19.2690 50.1010 -6.3900 -1.0075
# 5 1.9389 -8.8957 -6.5972 -6.3900 38.8220 1.4675
# 6 -22.2914 -15.2726 2.5925 -1.0075 1.4675 49.5293
#
#
#
# Elastic Compliance Matrix: (Units=1/GPa)
#
#
# Indices 1 2 3 4 5 6 
#
# 1 0.015920 -0.001846 -0.002403 0.002992 -0.001392 0.006824
# 2 -0.001846 0.007522 -0.000905 0.003393 0.002162 0.001541
# 3 -0.002403 -0.000905 0.005485 0.000985 0.001070 -0.001659
# 4 0.002992 0.003393 0.000985 0.023715 0.004597 0.002687
# 5 -0.001392 0.002162 0.001070 0.004597 0.027290 -0.000731
# 6 0.006824 0.001541 -0.001659 0.002687 -0.000731 0.023899
#
#
# Mechanical properties :
#
#
# Convention : Reuss Voigt Hill
#
# Bulk Modulus (GPa) = 53.70490 78.41964 66.06227
# Shear Modulus (GPa) = 41.54771 50.49141 46.01956
#
# Velocity S-wave (km/s) = 3.99077 4.39939 4.20005
# Velocity P-wave (km/s) = 6.46695 7.47438 6.98884
#
# Compressibility (1/GPa) = 0.01862027
#
# Stress axis : x y z
#
# Youngs Moduli (GPa) = 62.81589 132.94671 182.30228
#
# Poissons Ratio (x) = 0.24539 0.43805
# Poissons Ratio (y) = 0.11594 0.16491
# Poissons Ratio (z) = 0.15094 0.12026
#
# Static dielectric constant tensor:
#      x y z
#    x 2.344170 -0.123440 0.031880 
#    y -0.123440 2.100360 0.067770 
#    z 0.031880 0.067770 2.002610 
# 
# From -- ./inp_files/26379.got.cif
#   From: 2010.05.17/outbox.cif.g08.bks.cpg/sg2_14_cif.got.tgz:26379.got - 2010.06.03 11:33:40.
