data_PCOD9069411
_publ_section_title
;
Structure prediction by ZEFSAII (Michael W. Deem and Ramdas Pophale) SiO2 
 PCOD9069411
Probable space group: P -1
;
_chemical_formula_sum "Si O2"
_cell_formula_units_Z 16
_cell_length_a 11.984343
_cell_length_b 11.930947
_cell_length_c 11.538245
_cell_angle_alpha 49.031649
_cell_angle_beta 84.949386
_cell_angle_gamma 122.582101
_cell_volume 756.438707
_symmetry_space_group_name_H-M "P -1"
_symmetry_group_IT_number 2
_symmetry_cell_setting 'triclinic'
loop_
_space_group_symop_operation_xyz
x,y,z
-x,-y,-z
loop_
_atom_site_type_symbol
_atom_site_label
_atom_site_fract_x
_atom_site_fract_y
_atom_site_fract_z
Si Si1 0.426861 0.962334 0.903591
Si Si2 0.481085 0.351891 0.697789
Si Si3 0.102417 0.453066 0.764162
Si Si4 0.955708 0.592702 0.733939
Si Si5 0.913681 0.037207 0.902410
Si Si6 0.110214 0.842334 0.781388
Si Si7 0.118132 0.198203 0.538799
Si Si8 0.498405 0.910750 0.438154
O O1 0.439755 0.153735 0.772697
O O2 0.511307 0.008579 0.738413
O O3 0.500000 0.000000 0.000000
O O4 0.227631 0.681308 0.104611
O O5 0.500000 0.500000 0.500000
O O6 0.673527 0.544155 0.616694
O O7 0.304327 0.191498 0.903918
O O8 0.310759 0.617884 0.650216
O O9 0.108034 0.638277 0.641757
O O10 0.006655 0.286297 0.772452
O O11 0.977905 0.270770 0.007427
O O12 0.949458 0.753138 0.580569
O O13 0.979398 0.625716 0.846874
O O14 0.982841 0.078920 0.740213
O O15 0.000000 0.000000 0.000000
O O16 0.119338 0.025959 0.626393
O O17 0.311843 0.981994 0.658068
O O18 0.500000 0.000000 0.500000
#
# Coordination Sequence:
#
# PCOD9069411 Si02
#       8
#     2   2   2   2   2   2   2   2
#     4  12  25  45  71 106 144 180 231 302 362 415
#     4  12  23  43  69 100 138 184 231 289 356 421
#     4  12  24  44  74 102 136 181 244 295 344 421
#     4  12  25  47  68 101 144 192 227 290 360 417
#     4  12  24  41  68 105 135 177 237 290 350 421
#     4  12  25  49  71 101 144 191 242 285 348 433
#     4  12  27  43  69 102 147 184 229 292 360 422
#     4  12  25  44  76 106 134 188 247 293 347 427
#
# _framework density 21.151748000000001
#
# number of rings (size 3 to 8) (size 9 to 14) (size 15 to 20)
#    0.000    0.000    7.500    3.000    1.750    1.500 
#    0.000    0.000    0.000    3.750    0.000    0.000 
#    0.000    0.000    0.000    0.000    0.000    0.000 
#
# Total GULP energy -89411.769506 kJ/mol
# GULP energy per Si atom -5588.235594 kJ/mol
# Density = 2.110361 g / cm^3
# Si number density = 21.151748 Si / 1000 Ang^3
#
#
#
# Elastic Constant Matrix: (Units=GPa)
#
#
# Indices 1 2 3 4 5 6 
#
# 1 97.0376 36.7870 50.7155 6.2259 8.1038 0.4105
# 2 36.7870 125.4475 41.2159 4.0729 -3.7166 4.5834
# 3 50.7155 41.2159 103.8319 2.2996 -21.6730 9.1111
# 4 6.2259 4.0729 2.2996 36.9340 3.2986 0.4997
# 5 8.1038 -3.7166 -21.6730 3.2986 48.7056 -0.1725
# 6 0.4105 4.5834 9.1111 0.4997 -0.1725 27.3359
#
#
#
# Elastic Compliance Matrix: (Units=1/GPa)
#
#
# Indices 1 2 3 4 5 6 
#
# 1 0.016333 -0.002181 -0.008736 -0.001414 -0.006665 0.003016
# 2 -0.002181 0.009523 -0.002658 -0.000502 -0.000062 -0.000669
# 3 -0.008736 -0.002658 0.017265 -0.000036 0.008917 -0.005121
# 4 -0.001414 -0.000502 -0.000036 0.027527 -0.001685 -0.000396
# 5 -0.006665 -0.000062 0.008917 -0.001685 0.025708 -0.002669
# 6 0.003016 -0.000669 -0.005121 -0.000396 -0.002669 0.038346
#
#
# Mechanical properties :
#
#
# Convention : Reuss Voigt Hill
#
# Bulk Modulus (GPa) = 62.61670 64.86153 63.73912
# Shear Modulus (GPa) = 29.90868 35.76833 32.83850
#
# Velocity S-wave (km/s) = 3.76441 4.11668 3.94448
# Velocity P-wave (km/s) = 6.96866 7.30257 7.13756
#
# Compressibility (1/GPa) = 0.01597018
#
# Stress axis : x y z
#
# Youngs Moduli (GPa) = 61.22759 105.00641 57.92203
#
# Poissons Ratio (x) = 0.22901 0.50602
# Poissons Ratio (y) = 0.13353 0.15396
# Poissons Ratio (z) = 0.53490 0.27910
#
# Static dielectric constant tensor:
#      x y z
#    x 1.833700 -0.001290 0.000740 
#    y -0.001290 1.771450 0.007430 
#    z 0.000740 0.007430 1.786650 
# 
# From -- ./inp_files/278742.got.cif
#   From: 2010.05.17/outbox.cif.g08.bks.cpg/sg2_140_cif.got.tgz:278742.got - 2010.06.03 11:33:40.
