data_PCOD9069291
_publ_section_title
;
Structure prediction by ZEFSAII (Michael W. Deem and Ramdas Pophale) SiO2 
 PCOD9069291
Probable space group: P -1
;
_chemical_formula_sum "Si O2"
_cell_formula_units_Z 10
_cell_length_a 9.830683
_cell_length_b 14.959183
_cell_length_c 7.531928
_cell_angle_alpha 50.268167
_cell_angle_beta 100.770585
_cell_angle_gamma 143.451622
_cell_volume 355.569077
_symmetry_space_group_name_H-M "P -1"
_symmetry_group_IT_number 2
_symmetry_cell_setting 'triclinic'
loop_
_space_group_symop_operation_xyz
x,y,z
-x,-y,-z
loop_
_atom_site_type_symbol
_atom_site_label
_atom_site_fract_x
_atom_site_fract_y
_atom_site_fract_z
Si Si1 0.040179 0.507974 0.716903
Si Si2 0.788404 0.555859 0.710376
Si Si3 0.782917 0.946764 0.994168
Si Si4 0.214046 0.936443 0.785685
Si Si5 0.500000 0.500000 0.000000
Si Si6 0.000000 0.000000 0.500000
O O1 0.000000 0.500000 0.500000
O O2 0.923150 0.527700 0.781243
O O3 0.408248 0.761219 0.541566
O O4 0.854660 0.248326 0.039039
O O5 0.571476 0.376040 0.709225
O O6 0.515735 0.398302 0.981104
O O7 0.090100 0.873873 0.363001
O O8 0.814976 0.058490 0.021905
O O9 0.000000 0.000000 0.000000
O O10 0.945891 0.818062 0.775130
O O11 0.292326 0.246226 0.398273
#
# Coordination Sequence:
#
# PCOD9069291 Si02
#       6
#     2   2   2   2   1   1
#     4  12  23  45  74 114 151 189 241 318 384 440
#     4  12  25  43  72 107 148 190 251 304 373 443
#     4  12  23  40  71 108 139 190 243 316 364 426
#     4  12  24  45  74 110 151 191 252 305 374 450
#     4  12  26  50  68 100 156 202 246 302 356 460
#     4  12  28  50  72 100 156 204 246 306 360 452
#
# _framework density 28.123930999999999
#
# number of rings (size 3 to 8) (size 9 to 14) (size 15 to 20)
#    0.000    0.000    4.000    7.200    0.000    0.000 
#    0.000    6.000    0.000    0.000    0.000    0.000 
#    0.000    0.000    0.000    0.000    0.000    0.000 
#
# Total GULP energy -55710.530910 kJ/mol
# GULP energy per Si atom -5571.053091 kJ/mol
# Density = 2.805992 g / cm^3
# Si number density = 28.123931 Si / 1000 Ang^3
#
#
#
# Elastic Constant Matrix: (Units=GPa)
#
#
# Indices 1 2 3 4 5 6 
#
# 1 224.7255 38.1321 13.0123 9.6260 8.9682 -8.0571
# 2 38.1321 106.5115 43.6403 -29.3729 -6.8704 -4.8254
# 3 13.0123 43.6403 85.2215 -30.9045 40.6631 -12.8073
# 4 9.6260 -29.3729 -30.9045 60.6801 -20.2880 -1.6787
# 5 8.9682 -6.8704 40.6631 -20.2880 46.7766 -1.4971
# 6 -8.0571 -4.8254 -12.8073 -1.6787 -1.4971 68.7171
#
#
#
# Elastic Compliance Matrix: (Units=1/GPa)
#
#
# Indices 1 2 3 4 5 6 
#
# 1 0.005448 -0.004568 0.003230 -0.003410 -0.005980 0.000706
# 2 -0.004568 0.024542 -0.021481 0.010913 0.027825 -0.001943
# 3 0.003230 -0.021481 0.041481 -0.003376 -0.041118 0.005623
# 4 -0.003410 0.010913 -0.003376 0.026139 0.016552 0.000736
# 5 -0.005980 0.027825 -0.041118 0.016552 0.069391 -0.004495
# 6 0.000706 -0.001943 0.005623 0.000736 -0.004495 0.015467
#
#
# Mechanical properties :
#
#
# Convention : Reuss Voigt Hill
#
# Bulk Modulus (GPa) = 38.70955 67.33644 53.02300
# Shear Modulus (GPa) = 21.12242 56.67967 38.90105
#
# Velocity S-wave (km/s) = 2.74350 4.49414 3.72318
# Velocity P-wave (km/s) = 4.88155 7.13614 6.11367
#
# Compressibility (1/GPa) = 0.02583342
#
# Stress axis : x y z
#
# Youngs Moduli (GPa) = 183.55371 40.74713 24.10744
#
# Poissons Ratio (x) = 0.18613 -0.07787
# Poissons Ratio (y) = 0.83848 0.51784
# Poissons Ratio (z) = -0.59291 0.87528
#
# Static dielectric constant tensor:
#      x y z
#    x 2.928150 0.517410 0.403220 
#    y 0.517410 2.615540 0.162340 
#    z 0.403220 0.162340 2.167010 
# 
# From -- ./inp_files/199033.got.cif
#   From: 2010.05.17/outbox.cif.g08.bks.cpg/sg2_100_cif.got.tgz:199033.got - 2010.06.03 11:33:40.
