data_PCOD9069952
_publ_section_title
;
Structure prediction by ZEFSAII (Michael W. Deem and Ramdas Pophale) SiO2 
 PCOD9069952
Probable space group: P -1
;
_chemical_formula_sum "Si O2"
_cell_formula_units_Z 15
_cell_length_a 8.724694
_cell_length_b 25.504969
_cell_length_c 9.267143
_cell_angle_alpha 151.824825
_cell_angle_beta 131.634108
_cell_angle_gamma 39.158977
_cell_volume 613.587558
_symmetry_space_group_name_H-M "P -1"
_symmetry_group_IT_number 2
_symmetry_cell_setting 'triclinic'
loop_
_space_group_symop_operation_xyz
x,y,z
-x,-y,-z
loop_
_atom_site_type_symbol
_atom_site_label
_atom_site_fract_x
_atom_site_fract_y
_atom_site_fract_z
Si Si1 0.716872 0.502328 0.719748
Si Si2 0.465884 0.589719 0.059964
Si Si3 0.302176 0.236038 0.749236
Si Si4 0.519538 0.819372 0.773565
Si Si5 0.887425 0.781835 0.705422
Si Si6 0.132461 0.936799 0.273662
Si Si7 0.961452 0.643770 0.833366
Si Si8 0.000000 0.000000 0.000000
O O1 0.500000 0.500000 0.500000
O O2 0.977671 0.371517 0.536724
O O3 0.675434 0.505030 0.871295
O O4 0.695456 0.636513 0.991101
O O5 0.465347 0.716644 0.416166
O O6 0.500000 0.500000 0.000000
O O7 0.213205 0.630823 0.925654
O O8 0.182100 0.199480 0.459752
O O9 0.580635 0.121385 0.674732
O O10 0.124601 0.288511 0.900939
O O11 0.637698 0.864523 0.837700
O O12 0.740065 0.737698 0.822022
O O13 0.287532 0.923474 0.970235
O O14 0.083600 0.819350 0.944693
O O15 0.000000 0.000000 0.500000
O O16 0.033660 0.008375 0.229211
O O17 0.000000 0.500000 0.500000
#
# Coordination Sequence:
#
# PCOD9069952 Si02
#       8
#     2   2   2   2   2   2   2   1
#     4  12  24  43  75 113 159 198 241 319 400 478
#     4  12  26  43  72 112 160 196 248 317 386 467
#     4  12  25  47  74 116 153 201 258 314 402 477
#     4  12  27  50  72 112 151 204 258 318 388 465
#     4  12  27  49  80 113 155 206 260 328 407 471
#     4  12  30  56  81 111 155 207 274 337 387 468
#     4  12  25  42  72 113 155 198 249 310 389 471
#     4  12  30  54  82 108 158 208 272 328 390 458
#
# _framework density 24.446387999999999
#
# number of rings (size 3 to 8) (size 9 to 14) (size 15 to 20)
#    0.000    0.000    5.333    4.400    3.733    2.133 
#    0.000    2.000    0.000    0.000    0.000    0.000 
#    0.000    0.000    0.000    0.000    0.000    0.000 
#
# Total GULP energy -83810.079771 kJ/mol
# GULP energy per Si atom -5587.338651 kJ/mol
# Density = 2.439075 g / cm^3
# Si number density = 24.446388 Si / 1000 Ang^3
#
#
#
# Elastic Constant Matrix: (Units=GPa)
#
#
# Indices 1 2 3 4 5 6 
#
# 1 92.1463 25.5083 17.0975 6.5188 -47.8596 -17.0633
# 2 25.5083 145.1935 34.8230 -9.3095 -14.6259 -13.4392
# 3 17.0975 34.8230 58.2320 -21.4513 -17.4256 -3.3435
# 4 6.5188 -9.3095 -21.4513 34.2454 -6.0584 -1.5772
# 5 -47.8596 -14.6259 -17.4256 -6.0584 58.7121 -7.5433
# 6 -17.0633 -13.4392 -3.3435 -1.5772 -7.5433 48.8094
#
#
#
# Elastic Compliance Matrix: (Units=1/GPa)
#
#
# Indices 1 2 3 4 5 6 
#
# 1 0.024063 -0.001199 0.000358 -0.000477 0.020826 0.011310
# 2 -0.001199 0.008334 -0.004760 -0.000448 -0.000166 0.001509
# 3 0.000358 -0.004760 0.030584 0.019825 0.010639 0.003195
# 4 -0.000477 -0.000448 0.019825 0.043619 0.010410 0.004086
# 5 0.020826 -0.000166 0.010639 0.010410 0.040061 0.014491
# 6 0.011310 0.001509 0.003195 0.004086 0.014491 0.027448
#
#
# Mechanical properties :
#
#
# Convention : Reuss Voigt Hill
#
# Bulk Modulus (GPa) = 19.31277 50.04769 34.68023
# Shear Modulus (GPa) = 24.68281 42.89626 33.78953
#
# Velocity S-wave (km/s) = 3.18098 4.19347 3.72181
# Velocity P-wave (km/s) = 4.62695 6.63052 5.71719
#
# Compressibility (1/GPa) = 0.05177921
#
# Stress axis : x y z
#
# Youngs Moduli (GPa) = 41.55780 119.99334 32.69651
#
# Poissons Ratio (x) = 0.14389 -0.01170
# Poissons Ratio (y) = 0.04983 0.15562
# Poissons Ratio (z) = -0.01487 0.57111
#
# Static dielectric constant tensor:
#      x y z
#    x 2.065850 0.098280 -0.049490 
#    y 0.098280 1.937370 -0.009070 
#    z -0.049490 -0.009070 1.960200 
# 
# From -- ./inp_files/222562.got.cif
#   From: 2010.05.17/outbox.cif.g08.bks.cpg/sg2_112_cif.got.tgz:222562.got - 2010.06.03 11:33:40.
