data_PCOD9069265
_publ_section_title
;
Structure prediction by ZEFSAII (Michael W. Deem and Ramdas Pophale) SiO2 
 PCOD9069265
Probable space group: P -1
;
_chemical_formula_sum "Si O2"
_cell_formula_units_Z 15
_cell_length_a 7.786124
_cell_length_b 18.055297
_cell_length_c 14.852333
_cell_angle_alpha 159.356191
_cell_angle_beta 93.184681
_cell_angle_gamma 77.245283
_cell_volume 644.980805
_symmetry_space_group_name_H-M "P -1"
_symmetry_group_IT_number 2
_symmetry_cell_setting 'triclinic'
loop_
_space_group_symop_operation_xyz
x,y,z
-x,-y,-z
loop_
_atom_site_type_symbol
_atom_site_label
_atom_site_fract_x
_atom_site_fract_y
_atom_site_fract_z
Si Si1 0.660805 0.035861 0.713139
Si Si2 0.321050 0.558149 0.246584
Si Si3 0.000000 0.000000 0.000000
Si Si4 0.920415 0.599413 0.829892
Si Si5 0.283082 0.146250 0.289088
Si Si6 0.773823 0.564082 0.086792
Si Si7 0.932636 0.169393 0.775992
Si Si8 0.705392 0.009445 0.157725
O O1 0.853860 0.053417 0.713866
O O2 0.674782 0.949098 0.715860
O O3 0.654315 0.843502 0.425223
O O4 0.489897 0.302471 0.995276
O O5 0.138788 0.576219 0.319950
O O6 0.343950 0.783579 0.533550
O O7 0.295865 0.526249 0.104038
O O8 0.871644 0.001394 0.087433
O O9 0.159801 0.041249 0.114185
O O10 0.141363 0.433458 0.613983
O O11 0.909287 0.781199 0.113840
O O12 0.789081 0.753063 0.918424
O O13 0.498883 0.078799 0.183776
O O14 0.776289 0.420970 0.013903
O O15 0.000000 0.500000 0.000000
O O16 0.000000 0.000000 0.500000
#
# Coordination Sequence:
#
# PCOD9069265 Si02
#       8
#     2   2   1   2   2   2   2   2
#     4  12  25  45  70 109 154 204 254 310 376 450
#     4  12  25  46  72 109 154 203 256 311 369 454
#     4  12  28  52  88 112 148 192 256 324 394 468
#     4  12  24  47  75 106 154 203 248 309 381 450
#     4  12  26  53  78 115 152 198 254 318 389 456
#     4  12  23  41  67 106 154 202 262 305 363 446
#     4  12  23  37  68 104 150 210 252 308 366 428
#     4  12  28  52  79 115 151 198 252 317 392 460
#
# _framework density 23.256506000000002
#
# number of rings (size 3 to 8) (size 9 to 14) (size 15 to 20)
#    0.000    0.000    6.667    3.200    0.000    1.067 
#    0.000    3.333    0.000    0.000    0.000    0.000 
#    0.000    0.000    0.000    0.000    0.000    0.000 
#
# Total GULP energy -83669.406559 kJ/mol
# GULP energy per Si atom -5577.960437 kJ/mol
# Density = 2.320357 g / cm^3
# Si number density = 23.256506 Si / 1000 Ang^3
#
#
#
# Elastic Constant Matrix: (Units=GPa)
#
#
# Indices 1 2 3 4 5 6 
#
# 1 112.3206 19.8986 22.0130 -13.4638 14.3753 -7.5140
# 2 19.8986 78.1249 67.8279 -32.3140 5.5136 -12.6956
# 3 22.0130 67.8279 36.2613 28.8832 -0.8031 -7.9543
# 4 -13.4638 -32.3140 28.8832 24.3808 -13.3207 4.7072
# 5 14.3753 5.5136 -0.8031 -13.3207 34.3541 3.1563
# 6 -7.5140 -12.6956 -7.9543 4.7072 3.1563 39.5311
#
#
#
# Elastic Compliance Matrix: (Units=1/GPa)
#
#
# Indices 1 2 3 4 5 6 
#
# 1 0.009830 -0.002723 0.000320 -0.001193 -0.004273 0.001542
# 2 -0.002723 0.001829 0.008628 -0.012178 -0.004003 0.003576
# 3 0.000320 0.008628 -0.002300 0.017124 0.005074 -0.000075
# 4 -0.001193 -0.012178 0.017124 0.007605 0.005994 -0.002076
# 5 -0.004273 -0.004003 0.005074 0.005994 0.034398 -0.004537
# 6 0.001542 0.003576 -0.000075 -0.002076 -0.004537 0.027332
#
#
# Mechanical properties :
#
#
# Convention : Reuss Voigt Hill
#
# Bulk Modulus (GPa) = 45.85240 49.57620 47.71430
# Shear Modulus (GPa) = 68.01520 27.45103 47.73311
#
# Velocity S-wave (km/s) = 5.41379 3.43936 4.53533
# Velocity P-wave (km/s) = 7.67057 6.09391 6.92724
#
# Compressibility (1/GPa) = 0.02180911
#
# Stress axis : x y z
#
# Youngs Moduli (GPa) = 101.73241 546.71823 -434.73941
#
# Poissons Ratio (x) = 1.48888 0.13933
# Poissons Ratio (y) = 0.27705 3.75096
# Poissons Ratio (z) = -0.03261 -4.71712
#
# Static dielectric constant tensor:
#      x y z
#    x 1.993690 0.007390 -0.019330 
#    y 0.007390 1.817040 0.017940 
#    z -0.019330 0.017940 1.896020 
# 
# From -- ./inp_files/507167.got.cif
#   From: 2010.05.17/outbox.cif.g08.bks.cpg/sg2_254_cif.got.tgz:507167.got - 2010.06.03 11:33:40.
