data_PCOD9069679
_publ_section_title
;
Structure prediction by ZEFSAII (Michael W. Deem and Ramdas Pophale) SiO2 
 PCOD9069679
Probable space group: P -1
;
_chemical_formula_sum "Si O2"
_cell_formula_units_Z 16
_cell_length_a 10.295341
_cell_length_b 13.259393
_cell_length_c 14.983397
_cell_angle_alpha 27.129576
_cell_angle_beta 121.243758
_cell_angle_gamma 135.565741
_cell_volume 607.695189
_symmetry_space_group_name_H-M "P -1"
_symmetry_group_IT_number 2
_symmetry_cell_setting 'triclinic'
loop_
_space_group_symop_operation_xyz
x,y,z
-x,-y,-z
loop_
_atom_site_type_symbol
_atom_site_label
_atom_site_fract_x
_atom_site_fract_y
_atom_site_fract_z
Si Si1 0.960111 0.731149 0.456758
Si Si2 0.728305 0.666456 0.969639
Si Si3 0.681165 0.910068 0.210152
Si Si4 0.947365 0.607750 0.742213
Si Si5 0.362595 0.727888 0.395788
Si Si6 0.424645 0.597984 0.186148
Si Si7 0.210157 0.321392 0.823324
Si Si8 0.718940 0.291312 0.123939
O O1 0.811713 0.807908 0.342258
O O2 0.043123 0.747990 0.570022
O O3 0.815267 0.389674 0.644747
O O4 0.142443 0.987869 0.259688
O O5 0.763190 0.574806 0.147623
O O6 0.787099 0.563789 0.990261
O O7 0.500000 0.500000 0.000000
O O8 0.534985 0.786644 0.343558
O O9 0.539972 0.770570 0.181607
O O10 0.824138 0.257036 0.968097
O O11 0.795239 0.672801 0.646301
O O12 0.110746 0.727109 0.783044
O O13 0.224126 0.476462 0.617002
O O14 0.501558 0.994373 0.303810
O O15 0.588275 0.630159 0.160653
O O16 0.335761 0.682517 0.014636
O O17 0.000000 0.000000 0.000000
#
# Coordination Sequence:
#
# PCOD9069679 Si02
#       8
#     2   2   2   2   2   2   2   2
#     4  12  25  49  80 113 151 215 255 311 400 461
#     4  12  27  53  74 106 159 209 264 321 377 458
#     4  12  23  48  80 116 160 194 260 328 388 468
#     4  12  26  45  78 119 162 195 251 327 400 466
#     4  12  25  47  78 114 147 202 264 313 393 465
#     4  12  23  46  78 112 154 203 244 325 392 456
#     4  12  26  49  79 107 149 211 268 314 374 469
#     4  12  28  47  74 116 162 201 251 327 394 455
#
# _framework density 26.328990000000001
#
# number of rings (size 3 to 8) (size 9 to 14) (size 15 to 20)
#    0.000    0.000    7.500    2.625    1.750    0.500 
#    0.000    3.125    0.000    0.000    0.000    0.000 
#    0.000    0.000    0.000    0.000    0.000    0.000 
#
# Total GULP energy -89120.873941 kJ/mol
# GULP energy per Si atom -5570.054621 kJ/mol
# Density = 2.626906 g / cm^3
# Si number density = 26.328990 Si / 1000 Ang^3
#
#
#
# Elastic Constant Matrix: (Units=GPa)
#
#
# Indices 1 2 3 4 5 6 
#
# 1 53.1053 40.2982 8.7180 6.8581 0.2566 5.9858
# 2 40.2982 234.9710 57.8693 31.1472 -15.8525 -15.2584
# 3 8.7180 57.8693 99.3983 10.9018 -25.1768 -20.9918
# 4 6.8581 31.1472 10.9018 66.4701 -6.3006 -20.0177
# 5 0.2566 -15.8525 -25.1768 -6.3006 31.5827 4.3366
# 6 5.9858 -15.2584 -20.9918 -20.0177 4.3366 41.5210
#
#
#
# Elastic Compliance Matrix: (Units=1/GPa)
#
#
# Indices 1 2 3 4 5 6 
#
# 1 0.023094 -0.003842 -0.001652 -0.002555 -0.003052 -0.006489
# 2 -0.003842 0.005863 -0.002677 -0.001727 0.000430 0.000477
# 3 -0.001652 -0.002677 0.015730 0.001976 0.010635 0.007049
# 4 -0.002555 -0.001727 0.001976 0.018971 0.003203 0.009544
# 5 -0.003052 0.000430 0.010635 0.003203 0.040570 0.003282
# 6 -0.006489 0.000477 0.007049 0.009544 0.003282 0.033017
#
#
# Mechanical properties :
#
#
# Convention : Reuss Voigt Hill
#
# Bulk Modulus (GPa) = 35.28126 66.80505 51.04316
# Shear Modulus (GPa) = 30.66812 46.62070 38.64441
#
# Velocity S-wave (km/s) = 3.41663 4.21253 3.83528
# Velocity P-wave (km/s) = 5.38458 7.00634 6.24830
#
# Compressibility (1/GPa) = 0.02834366
#
# Stress axis : x y z
#
# Youngs Moduli (GPa) = 43.30213 170.55515 63.57332
#
# Poissons Ratio (x) = 0.65535 0.10500
# Poissons Ratio (y) = 0.16639 0.17021
# Poissons Ratio (z) = 0.07152 0.45665
#
# Static dielectric constant tensor:
#      x y z
#    x 1.803620 -0.186070 0.884460 
#    y -0.186070 1.928770 0.317430 
#    z 0.884460 0.317430 0.704960 
# 
# From -- ./inp_files/522174.got.cif
#   From: 2010.05.17/outbox.cif.g08.bks.cpg/sg2_262_cif.got.tgz:522174.got - 2010.06.03 11:33:40.
