data_PCOD9069037
_publ_section_title
;
Structure prediction by ZEFSAII (Michael W. Deem and Ramdas Pophale) SiO2 
 PCOD9069037
Probable space group: P -1
;
_chemical_formula_sum "Si O2"
_cell_formula_units_Z 16
_cell_length_a 17.599104
_cell_length_b 8.961104
_cell_length_c 12.569571
_cell_angle_alpha 37.648622
_cell_angle_beta 37.985072
_cell_angle_gamma 40.333368
_cell_volume 692.999659
_symmetry_space_group_name_H-M "P -1"
_symmetry_group_IT_number 2
_symmetry_cell_setting 'triclinic'
loop_
_space_group_symop_operation_xyz
x,y,z
-x,-y,-z
loop_
_atom_site_type_symbol
_atom_site_label
_atom_site_fract_x
_atom_site_fract_y
_atom_site_fract_z
Si Si1 0.925363 0.341381 0.606233
Si Si2 0.160614 0.123591 0.046837
Si Si3 0.527294 0.200320 0.136160
Si Si4 0.610086 0.766282 0.952336
Si Si5 0.459107 0.619840 0.596987
Si Si6 0.759630 0.534668 0.377416
Si Si7 0.857628 0.907709 0.665732
Si Si8 0.306737 0.183676 0.497319
O O1 0.782756 0.563693 0.613963
O O2 0.000000 0.500000 0.500000
O O3 0.010169 0.240509 0.462557
O O4 0.904261 0.076152 0.819694
O O5 0.126367 0.152516 0.192892
O O6 0.150159 0.396159 0.849448
O O7 0.320161 0.966528 0.953913
O O8 0.439749 0.180745 0.143380
O O9 0.458788 0.163223 0.340803
O O10 0.500000 0.500000 0.000000
O O11 0.748737 0.799197 0.800505
O O12 0.592933 0.525981 0.171155
O O13 0.500000 0.000000 0.000000
O O14 0.500000 0.500000 0.500000
O O15 0.604870 0.610467 0.475444
O O16 0.334811 0.900453 0.574195
O O17 0.756742 0.733917 0.364145
O O18 0.809294 0.224037 0.524461
#
# Coordination Sequence:
#
# PCOD9069037 Si02
#       8
#     2   2   2   2   2   2   2   2
#     4  12  29  52  75 102 152 205 247 308 365 444
#     4  12  25  47  77 108 142 199 250 301 376 437
#     4  12  22  40  71 104 146 186 242 301 370 433
#     4  12  23  42  72 107 143 195 239 300 378 430
#     4  12  25  42  70 115 153 181 241 314 375 440
#     4  12  26  45  78 114 146 193 243 312 373 441
#     4  12  26  51  73 107 155 196 252 296 367 449
#     4  12  26  46  72 109 150 187 244 308 372 438
#
# _framework density 23.088035000000001
#
# number of rings (size 3 to 8) (size 9 to 14) (size 15 to 20)
#    0.000    0.000    6.250    3.750    3.500    0.500 
#    0.000    1.250    0.000    0.000    0.000    0.000 
#    0.000    0.000    0.000    0.000    0.000    0.000 
#
# Total GULP energy -89270.280374 kJ/mol
# GULP energy per Si atom -5579.392523 kJ/mol
# Density = 2.303549 g / cm^3
# Si number density = 23.088035 Si / 1000 Ang^3
#
#
#
# Elastic Constant Matrix: (Units=GPa)
#
#
# Indices 1 2 3 4 5 6 
#
# 1 81.8150 -1.5072 22.6568 4.2664 -18.4956 15.9013
# 2 -1.5072 117.6610 26.4672 16.0221 6.7111 4.7114
# 3 22.6568 26.4672 157.6759 -2.1991 -7.1127 5.0884
# 4 4.2664 16.0221 -2.1991 49.9688 0.8057 -1.0708
# 5 -18.4956 6.7111 -7.1127 0.8057 37.9375 7.0697
# 6 15.9013 4.7114 5.0884 -1.0708 7.0697 30.0981
#
#
#
# Elastic Compliance Matrix: (Units=1/GPa)
#
#
# Indices 1 2 3 4 5 6 
#
# 1 0.017395 0.000821 -0.001839 -0.002239 0.010177 -0.011478
# 2 0.000821 0.009471 -0.001763 -0.003195 -0.001271 -0.001433
# 3 -0.001839 -0.001763 0.006950 0.001016 0.000708 -0.000057
# 4 -0.002239 -0.003195 0.001016 0.021348 -0.001268 0.002569
# 5 0.010177 -0.001271 0.000708 -0.001268 0.034198 -0.013375
# 6 -0.011478 -0.001433 -0.000057 0.002569 -0.013375 0.042756
#
#
# Mechanical properties :
#
#
# Convention : Reuss Voigt Hill
#
# Bulk Modulus (GPa) = 35.39423 50.26504 42.82963
# Shear Modulus (GPa) = 33.99041 44.23656 39.11349
#
# Velocity S-wave (km/s) = 3.84110 4.38196 4.12041
# Velocity P-wave (km/s) = 5.91908 6.88624 6.42090
#
# Compressibility (1/GPa) = 0.02825320
#
# Stress axis : x y z
#
# Youngs Moduli (GPa) = 57.48615 105.58468 143.87849
#
# Poissons Ratio (x) = -0.08664 0.26460
# Poissons Ratio (y) = -0.04717 0.25371
# Poissons Ratio (z) = 0.10572 0.18618
#
# Static dielectric constant tensor:
#      x y z
#    x 1.727970 -0.044530 0.083510 
#    y -0.044530 1.817930 -0.009260 
#    z 0.083510 -0.009260 1.860880 
# 
# From -- ./inp_files/461791.got.cif
#   From: 2010.05.17/outbox.cif.g08.bks.cpg/sg2_231_cif.got.tgz:461791.got - 2010.06.03 11:33:40.
