data_PCOD9069740
_publ_section_title
;
Structure prediction by ZEFSAII (Michael W. Deem and Ramdas Pophale) SiO2 
 PCOD9069740
Probable space group: P -1
;
_chemical_formula_sum "Si O2"
_cell_formula_units_Z 16
_cell_length_a 31.429140
_cell_length_b 9.726109
_cell_length_c 11.813496
_cell_angle_alpha 131.854229
_cell_angle_beta 153.402823
_cell_angle_gamma 30.631960
_cell_volume 736.554610
_symmetry_space_group_name_H-M "P -1"
_symmetry_group_IT_number 2
_symmetry_cell_setting 'triclinic'
loop_
_space_group_symop_operation_xyz
x,y,z
-x,-y,-z
loop_
_atom_site_type_symbol
_atom_site_label
_atom_site_fract_x
_atom_site_fract_y
_atom_site_fract_z
Si Si1 0.128737 0.269331 0.775215
Si Si2 0.491512 0.800093 0.352037
Si Si3 0.945343 0.795639 0.018272
Si Si4 0.955398 0.852119 0.811501
Si Si5 0.638202 0.431164 0.278306
Si Si6 0.893611 0.125587 0.422796
Si Si7 0.393760 0.652371 0.440847
Si Si8 0.561630 0.702262 0.998708
O O1 0.000000 0.500000 0.500000
O O2 0.083552 0.504208 0.885386
O O3 0.101417 0.099292 0.656650
O O4 0.310399 0.011953 0.029362
O O5 0.602687 0.602064 0.399510
O O6 0.562970 0.590831 0.516006
O O7 0.500000 0.000000 0.500000
O O8 0.055705 0.795802 0.320733
O O9 0.911285 0.872889 0.846736
O O10 0.000000 0.500000 0.000000
O O11 0.787235 0.062083 0.859017
O O12 0.804950 0.079685 0.496870
O O13 0.000000 0.000000 0.000000
O O14 0.613531 0.572947 0.179049
O O15 0.500000 0.500000 0.000000
O O16 0.714561 0.440717 0.143928
O O17 0.000000 0.000000 0.500000
O O18 0.500000 0.500000 0.500000
O O19 0.434031 0.757726 0.679636
O O20 0.500000 0.000000 0.000000
#
# Coordination Sequence:
#
# PCOD9069740 Si02
#       8
#     2   2   2   2   2   2   2   2
#     4  12  26  45  72 106 142 184 236 297 357 424
#     4  12  27  46  74 106 142 190 236 296 368 424
#     4  12  26  46  72 105 141 192 243 289 360 427
#     4  12  25  44  72 104 140 186 235 297 356 425
#     4  12  23  48  70 101 143 181 240 294 350 433
#     4  12  26  47  71 105 146 188 239 295 358 428
#     4  12  27  48  70 104 147 183 240 301 356 429
#     4  12  26  47  73 105 140 192 240 296 362 427
#
# _framework density 21.722763
#
# number of rings (size 3 to 8) (size 9 to 14) (size 15 to 20)
#    0.000    0.000    3.750    6.000    5.250    2.000 
#    0.000    0.000    0.000    0.000    0.000    0.000 
#    0.000    0.000    0.000    0.000    0.000    0.000 
#
# Total GULP energy -89460.859221 kJ/mol
# GULP energy per Si atom -5591.303701 kJ/mol
# Density = 2.167332 g / cm^3
# Si number density = 21.722763 Si / 1000 Ang^3
#
#
#
# Elastic Constant Matrix: (Units=GPa)
#
#
# Indices 1 2 3 4 5 6 
#
# 1 115.1960 48.0857 12.3057 3.4917 6.9039 11.8603
# 2 48.0857 171.9157 34.4924 6.6353 12.0361 29.6828
# 3 12.3057 34.4924 97.7311 -3.8824 18.6507 21.1861
# 4 3.4917 6.6353 -3.8824 39.8503 -4.4089 7.4674
# 5 6.9039 12.0361 18.6507 -4.4089 39.1173 -0.4163
# 6 11.8603 29.6828 21.1861 7.4674 -0.4163 49.9604
#
#
#
# Elastic Compliance Matrix: (Units=1/GPa)
#
#
# Indices 1 2 3 4 5 6 
#
# 1 0.009898 -0.002546 0.000000 -0.000409 -0.001018 -0.000785
# 2 -0.002546 0.007473 -0.001419 -0.000714 -0.001287 -0.003138
# 3 0.000000 -0.001419 0.012947 0.001810 -0.005585 -0.004964
# 4 -0.000409 -0.000714 0.001810 0.026471 0.002368 -0.004183
# 5 -0.001018 -0.001287 -0.005585 0.002368 0.029104 0.003263
# 6 -0.000785 -0.003138 -0.004964 -0.004183 0.003263 0.024824
#
#
# Mechanical properties :
#
#
# Convention : Reuss Voigt Hill
#
# Bulk Modulus (GPa) = 44.66733 63.84560 54.25646
# Shear Modulus (GPa) = 39.64809 45.11620 42.38214
#
# Velocity S-wave (km/s) = 4.27685 4.56226 4.42186
# Velocity P-wave (km/s) = 6.70789 7.56354 7.14853
#
# Compressibility (1/GPa) = 0.02238773
#
# Stress axis : x y z
#
# Youngs Moduli (GPa) = 101.03287 133.81227 77.23833
#
# Poissons Ratio (x) = 0.34069 -0.00003
# Poissons Ratio (y) = 0.25723 0.10964
# Poissons Ratio (z) = -0.00004 0.18994
#
# Static dielectric constant tensor:
#      x y z
#    x 1.525940 0.384150 0.164910 
#    y 0.384150 1.178520 -0.209060 
#    z 0.164910 -0.209060 1.725220 
# 
# From -- ./inp_files/477504.got.cif
#   From: 2010.05.17/outbox.cif.g08.bks.cpg/sg2_239_cif.got.tgz:477504.got - 2010.06.03 11:33:40.
