data_PCOD9069907
_publ_section_title
;
Structure prediction by ZEFSAII (Michael W. Deem and Ramdas Pophale) SiO2 
 PCOD9069907
Probable space group: P -1
;
_chemical_formula_sum "Si O2"
_cell_formula_units_Z 16
_cell_length_a 6.773390
_cell_length_b 16.961824
_cell_length_c 9.280899
_cell_angle_alpha 115.482287
_cell_angle_beta 53.445824
_cell_angle_gamma 127.482606
_cell_volume 675.833772
_symmetry_space_group_name_H-M "P -1"
_symmetry_group_IT_number 2
_symmetry_cell_setting 'triclinic'
loop_
_space_group_symop_operation_xyz
x,y,z
-x,-y,-z
loop_
_atom_site_type_symbol
_atom_site_label
_atom_site_fract_x
_atom_site_fract_y
_atom_site_fract_z
Si Si1 0.655744 0.125645 0.743726
Si Si2 0.828161 0.583234 0.914281
Si Si3 0.709961 0.944656 0.668962
Si Si4 0.761702 0.703284 0.280134
Si Si5 0.577803 0.204572 0.564740
Si Si6 0.139102 0.290208 0.279507
Si Si7 0.828373 0.900415 0.902362
Si Si8 0.607203 0.418437 0.390737
O O1 0.558332 0.121175 0.618681
O O2 0.980912 0.206157 0.678916
O O3 0.593502 0.022029 0.761451
O O4 0.474299 0.162303 0.941580
O O5 0.852955 0.656088 0.829586
O O6 0.065306 0.550074 0.752663
O O7 0.500000 0.500000 0.000000
O O8 0.874238 0.641394 0.091142
O O9 0.516857 0.842728 0.589328
O O10 0.779111 0.928220 0.786344
O O11 0.000000 0.000000 0.500000
O O12 0.629300 0.752998 0.270283
O O13 0.514957 0.637258 0.447589
O O14 0.897693 0.291043 0.485402
O O15 0.043394 0.173475 0.213340
O O16 0.430505 0.343188 0.279845
O O17 0.000000 0.000000 0.000000
O O18 0.500000 0.500000 0.500000
#
# Coordination Sequence:
#
# PCOD9069907 Si02
#       8
#     2   2   2   2   2   2   2   2
#     4  12  25  44  71 103 149 200 255 319 380 448
#     4  12  30  49  79 117 152 202 261 320 394 477
#     4  12  24  43  69 104 152 197 260 311 378 454
#     4  12  26  47  77 108 150 197 256 316 390 464
#     4  12  24  45  74 105 146 204 254 312 385 450
#     4  12  26  48  77 107 155 201 257 315 389 464
#     4  12  27  45  72 113 155 205 257 318 382 457
#     4  12  28  52  80 112 156 198 255 330 400 471
#
# _framework density 23.674457
#
# number of rings (size 3 to 8) (size 9 to 14) (size 15 to 20)
#    0.000    0.000    3.750    6.000    5.250    4.000 
#    0.000    0.000    0.000    0.000    0.000    0.000 
#    0.000    0.000    0.000    0.000    0.000    0.000 
#
# Total GULP energy -89554.466654 kJ/mol
# GULP energy per Si atom -5597.154166 kJ/mol
# Density = 2.362057 g / cm^3
# Si number density = 23.674457 Si / 1000 Ang^3
#
#
#
# Elastic Constant Matrix: (Units=GPa)
#
#
# Indices 1 2 3 4 5 6 
#
# 1 135.3882 50.9058 59.0160 -8.8753 -9.0675 -12.8833
# 2 50.9058 92.8792 30.2776 4.6654 1.8715 -13.1129
# 3 59.0160 30.2776 114.5547 -6.1617 -10.2299 -7.7002
# 4 -8.8753 4.6654 -6.1617 37.6280 1.7135 -5.9822
# 5 -9.0675 1.8715 -10.2299 1.7135 46.4621 -5.1396
# 6 -12.8833 -13.1129 -7.7002 -5.9822 -5.1396 39.4385
#
#
#
# Elastic Compliance Matrix: (Units=1/GPa)
#
#
# Indices 1 2 3 4 5 6 
#
# 1 0.011536 -0.004841 -0.004231 0.002869 0.001628 0.001980
# 2 -0.004841 0.014379 -0.001430 -0.002723 -0.001482 0.002314
# 3 -0.004231 -0.001430 0.011565 0.001118 0.001826 0.000808
# 4 0.002869 -0.002723 0.001118 0.028491 0.000376 0.004621
# 5 0.001628 -0.001482 0.001826 0.000376 0.022665 0.003406
# 6 0.001980 0.002314 0.000808 0.004621 0.003406 0.028075
#
#
# Mechanical properties :
#
#
# Convention : Reuss Voigt Hill
#
# Bulk Modulus (GPa) = 60.69167 69.24677 64.96922
# Shear Modulus (GPa) = 34.91443 38.21390 36.56417
#
# Velocity S-wave (km/s) = 3.84444 4.02200 3.93422
# Velocity P-wave (km/s) = 6.73780 7.13314 6.93828
#
# Compressibility (1/GPa) = 0.01647673
#
# Stress axis : x y z
#
# Youngs Moduli (GPa) = 86.68402 69.54360 86.47070
#
# Poissons Ratio (x) = 0.33666 0.36584
# Poissons Ratio (y) = 0.41963 0.12365
# Poissons Ratio (z) = 0.36675 0.09945
#
# Static dielectric constant tensor:
#      x y z
#    x 1.994950 -0.013350 -0.050980 
#    y -0.013350 1.934200 0.028980 
#    z -0.050980 0.028980 1.923970 
# 
# From -- ./inp_files/139210.got.cif
#   From: 2010.05.17/outbox.cif.g08.bks.cpg/sg2_70_cif.got.tgz:139210.got - 2010.06.03 11:33:40.
