data_PCOD9069496
_publ_section_title
;
Structure prediction by ZEFSAII (Michael W. Deem and Ramdas Pophale) SiO2 
 PCOD9069496
Probable space group: P -1
;
_chemical_formula_sum "Si O2"
_cell_formula_units_Z 16
_cell_length_a 15.387675
_cell_length_b 12.495628
_cell_length_c 18.613850
_cell_angle_alpha 29.301848
_cell_angle_beta 27.815078
_cell_angle_gamma 47.164553
_cell_volume 749.023869
_symmetry_space_group_name_H-M "P -1"
_symmetry_group_IT_number 2
_symmetry_cell_setting 'triclinic'
loop_
_space_group_symop_operation_xyz
x,y,z
-x,-y,-z
loop_
_atom_site_type_symbol
_atom_site_label
_atom_site_fract_x
_atom_site_fract_y
_atom_site_fract_z
Si Si1 0.008109 0.615542 0.849647
Si Si2 0.871300 0.986582 0.674371
Si Si3 0.740792 0.159065 0.225561
Si Si4 0.548536 0.298723 0.922963
Si Si5 0.846426 0.110238 0.019353
Si Si6 0.266592 0.200730 0.450546
Si Si7 0.561792 0.036048 0.662003
Si Si8 0.041621 0.616136 0.510723
O O1 0.247085 0.731410 0.586938
O O2 0.940624 0.835472 0.768821
O O3 0.000000 0.500000 0.000000
O O4 0.847541 0.414354 0.035396
O O5 0.911638 0.237856 0.534124
O O6 0.638240 0.841996 0.909790
O O7 0.000000 0.000000 0.500000
O O8 0.500000 0.000000 0.500000
O O9 0.829021 0.991959 0.303521
O O10 0.786435 0.196895 0.086731
O O11 0.564131 0.562291 0.776628
O O12 0.755778 0.322497 0.719495
O O13 0.507741 0.150828 0.112987
O O14 0.946864 0.336276 0.761788
O O15 0.636007 0.930906 0.242159
O O16 0.000000 0.000000 0.000000
O O17 0.113270 0.300756 0.467710
O O18 0.355983 0.078999 0.396068
#
# Coordination Sequence:
#
# PCOD9069496 Si02
#       8
#     2   2   2   2   2   2   2   2
#     4  12  23  44  71 107 142 181 235 298 353 416
#     4  12  24  44  72 103 139 185 241 292 350 426
#     4  12  24  44  74 106 143 185 238 294 359 426
#     4  12  26  42  72 105 144 185 240 293 361 416
#     4  12  28  47  69 105 147 186 239 297 370 427
#     4  12  23  45  74 106 132 190 244 293 347 426
#     4  12  25  45  72 105 141 186 246 294 357 425
#     4  12  26  46  70 104 146 187 236 298 358 429
#
# _framework density 21.361134
#
# number of rings (size 3 to 8) (size 9 to 14) (size 15 to 20)
#    0.000    0.000    6.250    3.375    3.500    1.000 
#    0.000    1.875    0.000    0.000    0.000    0.000 
#    0.000    0.000    0.000    0.000    0.000    0.000 
#
# Total GULP energy -89486.295250 kJ/mol
# GULP energy per Si atom -5592.893453 kJ/mol
# Density = 2.131252 g / cm^3
# Si number density = 21.361134 Si / 1000 Ang^3
#
#
#
# Elastic Constant Matrix: (Units=GPa)
#
#
# Indices 1 2 3 4 5 6 
#
# 1 85.3989 15.0450 24.8643 3.4551 -15.9348 -19.7931
# 2 15.0450 53.6737 29.7156 0.6783 -14.9627 -7.3181
# 3 24.8643 29.7156 123.7323 2.1436 -15.0172 -6.8700
# 4 3.4551 0.6783 2.1436 33.3230 4.5233 -1.7320
# 5 -15.9348 -14.9627 -15.0172 4.5233 61.9278 -0.9344
# 6 -19.7931 -7.3181 -6.8700 -1.7320 -0.9344 49.5488
#
#
#
# Elastic Compliance Matrix: (Units=1/GPa)
#
#
# Indices 1 2 3 4 5 6 
#
# 1 0.014357 -0.001396 -0.001855 -0.001487 0.003095 0.005278
# 2 -0.001396 0.023054 -0.004617 -0.000474 0.004160 0.002269
# 3 -0.001855 -0.004617 0.009661 -0.000446 0.000781 -0.000084
# 4 -0.001487 -0.000474 -0.000446 0.030602 -0.002836 0.000291
# 5 0.003095 0.004160 0.000781 -0.002836 0.018379 0.002207
# 6 0.005278 0.002269 -0.000084 0.000291 0.002207 0.022666
#
#
# Mechanical properties :
#
#
# Convention : Reuss Voigt Hill
#
# Bulk Modulus (GPa) = 31.91247 44.67275 38.29261
# Shear Modulus (GPa) = 34.50649 41.83859 38.17254
#
# Velocity S-wave (km/s) = 4.02355 4.43044 4.23189
# Velocity P-wave (km/s) = 6.04625 6.86515 6.46867
#
# Compressibility (1/GPa) = 0.03133571
#
# Stress axis : x y z
#
# Youngs Moduli (GPa) = 69.65306 43.37718 103.50403
#
# Poissons Ratio (x) = 0.06055 0.19204
# Poissons Ratio (y) = 0.09722 0.47787
# Poissons Ratio (z) = 0.12923 0.20027
#
# Static dielectric constant tensor:
#      x y z
#    x 1.801840 -0.014300 -0.031300 
#    y -0.014300 1.786030 0.005290 
#    z -0.031300 0.005290 1.773470 
# 
# From -- ./inp_files/206317.got.cif
#   From: 2010.05.17/outbox.cif.g08.bks.cpg/sg2_104_cif.got.tgz:206317.got - 2010.06.03 11:33:40.
