data_PCOD9069464
_publ_section_title
;
Structure prediction by ZEFSAII (Michael W. Deem and Ramdas Pophale) SiO2 
 PCOD9069464
Probable space group: P -1
;
_chemical_formula_sum "Si O2"
_cell_formula_units_Z 16
_cell_length_a 10.809747
_cell_length_b 11.871279
_cell_length_c 7.752545
_cell_angle_alpha 81.912730
_cell_angle_beta 119.570527
_cell_angle_gamma 129.367942
_cell_volume 646.583792
_symmetry_space_group_name_H-M "P -1"
_symmetry_group_IT_number 2
_symmetry_cell_setting 'triclinic'
loop_
_space_group_symop_operation_xyz
x,y,z
-x,-y,-z
loop_
_atom_site_type_symbol
_atom_site_label
_atom_site_fract_x
_atom_site_fract_y
_atom_site_fract_z
Si Si1 0.989219 0.864750 0.961606
Si Si2 0.809289 0.465791 0.421929
Si Si3 0.784826 0.691498 0.177454
Si Si4 0.893891 0.096260 0.368809
Si Si5 0.631289 0.173312 0.198381
Si Si6 0.204609 0.577584 0.206880
Si Si7 0.656571 0.094954 0.732287
Si Si8 0.460491 0.258612 0.816992
O O1 0.014313 0.868859 0.769011
O O2 0.181435 0.276338 0.011101
O O3 0.164546 0.890951 0.162028
O O4 0.000000 0.000000 0.000000
O O5 0.774730 0.554723 0.256848
O O6 0.657577 0.285086 0.336925
O O7 0.828847 0.510355 0.623327
O O8 0.000000 0.500000 0.500000
O O9 0.613321 0.680191 0.124430
O O10 0.956700 0.829477 0.387992
O O11 0.797957 0.170557 0.302182
O O12 0.725921 0.914732 0.320967
O O13 0.445489 0.003945 0.145403
O O14 0.598237 0.238559 0.003552
O O15 0.276698 0.742361 0.257877
O O16 0.390151 0.616045 0.244208
O O17 0.000000 0.500000 0.000000
O O18 0.500000 0.000000 0.500000
#
# Coordination Sequence:
#
# PCOD9069464 Si02
#       8
#     2   2   2   2   2   2   2   2
#     4  12  26  45  75 116 153 201 254 316 399 464
#     4  12  26  48  72 106 157 208 256 316 390 470
#     4  12  28  49  74 116 163 202 253 326 394 466
#     4  12  24  48  80 113 157 197 261 322 387 469
#     4  12  23  46  76 109 146 200 260 324 377 462
#     4  12  28  46  77 114 152 204 268 321 400 469
#     4  12  23  43  76 110 144 198 265 324 380 463
#     4  12  26  47  75 111 154 198 256 325 391 461
#
# _framework density 24.745439999999999
#
# number of rings (size 3 to 8) (size 9 to 14) (size 15 to 20)
#    0.000    0.000    6.250    3.750    1.750    1.000 
#    2.250    1.875    0.000    0.000    0.000    0.000 
#    0.000    0.000    0.000    0.000    0.000    0.000 
#
# Total GULP energy -89457.355879 kJ/mol
# GULP energy per Si atom -5591.084742 kJ/mol
# Density = 2.468912 g / cm^3
# Si number density = 24.745440 Si / 1000 Ang^3
#
#
#
# Elastic Constant Matrix: (Units=GPa)
#
#
# Indices 1 2 3 4 5 6 
#
# 1 151.5552 40.4396 6.7599 -12.3381 4.0692 13.4016
# 2 40.4396 131.1788 11.3743 -0.7803 -6.7656 -2.6048
# 3 6.7599 11.3743 56.0054 7.8559 -13.9893 10.6179
# 4 -12.3381 -0.7803 7.8559 47.7768 1.6857 -1.5313
# 5 4.0692 -6.7656 -13.9893 1.6857 40.8888 -16.4630
# 6 13.4016 -2.6048 10.6179 -1.5313 -16.4630 49.2404
#
#
#
# Elastic Compliance Matrix: (Units=1/GPa)
#
#
# Indices 1 2 3 4 5 6 
#
# 1 0.007816 -0.002522 -0.000862 0.002122 -0.002758 -0.002931
# 2 -0.002522 0.008661 -0.001286 -0.000305 0.002109 0.002118
# 3 -0.000862 -0.001286 0.020770 -0.003953 0.006189 -0.002366
# 4 0.002122 -0.000305 -0.003953 0.022215 -0.002482 0.000120
# 5 -0.002758 0.002109 0.006189 -0.002482 0.031291 0.009912
# 6 -0.002931 0.002118 -0.002366 0.000120 0.009912 0.025046
#
#
# Mechanical properties :
#
#
# Convention : Reuss Voigt Hill
#
# Bulk Modulus (GPa) = 35.83575 50.65412 43.24494
# Shear Modulus (GPa) = 37.19069 46.25891 41.72480
#
# Velocity S-wave (km/s) = 3.88097 4.32834 4.11074
# Velocity P-wave (km/s) = 5.88182 6.74491 6.32810
#
# Compressibility (1/GPa) = 0.02790509
#
# Stress axis : x y z
#
# Youngs Moduli (GPa) = 127.94676 115.45489 48.14698
#
# Poissons Ratio (x) = 0.29123 0.04150
# Poissons Ratio (y) = 0.32274 0.06194
# Poissons Ratio (z) = 0.11028 0.14853
#
# Static dielectric constant tensor:
#      x y z
#    x 2.092320 0.033760 -0.255390 
#    y 0.033760 2.017710 0.156910 
#    z -0.255390 0.156910 2.031050 
# 
# From -- ./inp_files/262341.got.cif
#   From: 2010.05.17/outbox.cif.g08.bks.cpg/sg2_132_cif.got.tgz:262341.got - 2010.06.03 11:33:40.
