data_PCOD9069795
_publ_section_title
;
Structure prediction by ZEFSAII (Michael W. Deem and Ramdas Pophale) SiO2 
 PCOD9069795
Probable space group: P -1
;
_chemical_formula_sum "Si O2"
_cell_formula_units_Z 14
_cell_length_a 8.180600
_cell_length_b 23.644251
_cell_length_c 5.555531
_cell_angle_alpha 65.810191
_cell_angle_beta 118.569667
_cell_angle_gamma 144.375442
_cell_volume 549.230778
_symmetry_space_group_name_H-M "P -1"
_symmetry_group_IT_number 2
_symmetry_cell_setting 'triclinic'
loop_
_space_group_symop_operation_xyz
x,y,z
-x,-y,-z
loop_
_atom_site_type_symbol
_atom_site_label
_atom_site_fract_x
_atom_site_fract_y
_atom_site_fract_z
Si Si1 0.175140 0.175274 0.372934
Si Si2 0.638188 0.972780 0.249002
Si Si3 0.239618 0.846302 0.576118
Si Si4 0.751226 0.583309 0.218868
Si Si5 0.620062 0.214689 0.877667
Si Si6 0.160381 0.523507 0.323003
Si Si7 0.323042 0.298082 0.862545
O O1 0.356523 0.193948 0.688108
O O2 0.937594 0.163555 0.323871
O O3 0.376653 0.260657 0.168907
O O4 0.984406 0.071321 0.300810
O O5 0.545467 0.947382 0.509432
O O6 0.501689 0.877724 0.189202
O O7 0.500000 0.000000 0.000000
O O8 0.009562 0.794215 0.290746
O O9 0.297020 0.790890 0.794395
O O10 0.774660 0.533250 0.513259
O O11 0.657458 0.627796 0.150370
O O12 0.081061 0.678356 0.190925
O O13 0.500000 0.500000 0.000000
O O14 0.455928 0.639420 0.312019
O O15 0.000000 0.500000 0.500000
O O16 0.000000 0.500000 0.000000
#
# Coordination Sequence:
#
# PCOD9069795 Si02
#       7
#     2   2   2   2   2   2   2
#     4  12  27  48  78 112 155 201 259 322 393 469
#     4  12  23  50  74 109 157 204 251 321 391 468
#     4  12  24  46  77 104 159 196 257 310 399 458
#     4  12  25  52  80 108 157 211 263 328 409 476
#     4  12  27  46  75 114 151 197 266 317 384 473
#     4  12  29  49  77 116 156 203 272 335 398 475
#     4  12  26  51  75 109 154 205 256 323 396 480
#
# _framework density 25.490195
#
# number of rings (size 3 to 8) (size 9 to 14) (size 15 to 20)
#    0.000    0.000    5.714    3.857    4.000    2.857 
#    0.000    0.000    0.000    0.000    0.000    0.000 
#    0.000    0.000    0.000    0.000    0.000    0.000 
#
# Total GULP energy -78351.717984 kJ/mol
# GULP energy per Si atom -5596.551285 kJ/mol
# Density = 2.543218 g / cm^3
# Si number density = 25.490195 Si / 1000 Ang^3
#
#
#
# Elastic Constant Matrix: (Units=GPa)
#
#
# Indices 1 2 3 4 5 6 
#
# 1 75.5739 33.8678 21.5149 -6.0694 8.5988 -0.6232
# 2 33.8678 127.1623 25.3036 -24.4116 9.1229 -2.7306
# 3 21.5149 25.3036 145.0008 -23.0386 31.3791 14.8395
# 4 -6.0694 -24.4116 -23.0386 60.8891 6.2788 -9.6607
# 5 8.5988 9.1229 31.3791 6.2788 44.4670 1.2076
# 6 -0.6232 -2.7306 14.8395 -9.6607 1.2076 45.3833
#
#
#
# Elastic Compliance Matrix: (Units=1/GPa)
#
#
# Indices 1 2 3 4 5 6 
#
# 1 0.015462 -0.003802 -0.001490 -0.000364 -0.001119 0.000423
# 2 -0.003802 0.009831 -0.000345 0.003839 -0.001621 0.001513
# 3 -0.001490 -0.000345 0.009441 0.003637 -0.006757 -0.002174
# 4 -0.000364 0.003839 0.003637 0.020516 -0.006277 0.003571
# 5 -0.001119 -0.001621 -0.006757 -0.006277 0.028692 -0.000003
# 6 0.000423 0.001513 -0.002174 0.003571 -0.000003 0.023602
#
#
# Mechanical properties :
#
#
# Convention : Reuss Voigt Hill
#
# Bulk Modulus (GPa) = 42.62852 56.56773 49.59812
# Shear Modulus (GPa) = 39.48244 47.95127 43.71686
#
# Velocity S-wave (km/s) = 3.93991 4.34195 4.14580
# Velocity P-wave (km/s) = 6.12021 6.88308 6.51283
#
# Compressibility (1/GPa) = 0.02345848
#
# Stress axis : x y z
#
# Youngs Moduli (GPa) = 64.67644 101.71803 105.92589
#
# Poissons Ratio (x) = 0.38675 0.15780
# Poissons Ratio (y) = 0.24591 0.03660
# Poissons Ratio (z) = 0.09635 0.03514
#
# Static dielectric constant tensor:
#      x y z
#    x 2.102780 0.043360 -0.064220 
#    y 0.043360 2.130890 0.028340 
#    z -0.064220 0.028340 1.996210 
# 
# From -- ./inp_files/56352.got.cif
#   From: 2010.05.17/outbox.cif.g08.bks.cpg/sg2_29_cif.got.tgz:56352.got - 2010.06.03 11:33:40.
