data_PCOD9069614
_publ_section_title
;
Structure prediction by ZEFSAII (Michael W. Deem and Ramdas Pophale) SiO2 
 PCOD9069614
Probable space group: P -1
;
_chemical_formula_sum "Si O2"
_cell_formula_units_Z 16
_cell_length_a 8.291380
_cell_length_b 20.738363
_cell_length_c 8.068963
_cell_angle_alpha 57.475433
_cell_angle_beta 146.081924
_cell_angle_gamma 119.853423
_cell_volume 648.843804
_symmetry_space_group_name_H-M "P -1"
_symmetry_group_IT_number 2
_symmetry_cell_setting 'triclinic'
loop_
_space_group_symop_operation_xyz
x,y,z
-x,-y,-z
loop_
_atom_site_type_symbol
_atom_site_label
_atom_site_fract_x
_atom_site_fract_y
_atom_site_fract_z
Si Si1 0.054577 0.183913 0.442293
Si Si2 0.695277 0.051348 0.462994
Si Si3 0.801074 0.330849 0.150373
Si Si4 0.273063 0.987435 0.972116
Si Si5 0.682450 0.170737 0.841852
Si Si6 0.045388 0.679939 0.325965
Si Si7 0.538769 0.585752 0.842798
Si Si8 0.351085 0.416469 0.446113
O O1 0.894462 0.132963 0.526345
O O2 0.946114 0.267513 0.253340
O O3 0.389151 0.187529 0.664350
O O4 0.896885 0.144276 0.201444
O O5 0.500000 0.000000 0.500000
O O6 0.417280 0.059732 0.101002
O O7 0.934698 0.998378 0.666318
O O8 0.848749 0.303150 0.418143
O O9 0.019155 0.408595 0.230776
O O10 0.514283 0.353774 0.779477
O O11 0.329431 0.901489 0.194861
O O12 0.500000 0.000000 0.000000
O O13 0.837056 0.246000 0.782482
O O14 0.218153 0.609782 0.517905
O O15 0.719394 0.646631 0.038627
O O16 0.656721 0.593560 0.745346
O O17 0.500000 0.500000 0.000000
O O18 0.500000 0.500000 0.500000
#
# Coordination Sequence:
#
# PCOD9069614 Si02
#       8
#     2   2   2   2   2   2   2   2
#     4  12  24  45  67  99 139 188 234 294 361 431
#     4  12  26  44  69 103 142 183 240 299 367 430
#     4  12  26  44  68 102 142 181 232 290 360 422
#     4  12  23  46  70 101 136 189 242 295 357 437
#     4  12  25  43  72  97 139 185 240 293 356 429
#     4  12  26  45  67 106 139 182 237 292 354 421
#     4  12  25  46  73 101 140 183 235 291 350 422
#     4  12  25  46  72 101 138 185 231 286 356 427
#
# _framework density 24.65925
#
# number of rings (size 3 to 8) (size 9 to 14) (size 15 to 20)
#    0.000    0.000    2.500    9.000    1.750    0.000 
#    2.250    0.000    0.000    0.000    0.000    0.000 
#    0.000    0.000    0.000    0.000    0.000    0.000 
#
# Total GULP energy -89103.346218 kJ/mol
# GULP energy per Si atom -5568.959139 kJ/mol
# Density = 2.460312 g / cm^3
# Si number density = 24.659250 Si / 1000 Ang^3
#
#
#
# Elastic Constant Matrix: (Units=GPa)
#
#
# Indices 1 2 3 4 5 6 
#
# 1 84.5161 27.4104 35.7006 -1.9151 -10.2466 27.9614
# 2 27.4104 135.6785 28.6848 -7.3053 4.3394 18.8691
# 3 35.7006 28.6848 107.8132 16.9553 11.3439 15.0457
# 4 -1.9151 -7.3053 16.9553 40.0820 3.7936 6.1027
# 5 -10.2466 4.3394 11.3439 3.7936 45.9011 -3.0480
# 6 27.9614 18.8691 15.0457 6.1027 -3.0480 38.4030
#
#
#
# Elastic Compliance Matrix: (Units=1/GPa)
#
#
# Indices 1 2 3 4 5 6 
#
# 1 0.018960 -0.000960 -0.005597 0.004413 0.004580 -0.011479
# 2 -0.000960 0.008613 -0.001856 0.002917 -0.001033 -0.003352
# 3 -0.005597 -0.001856 0.012843 -0.005773 -0.003732 0.000577
# 4 0.004413 0.002917 -0.005773 0.029286 -0.000756 -0.007098
# 5 0.004580 -0.001033 -0.003732 -0.000756 0.023934 0.000655
# 6 -0.011479 -0.003352 0.000577 -0.007098 0.000655 0.036998
#
#
# Mechanical properties :
#
#
# Convention : Reuss Voigt Hill
#
# Bulk Modulus (GPa) = 42.39046 56.84439 49.61742
# Shear Modulus (GPa) = 32.19100 40.62469 36.40785
#
# Velocity S-wave (km/s) = 3.61700 4.06327 3.84661
# Velocity P-wave (km/s) = 5.88824 6.71681 6.31613
#
# Compressibility (1/GPa) = 0.02359021
#
# Stress axis : x y z
#
# Youngs Moduli (GPa) = 52.74163 116.10526 77.86582
#
# Poissons Ratio (x) = 0.11142 0.43582
# Poissons Ratio (y) = 0.05061 0.14453
# Poissons Ratio (z) = 0.29520 0.21550
#
# Static dielectric constant tensor:
#      x y z
#    x 2.308800 -0.055350 -0.314310 
#    y -0.055350 2.046020 0.033560 
#    z -0.314310 0.033560 2.151960 
# 
# From -- ./inp_files/226234.got.cif
#   From: 2010.05.17/outbox.cif.g08.bks.cpg/sg2_114_cif.got.tgz:226234.got - 2010.06.03 11:33:40.
