data_PCOD9069421
_publ_section_title
;
Structure prediction by ZEFSAII (Michael W. Deem and Ramdas Pophale) SiO2 
 PCOD9069421
Probable space group: P -1
;
_chemical_formula_sum "Si O2"
_cell_formula_units_Z 16
_cell_length_a 6.796641
_cell_length_b 18.167858
_cell_length_c 19.508050
_cell_angle_alpha 151.030140
_cell_angle_beta 50.285134
_cell_angle_gamma 141.741043
_cell_volume 713.146059
_symmetry_space_group_name_H-M "P -1"
_symmetry_group_IT_number 2
_symmetry_cell_setting 'triclinic'
loop_
_space_group_symop_operation_xyz
x,y,z
-x,-y,-z
loop_
_atom_site_type_symbol
_atom_site_label
_atom_site_fract_x
_atom_site_fract_y
_atom_site_fract_z
Si Si1 0.822674 0.318128 0.207470
Si Si2 0.910356 0.844449 0.181805
Si Si3 0.843317 0.383911 0.513025
Si Si4 0.837622 0.006977 0.611736
Si Si5 0.883333 0.886510 0.004067
Si Si6 0.820660 0.385784 0.105817
Si Si7 0.132081 0.167620 0.293511
Si Si8 0.765312 0.329229 0.859527
O O1 0.843502 0.391340 0.186573
O O2 0.486048 0.253138 0.259159
O O3 0.091775 0.466802 0.322462
O O4 0.873241 0.155857 0.060559
O O5 0.572261 0.707994 0.106282
O O6 0.900987 0.875532 0.289919
O O7 0.075586 0.049984 0.277997
O O8 0.098429 0.755971 0.053868
O O9 0.469009 0.196118 0.452948
O O10 0.000000 0.500000 0.500000
O O11 0.057853 0.317438 0.435084
O O12 0.718292 0.135870 0.728435
O O13 0.000000 0.000000 0.500000
O O14 0.527533 0.701317 0.917618
O O15 0.890918 0.017031 0.166369
O O16 0.000000 0.000000 0.000000
O O17 0.064153 0.591916 0.187216
O O18 0.000000 0.500000 0.000000
#
# Coordination Sequence:
#
# PCOD9069421 Si02
#       8
#     2   2   2   2   2   2   2   2
#     4  12  27  43  74 111 147 193 248 312 373 451
#     4  12  25  48  77 107 149 196 248 309 376 442
#     4  12  28  51  76 106 155 203 252 308 375 454
#     4  12  30  50  77 111 153 202 254 313 378 447
#     4  12  23  43  70 110 150 187 248 309 375 440
#     4  12  26  42  77 110 148 191 247 312 381 440
#     4  12  23  48  74 106 149 195 248 306 381 447
#     4  12  27  48  77 109 144 197 251 306 376 450
#
# _framework density 22.435797000000001
#
# number of rings (size 3 to 8) (size 9 to 14) (size 15 to 20)
#    0.000    0.000    5.000    4.875    3.500    1.500 
#    0.000    0.000    0.000    0.000    0.000    0.000 
#    0.000    0.000    0.000    0.000    0.000    0.000 
#
# Total GULP energy -89497.533673 kJ/mol
# GULP energy per Si atom -5593.595855 kJ/mol
# Density = 2.238473 g / cm^3
# Si number density = 22.435797 Si / 1000 Ang^3
#
#
#
# Elastic Constant Matrix: (Units=GPa)
#
#
# Indices 1 2 3 4 5 6 
#
# 1 104.9013 48.3593 24.5474 -5.5611 12.1736 -3.1989
# 2 48.3593 113.9495 16.9896 4.8086 -5.3361 2.4982
# 3 24.5474 16.9896 86.0360 -6.3954 5.8449 4.1283
# 4 -5.5611 4.8086 -6.3954 32.7834 -4.1248 -3.0991
# 5 12.1736 -5.3361 5.8449 -4.1248 36.7853 -2.1601
# 6 -3.1989 2.4982 4.1283 -3.0991 -2.1601 42.1765
#
#
#
# Elastic Compliance Matrix: (Units=1/GPa)
#
#
# Indices 1 2 3 4 5 6 
#
# 1 0.013377 -0.005675 -0.002294 0.002224 -0.004548 0.001506
# 2 -0.005675 0.011629 -0.001047 -0.002544 0.003386 -0.001030
# 3 -0.002294 -0.001047 0.012779 0.001975 -0.001277 -0.001283
# 4 0.002224 -0.002544 0.001975 0.032181 0.002343 0.002611
# 5 -0.004548 0.003386 -0.001277 0.002343 0.029721 0.001274
# 6 0.001506 -0.001030 -0.001283 0.002611 0.001274 0.024268
#
#
# Mechanical properties :
#
#
# Convention : Reuss Voigt Hill
#
# Bulk Modulus (GPa) = 50.62331 53.85326 52.23829
# Shear Modulus (GPa) = 33.65371 36.68174 35.16772
#
# Velocity S-wave (km/s) = 3.87719 4.04786 3.96344
# Velocity P-wave (km/s) = 6.53116 6.77512 6.65426
#
# Compressibility (1/GPa) = 0.01975375
#
# Stress axis : x y z
#
# Youngs Moduli (GPa) = 74.75296 85.99310 78.25051
#
# Poissons Ratio (x) = 0.48802 0.17951
# Poissons Ratio (y) = 0.42423 0.08192
# Poissons Ratio (z) = 0.17149 0.09002
#
# Static dielectric constant tensor:
#      x y z
#    x 1.841700 0.090370 0.059170 
#    y 0.090370 1.994730 0.065520 
#    z 0.059170 0.065520 1.806770 
# 
# From -- ./inp_files/85378.got.cif
#   From: 2010.05.17/outbox.cif.g08.bks.cpg/sg2_43_cif.got.tgz:85378.got - 2010.06.03 11:33:40.
