data_PCOD9069776
_publ_section_title
;
Structure prediction by ZEFSAII (Michael W. Deem and Ramdas Pophale) SiO2 
 PCOD9069776
Probable space group: P -1
;
_chemical_formula_sum "Si O2"
_cell_formula_units_Z 14
_cell_length_a 5.999120
_cell_length_b 24.444945
_cell_length_c 18.316598
_cell_angle_alpha 19.297606
_cell_angle_beta 57.991690
_cell_angle_gamma 48.529133
_cell_volume 614.253029
_symmetry_space_group_name_H-M "P -1"
_symmetry_group_IT_number 2
_symmetry_cell_setting 'triclinic'
loop_
_space_group_symop_operation_xyz
x,y,z
-x,-y,-z
loop_
_atom_site_type_symbol
_atom_site_label
_atom_site_fract_x
_atom_site_fract_y
_atom_site_fract_z
Si Si1 0.638494 0.111979 0.883282
Si Si2 0.332842 0.328903 0.960611
Si Si3 0.540338 0.363451 0.445675
Si Si4 0.221132 0.273390 0.897174
Si Si5 0.673365 0.140146 0.562590
Si Si6 0.304901 0.916175 0.668686
Si Si7 0.317091 0.572125 0.016710
O O1 0.608190 0.271790 0.629693
O O2 0.396774 0.221779 0.854839
O O3 0.500000 0.000000 0.000000
O O4 0.000000 0.000000 0.000000
O O5 0.278193 0.535212 0.735894
O O6 0.346373 0.341427 0.855720
O O7 0.066850 0.303252 0.072180
O O8 0.647242 0.143929 0.178064
O O9 0.680648 0.177286 0.600626
O O10 0.159346 0.548099 0.270928
O O11 0.316721 0.061340 0.183593
O O12 0.397881 0.372366 0.296920
O O13 0.929612 0.091335 0.516101
O O14 0.500000 0.000000 0.500000
O O15 0.394948 0.716162 0.862179
O O16 0.500000 0.500000 0.000000
#
# Coordination Sequence:
#
# PCOD9069776 Si02
#       7
#     2   2   2   2   2   2   2
#     4  12  31  51  84 123 158 208 260 322 395 470
#     4  12  25  47  76 106 148 202 252 315 389 454
#     4  12  27  51  77 111 154 201 259 314 392 465
#     4  12  27  51  77 111 154 201 259 314 392 465
#     4  12  23  49  74 102 154 194 258 307 381 470
#     4  12  28  47  69 109 148 196 255 318 385 461
#     4  12  28  47  69 109 148 196 255 318 385 461
#
# _framework density 22.791912
#
# number of rings (size 3 to 8) (size 9 to 14) (size 15 to 20)
#    0.000    0.000    7.143    1.286   12.000    2.857 
#    0.000    0.000    0.000    0.000    0.000    0.000 
#    0.000    0.000    0.000    0.000    0.000    0.000 
#
# Total GULP energy -77987.838960 kJ/mol
# GULP energy per Si atom -5570.559926 kJ/mol
# Density = 2.274004 g / cm^3
# Si number density = 22.791912 Si / 1000 Ang^3
#
#
#
# Elastic Constant Matrix: (Units=GPa)
#
#
# Indices 1 2 3 4 5 6 
#
# 1 78.6720 27.4251 37.3720 -5.1112 -1.4221 11.2475
# 2 27.4251 157.3688 10.9909 -3.9170 3.9276 12.4222
# 3 37.3720 10.9909 114.8891 3.1586 6.7296 -2.7084
# 4 -5.1112 -3.9170 3.1586 41.7942 4.8232 -2.7342
# 5 -1.4221 3.9276 6.7296 4.8232 26.7426 15.7808
# 6 11.2475 12.4222 -2.7084 -2.7342 15.7808 22.3754
#
#
#
# Elastic Compliance Matrix: (Units=1/GPa)
#
#
# Indices 1 2 3 4 5 6 
#
# 1 0.020483 -0.001704 -0.007960 -0.000365 0.016308 -0.021860
# 2 -0.001704 0.006950 -0.000278 0.000063 0.001257 -0.003915
# 3 -0.007960 -0.000278 0.012334 0.000352 -0.011834 0.014038
# 4 -0.000365 0.000063 0.000352 0.025958 -0.011620 0.011558
# 5 0.016308 0.001257 -0.011834 -0.011620 0.085783 -0.072248
# 6 -0.021860 -0.003915 0.014038 0.011558 -0.072248 0.111920
#
#
# Mechanical properties :
#
#
# Convention : Reuss Voigt Hill
#
# Bulk Modulus (GPa) = 50.29674 55.83397 53.06535
# Shear Modulus (GPa) = 17.24484 36.52523 26.88503
#
# Velocity S-wave (km/s) = 2.75366 4.00753 3.43824
# Velocity P-wave (km/s) = 5.67679 6.77969 6.25260
#
# Compressibility (1/GPa) = 0.01988200
#
# Stress axis : x y z
#
# Youngs Moduli (GPa) = 48.82144 143.88258 81.07379
#
# Poissons Ratio (x) = 0.24520 0.64537
# Poissons Ratio (y) = 0.08320 0.02255
# Poissons Ratio (z) = 0.38863 0.04003
#
# Static dielectric constant tensor:
#      x y z
#    x 1.958800 0.018090 0.045450 
#    y 0.018090 1.777810 0.026640 
#    z 0.045450 0.026640 1.861830 
# 
# From -- ./inp_files/10653.got.cif
#   From: 2010.05.17/outbox.cif.g08.bks.cpg/sg2_6_cif.got.tgz:10653.got - 2010.06.03 11:33:40.
