data_PCOD9069700
_publ_section_title
;
Structure prediction by ZEFSAII (Michael W. Deem and Ramdas Pophale) SiO2 
 PCOD9069700
Probable space group: P -1
;
_chemical_formula_sum "Si O2"
_cell_formula_units_Z 14
_cell_length_a 20.537888
_cell_length_b 15.146163
_cell_length_c 11.477967
_cell_angle_alpha 30.578375
_cell_angle_beta 31.025758
_cell_angle_gamma 21.318804
_cell_volume 630.567267
_symmetry_space_group_name_H-M "P -1"
_symmetry_group_IT_number 2
_symmetry_cell_setting 'triclinic'
loop_
_space_group_symop_operation_xyz
x,y,z
-x,-y,-z
loop_
_atom_site_type_symbol
_atom_site_label
_atom_site_fract_x
_atom_site_fract_y
_atom_site_fract_z
Si Si1 0.713612 0.236918 0.489386
Si Si2 0.751801 0.942819 0.973379
Si Si3 0.992498 0.913774 0.233670
Si Si4 0.879811 0.674926 0.596715
Si Si5 0.167444 0.518076 0.897236
Si Si6 0.668598 0.336157 0.835795
Si Si7 0.551939 0.811482 0.355843
O O1 0.500000 0.500000 0.500000
O O2 0.734060 0.049763 0.752361
O O3 0.815698 0.292299 0.333850
O O4 0.798687 0.134547 0.347461
O O5 0.689184 0.149265 0.931442
O O6 0.969797 0.675867 0.961231
O O7 0.625382 0.899354 0.219082
O O8 0.147155 0.829456 0.179890
O O9 0.003241 0.697142 0.444823
O O10 0.000000 0.000000 0.000000
O O11 0.000000 0.500000 0.500000
O O12 0.673421 0.959337 0.560206
O O13 0.841037 0.555575 0.878236
O O14 0.347076 0.269498 0.832509
O O15 0.632345 0.547748 0.578094
O O16 0.500000 0.500000 0.000000
#
# Coordination Sequence:
#
# PCOD9069700 Si02
#       7
#     2   2   2   2   2   2   2
#     4  12  24  43  75 106 143 189 239 296 355 430
#     4  12  26  47  77 110 144 189 246 297 363 425
#     4  12  26  47  70 103 148 189 238 297 361 426
#     4  12  28  46  70 107 147 191 242 296 363 431
#     4  12  23  47  73 105 146 186 243 300 357 426
#     4  12  28  47  76 109 148 190 241 303 362 430
#     4  12  26  48  76 106 146 189 243 300 358 431
#
# _framework density 22.20223
#
# number of rings (size 3 to 8) (size 9 to 14) (size 15 to 20)
#    0.000    0.000    2.857    7.286    6.000    0.571 
#    0.000    0.000    0.000    0.000    0.000    0.000 
#    0.000    0.000    0.000    0.000    0.000    0.000 
#
# Total GULP energy -78424.157967 kJ/mol
# GULP energy per Si atom -5601.725569 kJ/mol
# Density = 2.215170 g / cm^3
# Si number density = 22.202230 Si / 1000 Ang^3
#
#
#
# Elastic Constant Matrix: (Units=GPa)
#
#
# Indices 1 2 3 4 5 6 
#
# 1 86.2793 46.3742 30.6715 9.3450 0.7186 22.1929
# 2 46.3742 132.1145 23.4965 27.5959 24.8520 24.0091
# 3 30.6715 23.4965 82.5022 6.0905 6.4322 26.8804
# 4 9.3450 27.5959 6.0905 40.0039 9.4491 6.4416
# 5 0.7186 24.8520 6.4322 9.4491 54.6841 -5.4061
# 6 22.1929 24.0091 26.8804 6.4416 -5.4061 46.8655
#
#
#
# Elastic Compliance Matrix: (Units=1/GPa)
#
#
# Indices 1 2 3 4 5 6 
#
# 1 0.016336 -0.004993 -0.003968 0.000133 0.002235 -0.002663
# 2 -0.004993 0.011987 0.000485 -0.005397 -0.004890 -0.003877
# 3 -0.003968 0.000485 0.016306 0.000094 -0.002900 -0.008070
# 4 0.000133 -0.005397 0.000094 0.029632 -0.002854 -0.001754
# 5 0.002235 -0.004890 -0.002900 -0.002854 0.021910 0.006030
# 6 -0.002663 -0.003877 -0.008070 -0.001754 0.006030 0.030150
#
#
# Mechanical properties :
#
#
# Convention : Reuss Voigt Hill
#
# Bulk Modulus (GPa) = 36.12870 55.77558 45.95214
# Shear Modulus (GPa) = 32.78701 41.66763 37.22732
#
# Velocity S-wave (km/s) = 3.84701 4.33683 4.09924
# Velocity P-wave (km/s) = 6.00338 7.08897 6.56864
#
# Compressibility (1/GPa) = 0.02767882
#
# Stress axis : x y z
#
# Youngs Moduli (GPa) = 61.21325 83.42136 61.32619
#
# Poissons Ratio (x) = 0.41652 0.24333
# Poissons Ratio (y) = 0.30563 -0.02975
# Poissons Ratio (z) = 0.24288 -0.04047
#
# Static dielectric constant tensor:
#      x y z
#    x 1.875950 0.060870 0.022210 
#    y 0.060870 1.747650 -0.086100 
#    z 0.022210 -0.086100 1.751310 
# 
# From -- ./inp_files/188611.got.cif
#   From: 2010.05.17/outbox.cif.g08.bks.cpg/sg2_95_cif.got.tgz:188611.got - 2010.06.03 11:33:40.
