data_PCOD9069134
_publ_section_title
;
Structure prediction by ZEFSAII (Michael W. Deem and Ramdas Pophale) SiO2 
 PCOD9069134
Probable space group: P -1
;
_chemical_formula_sum "Si O2"
_cell_formula_units_Z 16
_cell_length_a 11.479900
_cell_length_b 10.581940
_cell_length_c 7.011625
_cell_angle_alpha 100.808077
_cell_angle_beta 100.251024
_cell_angle_gamma 62.332967
_cell_volume 736.941674
_symmetry_space_group_name_H-M "P -1"
_symmetry_group_IT_number 2
_symmetry_cell_setting 'triclinic'
loop_
_space_group_symop_operation_xyz
x,y,z
-x,-y,-z
loop_
_atom_site_type_symbol
_atom_site_label
_atom_site_fract_x
_atom_site_fract_y
_atom_site_fract_z
Si Si1 0.702734 0.172693 0.829807
Si Si2 0.352864 0.256112 0.356806
Si Si3 0.137706 0.482199 0.121362
Si Si4 0.973236 0.361770 0.498582
Si Si5 0.545871 0.558930 0.348205
Si Si6 0.411305 0.927059 0.874915
Si Si7 0.751632 0.921280 0.491822
Si Si8 0.776280 0.369691 0.118194
O O1 0.580345 0.312475 0.746490
O O2 0.757081 0.050585 0.649762
O O3 0.651152 0.114288 0.976327
O O4 0.801139 0.230305 0.962824
O O5 0.226408 0.329929 0.203281
O O6 0.356872 0.373157 0.536199
O O7 0.484853 0.205498 0.256544
O O8 0.346260 0.127513 0.435298
O O9 0.102345 0.599618 0.311367
O O10 0.220385 0.511135 0.989593
O O11 0.000000 0.500000 0.000000
O O12 0.885857 0.341425 0.302098
O O13 0.000000 0.500000 0.500000
O O14 0.110226 0.220162 0.514664
O O15 0.500000 0.500000 0.500000
O O16 0.633324 0.432052 0.194381
O O17 0.303251 0.027238 0.720348
O O18 0.500000 0.000000 0.000000
#
# Coordination Sequence:
#
# PCOD9069134 Si02
#       8
#     2   2   2   2   2   2   2   2
#     4  12  27  46  69 106 146 184 237 286 360 433
#     4  12  22  43  71 103 141 184 233 296 355 417
#     4  12  25  43  74 105 140 182 239 298 353 416
#     4  12  25  48  71 104 139 182 242 298 347 421
#     4  12  24  46  76 104 147 183 233 298 359 422
#     4  12  25  42  70 103 144 189 230 288 360 421
#     4  12  26  45  69 105 144 183 239 293 351 424
#     4  12  26  46  74 104 141 187 237 291 362 419
#
# _framework density 21.711352000000002
#
# number of rings (size 3 to 8) (size 9 to 14) (size 15 to 20)
#    0.000    0.000    6.250    3.750    1.750    1.500 
#    0.000    1.250    0.000    0.000    0.000    0.000 
#    0.000    0.000    0.000    0.000    0.000    0.000 
#
# Total GULP energy -89602.243145 kJ/mol
# GULP energy per Si atom -5600.140197 kJ/mol
# Density = 2.166194 g / cm^3
# Si number density = 21.711352 Si / 1000 Ang^3
#
#
#
# Elastic Constant Matrix: (Units=GPa)
#
#
# Indices 1 2 3 4 5 6 
#
# 1 56.8290 33.6355 37.5058 -16.0518 6.0810 0.1446
# 2 33.6355 119.5346 64.1341 -15.7340 15.3220 -18.2349
# 3 37.5058 64.1341 144.3300 -22.9756 12.4674 0.0333
# 4 -16.0518 -15.7340 -22.9756 45.9412 6.0051 4.1542
# 5 6.0810 15.3220 12.4674 6.0051 55.7274 3.3824
# 6 0.1446 -18.2349 0.0333 4.1542 3.3824 44.9152
#
#
#
# Elastic Compliance Matrix: (Units=1/GPa)
#
#
# Indices 1 2 3 4 5 6 
#
# 1 0.024139 -0.004508 -0.003279 0.005609 -0.001124 -0.002339
# 2 -0.004508 0.013246 -0.004399 0.000597 -0.002566 0.005534
# 3 -0.003279 -0.004399 0.010256 0.002773 -0.000906 -0.001971
# 4 0.005609 0.000597 0.002773 0.026022 -0.004087 -0.001877
# 5 -0.001124 -0.002566 -0.000906 -0.004087 0.019545 -0.002131
# 6 -0.002339 0.005534 -0.001971 -0.001877 -0.002131 0.024854
#
#
# Mechanical properties :
#
#
# Convention : Reuss Voigt Hill
#
# Bulk Modulus (GPa) = 42.97642 65.69384 54.33513
# Shear Modulus (GPa) = 33.29097 41.67795 37.48446
#
# Velocity S-wave (km/s) = 3.92004 4.38612 4.15961
# Velocity P-wave (km/s) = 6.35031 7.48160 6.93904
#
# Compressibility (1/GPa) = 0.02326857
#
# Stress axis : x y z
#
# Youngs Moduli (GPa) = 41.42614 75.49397 97.50534
#
# Poissons Ratio (x) = 0.34029 0.31977
# Poissons Ratio (y) = 0.18673 0.42896
# Poissons Ratio (z) = 0.13586 0.33212
#
# Static dielectric constant tensor:
#      x y z
#    x 1.799710 0.001190 0.006900 
#    y 0.001190 1.795600 0.039230 
#    z 0.006900 0.039230 1.835260 
# 
# From -- ./inp_files/71359.got.cif
#   From: 2010.05.17/outbox.cif.g08.bks.cpg/sg2_36_cif.got.tgz:71359.got - 2010.06.03 11:33:40.
