data_PCOD9069504
_publ_section_title
;
Structure prediction by ZEFSAII (Michael W. Deem and Ramdas Pophale) SiO2 
 PCOD9069504
Probable space group: P -1
;
_chemical_formula_sum "Si O2"
_cell_formula_units_Z 10
_cell_length_a 9.515862
_cell_length_b 15.023379
_cell_length_c 15.376737
_cell_angle_alpha 161.187894
_cell_angle_beta 139.787569
_cell_angle_gamma 48.052626
_cell_volume 441.751141
_symmetry_space_group_name_H-M "P -1"
_symmetry_group_IT_number 2
_symmetry_cell_setting 'triclinic'
loop_
_space_group_symop_operation_xyz
x,y,z
-x,-y,-z
loop_
_atom_site_type_symbol
_atom_site_label
_atom_site_fract_x
_atom_site_fract_y
_atom_site_fract_z
Si Si1 0.790234 0.257335 0.210387
Si Si2 0.899462 0.559910 0.863985
Si Si3 0.570234 0.316354 0.786951
Si Si4 0.478410 0.306589 0.536496
Si Si5 0.234398 0.904115 0.767753
O O1 0.611203 0.440511 0.314713
O O2 0.868493 0.128174 0.214698
O O3 0.000000 0.500000 0.500000
O O4 0.669955 0.997756 0.850296
O O5 0.737962 0.373523 0.688860
O O6 0.816752 0.394093 0.582036
O O7 0.163282 0.585729 0.016776
O O8 0.857837 0.873134 0.126267
O O9 0.459124 0.327279 0.650248
O O10 0.500000 0.000000 0.500000
O O11 0.500000 0.500000 0.000000
O O12 0.500000 0.000000 0.000000
#
# Coordination Sequence:
#
# PCOD9069504 Si02
#       5
#     2   2   2   2   2
#     4  12  27  42  71 107 145 180 223 291 347 414
#     4  12  25  46  75 100 140 187 231 286 341 420
#     4  12  29  48  71 103 138 184 238 295 345 402
#     4  12  25  49  70 102 141 186 235 280 347 417
#     4  12  23  44  72 106 140 177 233 280 348 419
#
# _framework density 22.637181000000002
#
# number of rings (size 3 to 8) (size 9 to 14) (size 15 to 20)
#    0.000    0.000    4.000    5.400    8.400    0.000 
#    0.000    6.000    0.000    0.000    0.000    0.000 
#    0.000    0.000    0.000    0.000    0.000    0.000 
#
# Total GULP energy -55969.016533 kJ/mol
# GULP energy per Si atom -5596.901653 kJ/mol
# Density = 2.258566 g / cm^3
# Si number density = 22.637181 Si / 1000 Ang^3
#
#
#
# Elastic Constant Matrix: (Units=GPa)
#
#
# Indices 1 2 3 4 5 6 
#
# 1 137.3145 29.7331 60.8278 -5.0573 8.9014 14.0659
# 2 29.7331 45.1139 22.4038 10.2644 6.2604 5.4198
# 3 60.8278 22.4038 123.1421 12.5813 -4.9523 4.6157
# 4 -5.0573 10.2644 12.5813 33.4212 -9.1819 0.2898
# 5 8.9014 6.2604 -4.9523 -9.1819 38.6239 2.9102
# 6 14.0659 5.4198 4.6157 0.2898 2.9102 51.1674
#
#
#
# Elastic Compliance Matrix: (Units=1/GPa)
#
#
# Indices 1 2 3 4 5 6 
#
# 1 0.011159 -0.005673 -0.004960 0.005058 -0.000935 -0.001995
# 2 -0.005673 0.030384 -0.001793 -0.011277 -0.006448 -0.001067
# 3 -0.004960 -0.001793 0.011361 -0.003954 0.001917 0.000442
# 4 0.005058 -0.011277 -0.003954 0.038193 0.009279 -0.000583
# 5 -0.000935 -0.006448 0.001917 0.009279 0.029676 -0.000973
# 6 -0.001995 -0.001067 0.000442 -0.000583 -0.000973 0.020224
#
#
# Mechanical properties :
#
#
# Convention : Reuss Voigt Hill
#
# Bulk Modulus (GPa) = 35.64623 59.05553 47.35088
# Shear Modulus (GPa) = 28.53877 37.48290 33.01084
#
# Velocity S-wave (km/s) = 3.55449 4.07358 3.82286
# Velocity P-wave (km/s) = 5.71199 6.94765 6.35990
#
# Compressibility (1/GPa) = 0.02805345
#
# Stress axis : x y z
#
# Youngs Moduli (GPa) = 89.61074 32.91194 88.01755
#
# Poissons Ratio (x) = 0.18671 0.43655
# Poissons Ratio (y) = 0.50837 0.15779
# Poissons Ratio (z) = 0.44446 0.05900
#
# Static dielectric constant tensor:
#      x y z
#    x 1.853020 -0.035520 0.038960 
#    y -0.035520 1.792050 -0.060080 
#    z 0.038960 -0.060080 1.765750 
# 
# From -- ./inp_files/16063.got.cif
#   From: 2010.05.17/outbox.cif.g08.bks.cpg/sg2_9_cif.got.tgz:16063.got - 2010.06.03 11:33:40.
