data_PCOD9069734
_publ_section_title
;
Structure prediction by ZEFSAII (Michael W. Deem and Ramdas Pophale) SiO2 
 PCOD9069734
Probable space group: P -1
;
_chemical_formula_sum "Si O2"
_cell_formula_units_Z 10
_cell_length_a 10.041225
_cell_length_b 8.581628
_cell_length_c 8.071142
_cell_angle_alpha 90.425136
_cell_angle_beta 134.587699
_cell_angle_gamma 117.950832
_cell_volume 369.701135
_symmetry_space_group_name_H-M "P -1"
_symmetry_group_IT_number 2
_symmetry_cell_setting 'triclinic'
loop_
_space_group_symop_operation_xyz
x,y,z
-x,-y,-z
loop_
_atom_site_type_symbol
_atom_site_label
_atom_site_fract_x
_atom_site_fract_y
_atom_site_fract_z
Si Si1 0.450450 0.336674 0.585505
Si Si2 0.223567 0.737132 0.258622
Si Si3 0.721312 0.670381 0.075455
Si Si4 0.864064 0.083164 0.108014
Si Si5 0.845684 0.258987 0.411808
O O1 0.500000 0.500000 0.500000
O O2 0.525032 0.208096 0.588478
O O3 0.162346 0.205131 0.387864
O O4 0.674367 0.505518 0.906995
O O5 0.251782 0.763031 0.484494
O O6 0.162671 0.854812 0.095127
O O7 0.000000 0.500000 0.000000
O O8 0.979067 0.790885 0.393305
O O9 0.715608 0.838787 0.998253
O O10 0.500000 0.500000 0.000000
O O11 0.752088 0.142601 0.148495
O O12 0.000000 0.500000 0.500000
#
# Coordination Sequence:
#
# PCOD9069734 Si02
#       5
#     2   2   2   2   2
#     4  12  24  48  81 108 156 203 248 319 389 450
#     4  12  24  48  77 119 153 196 261 317 378 473
#     4  12  27  49  78 112 149 203 270 311 376 471
#     4  12  27  52  79 110 157 207 253 318 389 452
#     4  12  23  47  81 106 156 200 249 320 383 453
#
# _framework density 27.048877000000001
#
# number of rings (size 3 to 8) (size 9 to 14) (size 15 to 20)
#    0.000    0.000    8.000    0.600    0.000    3.200 
#    3.600    4.000    4.400    0.000    0.000    0.000 
#    0.000    0.000    0.000    0.000    0.000    0.000 
#
# Total GULP energy -55828.493127 kJ/mol
# GULP energy per Si atom -5582.849313 kJ/mol
# Density = 2.698731 g / cm^3
# Si number density = 27.048877 Si / 1000 Ang^3
#
#
#
# Elastic Constant Matrix: (Units=GPa)
#
#
# Indices 1 2 3 4 5 6 
#
# 1 189.9150 50.4633 32.1209 1.6917 -23.9497 6.2112
# 2 50.4633 203.8120 29.8918 -9.7372 -0.0179 14.9416
# 3 32.1209 29.8918 87.2882 -3.7482 -22.6757 -0.7730
# 4 1.6917 -9.7372 -3.7482 56.5884 -4.9616 -2.4354
# 5 -23.9497 -0.0179 -22.6757 -4.9616 42.8454 -5.2297
# 6 6.2112 14.9416 -0.7730 -2.4354 -5.2297 37.9936
#
#
#
# Elastic Compliance Matrix: (Units=1/GPa)
#
#
# Indices 1 2 3 4 5 6 
#
# 1 0.006177 -0.001375 -0.001076 -0.000249 0.002840 -0.000116
# 2 -0.001375 0.005736 -0.001978 0.000620 -0.002023 -0.002310
# 3 -0.001076 -0.001978 0.014578 0.001424 0.007569 0.002383
# 4 -0.000249 0.000620 0.001424 0.018193 0.002891 0.001390
# 5 0.002840 -0.002023 0.007569 0.002891 0.029850 0.004779
# 6 -0.000116 -0.002310 0.002383 0.001390 0.004779 0.028043
#
#
# Mechanical properties :
#
#
# Convention : Reuss Voigt Hill
#
# Bulk Modulus (GPa) = 56.71024 78.44079 67.57551
# Shear Modulus (GPa) = 42.62138 52.05474 47.33806
#
# Velocity S-wave (km/s) = 3.97384 4.39164 4.18795
# Velocity P-wave (km/s) = 6.48587 7.40121 6.95861
#
# Compressibility (1/GPa) = 0.01763350
#
# Stress axis : x y z
#
# Youngs Moduli (GPa) = 161.89279 174.34727 68.59635
#
# Poissons Ratio (x) = 0.23967 0.07383
# Poissons Ratio (y) = 0.22254 0.13566
# Poissons Ratio (z) = 0.17425 0.34479
#
# Static dielectric constant tensor:
#      x y z
#    x 1.770800 0.093540 0.049230 
#    y 0.093540 1.985680 0.073150 
#    z 0.049230 0.073150 2.093830 
# 
# From -- ./inp_files/243778.got.cif
#   From: 2010.05.17/outbox.cif.g08.bks.cpg/sg2_122_cif.got.tgz:243778.got - 2010.06.03 11:33:40.
