data_PCOD9069518
_publ_section_title
;
Structure prediction by ZEFSAII (Michael W. Deem and Ramdas Pophale) SiO2 
 PCOD9069518
Probable space group: P -1
;
_chemical_formula_sum "Si O2"
_cell_formula_units_Z 16
_cell_length_a 25.038554
_cell_length_b 9.050809
_cell_length_c 9.503056
_cell_angle_alpha 117.948978
_cell_angle_beta 28.791025
_cell_angle_gamma 130.745729
_cell_volume 753.625649
_symmetry_space_group_name_H-M "P -1"
_symmetry_group_IT_number 2
_symmetry_cell_setting 'triclinic'
loop_
_space_group_symop_operation_xyz
x,y,z
-x,-y,-z
loop_
_atom_site_type_symbol
_atom_site_label
_atom_site_fract_x
_atom_site_fract_y
_atom_site_fract_z
Si Si1 0.045376 0.217776 0.557401
Si Si2 0.281673 0.290561 0.236791
Si Si3 0.588101 0.274918 0.744595
Si Si4 0.137351 0.582689 0.299405
Si Si5 0.727635 0.009612 0.648362
Si Si6 0.567423 0.720272 0.385104
Si Si7 0.771335 0.104413 0.274470
Si Si8 0.390827 0.761437 0.635393
O O1 0.147143 0.256483 0.465926
O O2 0.118728 0.396507 0.350335
O O3 0.000000 0.000000 0.500000
O O4 0.915213 0.207987 0.911253
O O5 0.377069 0.526842 0.164930
O O6 0.260587 0.147066 0.352808
O O7 0.351349 0.244639 0.930466
O O8 0.698380 0.224292 0.498616
O O9 0.596452 0.317747 0.577404
O O10 0.432756 0.088101 0.042784
O O11 0.000000 0.500000 0.500000
O O12 0.192735 0.774129 0.360434
O O13 0.239785 0.678810 0.974512
O O14 0.784422 0.046942 0.376683
O O15 0.500000 0.500000 0.500000
O O16 0.432541 0.702421 0.651696
O O17 0.665270 0.899060 0.343441
O O18 0.500000 0.000000 0.500000
#
# Coordination Sequence:
#
# PCOD9069518 Si02
#       8
#     2   2   2   2   2   2   2   2
#     4  12  27  49  72 104 153 200 250 299 363 452
#     4  12  26  46  74 106 151 191 242 313 367 435
#     4  12  25  45  76 110 149 184 249 316 368 433
#     4  12  26  45  76 109 153 198 247 305 377 442
#     4  12  26  47  73 112 149 190 249 313 371 433
#     4  12  24  43  72 105 140 193 250 297 370 434
#     4  12  27  46  75 102 150 199 244 304 376 442
#     4  12  23  44  74 107 145 193 246 304 367 442
#
# _framework density 21.230699999999999
#
# number of rings (size 3 to 8) (size 9 to 14) (size 15 to 20)
#    0.000    0.000    5.000    4.500    1.750    3.500 
#    0.000    0.000    0.000    0.000    0.000    0.000 
#    0.000    0.000    0.000    0.000    0.000    0.000 
#
# Total GULP energy -89407.520947 kJ/mol
# GULP energy per Si atom -5587.970059 kJ/mol
# Density = 2.118238 g / cm^3
# Si number density = 21.230700 Si / 1000 Ang^3
#
#
#
# Elastic Constant Matrix: (Units=GPa)
#
#
# Indices 1 2 3 4 5 6 
#
# 1 76.0820 35.2088 -2.3260 -8.1435 -5.5483 -3.5025
# 2 35.2088 130.4618 13.6657 0.9355 2.5147 5.3209
# 3 -2.3260 13.6657 82.0532 -18.9907 -6.1328 8.0830
# 4 -8.1435 0.9355 -18.9907 27.4787 4.7760 2.5593
# 5 -5.5483 2.5147 -6.1328 4.7760 48.0008 3.0239
# 6 -3.5025 5.3209 8.0830 2.5593 3.0239 51.3167
#
#
#
# Elastic Compliance Matrix: (Units=1/GPa)
#
#
# Indices 1 2 3 4 5 6 
#
# 1 0.016332 -0.004818 0.002855 0.006596 0.001803 0.000729
# 2 -0.004818 0.009290 -0.002427 -0.003184 -0.000993 -0.000693
# 3 0.002855 -0.002427 0.015790 0.011839 0.001468 -0.002718
# 4 0.006596 -0.003184 0.011839 0.047304 -0.002055 -0.003322
# 5 0.001803 -0.000993 0.001468 -0.002055 0.021559 -0.001173
# 6 0.000729 -0.000693 -0.002718 -0.003322 -0.001173 0.020271
#
#
# Mechanical properties :
#
#
# Convention : Reuss Voigt Hill
#
# Bulk Modulus (GPa) = 30.64580 42.41044 36.52812
# Shear Modulus (GPa) = 33.28817 41.49581 37.39199
#
# Velocity S-wave (km/s) = 3.96400 4.42579 4.20125
# Velocity P-wave (km/s) = 5.95122 6.79236 6.38566
#
# Compressibility (1/GPa) = 0.03263090
#
# Stress axis : x y z
#
# Youngs Moduli (GPa) = 61.22990 107.64370 63.33211
#
# Poissons Ratio (x) = 0.51868 -0.18081
# Poissons Ratio (y) = 0.29503 0.15369
# Poissons Ratio (z) = -0.17481 0.26123
#
# Static dielectric constant tensor:
#      x y z
#    x 1.781620 -0.018230 -0.025590 
#    y -0.018230 1.729140 -0.000580 
#    z -0.025590 -0.000580 1.775080 
# 
# From -- ./inp_files/352332.got.cif
#   From: 2010.05.17/outbox.cif.g08.bks.cpg/sg2_177_cif.got.tgz:352332.got - 2010.06.03 11:33:40.
