data_PCOD9069685
_publ_section_title
;
Structure prediction by ZEFSAII (Michael W. Deem and Ramdas Pophale) SiO2 
 PCOD9069685
Probable space group: P -1
;
_chemical_formula_sum "Si O2"
_cell_formula_units_Z 13
_cell_length_a 8.318326
_cell_length_b 6.566358
_cell_length_c 12.425751
_cell_angle_alpha 131.846010
_cell_angle_beta 70.987219
_cell_angle_gamma 109.897704
_cell_volume 470.668274
_symmetry_space_group_name_H-M "P -1"
_symmetry_group_IT_number 2
_symmetry_cell_setting 'triclinic'
loop_
_space_group_symop_operation_xyz
x,y,z
-x,-y,-z
loop_
_atom_site_type_symbol
_atom_site_label
_atom_site_fract_x
_atom_site_fract_y
_atom_site_fract_z
Si Si1 0.341900 0.887992 0.256232
Si Si2 0.977606 0.315410 0.626667
Si Si3 0.690471 0.512098 0.268833
Si Si4 0.218866 0.289002 0.273699
Si Si5 0.087897 0.227511 0.881384
Si Si6 0.640736 0.863336 0.029316
Si Si7 0.500000 0.000000 0.500000
O O1 0.155743 0.699051 0.249838
O O2 0.437353 0.933663 0.364780
O O3 0.301807 0.176220 0.319507
O O4 0.460270 0.779434 0.102394
O O5 0.867041 0.436232 0.601524
O O6 0.164809 0.486273 0.669131
O O7 0.000000 0.000000 0.500000
O O8 0.789417 0.720441 0.230853
O O9 0.656430 0.195558 0.125226
O O10 0.539654 0.676718 0.391603
O O11 0.057412 0.043744 0.194714
O O12 0.337768 0.284468 0.140269
O O13 0.205372 0.182394 0.941364
O O14 0.000000 0.500000 0.000000
#
# Coordination Sequence:
#
# PCOD9069685 Si02
#       7
#     2   2   2   2   2   2   1
#     4  12  29  49  77 114 154 205 257 323 382 460
#     4  12  27  51  76 113 159 208 257 317 384 466
#     4  12  25  50  80 112 154 204 261 313 387 462
#     4  12  27  48  79 121 154 200 260 318 395 457
#     4  12  23  46  81 115 152 201 252 316 384 464
#     4  12  27  48  79 118 154 201 255 323 391 459
#     4  12  28  54  72 108 154 212 260 314 380 452
#
# _framework density 27.6203
#
# number of rings (size 3 to 8) (size 9 to 14) (size 15 to 20)
#    0.000    0.000    7.692    1.846    2.154    1.846 
#    5.538    0.000    0.000    0.000    0.000    0.000 
#    0.000    0.000    0.000    0.000    0.000    0.000 
#
# Total GULP energy -72696.320409 kJ/mol
# GULP energy per Si atom -5592.024647 kJ/mol
# Density = 2.755743 g / cm^3
# Si number density = 27.620300 Si / 1000 Ang^3
#
#
#
# Elastic Constant Matrix: (Units=GPa)
#
#
# Indices 1 2 3 4 5 6 
#
# 1 140.9263 59.2602 32.6523 -1.3229 -12.5556 -59.2299
# 2 59.2602 106.7271 44.1998 22.5141 -21.6342 -44.3867
# 3 32.6523 44.1998 104.1076 24.4507 1.4602 -9.1222
# 4 -1.3229 22.5141 24.4507 67.2063 -19.0429 -5.3984
# 5 -12.5556 -21.6342 1.4602 -19.0429 28.5184 -0.1912
# 6 -59.2299 -44.3867 -9.1222 -5.3984 -0.1912 74.4760
#
#
#
# Elastic Compliance Matrix: (Units=1/GPa)
#
#
# Indices 1 2 3 4 5 6 
#
# 1 0.013726 -0.000616 -0.004616 0.005747 0.009720 0.010425
# 2 -0.000616 0.020962 -0.008405 0.001839 0.017364 0.011152
# 3 -0.004616 -0.008405 0.016013 -0.007792 -0.014480 -0.007321
# 4 0.005747 0.001839 -0.007792 0.023394 0.019989 0.006460
# 5 0.009720 0.017364 -0.014480 0.019989 0.066726 0.017925
# 6 0.010425 0.011152 -0.007321 0.006460 0.017925 0.027982
#
#
# Mechanical properties :
#
#
# Convention : Reuss Voigt Hill
#
# Bulk Modulus (GPa) = 42.68528 69.33176 56.00852
# Shear Modulus (GPa) = 24.52346 48.41671 36.47009
#
# Velocity S-wave (km/s) = 2.98296 4.19135 3.63769
# Velocity P-wave (km/s) = 5.22991 6.96990 6.16163
#
# Compressibility (1/GPa) = 0.02342728
#
# Stress axis : x y z
#
# Youngs Moduli (GPa) = 72.85441 47.70497 62.44819
#
# Poissons Ratio (x) = 0.02939 0.28827
# Poissons Ratio (y) = 0.04489 0.52486
# Poissons Ratio (z) = 0.33631 0.40095
#
# Static dielectric constant tensor:
#      x y z
#    x 2.249980 0.062810 -0.053270 
#    y 0.062810 2.195760 -0.022660 
#    z -0.053270 -0.022660 2.138760 
# 
# From -- ./inp_files/24722.got.cif
#   From: 2010.05.17/outbox.cif.g08.bks.cpg/sg2_13_cif.got.tgz:24722.got - 2010.06.03 11:33:40.
