data_PCOD9069159
_publ_section_title
;
Structure prediction by ZEFSAII (Michael W. Deem and Ramdas Pophale) SiO2 
 PCOD9069159
Probable space group: P -1
;
_chemical_formula_sum "Si O2"
_cell_formula_units_Z 13
_cell_length_a 20.003140
_cell_length_b 17.877252
_cell_length_c 11.141822
_cell_angle_alpha 147.183427
_cell_angle_beta 22.272314
_cell_angle_gamma 158.801537
_cell_volume 538.730349
_symmetry_space_group_name_H-M "P -1"
_symmetry_group_IT_number 2
_symmetry_cell_setting 'triclinic'
loop_
_space_group_symop_operation_xyz
x,y,z
-x,-y,-z
loop_
_atom_site_type_symbol
_atom_site_label
_atom_site_fract_x
_atom_site_fract_y
_atom_site_fract_z
Si Si1 0.108939 0.404962 0.031929
Si Si2 0.772434 0.455227 0.250522
Si Si3 0.934944 0.936009 0.382788
Si Si4 0.500000 0.000000 0.500000
Si Si5 0.777562 0.704521 0.754822
Si Si6 0.523086 0.159001 0.909604
Si Si7 0.317813 0.976949 0.365589
O O1 0.287091 0.596665 0.086815
O O2 0.797144 0.238888 0.354434
O O3 0.170457 0.501974 0.927917
O O4 0.170213 0.278107 0.758540
O O5 0.794072 0.616817 0.492502
O O6 0.484456 0.215520 0.431595
O O7 0.000000 0.500000 0.000000
O O8 0.702492 0.913938 0.721931
O O9 0.000000 0.000000 0.500000
O O10 0.176525 0.115420 0.132185
O O11 0.382174 0.016701 0.834186
O O12 0.019489 0.820159 0.601176
O O13 0.500000 0.500000 0.000000
O O14 0.673862 0.116485 0.658459
O O15 0.500000 0.000000 0.000000
#
# Coordination Sequence:
#
# PCOD9069159 Si02
#       7
#     2   2   2   1   2   2   2
#     4  12  25  43  71 104 144 195 245 300 367 438
#     4  12  22  43  76 103 142 202 248 294 364 445
#     4  12  23  47  74 104 149 197 242 298 371 449
#     4  12  26  44  66 104 150 184 238 310 372 432
#     4  12  27  47  73 113 151 190 245 315 372 428
#     4  12  25  48  74 104 141 197 251 304 367 442
#     4  12  23  46  78 103 138 192 260 294 357 454
#
# _framework density 24.130808999999999
#
# number of rings (size 3 to 8) (size 9 to 14) (size 15 to 20)
#    0.000    0.000    7.692    1.846    0.000    4.308 
#    2.769    0.000    0.000    0.000    0.000    0.000 
#    0.000    0.000    0.000    0.000    0.000    0.000 
#
# Total GULP energy -72556.512706 kJ/mol
# GULP energy per Si atom -5581.270208 kJ/mol
# Density = 2.407589 g / cm^3
# Si number density = 24.130809 Si / 1000 Ang^3
#
#
#
# Elastic Constant Matrix: (Units=GPa)
#
#
# Indices 1 2 3 4 5 6 
#
# 1 93.5046 45.8085 22.8367 8.6998 -11.7242 -4.1348
# 2 45.8085 188.2251 26.5938 -5.1722 -4.3301 11.1229
# 3 22.8367 26.5938 47.3671 -17.4439 4.0551 -1.0128
# 4 8.6998 -5.1722 -17.4439 56.6346 9.3855 1.7593
# 5 -11.7242 -4.3301 4.0551 9.3855 31.4294 3.3237
# 6 -4.1348 11.1229 -1.0128 1.7593 3.3237 47.4571
#
#
#
# Elastic Compliance Matrix: (Units=1/GPa)
#
#
# Indices 1 2 3 4 5 6 
#
# 1 0.016245 -0.002656 -0.009757 -0.007276 0.008970 0.001471
# 2 -0.002656 0.006401 -0.002264 0.000304 0.000284 -0.001811
# 3 -0.009757 -0.002264 0.033140 0.013522 -0.012345 0.000751
# 4 -0.007276 0.000304 0.013522 0.024940 -0.011810 -0.000514
# 5 0.008970 0.000284 -0.012345 -0.011810 0.040528 -0.001949
# 6 0.001471 -0.001811 0.000751 -0.000514 -0.001949 0.021796
#
#
# Mechanical properties :
#
#
# Convention : Reuss Voigt Hill
#
# Bulk Modulus (GPa) = 37.83328 57.73052 47.78190
# Shear Modulus (GPa) = 27.59140 42.69472 35.14306
#
# Velocity S-wave (km/s) = 3.38510 4.21087 3.82036
# Velocity P-wave (km/s) = 5.56696 6.90057 6.26932
#
# Compressibility (1/GPa) = 0.02643176
#
# Stress axis : x y z
#
# Youngs Moduli (GPa) = 61.55606 156.22712 30.17517
#
# Poissons Ratio (x) = 0.41487 0.29442
# Poissons Ratio (y) = 0.16347 0.06833
# Poissons Ratio (z) = 0.60061 0.35377
#
# Static dielectric constant tensor:
#      x y z
#    x 1.941840 -0.027170 -0.016060 
#    y -0.027170 1.935690 0.004490 
#    z -0.016060 0.004490 1.979190 
# 
# From -- ./inp_files/472453.got.cif
#   From: 2010.05.17/outbox.cif.g08.bks.cpg/sg2_237_cif.got.tgz:472453.got - 2010.06.03 11:33:40.
