data_PCOD9069990
_publ_section_title
;
Structure prediction by ZEFSAII (Michael W. Deem and Ramdas Pophale) SiO2 
 PCOD9069990
Probable space group: P -1
;
_chemical_formula_sum "Si O2"
_cell_formula_units_Z 12
_cell_length_a 20.151192
_cell_length_b 5.245454
_cell_length_c 22.937475
_cell_angle_alpha 97.056450
_cell_angle_beta 168.051995
_cell_angle_gamma 82.779188
_cell_volume 497.957039
_symmetry_space_group_name_H-M "P -1"
_symmetry_group_IT_number 2
_symmetry_cell_setting 'triclinic'
loop_
_space_group_symop_operation_xyz
x,y,z
-x,-y,-z
loop_
_atom_site_type_symbol
_atom_site_label
_atom_site_fract_x
_atom_site_fract_y
_atom_site_fract_z
Si Si1 0.264959 0.329140 0.755618
Si Si2 0.709807 0.661529 0.469614
Si Si3 0.590903 0.228340 0.541326
Si Si4 0.858156 0.241307 0.508999
Si Si5 0.655437 0.812943 0.801577
Si Si6 0.707305 0.050140 0.032726
O O1 0.000000 0.500000 0.500000
O O2 0.067942 0.175119 0.630283
O O3 0.500000 0.500000 0.000000
O O4 0.477652 0.186407 0.886464
O O5 0.791154 0.544826 0.471735
O O6 0.546122 0.425979 0.354468
O O7 0.058940 0.754664 0.793115
O O8 0.482299 0.910282 0.288197
O O9 0.500000 0.500000 0.500000
O O10 0.400189 0.195757 0.316157
O O11 0.500000 0.000000 0.500000
O O12 0.975230 0.217888 0.863196
O O13 0.060395 0.134950 0.734305
O O14 0.517691 0.114506 0.205550
#
# Coordination Sequence:
#
# PCOD9069990 Si02
#       6
#     2   2   2   2   2   2
#     4  12  24  44  72 103 141 199 267 331 372 439
#     4  12  28  50  74 116 160 201 248 309 380 458
#     4  12  26  52  82 114 152 195 246 299 360 440
#     4  12  27  47  73 102 151 202 261 317 384 442
#     4  12  28  47  80 117 156 195 246 301 370 447
#     4  12  27  47  73 102 151 202 261 317 384 442
#
# _framework density 24.098462000000001
#
# number of rings (size 3 to 8) (size 9 to 14) (size 15 to 20)
#    0.000    0.000    3.333    6.000    2.333    2.667 
#    0.000    0.000    0.000    0.000    0.000    0.000 
#    0.000    0.000    0.000    0.000    0.000    0.000 
#
# Total GULP energy -67280.498561 kJ/mol
# GULP energy per Si atom -5606.708213 kJ/mol
# Density = 2.404361 g / cm^3
# Si number density = 24.098462 Si / 1000 Ang^3
#
#
#
# Elastic Constant Matrix: (Units=GPa)
#
#
# Indices 1 2 3 4 5 6 
#
# 1 58.7035 21.4279 -6.6783 -4.0955 -3.3400 5.0281
# 2 21.4279 164.1034 50.0393 -5.7196 13.1202 -16.8960
# 3 -6.6783 50.0393 143.9678 10.1360 -4.2475 -8.1566
# 4 -4.0955 -5.7196 10.1360 53.5323 -1.9787 15.2909
# 5 -3.3400 13.1202 -4.2475 -1.9787 56.8550 6.4843
# 6 5.0281 -16.8960 -8.1566 15.2909 6.4843 58.6347
#
#
#
# Elastic Compliance Matrix: (Units=1/GPa)
#
#
# Indices 1 2 3 4 5 6 
#
# 1 0.019062 -0.003524 0.001886 0.001704 0.002488 -0.003107
# 2 -0.003524 0.007883 -0.002868 0.000349 -0.002497 0.002360
# 3 0.001886 -0.002868 0.008223 -0.001812 0.001268 0.000488
# 4 0.001704 0.000349 -0.001812 0.020923 0.001285 -0.005896
# 5 0.002488 -0.002497 0.001268 0.001285 0.018812 -0.003172
# 6 -0.003107 0.002360 0.000488 -0.005896 -0.003172 0.019957
#
#
# Mechanical properties :
#
#
# Convention : Reuss Voigt Hill
#
# Bulk Modulus (GPa) = 38.22978 55.15028 46.69003
# Shear Modulus (GPa) = 44.40883 53.93679 49.17281
#
# Velocity S-wave (km/s) = 4.29745 4.73608 4.52209
# Velocity P-wave (km/s) = 6.36573 7.26927 6.83245
#
# Compressibility (1/GPa) = 0.02615762
#
# Stress axis : x y z
#
# Youngs Moduli (GPa) = 52.46009 126.85261 121.61104
#
# Poissons Ratio (x) = 0.44698 -0.22940
# Poissons Ratio (y) = 0.18485 0.34878
# Poissons Ratio (z) = -0.09896 0.36381
#
# Static dielectric constant tensor:
#      x y z
#    x 1.969880 0.020310 0.036470 
#    y 0.020310 1.932960 -0.006810 
#    z 0.036470 -0.006810 1.880830 
# 
# From -- ./inp_files/545280.got.cif
#   From: 2010.05.17/outbox.cif.g08.bks.cpg/sg2_273_cif.got.tgz:545280.got - 2010.06.03 11:33:40.
