data_PCOD9069882
_publ_section_title
;
Structure prediction by ZEFSAII (Michael W. Deem and Ramdas Pophale) SiO2 
 PCOD9069882
Probable space group: P -1
;
_chemical_formula_sum "Si O2"
_cell_formula_units_Z 16
_cell_length_a 12.824221
_cell_length_b 14.420568
_cell_length_c 15.537900
_cell_angle_alpha 35.434980
_cell_angle_beta 28.233819
_cell_angle_gamma 55.078140
_cell_volume 668.307845
_symmetry_space_group_name_H-M "P -1"
_symmetry_group_IT_number 2
_symmetry_cell_setting 'triclinic'
loop_
_space_group_symop_operation_xyz
x,y,z
-x,-y,-z
loop_
_atom_site_type_symbol
_atom_site_label
_atom_site_fract_x
_atom_site_fract_y
_atom_site_fract_z
Si Si1 0.814136 0.827310 0.455435
Si Si2 0.009810 0.407692 0.389869
Si Si3 0.089360 0.166416 0.239566
Si Si4 0.739157 0.306333 0.364954
Si Si5 0.379393 0.763663 0.953720
Si Si6 0.788324 0.938454 0.126751
Si Si7 0.477722 0.808972 0.195489
Si Si8 0.435824 0.463553 0.899856
O O1 0.964189 0.743514 0.459258
O O2 0.604273 0.829420 0.668097
O O3 0.661060 0.677537 0.601266
O O4 0.033734 0.029914 0.108861
O O5 0.733606 0.343217 0.601509
O O6 0.124235 0.592188 0.224038
O O7 0.201715 0.440480 0.146965
O O8 0.836480 0.161412 0.395487
O O9 0.243269 0.155415 0.055664
O O10 0.286868 0.361075 0.998434
O O11 0.000000 0.000000 0.500000
O O12 0.634199 0.267266 0.570076
O O13 0.488653 0.254742 0.528815
O O14 0.000000 0.500000 0.000000
O O15 0.302833 0.911564 0.923528
O O16 0.461614 0.668793 0.038925
O O17 0.000000 0.000000 0.000000
O O18 0.500000 0.000000 0.000000
#
# Coordination Sequence:
#
# PCOD9069882 Si02
#       8
#     2   2   2   2   2   2   2   2
#     4   9  21  39  66 101 139 168 231 299 351 412
#     4   9  18  37  67 106 139 171 225 304 358 415
#     4  12  24  42  74 105 142 192 242 294 357 429
#     4  12  30  51  70 105 156 190 233 300 369 435
#     4   9  21  39  65 104 137 172 229 300 357 400
#     4  12  28  44  69  94 131 193 243 279 342 439
#     4  12  24  42  73 108 142 191 246 293 357 433
#     4   9  18  37  68 104 138 172 220 299 364 407
#
# _framework density 23.941061999999999
#
# number of rings (size 3 to 8) (size 9 to 14) (size 15 to 20)
#    0.000    1.500    2.500    3.000    5.250    5.000 
#    0.000    0.000    0.000    0.000    0.000    0.000 
#    0.000    0.000    0.000    0.000    0.000    0.000 
#
# Total GULP energy -89378.998807 kJ/mol
# GULP energy per Si atom -5586.187425 kJ/mol
# Density = 2.388657 g / cm^3
# Si number density = 23.941062 Si / 1000 Ang^3
#
#
#
# Elastic Constant Matrix: (Units=GPa)
#
#
# Indices 1 2 3 4 5 6 
#
# 1 96.1181 22.7700 64.0861 15.7833 -28.3561 10.9906
# 2 22.7700 34.1799 30.1992 13.3574 4.0898 5.9719
# 3 64.0861 30.1992 172.2359 19.0441 -1.8745 -2.5048
# 4 15.7833 13.3574 19.0441 37.1789 1.6310 -2.3540
# 5 -28.3561 4.0898 -1.8745 1.6310 47.7255 5.4431
# 6 10.9906 5.9719 -2.5048 -2.3540 5.4431 28.2196
#
#
#
# Elastic Compliance Matrix: (Units=1/GPa)
#
#
# Indices 1 2 3 4 5 6 
#
# 1 0.023734 -0.007469 -0.006934 -0.005290 0.015997 -0.011805
# 2 -0.007469 0.043777 -0.003890 -0.010637 -0.007273 -0.006185
# 3 -0.006934 -0.003890 0.009078 0.000192 -0.004021 0.005121
# 4 -0.005290 -0.010637 0.000192 0.033557 -0.004277 0.007953
# 5 0.015997 -0.007273 -0.004021 -0.004277 0.032398 -0.011654
# 6 -0.011805 -0.006185 0.005121 0.007953 -0.011654 0.044709
#
#
# Mechanical properties :
#
#
# Convention : Reuss Voigt Hill
#
# Bulk Modulus (GPa) = 24.99781 59.62718 42.31249
# Shear Modulus (GPa) = 21.08163 34.99004 28.03584
#
# Velocity S-wave (km/s) = 2.97065 3.82711 3.42575
# Velocity P-wave (km/s) = 4.71491 6.67000 5.77578
#
# Compressibility (1/GPa) = 0.04000351
#
# Stress axis : x y z
#
# Youngs Moduli (GPa) = 42.13314 22.84293 110.16142
#
# Poissons Ratio (x) = 0.17061 0.76389
# Poissons Ratio (y) = 0.31469 0.42849
# Poissons Ratio (z) = 0.29216 0.08885
#
# Static dielectric constant tensor:
#      x y z
#    x 1.876270 -0.044280 -0.038560 
#    y -0.044280 1.871870 -0.086060 
#    z -0.038560 -0.086060 1.948700 
# 
# From -- ./inp_files/522242.got.cif
#   From: 2010.05.17/outbox.cif.g08.bks.cpg/sg2_262_cif.got.tgz:522242.got - 2010.06.03 11:33:40.
