data_PCOD9069345
_publ_section_title
;
Structure prediction by ZEFSAII (Michael W. Deem and Ramdas Pophale) SiO2 
 PCOD9069345
Probable space group: P -1
;
_chemical_formula_sum "Si O2"
_cell_formula_units_Z 14
_cell_length_a 15.142970
_cell_length_b 28.016411
_cell_length_c 27.317401
_cell_angle_alpha 169.776623
_cell_angle_beta 162.859650
_cell_angle_gamma 18.371701
_cell_volume 597.932512
_symmetry_space_group_name_H-M "P -1"
_symmetry_group_IT_number 2
_symmetry_cell_setting 'triclinic'
loop_
_space_group_symop_operation_xyz
x,y,z
-x,-y,-z
loop_
_atom_site_type_symbol
_atom_site_label
_atom_site_fract_x
_atom_site_fract_y
_atom_site_fract_z
Si Si1 0.885577 0.967160 0.274816
Si Si2 0.278028 0.278257 0.158281
Si Si3 0.723030 0.346701 0.004375
Si Si4 0.527590 0.540867 0.692127
Si Si5 0.855424 0.821398 0.606955
Si Si6 0.493486 0.967432 0.652956
Si Si7 0.360284 0.495016 0.176379
O O1 0.204976 0.031171 0.527579
O O2 0.664093 0.262107 0.454353
O O3 0.901308 0.785814 0.050642
O O4 0.754659 0.761623 0.034749
O O5 0.500000 0.500000 0.500000
O O6 0.044544 0.326248 0.127102
O O7 0.500000 0.000000 0.000000
O O8 0.703792 0.553902 0.248469
O O9 0.500000 0.500000 0.000000
O O10 0.717915 0.048534 0.723228
O O11 0.495782 0.454019 0.643612
O O12 0.213425 0.714513 0.681719
O O13 0.781616 0.925463 0.727506
O O14 0.434077 0.710010 0.392839
O O15 0.492557 0.205143 0.931109
O O16 0.000000 0.500000 0.000000
#
# Coordination Sequence:
#
# PCOD9069345 Si02
#       7
#     2   2   2   2   2   2   2
#     4  12  23  42  67  99 129 182 228 280 334 400
#     4  12  25  42  68 100 133 171 227 283 335 397
#     4  12  26  48  70  95 140 181 224 281 343 408
#     4  12  25  42  71  97 143 177 221 285 342 397
#     4  12  27  46  66 103 136 180 226 278 347 401
#     4  12  25  43  71 100 138 177 235 277 328 417
#     4  12  23  44  70 105 136 177 230 280 339 398
#
# _framework density 23.414014000000002
#
# number of rings (size 3 to 8) (size 9 to 14) (size 15 to 20)
#    0.000    0.000    2.857    8.571    0.000    3.429 
#    0.000    0.000    0.000    0.000    0.000    0.000 
#    0.000    0.000    0.000    0.000    0.000    0.000 
#
# Total GULP energy -78315.900462 kJ/mol
# GULP energy per Si atom -5593.992890 kJ/mol
# Density = 2.336072 g / cm^3
# Si number density = 23.414014 Si / 1000 Ang^3
#
#
#
# Elastic Constant Matrix: (Units=GPa)
#
#
# Indices 1 2 3 4 5 6 
#
# 1 256.5424 46.4461 109.8536 183.9773 -139.0043 -3.9840
# 2 46.4461 80.2047 41.6491 65.9188 -26.2027 3.5066
# 3 109.8536 41.6491 173.8643 132.0029 -83.5832 -9.1080
# 4 183.9773 65.9188 132.0029 216.1013 -135.0725 1.3916
# 5 -139.0043 -26.2027 -83.5832 -135.0725 157.6280 -3.0003
# 6 -3.9840 3.5066 -9.1080 1.3916 -3.0003 40.8645
#
#
#
# Elastic Compliance Matrix: (Units=1/GPa)
#
#
# Indices 1 2 3 4 5 6 
#
# 1 0.011027 0.000804 0.000503 -0.007758 0.003507 0.001640
# 2 0.000804 0.017710 -0.000443 -0.007941 -0.003416 -0.001520
# 3 0.000503 -0.000443 0.011053 -0.006750 0.000500 0.002817
# 4 -0.007758 -0.007941 -0.006750 0.022458 0.007470 -0.001796
# 5 0.003507 -0.003416 0.000500 0.007470 0.015566 0.001635
# 6 0.001640 -0.001520 0.002817 -0.001796 0.001635 0.025571
#
#
# Mechanical properties :
#
#
# Convention : Reuss Voigt Hill
#
# Bulk Modulus (GPa) = 24.08659 100.72320 62.40490
# Shear Modulus (GPa) = 43.29154 103.76294 73.52724
#
# Velocity S-wave (km/s) = 4.30462 6.66429 5.60993
# Velocity P-wave (km/s) = 5.91742 10.11577 8.28688
#
# Compressibility (1/GPa) = 0.04151688
#
# Stress axis : x y z
#
# Youngs Moduli (GPa) = 90.68774 56.46569 90.47496
#
# Poissons Ratio (x) = -0.04540 -0.04547
# Poissons Ratio (y) = -0.07291 0.04006
# Poissons Ratio (z) = -0.04557 0.02500
#
# Static dielectric constant tensor:
#      x y z
#    x 1.914550 0.057450 -0.063970 
#    y 0.057450 1.924970 -0.009910 
#    z -0.063970 -0.009910 1.811360 
# 
# From -- ./inp_files/139338.got.cif
#   From: 2010.05.17/outbox.cif.g08.bks.cpg/sg2_70_cif.got.tgz:139338.got - 2010.06.03 11:33:40.
