data_PCOD9069705
_publ_section_title
;
Structure prediction by ZEFSAII (Michael W. Deem and Ramdas Pophale) SiO2 
 PCOD9069705
Probable space group: P -1
;
_chemical_formula_sum "Si O2"
_cell_formula_units_Z 15
_cell_length_a 8.268336
_cell_length_b 16.329566
_cell_length_c 8.147503
_cell_angle_alpha 117.558347
_cell_angle_beta 56.180391
_cell_angle_gamma 78.524378
_cell_volume 635.879663
_symmetry_space_group_name_H-M "P -1"
_symmetry_group_IT_number 2
_symmetry_cell_setting 'triclinic'
loop_
_space_group_symop_operation_xyz
x,y,z
-x,-y,-z
loop_
_atom_site_type_symbol
_atom_site_label
_atom_site_fract_x
_atom_site_fract_y
_atom_site_fract_z
Si Si1 0.628885 0.393049 0.200273
Si Si2 0.673754 0.791303 0.126515
Si Si3 0.923630 0.181047 0.054566
Si Si4 0.500000 0.000000 0.000000
Si Si5 0.459361 0.842803 0.649779
Si Si6 0.207027 0.011046 0.443864
Si Si7 0.762769 0.552208 0.793335
Si Si8 0.979064 0.605250 0.196061
O O1 0.500000 0.500000 0.500000
O O2 0.453256 0.424217 0.175588
O O3 0.707552 0.278811 0.145390
O O4 0.882766 0.363358 0.968445
O O5 0.559844 0.847524 0.421507
O O6 0.476715 0.883651 0.188599
O O7 0.927791 0.771884 0.924376
O O8 0.695678 0.674222 0.008463
O O9 0.777179 0.156337 0.235748
O O10 0.122343 0.073094 0.725535
O O11 0.615982 0.052246 0.090244
O O12 0.256786 0.071155 0.330411
O O13 0.695647 0.719127 0.480245
O O14 0.000000 0.000000 0.500000
O O15 0.857845 0.455103 0.789058
O O16 0.000000 0.500000 0.500000
O O17 0.000000 0.500000 0.000000
#
# Coordination Sequence:
#
# PCOD9069705 Si02
#       8
#     2   2   2   1   2   2   2   2
#     4  12  25  46  74 106 147 193 243 306 375 440
#     4  12  27  48  73 108 147 190 247 306 369 446
#     4  12  24  47  73 103 144 195 243 305 370 435
#     4  12  26  46  74 108 146 194 242 304 368 432
#     4  12  26  46  77 107 148 197 246 304 373 437
#     4  12  26  47  73 105 146 190 242 304 365 440
#     4  12  26  44  71 109 146 194 246 302 375 447
#     4  12  23  47  74 108 151 191 246 307 368 443
#
# _framework density 23.589368
#
# number of rings (size 3 to 8) (size 9 to 14) (size 15 to 20)
#    0.000    0.000    5.333    4.800    1.867    1.600 
#    2.400    0.000    0.000    0.000    0.000    0.000 
#    0.000    0.000    0.000    0.000    0.000    0.000 
#
# Total GULP energy -83727.783907 kJ/mol
# GULP energy per Si atom -5581.852260 kJ/mol
# Density = 2.353568 g / cm^3
# Si number density = 23.589368 Si / 1000 Ang^3
#
#
#
# Elastic Constant Matrix: (Units=GPa)
#
#
# Indices 1 2 3 4 5 6 
#
# 1 125.8194 25.8722 27.1575 -7.8156 -19.0146 5.0573
# 2 25.8722 36.2320 8.4497 1.3206 -16.9999 13.5050
# 3 27.1575 8.4497 99.1260 -6.1241 -10.3378 13.2269
# 4 -7.8156 1.3206 -6.1241 42.5447 15.6947 -21.4685
# 5 -19.0146 -16.9999 -10.3378 15.6947 49.3395 -5.3325
# 6 5.0573 13.5050 13.2269 -21.4685 -5.3325 36.5136
#
#
#
# Elastic Compliance Matrix: (Units=1/GPa)
#
#
# Indices 1 2 3 4 5 6 
#
# 1 0.010455 -0.009690 -0.002609 0.005196 -0.000859 0.006010
# 2 -0.009690 0.058740 0.002919 -0.029414 0.022644 -0.035428
# 3 -0.002609 0.002919 0.011487 -0.003098 0.002711 -0.006305
# 4 0.005196 -0.029414 -0.003098 0.052455 -0.021250 0.039020
# 5 -0.000859 0.022644 0.002711 -0.021250 0.033242 -0.016878
# 6 0.006010 -0.035428 -0.006305 0.039020 -0.016878 0.062419
#
#
# Mechanical properties :
#
#
# Convention : Reuss Voigt Hill
#
# Bulk Modulus (GPa) = 16.14913 42.68181 29.41547
# Shear Modulus (GPa) = 18.64291 38.99277 28.81784
#
# Velocity S-wave (km/s) = 2.81429 4.07010 3.49900
# Velocity P-wave (km/s) = 4.17386 6.34197 5.36850
#
# Compressibility (1/GPa) = 0.06192284
#
# Stress axis : x y z
#
# Youngs Moduli (GPa) = 95.64942 17.02409 87.05679
#
# Poissons Ratio (x) = 0.16496 0.22713
# Poissons Ratio (y) = 0.92683 -0.25414
# Poissons Ratio (z) = 0.24954 -0.04970
#
# Static dielectric constant tensor:
#      x y z
#    x 1.956600 -0.042500 0.029430 
#    y -0.042500 2.029720 -0.036990 
#    z 0.029430 -0.036990 1.866330 
# 
# From -- ./inp_files/208135.got.cif
#   From: 2010.05.17/outbox.cif.g08.bks.cpg/sg2_105_cif.got.tgz:208135.got - 2010.06.03 11:33:40.
