data_PCOD9069515
_publ_section_title
;
Structure prediction by ZEFSAII (Michael W. Deem and Ramdas Pophale) SiO2 
 PCOD9069515
Probable space group: P -1
;
_chemical_formula_sum "Si O2"
_cell_formula_units_Z 15
_cell_length_a 13.494079
_cell_length_b 17.123713
_cell_length_c 9.676323
_cell_angle_alpha 46.905625
_cell_angle_beta 127.241196
_cell_angle_gamma 155.933608
_cell_volume 664.507643
_symmetry_space_group_name_H-M "P -1"
_symmetry_group_IT_number 2
_symmetry_cell_setting 'triclinic'
loop_
_space_group_symop_operation_xyz
x,y,z
-x,-y,-z
loop_
_atom_site_type_symbol
_atom_site_label
_atom_site_fract_x
_atom_site_fract_y
_atom_site_fract_z
Si Si1 0.500000 0.500000 0.500000
Si Si2 0.964822 0.967047 0.176350
Si Si3 0.057646 0.288538 0.262722
Si Si4 0.783236 0.042912 0.070078
Si Si5 0.643898 0.301266 0.061095
Si Si6 0.214208 0.830472 0.570123
Si Si7 0.002511 0.373066 0.661456
Si Si8 0.463937 0.222513 0.294570
O O1 0.728292 0.728346 0.323455
O O2 0.295408 0.391138 0.348656
O O3 0.941293 0.068029 0.098439
O O4 0.218185 0.099806 0.279652
O O5 0.000000 0.000000 0.000000
O O6 0.845008 0.086058 0.231537
O O7 0.987017 0.268617 0.380947
O O8 0.127799 0.454193 0.056364
O O9 0.854774 0.208257 0.859955
O O10 0.507970 0.814671 0.068461
O O11 0.717424 0.237292 0.244602
O O12 0.488079 0.238729 0.128764
O O13 0.114919 0.757423 0.420029
O O14 0.437192 0.076342 0.480353
O O15 0.286103 0.550910 0.704487
O O16 0.000000 0.500000 0.500000
#
# Coordination Sequence:
#
# PCOD9069515 Si02
#       8
#     1   2   2   2   2   2   2   2
#     4  12  26  52  76 102 164 186 254 318 366 444
#     4  12  25  49  78 108 147 200 251 310 379 442
#     4  12  27  47  70 107 143 195 240 304 385 441
#     4  12  26  44  75 106 148 196 248 304 376 444
#     4  12  23  46  73 103 150 186 241 315 362 448
#     4  12  25  44  73 105 147 191 241 306 376 440
#     4  12  24  43  74 111 144 193 251 303 366 451
#     4  12  23  44  73 108 142 189 249 300 371 442
#
# _framework density 22.573105000000002
#
# number of rings (size 3 to 8) (size 9 to 14) (size 15 to 20)
#    0.000    0.000    8.000    1.600    0.000    3.733 
#    0.000    0.000    0.000    0.000    0.000    0.000 
#    0.000    0.000    0.000    0.000    0.000    0.000 
#
# Total GULP energy -83582.278491 kJ/mol
# GULP energy per Si atom -5572.151899 kJ/mol
# Density = 2.252173 g / cm^3
# Si number density = 22.573105 Si / 1000 Ang^3
#
#
#
# Elastic Constant Matrix: (Units=GPa)
#
#
# Indices 1 2 3 4 5 6 
#
# 1 33.9699 8.5376 7.3773 9.2144 5.3576 -2.6269
# 2 8.5376 115.4095 0.5756 27.4790 -1.7097 4.3072
# 3 7.3773 0.5756 68.6065 0.0882 3.7058 -7.7877
# 4 9.2144 27.4790 0.0882 50.8229 5.4566 0.0074
# 5 5.3576 -1.7097 3.7058 5.4566 25.8350 -0.0329
# 6 -2.6269 4.3072 -7.7877 0.0074 -0.0329 25.8647
#
#
#
# Elastic Compliance Matrix: (Units=1/GPa)
#
#
# Indices 1 2 3 4 5 6 
#
# 1 0.032754 -0.001514 -0.002899 -0.004523 -0.005518 0.002700
# 2 -0.001514 0.010183 -0.000251 -0.005464 0.002176 -0.001921
# 3 -0.002899 -0.000251 0.015487 0.000828 -0.001806 0.004408
# 4 -0.004523 -0.005464 0.000828 0.023943 -0.004598 0.000687
# 5 -0.005518 0.002176 -0.001806 -0.004598 0.041224 -0.001413
# 6 0.002700 -0.001921 0.004408 0.000687 -0.001413 0.040582
#
#
# Mechanical properties :
#
#
# Convention : Reuss Voigt Hill
#
# Bulk Modulus (GPa) = 20.36885 27.88523 24.12704
# Shear Modulus (GPa) = 26.33444 33.93755 30.13599
#
# Velocity S-wave (km/s) = 3.41930 3.88164 3.65778
# Velocity P-wave (km/s) = 4.96305 5.69821 5.34329
#
# Compressibility (1/GPa) = 0.04909458
#
# Stress axis : x y z
#
# Youngs Moduli (GPa) = 30.53082 98.20306 64.57218
#
# Poissons Ratio (x) = 0.14870 0.18719
# Poissons Ratio (y) = 0.04623 0.01622
# Poissons Ratio (z) = 0.08851 0.02466
#
# Static dielectric constant tensor:
#      x y z
#    x 1.843610 0.036140 0.017020 
#    y 0.036140 1.808100 -0.030340 
#    z 0.017020 -0.030340 1.885150 
# 
# From -- ./inp_files/203867.got.cif
#   From: 2010.05.17/outbox.cif.g08.bks.cpg/sg2_102_cif.got.tgz:203867.got - 2010.06.03 11:33:40.
