data_PCOD9069852
_publ_section_title
;
Structure prediction by ZEFSAII (Michael W. Deem and Ramdas Pophale) SiO2 
 PCOD9069852
Probable space group: P -1
;
_chemical_formula_sum "Si O2"
_cell_formula_units_Z 14
_cell_length_a 5.042567
_cell_length_b 30.444480
_cell_length_c 5.032092
_cell_angle_alpha 110.328024
_cell_angle_beta 116.885718
_cell_angle_gamma 90.971298
_cell_volume 631.959553
_symmetry_space_group_name_H-M "P -1"
_symmetry_group_IT_number 2
_symmetry_cell_setting 'triclinic'
loop_
_space_group_symop_operation_xyz
x,y,z
-x,-y,-z
loop_
_atom_site_type_symbol
_atom_site_label
_atom_site_fract_x
_atom_site_fract_y
_atom_site_fract_z
Si Si1 0.733308 0.227074 0.184918
Si Si2 0.801317 0.479544 0.115924
Si Si3 0.648805 0.051544 0.556370
Si Si4 0.022554 0.191286 0.753014
Si Si5 0.969735 0.913802 0.684911
Si Si6 0.990069 0.667414 0.686856
Si Si7 0.279373 0.631673 0.255006
O O1 0.873451 0.218218 0.513146
O O2 0.871272 0.279840 0.248900
O O3 0.834412 0.191957 0.938958
O O4 0.370309 0.217335 0.015979
O O5 0.000000 0.500000 0.500000
O O6 0.729421 0.422164 0.956408
O O7 0.500000 0.500000 0.000000
O O8 0.000000 0.500000 0.000000
O O9 0.370534 0.077806 0.435204
O O10 0.500000 0.000000 0.500000
O O11 0.165515 0.949935 0.634851
O O12 0.874863 0.078099 0.940803
O O13 0.022516 0.138363 0.535667
O O14 0.130051 0.658476 0.014791
O O15 0.091041 0.632179 0.441365
O O16 0.626998 0.657726 0.516768
#
# Coordination Sequence:
#
# PCOD9069852 Si02
#       7
#     2   2   2   2   2   2   2
#     4  12  25  44  67  96 130 169 213 264 319 380
#     4  12  25  43  66  96 130 170 214 264 319 379
#     4  12  25  44  67  96 130 170 214 264 318 378
#     4  12  24  42  66  96 129 169 212 262 318 379
#     4  12  24  42  66  96 130 169 213 262 317 379
#     4  12  25  44  67  96 129 169 214 264 319 380
#     4  12  24  43  67  96 130 170 214 264 318 379
#
# _framework density 22.153317000000001
#
# number of rings (size 3 to 8) (size 9 to 14) (size 15 to 20)
#    0.000    0.000    0.000   12.000    0.000    0.000 
#    0.000    0.000    0.000    0.000    0.000    0.000 
#    0.000    0.000    0.000    0.000    0.000    0.000 
#
# Total GULP energy -78543.848953 kJ/mol
# GULP energy per Si atom -5610.274925 kJ/mol
# Density = 2.210289 g / cm^3
# Si number density = 22.153317 Si / 1000 Ang^3
#
#
#
# Elastic Constant Matrix: (Units=GPa)
#
#
# Indices 1 2 3 4 5 6 
#
# 1 107.4057 -12.8694 60.6970 -41.8581 5.0087 -4.4171
# 2 -12.8694 72.1501 30.7594 -7.8532 23.1199 2.4619
# 3 60.6970 30.7594 94.7218 -39.3531 25.7626 -34.8697
# 4 -41.8581 -7.8532 -39.3531 51.3469 -5.4188 1.7664
# 5 5.0087 23.1199 25.7626 -5.4188 43.9430 3.7655
# 6 -4.4171 2.4619 -34.8697 1.7664 3.7655 34.4072
#
#
#
# Elastic Compliance Matrix: (Units=1/GPa)
#
#
# Indices 1 2 3 4 5 6 
#
# 1 -1.642630 -1.431640 3.696154 0.995702 -1.424378 3.742155
# 2 -1.431640 -1.226543 3.203200 0.857768 -1.241485 3.242053
# 3 3.696154 3.203200 -8.241545 -2.191973 3.169671 -8.341358
# 4 0.995702 0.857768 -2.191973 -0.552377 0.842319 -2.218807
# 5 -1.424378 -1.241485 3.169671 0.842319 -1.190795 3.205321
# 6 3.742155 3.242053 -8.341358 -2.218807 3.205321 -8.412847
#
#
# Mechanical properties :
#
#
# Convention : Reuss Voigt Hill
#
# Bulk Modulus (GPa) = -5.70484 47.93907 21.11712
# Shear Modulus (GPa) = -0.15499 38.98546 19.41523
#
# Velocity S-wave (km/s) = -0.26479 4.19955 2.96362
# Velocity P-wave (km/s) = 1.63531 6.72322 4.61126
#
# Compressibility (1/GPa) = -0.17528982
#
# Stress axis : x y z
#
# Youngs Moduli (GPa) = -0.60878 -0.81530 -0.12134
#
# Poissons Ratio (x) = -1.16722 0.44848
# Poissons Ratio (y) = -0.87155 0.38867
# Poissons Ratio (z) = 2.25014 2.61157
#
# Static dielectric constant tensor:
#      x y z
#    x 1.752370 -0.004110 -0.011810 
#    y -0.004110 1.809750 0.041420 
#    z -0.011810 0.041420 1.762680 
# 
# From -- ./inp_files/14915.got.cif
#   From: 2010.05.17/outbox.cif.g08.bks.cpg/sg2_8_cif.got.tgz:14915.got - 2010.06.03 11:33:40.
