data_PCOD9069323
_publ_section_title
;
Structure prediction by ZEFSAII (Michael W. Deem and Ramdas Pophale) SiO2 
 PCOD9069323
Probable space group: P -1
;
_chemical_formula_sum "Si O2"
_cell_formula_units_Z 15
_cell_length_a 9.132902
_cell_length_b 19.901449
_cell_length_c 9.779520
_cell_angle_alpha 129.764355
_cell_angle_beta 149.355155
_cell_angle_gamma 48.880943
_cell_volume 669.805308
_symmetry_space_group_name_H-M "P -1"
_symmetry_group_IT_number 2
_symmetry_cell_setting 'triclinic'
loop_
_space_group_symop_operation_xyz
x,y,z
-x,-y,-z
loop_
_atom_site_type_symbol
_atom_site_label
_atom_site_fract_x
_atom_site_fract_y
_atom_site_fract_z
Si Si1 0.898553 0.623019 0.832741
Si Si2 0.657586 0.239660 0.027511
Si Si3 0.702911 0.419541 0.650088
Si Si4 0.000000 0.500000 0.500000
Si Si5 0.226086 0.957744 0.244087
Si Si6 0.925045 0.651827 0.406844
Si Si7 0.921188 0.066034 0.395366
Si Si8 0.673085 0.808933 0.033831
O O1 0.550968 0.623063 0.551368
O O2 0.025331 0.582718 0.736436
O O3 0.867737 0.726188 0.990415
O O4 0.100284 0.564378 0.041985
O O5 0.689864 0.149641 0.848467
O O6 0.425616 0.320931 0.867997
O O7 0.509263 0.225625 0.036474
O O8 0.961442 0.266527 0.332120
O O9 0.500000 0.500000 0.500000
O O10 0.923067 0.363032 0.639966
O O11 0.018995 0.564354 0.465546
O O12 0.500000 0.000000 0.500000
O O13 0.049506 0.997371 0.287756
O O14 0.000000 0.000000 0.000000
O O15 0.107528 0.140152 0.653393
O O16 0.577319 0.119886 0.163322
O O17 0.000000 0.000000 0.500000
#
# Coordination Sequence:
#
# PCOD9069323 Si02
#       8
#     2   2   2   1   2   2   2   2
#     4  12  27  44  74 100 139 180 237 293 349 414
#     4  12  24  43  75 106 134 184 246 292 332 413
#     4  12  23  44  73 100 124 187 243 279 333 425
#     4  12  32  48  66 108 150 184 224 306 380 408
#     4  12  23  41  72 106 141 180 229 286 342 414
#     4  12  26  45  71 102 141 183 242 290 352 417
#     4  12  26  44  70 105 144 183 222 285 360 424
#     4  12  23  45  73 103 134 182 243 284 339 416
#
# _framework density 22.394566999999999
#
# number of rings (size 3 to 8) (size 9 to 14) (size 15 to 20)
#    0.000    0.000    6.667    3.200    1.867    4.267 
#    0.000    0.000    0.000    0.000    0.000    0.000 
#    0.000    0.000    0.000    0.000    0.000    0.000 
#
# Total GULP energy -83639.122611 kJ/mol
# GULP energy per Si atom -5575.941507 kJ/mol
# Density = 2.234360 g / cm^3
# Si number density = 22.394567 Si / 1000 Ang^3
#
#
#
# Elastic Constant Matrix: (Units=GPa)
#
#
# Indices 1 2 3 4 5 6 
#
# 1 80.4202 23.8534 42.2419 -0.7729 -44.4194 -2.5912
# 2 23.8534 81.9580 18.5910 -1.5555 -17.8743 -19.3474
# 3 42.2419 18.5910 119.9053 -11.4296 -21.9900 -14.1639
# 4 -0.7729 -1.5555 -11.4296 41.7553 -8.9845 -2.6461
# 5 -44.4194 -17.8743 -21.9900 -8.9845 39.3442 10.6962
# 6 -2.5912 -19.3474 -14.1639 -2.6461 10.6962 32.4550
#
#
#
# Elastic Compliance Matrix: (Units=1/GPa)
#
#
# Indices 1 2 3 4 5 6 
#
# 1 0.047198 -0.004593 -0.007341 0.009184 0.054460 -0.019373
# 2 -0.004593 0.015632 0.000375 0.001159 -0.000125 0.009251
# 3 -0.007341 0.000375 0.011303 0.002748 -0.002719 0.005691
# 4 0.009184 0.001159 0.002748 0.029007 0.019440 -0.001419
# 5 0.054460 -0.000125 -0.002719 0.019440 0.097204 -0.027363
# 6 -0.019373 0.009251 0.005691 -0.001419 -0.027363 0.046166
#
#
# Mechanical properties :
#
#
# Convention : Reuss Voigt Hill
#
# Bulk Modulus (GPa) = 19.60210 50.18400 34.89305
# Shear Modulus (GPa) = 17.44393 35.88404 26.66398
#
# Velocity S-wave (km/s) = 2.79397 4.00728 3.45432
# Velocity P-wave (km/s) = 4.37955 6.62335 5.61468
#
# Compressibility (1/GPa) = 0.05101495
#
# Stress axis : x y z
#
# Youngs Moduli (GPa) = 21.18752 63.97216 88.47016
#
# Poissons Ratio (x) = 0.29383 0.64942
# Poissons Ratio (y) = 0.09732 -0.03317
# Poissons Ratio (z) = 0.15553 -0.02398
#
# Static dielectric constant tensor:
#      x y z
#    x 1.799790 0.009400 0.026060 
#    y 0.009400 1.913380 -0.007930 
#    z 0.026060 -0.007930 1.799430 
# 
# From -- ./inp_files/223133.got.cif
#   From: 2010.05.17/outbox.cif.g08.bks.cpg/sg2_112_cif.got.tgz:223133.got - 2010.06.03 11:33:40.
