data_PCOD9069071
_publ_section_title
;
Structure prediction by ZEFSAII (Michael W. Deem and Ramdas Pophale) SiO2 
 PCOD9069071
Probable space group: P -1
;
_chemical_formula_sum "Si O2"
_cell_formula_units_Z 12
_cell_length_a 23.308724
_cell_length_b 11.479783
_cell_length_c 5.436805
_cell_angle_alpha 74.582929
_cell_angle_beta 114.110354
_cell_angle_gamma 158.089395
_cell_volume 467.365811
_symmetry_space_group_name_H-M "P -1"
_symmetry_group_IT_number 2
_symmetry_cell_setting 'triclinic'
loop_
_space_group_symop_operation_xyz
x,y,z
-x,-y,-z
loop_
_atom_site_type_symbol
_atom_site_label
_atom_site_fract_x
_atom_site_fract_y
_atom_site_fract_z
Si Si1 0.999845 0.139370 0.493418
Si Si2 0.886067 0.303796 0.164443
Si Si3 0.766804 0.322349 0.722950
Si Si4 0.539251 0.349724 0.703355
Si Si5 0.338544 0.330062 0.756810
Si Si6 0.799993 0.600235 0.918633
O O1 0.043645 0.308702 0.257482
O O2 0.163842 0.435156 0.790781
O O3 0.000000 0.000000 0.500000
O O4 0.820081 0.859036 0.442175
O O5 0.000000 0.500000 0.500000
O O6 0.747054 0.948710 0.155517
O O7 0.794044 0.268395 0.002855
O O8 0.000000 0.500000 0.000000
O O9 0.715041 0.365579 0.690761
O O10 0.637532 0.030827 0.468316
O O11 0.576356 0.510081 0.453553
O O12 0.683898 0.502515 0.855642
O O13 0.552967 0.430284 0.952716
O O14 0.000000 0.000000 0.000000
#
# Coordination Sequence:
#
# PCOD9069071 Si02
#       6
#     2   2   2   2   2   2
#     4  12  22  41  72  99 136 185 241 288 341 417
#     4  12  27  47  79 105 137 185 246 296 338 428
#     4  12  28  45  69 109 141 189 236 297 357 416
#     4  12  28  45  73 106 151 184 229 298 359 423
#     4  12  25  48  71 105 141 191 237 286 357 419
#     4  12  23  43  72 103 142 190 240 289 351 423
#
# _framework density 25.675820999999999
#
# number of rings (size 3 to 8) (size 9 to 14) (size 15 to 20)
#    0.000    0.000    6.667    2.500    2.333    2.000 
#    0.000    0.000    0.000    0.000    0.000    0.000 
#    0.000    0.000    0.000    0.000    0.000    0.000 
#
# Total GULP energy -67111.412654 kJ/mol
# GULP energy per Si atom -5592.617721 kJ/mol
# Density = 2.561738 g / cm^3
# Si number density = 25.675821 Si / 1000 Ang^3
#
#
#
# Elastic Constant Matrix: (Units=GPa)
#
#
# Indices 1 2 3 4 5 6 
#
# 1 97.3820 42.1981 38.1151 -1.1203 3.7395 -14.0855
# 2 42.1981 150.4750 49.0501 -14.3835 -8.4769 -24.7822
# 3 38.1151 49.0501 158.2946 2.0695 -14.6357 -9.4397
# 4 -1.1203 -14.3835 2.0695 46.0873 -2.2938 -4.9481
# 5 3.7395 -8.4769 -14.6357 -2.2938 47.9043 -1.6392
# 6 -14.0855 -24.7822 -9.4397 -4.9481 -1.6392 43.1313
#
#
#
# Elastic Compliance Matrix: (Units=1/GPa)
#
#
# Indices 1 2 3 4 5 6 
#
# 1 0.012676 -0.002615 -0.002312 -0.000292 -0.002104 0.002018
# 2 -0.002615 0.009123 -0.001832 0.003421 0.001575 0.004439
# 3 -0.002312 -0.001832 0.007642 -0.000881 0.002144 -0.000155
# 4 -0.000292 0.003421 -0.000881 0.023353 0.001628 0.004418
# 5 -0.002104 0.001575 0.002144 0.001628 0.022109 0.001714
# 6 0.002018 0.004439 -0.000155 0.004418 0.001714 0.026933
#
#
# Mechanical properties :
#
#
# Convention : Reuss Voigt Hill
#
# Bulk Modulus (GPa) = 62.80188 73.87537 68.33862
# Shear Modulus (GPa) = 41.43775 45.87711 43.65743
#
# Velocity S-wave (km/s) = 4.02167 4.23162 4.12798
# Velocity P-wave (km/s) = 6.78806 7.26019 7.02809
#
# Compressibility (1/GPa) = 0.01592309
#
# Stress axis : x y z
#
# Youngs Moduli (GPa) = 78.88689 109.61483 130.85333
#
# Poissons Ratio (x) = 0.28668 0.30257
# Poissons Ratio (y) = 0.20632 0.23966
# Poissons Ratio (z) = 0.18241 0.20076
#
# Static dielectric constant tensor:
#      x y z
#    x 2.150340 0.104400 -0.188330 
#    y 0.104400 2.029590 -0.134710 
#    z -0.188330 -0.134710 2.470300 
# 
# From -- ./inp_files/18445.got.cif
#   From: 2010.05.17/outbox.cif.g08.bks.cpg/sg2_10_cif.got.tgz:18445.got - 2010.06.03 11:33:40.
