data_PCOD9069870
_publ_section_title
;
Structure prediction by ZEFSAII (Michael W. Deem and Ramdas Pophale) SiO2 
 PCOD9069870
Probable space group: P -1
;
_chemical_formula_sum "Si O2"
_cell_formula_units_Z 16
_cell_length_a 21.612197
_cell_length_b 9.186968
_cell_length_c 17.735160
_cell_angle_alpha 143.485286
_cell_angle_beta 18.299284
_cell_angle_gamma 142.228401
_cell_volume 650.768150
_symmetry_space_group_name_H-M "P -1"
_symmetry_group_IT_number 2
_symmetry_cell_setting 'triclinic'
loop_
_space_group_symop_operation_xyz
x,y,z
-x,-y,-z
loop_
_atom_site_type_symbol
_atom_site_label
_atom_site_fract_x
_atom_site_fract_y
_atom_site_fract_z
Si Si1 0.556092 0.746151 0.294245
Si Si2 0.373182 0.967471 0.335147
Si Si3 0.300659 0.987185 0.910815
Si Si4 0.784020 0.649299 0.531382
Si Si5 0.895383 0.715067 0.006180
Si Si6 0.717397 0.518571 0.715811
Si Si7 0.210258 0.445136 0.767504
Si Si8 0.930679 0.127818 0.469883
O O1 0.384054 0.512136 0.391968
O O2 0.730143 0.681543 0.118871
O O3 0.500000 0.000000 0.500000
O O4 0.618104 0.817757 0.165881
O O5 0.599140 0.989360 0.112150
O O6 0.310158 0.236620 0.523410
O O7 0.265051 0.770792 0.439552
O O8 0.275402 0.839508 0.319187
O O9 0.337142 0.716576 0.730046
O O10 0.070841 0.011621 0.199097
O O11 0.706853 0.661219 0.710113
O O12 0.866856 0.919067 0.518356
O O13 0.956670 0.479944 0.262174
O O14 0.818548 0.648557 0.152146
O O15 0.000000 0.000000 0.000000
O O16 0.917122 0.641390 0.578998
O O17 0.500000 0.500000 0.000000
O O18 0.000000 0.500000 0.000000
#
# Coordination Sequence:
#
# PCOD9069870 Si02
#       8
#     2   2   2   2   2   2   2   2
#     4  12  26  42  70 106 153 192 235 291 360 439
#     4  12  25  45  77 104 144 196 236 290 376 420
#     4  12  25  46  71 108 149 190 239 294 362 439
#     4  12  26  48  71 109 144 188 240 306 365 426
#     4  12  24  42  70 107 151 190 234 288 366 437
#     4  12  26  54  76 101 144 192 253 306 355 427
#     4  12  24  44  73 112 151 186 233 293 360 451
#     4  12  27  47  77 103 142 191 248 303 357 427
#
# _framework density 24.586328000000002
#
# number of rings (size 3 to 8) (size 9 to 14) (size 15 to 20)
#    0.000    0.000    6.250    3.375    5.250    0.000 
#    2.250    0.625    0.000    0.000    0.000    0.000 
#    0.000    0.000    0.000    0.000    0.000    0.000 
#
# Total GULP energy -89524.670329 kJ/mol
# GULP energy per Si atom -5595.291896 kJ/mol
# Density = 2.453037 g / cm^3
# Si number density = 24.586328 Si / 1000 Ang^3
#
#
#
# Elastic Constant Matrix: (Units=GPa)
#
#
# Indices 1 2 3 4 5 6 
#
# 1 135.0194 22.0279 50.5713 -14.5847 -36.9018 -8.2500
# 2 22.0279 112.8831 4.4059 -6.1246 -7.5086 -11.2852
# 3 50.5713 4.4059 72.1132 -12.4504 -26.7556 -5.4113
# 4 -14.5847 -6.1246 -12.4504 23.9735 -1.4133 0.7952
# 5 -36.9018 -7.5086 -26.7556 -1.4133 59.1445 -12.5874
# 6 -8.2500 -11.2852 -5.4113 0.7952 -12.5874 56.1897
#
#
#
# Elastic Compliance Matrix: (Units=1/GPa)
#
#
# Indices 1 2 3 4 5 6 
#
# 1 0.011586 -0.001271 -0.005209 0.004260 0.005251 0.002060
# 2 -0.001271 0.009509 0.001500 0.002458 0.001619 0.002195
# 3 -0.005209 0.001500 0.022174 0.009086 0.007893 0.003312
# 4 0.004260 0.002458 0.009086 0.050071 0.008978 0.003297
# 5 0.005251 0.001619 0.007893 0.008978 0.025772 0.007502
# 6 0.002060 0.002195 0.003312 0.003297 0.007502 0.020493
#
#
# Mechanical properties :
#
#
# Convention : Reuss Voigt Hill
#
# Bulk Modulus (GPa) = 30.02214 52.66954 41.34584
# Shear Modulus (GPa) = 31.12024 44.06224 37.59124
#
# Velocity S-wave (km/s) = 3.56160 4.23796 3.91442
# Velocity P-wave (km/s) = 5.39915 6.73913 6.10601
#
# Compressibility (1/GPa) = 0.03330875
#
# Stress axis : x y z
#
# Youngs Moduli (GPa) = 86.31139 105.16682 45.09768
#
# Poissons Ratio (x) = 0.13369 0.23491
# Poissons Ratio (y) = 0.10972 -0.06765
# Poissons Ratio (z) = 0.44959 -0.15776
#
# Static dielectric constant tensor:
#      x y z
#    x 1.972820 0.038130 0.022370 
#    y 0.038130 1.984980 0.033450 
#    z 0.022370 0.033450 1.951210 
# 
# From -- ./inp_files/226444.got.cif
#   From: 2010.05.17/outbox.cif.g08.bks.cpg/sg2_114_cif.got.tgz:226444.got - 2010.06.03 11:33:40.
