data_PCOD9069353
_publ_section_title
;
Structure prediction by ZEFSAII (Michael W. Deem and Ramdas Pophale) SiO2 
 PCOD9069353
Probable space group: P -1
;
_chemical_formula_sum "Si O2"
_cell_formula_units_Z 12
_cell_length_a 14.969170
_cell_length_b 9.249152
_cell_length_c 9.622036
_cell_angle_alpha 149.756748
_cell_angle_beta 124.529818
_cell_angle_gamma 53.646349
_cell_volume 535.451709
_symmetry_space_group_name_H-M "P -1"
_symmetry_group_IT_number 2
_symmetry_cell_setting 'triclinic'
loop_
_space_group_symop_operation_xyz
x,y,z
-x,-y,-z
loop_
_atom_site_type_symbol
_atom_site_label
_atom_site_fract_x
_atom_site_fract_y
_atom_site_fract_z
Si Si1 0.196779 0.741123 0.967506
Si Si2 0.210052 0.924360 0.816739
Si Si3 0.928511 0.419587 0.742074
Si Si4 0.080812 0.273245 0.485882
Si Si5 0.530627 0.300906 0.227617
Si Si6 0.442206 0.731387 0.253499
O O1 0.311689 0.814855 0.172996
O O2 0.107685 0.958697 0.170688
O O3 0.183350 0.789576 0.829626
O O4 0.188907 0.407057 0.710404
O O5 0.142049 0.828745 0.547404
O O6 0.340612 0.803253 0.796907
O O7 0.167413 0.273517 0.100317
O O8 0.016962 0.315252 0.609415
O O9 0.000000 0.500000 0.000000
O O10 0.000000 0.500000 0.500000
O O11 0.500000 0.500000 0.500000
O O12 0.464687 0.532258 0.246411
O O13 0.500000 0.000000 0.000000
O O14 0.500000 0.000000 0.500000
O O15 0.500000 0.500000 0.000000
#
# Coordination Sequence:
#
# PCOD9069353 Si02
#       6
#     2   2   2   2   2   2
#     4  12  24  42  75 106 139 188 246 299 360 428
#     4  12  24  46  74  99 142 197 235 298 375 430
#     4  12  27  44  69 103 145 187 239 297 364 442
#     4  12  23  42  69 103 139 183 241 298 353 428
#     4  12  28  48  74 109 151 191 241 304 372 441
#     4  12  26  46  75 109 142 189 251 301 354 435
#
# _framework density 22.410983999999999
#
# number of rings (size 3 to 8) (size 9 to 14) (size 15 to 20)
#    0.000    0.000    5.000    5.000    2.333    4.000 
#    0.000    0.000    0.000    0.000    0.000    0.000 
#    0.000    0.000    0.000    0.000    0.000    0.000 
#
# Total GULP energy -66955.624018 kJ/mol
# GULP energy per Si atom -5579.635335 kJ/mol
# Density = 2.235998 g / cm^3
# Si number density = 22.410984 Si / 1000 Ang^3
#
#
#
# Elastic Constant Matrix: (Units=GPa)
#
#
# Indices 1 2 3 4 5 6 
#
# 1 89.3334 10.0252 43.2564 -8.8821 -17.5004 -5.4025
# 2 10.0252 82.2204 33.7055 -16.0443 -3.6702 11.6158
# 3 43.2564 33.7055 168.6184 9.2610 -10.5517 8.8751
# 4 -8.8821 -16.0443 9.2610 48.0991 4.5989 -4.1327
# 5 -17.5004 -3.6702 -10.5517 4.5989 63.4410 -2.4732
# 6 -5.4025 11.6158 8.8751 -4.1327 -2.4732 33.3026
#
#
#
# Elastic Compliance Matrix: (Units=1/GPa)
#
#
# Indices 1 2 3 4 5 6 
#
# 1 0.014273 0.000106 -0.003881 0.003454 0.003203 0.003979
# 2 0.000106 0.014989 -0.003129 0.005316 -0.000155 -0.003729
# 3 -0.003881 -0.003129 0.007864 -0.003472 0.000228 -0.002048
# 4 0.003454 0.005316 -0.003472 0.024183 -0.000970 0.002560
# 5 0.003203 -0.000155 0.000228 -0.000970 0.016809 0.001641
# 6 0.003979 -0.003729 -0.002048 0.002560 0.001641 0.032959
#
#
# Mechanical properties :
#
#
# Convention : Reuss Voigt Hill
#
# Bulk Modulus (GPa) = 42.88560 57.12737 50.00649
# Shear Modulus (GPa) = 37.69021 45.84755 41.76888
#
# Velocity S-wave (km/s) = 4.10539 4.52792 4.32182
# Velocity P-wave (km/s) = 6.45367 7.27201 6.87503
#
# Compressibility (1/GPa) = 0.02331785
#
# Stress axis : x y z
#
# Youngs Moduli (GPa) = 70.06216 66.71342 127.15420
#
# Poissons Ratio (x) = -0.00704 0.49353
# Poissons Ratio (y) = -0.00739 0.39783
# Poissons Ratio (z) = 0.27194 0.20873
#
# Static dielectric constant tensor:
#      x y z
#    x 1.847650 0.009710 0.000790 
#    y 0.009710 1.822450 -0.083890 
#    z 0.000790 -0.083890 1.925620 
# 
# From -- ./inp_files/195460.got.cif
#   From: 2010.05.17/outbox.cif.g08.bks.cpg/sg2_98_cif.got.tgz:195460.got - 2010.06.03 11:33:40.
