data_PCOD9069044
_publ_section_title
;
Structure prediction by ZEFSAII (Michael W. Deem and Ramdas Pophale) SiO2 
 PCOD9069044
Probable space group: P -1
;
_chemical_formula_sum "Si O2"
_cell_formula_units_Z 16
_cell_length_a 9.535695
_cell_length_b 9.829411
_cell_length_c 12.840113
_cell_angle_alpha 103.567353
_cell_angle_beta 119.008944
_cell_angle_gamma 39.036405
_cell_volume 640.454373
_symmetry_space_group_name_H-M "P -1"
_symmetry_group_IT_number 2
_symmetry_cell_setting 'triclinic'
loop_
_space_group_symop_operation_xyz
x,y,z
-x,-y,-z
loop_
_atom_site_type_symbol
_atom_site_label
_atom_site_fract_x
_atom_site_fract_y
_atom_site_fract_z
Si Si1 0.941861 0.339275 0.727442
Si Si2 0.862306 0.889200 0.880299
Si Si3 0.774061 0.554819 0.389906
Si Si4 0.598789 0.949289 0.304028
Si Si5 0.022196 0.869024 0.708546
Si Si6 0.851696 0.555607 0.059666
Si Si7 0.455155 0.754743 0.518778
Si Si8 0.732168 0.064582 0.080275
O O1 0.147623 0.162449 0.679182
O O2 0.020093 0.445492 0.800140
O O3 0.640371 0.541367 0.626016
O O4 0.041539 0.185594 0.834965
O O5 0.872987 0.940739 0.776351
O O6 0.126998 0.624842 0.945536
O O7 0.664166 0.892127 0.824050
O O8 0.797811 0.037578 0.977464
O O9 0.635549 0.759175 0.303205
O O10 0.607734 0.636320 0.445432
O O11 0.000000 0.500000 0.500000
O O12 0.878714 0.344404 0.338229
O O13 0.547345 0.084401 0.408328
O O14 0.250193 0.812310 0.817951
O O15 0.838364 0.068526 0.591925
O O16 0.553301 0.799141 0.989888
O O17 0.000000 0.500000 0.000000
#
# Coordination Sequence:
#
# PCOD9069044 Si02
#       8
#     2   2   2   2   2   2   2   2
#     4  12  24  43  73 106 138 186 243 300 351 416
#     4  12  24  44  75 105 141 190 240 293 357 421
#     4  12  22  42  70 106 139 183 241 297 349 415
#     4  12  22  40  74 110 135 173 242 309 348 410
#     4  12  28  46  68 109 150 192 232 288 366 434
#     4  12  24  45  74 105 138 187 246 297 349 413
#     4  12  24  42  74 106 139 182 240 296 363 413
#     4  12  29  47  68 104 155 190 235 291 355 438
#
# _framework density 24.982263
#
# number of rings (size 3 to 8) (size 9 to 14) (size 15 to 20)
#    0.000    0.000    7.500    3.375    0.000    2.000 
#    0.000    2.500    0.000    0.000    0.000    0.000 
#    0.000    0.000    0.000    0.000    0.000    0.000 
#
# Total GULP energy -89390.361214 kJ/mol
# GULP energy per Si atom -5586.897576 kJ/mol
# Density = 2.492540 g / cm^3
# Si number density = 24.982263 Si / 1000 Ang^3
#
#
#
# Elastic Constant Matrix: (Units=GPa)
#
#
# Indices 1 2 3 4 5 6 
#
# 1 35.3793 15.9095 15.5642 2.1023 0.1941 -7.0515
# 2 15.9095 110.1463 54.9303 4.1673 -0.7264 -0.4036
# 3 15.5642 54.9303 120.4173 2.2842 7.6936 -6.9567
# 4 2.1023 4.1673 2.2842 51.7925 4.3024 -3.9587
# 5 0.1941 -0.7264 7.6936 4.3024 39.5010 4.0520
# 6 -7.0515 -0.4036 -6.9567 -3.9587 4.0520 25.4263
#
#
#
# Elastic Compliance Matrix: (Units=1/GPa)
#
#
# Indices 1 2 3 4 5 6 
#
# 1 0.032497 -0.003666 -0.001990 -0.000231 -0.000685 0.008483
# 2 -0.003666 0.012339 -0.005401 -0.000953 0.001679 -0.002714
# 3 -0.001990 -0.005401 0.011357 0.000462 -0.002656 0.002965
# 4 -0.000231 -0.000953 0.000462 0.019864 -0.002635 0.003560
# 5 -0.000685 0.001679 -0.002656 -0.002635 0.026725 -0.005559
# 6 0.008483 -0.002714 0.002965 0.003560 -0.005559 0.043890
#
#
# Mechanical properties :
#
#
# Convention : Reuss Voigt Hill
#
# Bulk Modulus (GPa) = 29.34250 48.75008 39.04629
# Shear Modulus (GPa) = 27.75516 35.31324 31.53420
#
# Velocity S-wave (km/s) = 3.33677 3.76378 3.55669
# Velocity P-wave (km/s) = 5.15909 6.20034 5.70353
#
# Compressibility (1/GPa) = 0.03408026
#
# Stress axis : x y z
#
# Youngs Moduli (GPa) = 30.77174 81.04423 88.04755
#
# Poissons Ratio (x) = 0.29713 0.17519
# Poissons Ratio (y) = 0.11282 0.47552
# Poissons Ratio (z) = 0.06123 0.43770
#
# Static dielectric constant tensor:
#      x y z
#    x 1.995650 -0.049350 0.064160 
#    y -0.049350 2.885430 -0.846140 
#    z 0.064160 -0.846140 2.714870 
# 
# From -- ./inp_files/428575.got.cif
#   From: 2010.05.17/outbox.cif.g08.bks.cpg/sg2_215_cif.got.tgz:428575.got - 2010.06.03 11:33:40.
