data_PCOD9069344
_publ_section_title
;
Structure prediction by ZEFSAII (Michael W. Deem and Ramdas Pophale) SiO2 
 PCOD9069344
Probable space group: P -1
;
_chemical_formula_sum "Si O2"
_cell_formula_units_Z 14
_cell_length_a 15.370908
_cell_length_b 28.282851
_cell_length_c 15.473031
_cell_angle_alpha 19.006915
_cell_angle_beta 161.620250
_cell_angle_gamma 161.363784
_cell_volume 602.163822
_symmetry_space_group_name_H-M "P -1"
_symmetry_group_IT_number 2
_symmetry_cell_setting 'triclinic'
loop_
_space_group_symop_operation_xyz
x,y,z
-x,-y,-z
loop_
_atom_site_type_symbol
_atom_site_label
_atom_site_fract_x
_atom_site_fract_y
_atom_site_fract_z
Si Si1 0.092440 0.174549 0.738064
Si Si2 0.482130 0.843531 0.203791
Si Si3 0.925139 0.751506 0.704903
Si Si4 0.687731 0.608647 0.261860
Si Si5 0.395119 0.865930 0.790760
Si Si6 0.630843 0.376458 0.359242
Si Si7 0.367941 0.761896 0.579034
O O1 0.226463 0.317911 0.688057
O O2 0.789897 0.159257 0.430052
O O3 0.362176 0.202579 0.874605
O O4 0.000000 0.000000 0.000000
O O5 0.782641 0.876776 0.370108
O O6 0.483621 0.721329 0.490514
O O7 0.161135 0.767232 0.977497
O O8 0.500000 0.000000 0.000000
O O9 0.612426 0.573097 0.710375
O O10 0.136576 0.785582 0.760494
O O11 0.006625 0.624274 0.495606
O O12 0.596292 0.724417 0.918107
O O13 0.589540 0.060991 0.660036
O O14 0.559312 0.249163 0.433028
O O15 0.000000 0.500000 0.500000
O O16 0.500000 0.500000 0.000000
#
# Coordination Sequence:
#
# PCOD9069344 Si02
#       7
#     2   2   2   2   2   2   2
#     4  12  23  44  70 103 133 179 234 285 351 415
#     4  12  26  48  72 100 147 193 235 290 356 427
#     4  12  27  46  68 107 141 185 235 291 359 414
#     4  12  25  42  70  97 142 178 224 292 351 410
#     4  12  25  43  70  99 136 176 238 286 338 429
#     4  12  25  42  68 101 137 178 235 291 345 411
#     4  12  23  42  67  98 130 182 231 285 343 410
#
# _framework density 23.249486999999998
#
# number of rings (size 3 to 8) (size 9 to 14) (size 15 to 20)
#    0.000    0.000    2.857    8.571    0.000    3.429 
#    0.000    0.000    0.000    0.000    0.000    0.000 
#    0.000    0.000    0.000    0.000    0.000    0.000 
#
# Total GULP energy -78514.651217 kJ/mol
# GULP energy per Si atom -5608.189373 kJ/mol
# Density = 2.319657 g / cm^3
# Si number density = 23.249487 Si / 1000 Ang^3
#
#
#
# Elastic Constant Matrix: (Units=GPa)
#
#
# Indices 1 2 3 4 5 6 
#
# 1 111.4926 47.4200 9.0227 5.1334 11.4290 -14.2285
# 2 47.4200 112.9227 23.5789 18.8228 -8.2275 -17.0226
# 3 9.0227 23.5789 91.6950 26.3840 5.8705 -6.1084
# 4 5.1334 18.8228 26.3840 37.3010 1.7347 5.7289
# 5 11.4290 -8.2275 5.8705 1.7347 39.6952 5.4855
# 6 -14.2285 -17.0226 -6.1084 5.7289 5.4855 39.0887
#
#
#
# Elastic Compliance Matrix: (Units=1/GPa)
#
#
# Indices 1 2 3 4 5 6 
#
# 1 0.011969 -0.005133 0.000554 0.000345 -0.005002 0.002860
# 2 -0.005133 0.013132 -0.001176 -0.005886 0.004084 0.003956
# 3 0.000554 -0.001176 0.014516 -0.010216 -0.002632 0.003824
# 4 0.000345 -0.005886 -0.010216 0.038446 -0.000155 -0.009647
# 5 -0.005002 0.004084 -0.002632 -0.000155 0.028487 -0.004428
# 6 0.002860 0.003956 0.003824 -0.009647 -0.004428 0.030980
#
#
# Mechanical properties :
#
#
# Convention : Reuss Voigt Hill
#
# Bulk Modulus (GPa) = 35.57837 52.90594 44.24215
# Shear Modulus (GPa) = 31.56387 38.95621 35.26004
#
# Velocity S-wave (km/s) = 3.68858 4.09782 3.89857
# Velocity P-wave (km/s) = 5.78592 6.72269 6.27182
#
# Compressibility (1/GPa) = 0.02810697
#
# Stress axis : x y z
#
# Youngs Moduli (GPa) = 83.54710 76.15228 68.88796
#
# Poissons Ratio (x) = 0.39087 -0.03814
# Poissons Ratio (y) = 0.42883 0.08102
# Poissons Ratio (z) = -0.04626 0.08956
#
# Static dielectric constant tensor:
#      x y z
#    x 1.908260 0.006940 -0.008510 
#    y 0.006940 1.824880 -0.042430 
#    z -0.008510 -0.042430 1.812720 
# 
# From -- ./inp_files/489409.got.cif
#   From: 2010.05.17/outbox.cif.g08.bks.cpg/sg2_245_cif.got.tgz:489409.got - 2010.06.03 11:33:40.
