data_PCOD9069730
_publ_section_title
;
Structure prediction by ZEFSAII (Michael W. Deem and Ramdas Pophale) SiO2 
 PCOD9069730
Probable space group: P -1
;
_chemical_formula_sum "Si O2"
_cell_formula_units_Z 15
_cell_length_a 23.047425
_cell_length_b 20.966842
_cell_length_c 5.408494
_cell_angle_alpha 121.789917
_cell_angle_beta 113.185466
_cell_angle_gamma 18.196729
_cell_volume 635.149287
_symmetry_space_group_name_H-M "P -1"
_symmetry_group_IT_number 2
_symmetry_cell_setting 'triclinic'
loop_
_space_group_symop_operation_xyz
x,y,z
-x,-y,-z
loop_
_atom_site_type_symbol
_atom_site_label
_atom_site_fract_x
_atom_site_fract_y
_atom_site_fract_z
Si Si1 0.422577 0.819494 0.160847
Si Si2 0.476337 0.479230 0.666397
Si Si3 0.669981 0.627758 0.538811
Si Si4 0.030418 0.291747 0.140612
Si Si5 0.208078 0.649176 0.510056
Si Si6 0.533823 0.009653 0.825446
Si Si7 0.000000 0.500000 0.500000
Si Si8 0.190721 0.982502 0.477784
O O1 0.477403 0.827113 0.448741
O O2 0.247079 0.044925 0.141532
O O3 0.329529 0.853818 0.223693
O O4 0.637811 0.551772 0.858068
O O5 0.500000 0.500000 0.500000
O O6 0.270386 0.663823 0.697195
O O7 0.657275 0.213895 0.451764
O O8 0.500000 0.500000 0.000000
O O9 0.731717 0.476254 0.429088
O O10 0.857482 0.450630 0.345034
O O11 0.607781 0.756885 0.909714
O O12 0.963184 0.450962 0.293781
O O13 0.061636 0.201601 0.778586
O O14 0.971629 0.900168 0.585726
O O15 0.762794 0.778479 0.740199
O O16 0.500000 0.000000 0.500000
O O17 0.500000 0.000000 0.000000
#
# Coordination Sequence:
#
# PCOD9069730 Si02
#       8
#     2   2   2   2   2   2   1   2
#     4  12  23  47  78 109 153 203 265 328 388 465
#     4  12  29  52  80 119 165 205 256 326 405 480
#     4  12  26  47  77 111 149 211 269 329 391 473
#     4  12  26  46  78 111 155 210 269 328 398 473
#     4  12  26  46  81 111 154 203 261 326 388 478
#     4  12  30  50  74 110 162 205 262 330 393 461
#     4  12  28  48  74 112 162 214 260 330 408 450
#     4  12  26  47  80 115 150 209 267 315 398 474
#
# _framework density 23.616498
#
# number of rings (size 3 to 8) (size 9 to 14) (size 15 to 20)
#    0.000    0.000    6.667    2.400    5.600    2.667 
#    0.000    0.000    0.000    0.000    0.000    0.000 
#    0.000    0.000    0.000    0.000    0.000    0.000 
#
# Total GULP energy -83753.984131 kJ/mol
# GULP energy per Si atom -5583.598942 kJ/mol
# Density = 2.356275 g / cm^3
# Si number density = 23.616498 Si / 1000 Ang^3
#
#
#
# Elastic Constant Matrix: (Units=GPa)
#
#
# Indices 1 2 3 4 5 6 
#
# 1 137.7535 33.8362 36.9257 -8.7527 2.2781 -38.0423
# 2 33.8362 92.1845 13.5478 -1.0776 -19.0985 -25.8044
# 3 36.9257 13.5478 104.0719 -11.5822 -0.5786 -16.4092
# 4 -8.7527 -1.0776 -11.5822 43.2010 -6.9977 1.5205
# 5 2.2781 -19.0985 -0.5786 -6.9977 37.5769 17.2367
# 6 -38.0423 -25.8044 -16.4092 1.5205 17.2367 42.9144
#
#
#
# Elastic Compliance Matrix: (Units=1/GPa)
#
#
# Indices 1 2 3 4 5 6 
#
# 1 0.011463 -0.002307 -0.002095 0.000233 -0.006754 0.010678
# 2 -0.002307 0.014015 -0.000275 0.000558 0.005507 0.004045
# 3 -0.002095 -0.000275 0.011009 0.002367 -0.000450 0.002284
# 4 0.000233 0.000558 0.002367 0.024832 0.005724 -0.001732
# 5 -0.006754 0.005507 -0.000450 0.005724 0.039570 -0.018944
# 6 0.010678 0.004045 0.002284 -0.001732 -0.018944 0.043744
#
#
# Mechanical properties :
#
#
# Convention : Reuss Voigt Hill
#
# Bulk Modulus (GPa) = 36.85700 55.84770 46.35235
# Shear Modulus (GPa) = 30.66914 41.38512 36.02713
#
# Velocity S-wave (km/s) = 3.60756 4.19069 3.91001
# Velocity P-wave (km/s) = 5.74396 6.86403 6.32882
#
# Compressibility (1/GPa) = 0.02713188
#
# Stress axis : x y z
#
# Youngs Moduli (GPa) = 87.23759 71.35278 90.83595
#
# Poissons Ratio (x) = 0.16463 0.19028
# Poissons Ratio (y) = 0.20128 0.02501
# Poissons Ratio (z) = 0.18275 0.01964
#
# Static dielectric constant tensor:
#      x y z
#    x 1.899160 0.014350 0.022180 
#    y 0.014350 1.956570 -0.043930 
#    z 0.022180 -0.043930 1.963850 
# 
# From -- ./inp_files/120495.got.cif
#   From: 2010.05.17/outbox.cif.g08.bks.cpg/sg2_61_cif.got.tgz:120495.got - 2010.06.03 11:33:40.
