data_PCOD9069116
_publ_section_title
;
Structure prediction by ZEFSAII (Michael W. Deem and Ramdas Pophale) SiO2 
 PCOD9069116
Probable space group: P -1
;
_chemical_formula_sum "Si O2"
_cell_formula_units_Z 16
_cell_length_a 13.711300
_cell_length_b 21.252694
_cell_length_c 12.689620
_cell_angle_alpha 41.398660
_cell_angle_beta 44.432622
_cell_angle_gamma 16.333222
_cell_volume 687.349108
_symmetry_space_group_name_H-M "P -1"
_symmetry_group_IT_number 2
_symmetry_cell_setting 'triclinic'
loop_
_space_group_symop_operation_xyz
x,y,z
-x,-y,-z
loop_
_atom_site_type_symbol
_atom_site_label
_atom_site_fract_x
_atom_site_fract_y
_atom_site_fract_z
Si Si1 0.737414 0.406630 0.517667
Si Si2 0.150165 0.063551 0.818355
Si Si3 0.357345 0.161166 0.803424
Si Si4 0.386469 0.790762 0.431540
Si Si5 0.620699 0.693471 0.760182
Si Si6 0.490280 0.055757 0.585984
Si Si7 0.064558 0.152578 0.007049
Si Si8 0.446739 0.671919 0.747211
O O1 0.500000 0.500000 0.500000
O O2 0.544979 0.624726 0.426871
O O3 0.830627 0.286345 0.704004
O O4 0.103523 0.195443 0.441721
O O5 0.119758 0.062249 0.967570
O O6 0.398889 0.831395 0.863259
O O7 0.348050 0.040358 0.696419
O O8 0.568058 0.124723 0.717794
O O9 0.988556 0.413331 0.826394
O O10 0.362280 0.040245 0.959987
O O11 0.398360 0.141490 0.668758
O O12 0.582420 0.632660 0.585096
O O13 0.000000 0.000000 0.500000
O O14 0.684868 0.760553 0.589042
O O15 0.387673 0.793077 0.722947
O O16 0.753024 0.416992 0.878971
O O17 0.886137 0.188060 0.176936
#
# Coordination Sequence:
#
# PCOD9069116 Si02
#       8
#     2   2   2   2   2   2   2   2
#     4  11  22  34  50  81 120 147 177 227 285 336
#     4  10  19  33  55  83 112 148 182 229 285 331
#     4  10  19  34  57  84 107 144 187 231 281 323
#     4  12  23  36  57  84 112 149 188 231 275 331
#     4  10  18  28  55  80 113 137 180 233 275 318
#     4  10  18  32  53  82 111 141 185 233 283 322
#     4   9  20  36  58  81 112 147 177 235 286 331
#     4  10  20  36  54  83 114 140 188 231 280 328
#
# _framework density 23.277837000000002
#
# number of rings (size 3 to 8) (size 9 to 14) (size 15 to 20)
#    0.000    1.750    2.500    4.125    3.500    0.500 
#    0.000    0.625    0.000    0.000    0.000    5.250 
#    0.000    0.000    0.000    0.000    0.000    0.000 
#
# Total GULP energy -89197.551682 kJ/mol
# GULP energy per Si atom -5574.846980 kJ/mol
# Density = 2.322486 g / cm^3
# Si number density = 23.277837 Si / 1000 Ang^3
#
#
#
# Elastic Constant Matrix: (Units=GPa)
#
#
# Indices 1 2 3 4 5 6 
#
# 1 150.7590 55.7630 29.8251 1.9204 -26.4072 8.2342
# 2 55.7630 88.9261 1.3923 11.8397 14.9067 16.2569
# 3 29.8251 1.3923 95.0202 21.9434 21.5386 -4.1592
# 4 1.9204 11.8397 21.9434 12.0208 -14.5782 -1.9146
# 5 -26.4072 14.9067 21.5386 -14.5782 -15.8210 10.8631
# 6 8.2342 16.2569 -4.1592 -1.9146 10.8631 51.1500
#
#
#
# Elastic Compliance Matrix: (Units=1/GPa)
#
#
# Indices 1 2 3 4 5 6 
#
# 1 0.006461 -0.002404 0.000789 -0.006582 -0.005432 0.000695
# 2 -0.002404 0.012220 -0.001805 0.001010 0.008432 -0.005396
# 3 0.000789 -0.001805 0.008520 -0.002133 0.009839 -0.001030
# 4 -0.006582 0.001010 -0.002133 0.050595 -0.031330 0.009113
# 5 -0.005432 0.008432 0.009839 -0.031330 -0.004737 -0.001172
# 6 0.000695 -0.005396 -0.001030 0.009113 -0.001172 0.021660
#
#
# Mechanical properties :
#
#
# Convention : Reuss Voigt Hill
#
# Bulk Modulus (GPa) = 49.11611 56.51846 52.81728
# Shear Modulus (GPa) = 46.14908 25.98493 36.06701
#
# Velocity S-wave (km/s) = 4.45739 3.34472 3.94053
# Velocity P-wave (km/s) = 6.90195 6.26489 6.59112
#
# Compressibility (1/GPa) = 0.02035992
#
# Stress axis : x y z
#
# Youngs Moduli (GPa) = 154.78630 81.83601 117.37055
#
# Poissons Ratio (x) = 0.19672 -0.09261
# Poissons Ratio (y) = 0.37208 0.21189
# Poissons Ratio (z) = -0.12213 0.14774
#
# Static dielectric constant tensor:
#      x y z
#    x 2.022270 -0.040640 0.016280 
#    y -0.040640 1.936260 -0.036240 
#    z 0.016280 -0.036240 1.913060 
# 
# From -- ./inp_files/523448.got.cif
#   From: 2010.05.17/outbox.cif.g08.bks.cpg/sg2_262_cif.got.tgz:523448.got - 2010.06.03 11:33:40.
