data_PCOD9069456
_publ_section_title
;
Structure prediction by ZEFSAII (Michael W. Deem and Ramdas Pophale) SiO2 
 PCOD9069456
Probable space group: P -1
;
_chemical_formula_sum "Si O2"
_cell_formula_units_Z 13
_cell_length_a 9.021212
_cell_length_b 8.669261
_cell_length_c 13.085271
_cell_angle_alpha 94.187693
_cell_angle_beta 103.917045
_cell_angle_gamma 31.611500
_cell_volume 502.881083
_symmetry_space_group_name_H-M "P -1"
_symmetry_group_IT_number 2
_symmetry_cell_setting 'triclinic'
loop_
_space_group_symop_operation_xyz
x,y,z
-x,-y,-z
loop_
_atom_site_type_symbol
_atom_site_label
_atom_site_fract_x
_atom_site_fract_y
_atom_site_fract_z
Si Si1 0.256578 0.210033 0.211379
Si Si2 0.279329 0.933550 0.752307
Si Si3 0.500000 0.500000 0.000000
Si Si4 0.544442 0.182527 0.615261
Si Si5 0.742866 0.275952 0.798111
Si Si6 0.953362 0.856122 0.486883
Si Si7 0.579672 0.786154 0.075154
O O1 0.901955 0.542390 0.169104
O O2 0.445963 0.188152 0.198919
O O3 0.394659 0.033635 0.332172
O O4 0.330232 0.011984 0.132606
O O5 0.070656 0.171368 0.636338
O O6 0.063534 0.078281 0.818230
O O7 0.456060 0.626069 0.731946
O O8 0.676621 0.318925 0.909112
O O9 0.403319 0.398501 0.978901
O O10 0.739493 0.131682 0.714967
O O11 0.207392 0.539341 0.573621
O O12 0.655243 0.090218 0.513763
O O13 0.000000 0.000000 0.500000
O O14 0.500000 0.000000 0.000000
#
# Coordination Sequence:
#
# PCOD9069456 Si02
#       7
#     2   2   1   2   2   2   2
#     4  12  28  51  74 112 163 200 255 332 398 466
#     4  12  27  46  77 112 155 206 253 321 392 468
#     4  12  30  50  86 116 148 214 264 328 398 476
#     4  12  24  45  76 109 155 203 252 329 380 460
#     4  12  25  47  74 112 150 199 265 318 389 460
#     4  12  23  43  75 114 153 201 264 317 386 463
#     4  12  28  53  79 114 157 206 268 333 394 474
#
# _framework density 25.851044000000002
#
# number of rings (size 3 to 8) (size 9 to 14) (size 15 to 20)
#    0.000    0.000    4.615    4.615    2.154    4.923 
#    0.000    0.000    0.000    0.000    0.000    0.000 
#    0.000    0.000    0.000    0.000    0.000    0.000 
#
# Total GULP energy -72564.989383 kJ/mol
# GULP energy per Si atom -5581.922260 kJ/mol
# Density = 2.579221 g / cm^3
# Si number density = 25.851044 Si / 1000 Ang^3
#
#
#
# Elastic Constant Matrix: (Units=GPa)
#
#
# Indices 1 2 3 4 5 6 
#
# 1 122.3930 25.1067 34.7258 5.6164 -16.6447 13.2184
# 2 25.1067 98.1223 10.2161 -11.0175 -2.8092 -14.1043
# 3 34.7258 10.2161 80.9793 3.6427 -2.8355 -3.3138
# 4 5.6164 -11.0175 3.6427 59.2600 -4.7472 -1.4851
# 5 -16.6447 -2.8092 -2.8355 -4.7472 23.0096 24.3570
# 6 13.2184 -14.1043 -3.3138 -1.4851 24.3570 15.6429
#
#
#
# Elastic Compliance Matrix: (Units=1/GPa)
#
#
# Indices 1 2 3 4 5 6 
#
# 1 0.005319 0.000593 -0.002135 -0.000897 -0.012699 0.015276
# 2 0.000593 0.009638 -0.001544 0.002455 0.010254 -0.007872
# 3 -0.002135 -0.001544 0.013458 -0.000604 0.005542 -0.005423
# 4 -0.000897 0.002455 -0.000604 0.017666 0.002413 0.000763
# 5 -0.012699 0.010254 0.005542 0.002413 -0.021712 0.055186
# 6 0.015276 -0.007872 -0.005423 0.000763 0.055186 -0.043085
#
#
# Mechanical properties :
#
#
# Convention : Reuss Voigt Hill
#
# Bulk Modulus (GPa) = 44.95567 49.06574 47.01070
# Shear Modulus (GPa) = -974.70533 35.01224 -469.84655
#
# Velocity S-wave (km/s) = -19.43876 3.68419 -13.49615
# Velocity P-wave (km/s) = 22.05431 6.09254 14.98788
#
# Compressibility (1/GPa) = 0.02224414
#
# Stress axis : x y z
#
# Youngs Moduli (GPa) = 188.01397 103.75485 74.30343
#
# Poissons Ratio (x) = -0.06152 0.15862
# Poissons Ratio (y) = -0.11148 0.11470
# Poissons Ratio (z) = 0.40137 0.16016
#
# Static dielectric constant tensor:
#      x y z
#    x 2.219350 0.166150 -0.104150 
#    y 0.166150 2.040020 -0.115190 
#    z -0.104150 -0.115190 2.173150 
# 
# From -- ./inp_files/492979.got.cif
#   From: 2010.05.17/outbox.cif.g08.bks.cpg/sg2_247_cif.got.tgz:492979.got - 2010.06.03 11:33:40.
