data_PCOD9069755
_publ_section_title
;
Structure prediction by ZEFSAII (Michael W. Deem and Ramdas Pophale) SiO2 
 PCOD9069755
Probable space group: P -1
;
_chemical_formula_sum "Si O2"
_cell_formula_units_Z 16
_cell_length_a 8.979055
_cell_length_b 25.142233
_cell_length_c 24.823187
_cell_angle_alpha 11.352875
_cell_angle_beta 140.608973
_cell_angle_gamma 140.302960
_cell_volume 696.973208
_symmetry_space_group_name_H-M "P -1"
_symmetry_group_IT_number 2
_symmetry_cell_setting 'triclinic'
loop_
_space_group_symop_operation_xyz
x,y,z
-x,-y,-z
loop_
_atom_site_type_symbol
_atom_site_label
_atom_site_fract_x
_atom_site_fract_y
_atom_site_fract_z
Si Si1 0.455969 0.142640 0.587140
Si Si2 0.995408 0.217353 0.444854
Si Si3 0.732578 0.672001 0.874201
Si Si4 0.402979 0.066148 0.848133
Si Si5 0.175122 0.266414 0.280867
Si Si6 0.088443 0.516611 0.286503
Si Si7 0.896288 0.241541 0.762228
Si Si8 0.234671 0.350593 0.843503
O O1 0.351515 0.252811 0.393112
O O2 0.654602 0.378053 0.424261
O O3 0.243561 0.119388 0.592958
O O4 0.574529 0.866505 0.886544
O O5 0.015368 0.361385 0.365110
O O6 0.810317 0.951281 0.650252
O O7 0.930415 0.460312 0.146274
O O8 0.699218 0.735630 0.739353
O O9 0.500000 0.500000 0.000000
O O10 0.227383 0.299993 0.573023
O O11 0.616665 0.183213 0.752514
O O12 0.500000 0.000000 0.000000
O O13 0.260351 0.794749 0.053273
O O14 0.000000 0.000000 0.500000
O O15 0.000000 0.500000 0.000000
O O16 0.861432 0.586910 0.186591
O O17 0.000000 0.500000 0.500000
O O18 0.010380 0.248133 0.846986
O O19 0.000000 0.000000 0.000000
#
# Coordination Sequence:
#
# PCOD9069755 Si02
#       8
#     2   2   2   2   2   2   2   2
#     4  12  26  46  78 104 151 195 247 305 379 440
#     4  12  27  50  74 111 150 195 246 305 377 449
#     4  12  26  49  76 110 150 192 249 312 368 443
#     4  12  26  50  79 104 148 204 249 307 370 443
#     4  12  23  48  76 104 142 195 249 298 365 443
#     4  12  28  49  76 110 152 197 252 304 381 449
#     4  12  28  47  75 110 149 192 260 310 367 437
#     4  12  28  48  72 110 151 196 247 309 372 447
#
# _framework density 22.956406999999999
#
# number of rings (size 3 to 8) (size 9 to 14) (size 15 to 20)
#    0.000    0.000    3.750    5.250    8.750    0.000 
#    0.000    0.000    0.000    0.000    0.000    0.000 
#    0.000    0.000    0.000    0.000    0.000    0.000 
#
# Total GULP energy -89635.514216 kJ/mol
# GULP energy per Si atom -5602.219638 kJ/mol
# Density = 2.290416 g / cm^3
# Si number density = 22.956407 Si / 1000 Ang^3
#
#
#
# Elastic Constant Matrix: (Units=GPa)
#
#
# Indices 1 2 3 4 5 6 
#
# 1 146.6166 44.3162 46.0292 -17.8634 9.7433 -5.3314
# 2 44.3162 78.2753 12.8108 -31.5896 6.2910 -10.6573
# 3 46.0292 12.8108 149.9037 -26.5128 16.2328 -1.7353
# 4 -17.8634 -31.5896 -26.5128 47.5622 7.2090 -7.3280
# 5 9.7433 6.2910 16.2328 7.2090 46.1381 -1.4171
# 6 -5.3314 -10.6573 -1.7353 -7.3280 -1.4171 29.0658
#
#
#
# Elastic Compliance Matrix: (Units=1/GPa)
#
#
# Indices 1 2 3 4 5 6 
#
# 1 0.009089 -0.005685 -0.002688 -0.002041 0.000087 -0.001088
# 2 -0.005685 0.025933 0.003997 0.020388 -0.006512 0.013527
# 3 -0.002688 0.003997 0.009043 0.007841 -0.004283 0.003280
# 4 -0.002041 0.020388 0.007841 0.042608 -0.011219 0.017765
# 5 0.000087 -0.006512 -0.004283 -0.011219 0.025675 -0.004204
# 6 -0.001088 0.013527 0.003280 0.017765 -0.004204 0.043635
#
#
# Mechanical properties :
#
#
# Convention : Reuss Voigt Hill
#
# Bulk Modulus (GPa) = 28.31775 64.56757 46.44266
# Shear Modulus (GPa) = 28.32796 42.66251 35.49524
#
# Velocity S-wave (km/s) = 3.51663 4.31561 3.93644
# Velocity P-wave (km/s) = 5.37133 7.28147 6.39809
#
# Compressibility (1/GPa) = 0.03531354
#
# Stress axis : x y z
#
# Youngs Moduli (GPa) = 110.02879 38.56128 110.57873
#
# Poissons Ratio (x) = 0.21920 0.29723
# Poissons Ratio (y) = 0.62546 -0.44198
# Poissons Ratio (z) = 0.29575 -0.15413
#
# Static dielectric constant tensor:
#      x y z
#    x 1.842110 -0.038980 0.017850 
#    y -0.038980 1.198500 0.462250 
#    z 0.017850 0.462250 1.480320 
# 
# From -- ./inp_files/617694.got.cif
#   From: 2010.05.17/outbox.cif.g08.bks.cpg/sg2_309_cif.got.tgz:617694.got - 2010.06.03 11:33:40.
