data_PCOD9069731
_publ_section_title
;
Structure prediction by ZEFSAII (Michael W. Deem and Ramdas Pophale) SiO2 
 PCOD9069731
Probable space group: P -1
;
_chemical_formula_sum "Si O2"
_cell_formula_units_Z 15
_cell_length_a 11.104600
_cell_length_b 11.928576
_cell_length_c 5.838402
_cell_angle_alpha 100.805376
_cell_angle_beta 108.430504
_cell_angle_gamma 51.055948
_cell_volume 570.575593
_symmetry_space_group_name_H-M "P -1"
_symmetry_group_IT_number 2
_symmetry_cell_setting 'triclinic'
loop_
_space_group_symop_operation_xyz
x,y,z
-x,-y,-z
loop_
_atom_site_type_symbol
_atom_site_label
_atom_site_fract_x
_atom_site_fract_y
_atom_site_fract_z
Si Si1 0.500000 0.000000 0.500000
Si Si2 0.553743 0.815000 0.028983
Si Si3 0.516042 0.368801 0.850895
Si Si4 0.855241 0.631449 0.816567
Si Si5 0.261560 0.964081 0.577741
Si Si6 0.003828 0.225696 0.284779
Si Si7 0.158546 0.802536 0.197425
Si Si8 0.255627 0.545049 0.470555
O O1 0.563102 0.906096 0.262705
O O2 0.379381 0.953929 0.451155
O O3 0.582853 0.673848 0.096344
O O4 0.694136 0.757378 0.903803
O O5 0.378589 0.902769 0.840914
O O6 0.699661 0.236022 0.899419
O O7 0.443906 0.423072 0.573573
O O8 0.500000 0.500000 0.000000
O O9 0.913281 0.707393 0.738600
O O10 0.808988 0.547237 0.610990
O O11 0.000000 0.500000 0.000000
O O12 0.183174 0.883508 0.441079
O O13 0.104850 0.129494 0.528711
O O14 0.828662 0.351775 0.321244
O O15 0.991528 0.140249 0.038128
O O16 0.206978 0.651898 0.272160
#
# Coordination Sequence:
#
# PCOD9069731 Si02
#       8
#     1   2   2   2   2   2   2   2
#     4  12  28  52  78 110 154 208 264 324 382 458
#     4  12  28  52  81 116 153 208 264 326 391 462
#     4  12  23  47  78 109 155 197 258 323 391 466
#     4  12  26  51  81 117 157 203 263 325 395 469
#     4  12  28  49  78 112 157 205 268 317 382 471
#     4  12  28  48  78 114 160 210 258 318 396 466
#     4  12  25  49  73 117 155 206 260 323 392 469
#     4  12  26  47  78 113 155 209 257 328 396 462
#
# _framework density 26.289244
#
# number of rings (size 3 to 8) (size 9 to 14) (size 15 to 20)
#    0.000    0.000    4.000    5.600    3.733    1.600 
#    0.000    0.000    0.000    0.000    0.000    0.000 
#    0.000    0.000    0.000    0.000    0.000    0.000 
#
# Total GULP energy -83754.327470 kJ/mol
# GULP energy per Si atom -5583.621831 kJ/mol
# Density = 2.622941 g / cm^3
# Si number density = 26.289244 Si / 1000 Ang^3
#
#
#
# Elastic Constant Matrix: (Units=GPa)
#
#
# Indices 1 2 3 4 5 6 
#
# 1 108.7327 28.2913 21.6745 5.2440 7.3411 13.6822
# 2 28.2913 107.9854 45.8973 -0.2700 19.0021 8.4867
# 3 21.6745 45.8973 104.5671 3.8457 38.7896 0.1600
# 4 5.2440 -0.2700 3.8457 49.2307 0.1582 11.4471
# 5 7.3411 19.0021 38.7896 0.1582 51.2996 1.1027
# 6 13.6822 8.4867 0.1600 11.4471 1.1027 47.7988
#
#
#
# Elastic Compliance Matrix: (Units=1/GPa)
#
#
# Indices 1 2 3 4 5 6 
#
# 1 0.010297 -0.001979 -0.001379 -0.000420 0.000357 -0.002499
# 2 -0.001979 0.012016 -0.004680 0.001061 -0.000594 -0.001792
# 3 -0.001379 -0.004680 0.015637 -0.001477 -0.009926 0.001756
# 4 -0.000420 0.001061 -0.001477 0.021703 0.000830 -0.005280
# 5 0.000357 -0.000594 -0.009926 0.000830 0.027182 -0.000790
# 6 -0.002499 -0.001792 0.001756 -0.005280 -0.000790 0.023231
#
#
# Mechanical properties :
#
#
# Convention : Reuss Voigt Hill
#
# Bulk Modulus (GPa) = 45.71600 57.00128 51.35864
# Shear Modulus (GPa) = 37.47145 44.69395 41.08270
#
# Velocity S-wave (km/s) = 3.77948 4.12768 3.95741
# Velocity P-wave (km/s) = 6.03932 6.66682 6.36081
#
# Compressibility (1/GPa) = 0.02187418
#
# Stress axis : x y z
#
# Youngs Moduli (GPa) = 97.11249 83.22148 63.95105
#
# Poissons Ratio (x) = 0.16471 0.08818
# Poissons Ratio (y) = 0.19221 0.29929
# Poissons Ratio (z) = 0.13391 0.38947
#
# Static dielectric constant tensor:
#      x y z
#    x 1.440550 -0.003230 -0.632650 
#    y -0.003230 2.089110 0.008160 
#    z -0.632650 0.008160 1.363880 
# 
# From -- ./inp_files/71389.got.cif
#   From: 2010.05.17/outbox.cif.g08.bks.cpg/sg2_36_cif.got.tgz:71389.got - 2010.06.03 11:33:40.
