data_PCOD9069429
_publ_section_title
;
Structure prediction by ZEFSAII (Michael W. Deem and Ramdas Pophale) SiO2 
 PCOD9069429
Probable space group: P -1
;
_chemical_formula_sum "Si O2"
_cell_formula_units_Z 12
_cell_length_a 12.189199
_cell_length_b 9.656759
_cell_length_c 9.782995
_cell_angle_alpha 150.463850
_cell_angle_beta 68.528092
_cell_angle_gamma 103.099817
_cell_volume 517.587281
_symmetry_space_group_name_H-M "P -1"
_symmetry_group_IT_number 2
_symmetry_cell_setting 'triclinic'
loop_
_space_group_symop_operation_xyz
x,y,z
-x,-y,-z
loop_
_atom_site_type_symbol
_atom_site_label
_atom_site_fract_x
_atom_site_fract_y
_atom_site_fract_z
Si Si1 0.310380 0.443554 0.845756
Si Si2 0.045401 0.667629 0.242582
Si Si3 0.949808 0.714279 0.823763
Si Si4 0.312310 0.237226 0.121189
Si Si5 0.356689 0.622858 0.675505
Si Si6 0.542782 0.151386 0.743959
O O1 0.310722 0.554602 0.785852
O O2 0.338795 0.103240 0.510175
O O3 0.188903 0.579798 0.094317
O O4 0.409000 0.558782 0.995103
O O5 0.010387 0.490748 0.238447
O O6 0.000000 0.000000 0.500000
O O7 0.000000 0.500000 0.000000
O O8 0.804492 0.764674 0.920291
O O9 0.000000 0.500000 0.500000
O O10 0.000000 0.000000 0.000000
O O11 0.304583 0.502205 0.457519
O O12 0.432586 0.181770 0.927101
O O13 0.328471 0.962327 0.973331
O O14 0.500000 0.500000 0.500000
O O15 0.500000 0.000000 0.500000
#
# Coordination Sequence:
#
# PCOD9069429 Si02
#       6
#     2   2   2   2   2   2
#     4  12  26  44  72 107 149 187 251 311 375 454
#     4  12  29  52  78 110 152 201 257 316 380 449
#     4  12  29  51  76 110 149 203 259 311 378 450
#     4  12  25  44  72 106 151 191 249 310 373 453
#     4  12  23  43  72 109 147 194 245 299 383 455
#     4  12  24  43  71 104 144 193 237 310 386 453
#
# _framework density 23.184494999999998
#
# number of rings (size 3 to 8) (size 9 to 14) (size 15 to 20)
#    0.000    0.000    3.333    6.000    7.000    2.667 
#    0.000    0.000    0.000    0.000    0.000    0.000 
#    0.000    0.000    0.000    0.000    0.000    0.000 
#
# Total GULP energy -66848.570268 kJ/mol
# GULP energy per Si atom -5570.714189 kJ/mol
# Density = 2.313173 g / cm^3
# Si number density = 23.184495 Si / 1000 Ang^3
#
#
#
# Elastic Constant Matrix: (Units=GPa)
#
#
# Indices 1 2 3 4 5 6 
#
# 1 93.8044 13.3839 25.2679 6.6013 18.6451 2.5466
# 2 13.3839 135.2857 56.6972 -7.3623 20.6559 -10.6997
# 3 25.2679 56.6972 154.4811 19.4102 19.3142 18.2160
# 4 6.6013 -7.3623 19.4102 52.2652 -5.9433 9.7772
# 5 18.6451 20.6559 19.3142 -5.9433 43.3650 0.1400
# 6 2.5466 -10.6997 18.2160 9.7772 0.1400 27.4299
#
#
#
# Elastic Compliance Matrix: (Units=1/GPa)
#
#
# Indices 1 2 3 4 5 6 
#
# 1 0.012063 -0.000027 -0.001172 -0.001700 -0.004886 0.000279
# 2 -0.000027 0.010219 -0.004349 0.001563 -0.002725 0.006333
# 3 -0.001172 -0.004349 0.009730 -0.003020 -0.002150 -0.006962
# 4 -0.001700 0.001563 -0.003020 0.022151 0.004384 -0.005144
# 5 -0.004886 -0.002725 -0.002150 0.004384 0.028020 -0.000887
# 6 0.000279 0.006333 -0.006962 -0.005144 -0.000887 0.045363
#
#
# Mechanical properties :
#
#
# Convention : Reuss Voigt Hill
#
# Bulk Modulus (GPa) = 47.80571 63.80771 55.80671
# Shear Modulus (GPa) = 34.33764 43.82683 39.08224
#
# Velocity S-wave (km/s) = 3.85263 4.35253 4.11019
# Velocity P-wave (km/s) = 6.36041 7.26917 6.82992
#
# Compressibility (1/GPa) = 0.02091800
#
# Stress axis : x y z
#
# Youngs Moduli (GPa) = 82.89720 97.85705 102.77332
#
# Poissons Ratio (x) = 0.00263 0.12041
# Poissons Ratio (y) = 0.00223 0.44692
# Poissons Ratio (z) = 0.09713 0.42554
#
# Static dielectric constant tensor:
#      x y z
#    x -0.455990 -0.830580 -0.043620 
#    y -0.830580 1.570810 0.039980 
#    z -0.043620 0.039980 1.677470 
# 
# From -- ./inp_files/241736.got.cif
#   From: 2010.05.17/outbox.cif.g08.bks.cpg/sg2_121_cif.got.tgz:241736.got - 2010.06.03 11:33:40.
