data_PCOD9069886
_publ_section_title
;
Structure prediction by ZEFSAII (Michael W. Deem and Ramdas Pophale) SiO2 
 PCOD9069886
Probable space group: P -1
;
_chemical_formula_sum "Si O2"
_cell_formula_units_Z 15
_cell_length_a 11.550367
_cell_length_b 9.166009
_cell_length_c 10.815893
_cell_angle_alpha 97.761225
_cell_angle_beta 142.477364
_cell_angle_gamma 74.254715
_cell_volume 664.966117
_symmetry_space_group_name_H-M "P -1"
_symmetry_group_IT_number 2
_symmetry_cell_setting 'triclinic'
loop_
_space_group_symop_operation_xyz
x,y,z
-x,-y,-z
loop_
_atom_site_type_symbol
_atom_site_label
_atom_site_fract_x
_atom_site_fract_y
_atom_site_fract_z
Si Si1 0.078160 0.560670 0.451040
Si Si2 0.996652 0.878856 0.874463
Si Si3 0.446216 0.642515 0.875728
Si Si4 0.928821 0.352264 0.898733
Si Si5 0.500000 0.500000 0.500000
Si Si6 0.743829 0.762571 0.023180
Si Si7 0.338601 0.264186 0.500312
Si Si8 0.634881 0.109049 0.955304
O O1 0.247840 0.637392 0.641067
O O2 0.173424 0.407808 0.435793
O O3 0.000000 0.500000 0.500000
O O4 0.902521 0.686937 0.253137
O O5 0.781180 0.857617 0.657455
O O6 0.109007 0.716803 0.011636
O O7 0.135420 0.903123 0.883809
O O8 0.000000 0.000000 0.000000
O O9 0.500000 0.500000 0.000000
O O10 0.599618 0.651751 0.897356
O O11 0.427799 0.785496 0.966326
O O12 0.726797 0.396209 0.658784
O O13 0.118420 0.244968 0.980163
O O14 0.000000 0.500000 0.000000
O O15 0.438706 0.345287 0.489366
O O16 0.624160 0.937957 0.952259
O O17 0.497163 0.186074 0.731593
#
# Coordination Sequence:
#
# PCOD9069886 Si02
#       8
#     2   2   2   2   1   2   2   2
#     4  12  24  45  74 107 135 188 249 296 359 428
#     4  12  26  47  70 104 148 190 236 298 368 429
#     4  12  26  44  78 106 142 192 248 304 359 436
#     4  12  25  44  72 107 143 187 245 301 352 437
#     4  12  24  42  74 106 138 190 246 294 356 426
#     4  12  27  46  70 108 147 187 242 306 369 424
#     4  12  26  44  75 105 146 191 245 297 359 439
#     4  12  27  48  71 107 154 190 237 306 371 430
#
# _framework density 22.557538000000001
#
# number of rings (size 3 to 8) (size 9 to 14) (size 15 to 20)
#    0.000    0.000    8.000    1.200    3.733    2.133 
#    2.400    0.000    0.000    0.000    0.000    0.000 
#    0.000    0.000    0.000    0.000    0.000    0.000 
#
# Total GULP energy -83574.814801 kJ/mol
# GULP energy per Si atom -5571.654320 kJ/mol
# Density = 2.250620 g / cm^3
# Si number density = 22.557538 Si / 1000 Ang^3
#
#
#
# Elastic Constant Matrix: (Units=GPa)
#
#
# Indices 1 2 3 4 5 6 
#
# 1 95.2084 20.4216 19.5121 15.5435 27.4592 20.5948
# 2 20.4216 110.0100 18.0486 -0.5599 1.2712 12.2001
# 3 19.5121 18.0486 130.7504 11.1368 14.6238 14.5134
# 4 15.5435 -0.5599 11.1368 31.2671 4.9377 1.8156
# 5 27.4592 1.2712 14.6238 4.9377 32.2769 6.2908
# 6 20.5948 12.2001 14.5134 1.8156 6.2908 46.8901
#
#
#
# Elastic Compliance Matrix: (Units=1/GPa)
#
#
# Indices 1 2 3 4 5 6 
#
# 1 0.016556 -0.002476 0.000303 -0.006169 -0.012237 -0.004840
# 2 -0.002476 0.009896 -0.001225 0.001564 0.002321 -0.001480
# 3 0.000303 -0.001225 0.008578 -0.002591 -0.003324 -0.001923
# 4 -0.006169 0.001564 -0.002591 0.035816 0.000561 0.001642
# 5 -0.012237 0.002321 -0.003324 0.000561 0.042712 0.000048
# 6 -0.004840 -0.001480 -0.001923 0.001642 0.000048 0.024363
#
#
# Mechanical properties :
#
#
# Convention : Reuss Voigt Hill
#
# Bulk Modulus (GPa) = 35.42002 50.21483 42.81742
# Shear Modulus (GPa) = 32.44035 40.61925 36.52980
#
# Velocity S-wave (km/s) = 3.79636 4.24806 4.02855
# Velocity P-wave (km/s) = 5.91208 6.80959 6.37664
#
# Compressibility (1/GPa) = 0.02823262
#
# Stress axis : x y z
#
# Youngs Moduli (GPa) = 60.40151 101.05092 116.57626
#
# Poissons Ratio (x) = 0.25022 -0.03527
# Poissons Ratio (y) = 0.14956 0.14281
# Poissons Ratio (z) = -0.01827 0.12379
#
# Static dielectric constant tensor:
#      x y z
#    x 1.806820 0.039510 -0.074320 
#    y 0.039510 1.786180 0.084330 
#    z -0.074320 0.084330 1.687220 
# 
# From -- ./inp_files/419568.got.cif
#   From: 2010.05.17/outbox.cif.g08.bks.cpg/sg2_210_cif.got.tgz:419568.got - 2010.06.03 11:33:40.
