data_PCOD9069925
_publ_section_title
;
Structure prediction by ZEFSAII (Michael W. Deem and Ramdas Pophale) SiO2 
 PCOD9069925
Probable space group: P -1
;
_chemical_formula_sum "Si O2"
_cell_formula_units_Z 14
_cell_length_a 12.151543
_cell_length_b 22.992205
_cell_length_c 5.168510
_cell_angle_alpha 78.495895
_cell_angle_beta 75.183924
_cell_angle_gamma 24.157109
_cell_volume 569.209060
_symmetry_space_group_name_H-M "P -1"
_symmetry_group_IT_number 2
_symmetry_cell_setting 'triclinic'
loop_
_space_group_symop_operation_xyz
x,y,z
-x,-y,-z
loop_
_atom_site_type_symbol
_atom_site_label
_atom_site_fract_x
_atom_site_fract_y
_atom_site_fract_z
Si Si1 0.973838 0.446563 0.449762
Si Si2 0.001371 0.793881 0.321414
Si Si3 0.281971 0.897280 0.484884
Si Si4 0.934651 0.707468 0.142292
Si Si5 0.587819 0.578291 0.200035
Si Si6 0.424301 0.282264 0.026849
Si Si7 0.691568 0.981763 0.831348
O O1 0.116900 0.328758 0.637373
O O2 0.147643 0.375970 0.147703
O O3 0.000000 0.500000 0.500000
O O4 0.689004 0.552370 0.443431
O O5 0.836456 0.904185 0.088970
O O6 0.292698 0.687983 0.279003
O O7 0.036766 0.710322 0.271252
O O8 0.828754 0.876939 0.616482
O O9 0.373225 0.841698 0.772134
O O10 0.258069 0.976725 0.350473
O O11 0.484987 0.770798 0.271311
O O12 0.000000 0.000000 0.500000
O O13 0.636299 0.869088 0.077884
O O14 0.178016 0.576356 0.914266
O O15 0.587462 0.641297 0.988744
#
# Coordination Sequence:
#
# PCOD9069925 Si02
#       7
#     2   2   2   2   2   2   2
#     4  12  26  47  77 114 152 197 255 317 387 457
#     4  12  30  52  76 113 155 206 257 318 382 445
#     4  12  24  43  72 106 151 198 243 305 384 450
#     4  12  28  49  82 109 152 207 261 312 377 462
#     4  12  28  47  80 112 158 195 257 324 382 454
#     4  12  24  44  70 111 146 189 250 309 377 447
#     4  12  27  51  75 110 156 203 260 311 377 459
#
# _framework density 24.595531999999999
#
# number of rings (size 3 to 8) (size 9 to 14) (size 15 to 20)
#    0.000    0.000    2.857    6.429    6.000    0.571 
#    0.000    0.000    0.000    0.000    0.000    0.000 
#    0.000    0.000    0.000    0.000    0.000    0.000 
#
# Total GULP energy -78458.372033 kJ/mol
# GULP energy per Si atom -5604.169431 kJ/mol
# Density = 2.453955 g / cm^3
# Si number density = 24.595532 Si / 1000 Ang^3
#
#
#
# Elastic Constant Matrix: (Units=GPa)
#
#
# Indices 1 2 3 4 5 6 
#
# 1 193.3015 82.9381 41.5705 -2.0896 5.3622 -12.2256
# 2 82.9381 120.5894 58.9156 -1.3246 1.5473 -10.7341
# 3 41.5705 58.9156 100.4805 1.0434 6.4513 -8.7662
# 4 -2.0896 -1.3246 1.0434 35.4853 4.1089 12.6711
# 5 5.3622 1.5473 6.4513 4.1089 37.3057 2.3227
# 6 -12.2256 -10.7341 -8.7662 12.6711 2.3227 47.8710
#
#
#
# Elastic Compliance Matrix: (Units=1/GPa)
#
#
# Indices 1 2 3 4 5 6 
#
# 1 0.007397 -0.005005 0.000001 0.000071 -0.000913 0.000792
# 2 -0.005005 0.015112 -0.006800 0.000045 0.001214 0.000795
# 3 0.000001 -0.006800 0.014212 -0.000932 -0.002162 0.001430
# 4 0.000071 0.000045 -0.000932 0.031520 -0.002803 -0.008349
# 5 -0.000913 0.001214 -0.002162 -0.002803 0.027629 -0.000956
# 6 0.000792 0.000795 0.001430 -0.008349 -0.000956 0.023788
#
#
# Mechanical properties :
#
#
# Convention : Reuss Voigt Hill
#
# Bulk Modulus (GPa) = 76.24956 86.80222 81.52589
# Shear Modulus (GPa) = 33.86741 39.52889 36.69815
#
# Velocity S-wave (km/s) = 3.71479 4.01329 3.86692
# Velocity P-wave (km/s) = 7.03336 7.53948 7.29081
#
# Compressibility (1/GPa) = 0.01311483
#
# Stress axis : x y z
#
# Youngs Moduli (GPa) = 135.19831 66.17073 70.36491
#
# Poissons Ratio (x) = 0.33117 -0.00010
# Poissons Ratio (y) = 0.67664 0.47845
# Poissons Ratio (z) = -0.00020 0.44993
#
# Static dielectric constant tensor:
#      x y z
#    x 1.911780 -0.002310 0.018960 
#    y -0.002310 2.089730 0.072270 
#    z 0.018960 0.072270 1.992410 
# 
# From -- ./inp_files/82648.got.cif
#   From: 2010.05.17/outbox.cif.g08.bks.cpg/sg2_42_cif.got.tgz:82648.got - 2010.06.03 11:33:40.
