data_PCOD9069153
_publ_section_title
;
Structure prediction by ZEFSAII (Michael W. Deem and Ramdas Pophale) SiO2 
 PCOD9069153
Probable space group: P -1
;
_chemical_formula_sum "Si O2"
_cell_formula_units_Z 11
_cell_length_a 6.588241
_cell_length_b 11.190787
_cell_length_c 11.754722
_cell_angle_alpha 140.600315
_cell_angle_beta 123.734608
_cell_angle_gamma 74.551937
_cell_volume 435.166745
_symmetry_space_group_name_H-M "P -1"
_symmetry_group_IT_number 2
_symmetry_cell_setting 'triclinic'
loop_
_space_group_symop_operation_xyz
x,y,z
-x,-y,-z
loop_
_atom_site_type_symbol
_atom_site_label
_atom_site_fract_x
_atom_site_fract_y
_atom_site_fract_z
Si Si1 0.770103 0.501383 0.846164
Si Si2 0.845062 0.131133 0.291862
Si Si3 0.070752 0.439018 0.314232
Si Si4 0.470991 0.202859 0.928933
Si Si5 0.000000 0.000000 0.000000
Si Si6 0.637303 0.834479 0.397621
O O1 0.832914 0.474769 0.717097
O O2 0.520278 0.344627 0.704329
O O3 0.714076 0.706593 0.992545
O O4 0.000000 0.500000 0.000000
O O5 0.861884 0.359982 0.443515
O O6 0.070730 0.123014 0.443615
O O7 0.584235 0.012056 0.189790
O O8 0.902440 0.031555 0.121455
O O9 0.765120 0.329625 0.125859
O O10 0.158104 0.248396 0.229246
O O11 0.398321 0.205534 0.776679
O O12 0.500000 0.000000 0.500000
#
# Coordination Sequence:
#
# PCOD9069153 Si02
#       6
#     2   2   2   2   1   2
#     4  12  22  43  74 112 152 184 231 302 373 443
#     4  12  26  48  74 108 146 200 249 298 369 434
#     4  12  26  50  75 108 147 196 249 301 374 430
#     4  12  24  47  73 112 152 186 239 311 371 442
#     4  12  28  52  74 102 150 198 262 304 346 438
#     4  12  23  42  74 114 152 190 237 300 380 445
#
# _framework density 25.277667000000001
#
# number of rings (size 3 to 8) (size 9 to 14) (size 15 to 20)
#    0.000    0.000    5.455    6.000    0.000    0.727 
#    0.000    4.545    0.000    0.000    0.000    0.000 
#    0.000    0.000    0.000    0.000    0.000    0.000 
#
# Total GULP energy -61388.997491 kJ/mol
# GULP energy per Si atom -5580.817954 kJ/mol
# Density = 2.522013 g / cm^3
# Si number density = 25.277667 Si / 1000 Ang^3
#
#
#
# Elastic Constant Matrix: (Units=GPa)
#
#
# Indices 1 2 3 4 5 6 
#
# 1 100.4020 41.3278 54.2100 -0.5963 -17.5532 29.4253
# 2 41.3278 118.8232 43.4382 23.6018 0.5083 27.0106
# 3 54.2100 43.4382 115.8042 23.5146 -16.2053 16.5439
# 4 -0.5963 23.6018 23.5146 62.5448 -0.2558 5.0889
# 5 -17.5532 0.5083 -16.2053 -0.2558 46.2879 5.5706
# 6 29.4253 27.0106 16.5439 5.0889 5.5706 68.1784
#
#
#
# Elastic Compliance Matrix: (Units=1/GPa)
#
#
# Indices 1 2 3 4 5 6 
#
# 1 0.017115 -0.003359 -0.006142 0.004191 0.005036 -0.005290
# 2 -0.003359 0.011508 -0.001984 -0.003456 -0.001847 -0.002219
# 3 -0.006142 -0.001984 0.013424 -0.004373 0.002330 0.000316
# 4 0.004191 -0.003456 -0.004373 0.019045 0.000301 -0.000825
# 5 0.005036 -0.001847 0.002330 0.000301 0.024840 -0.004059
# 6 -0.005290 -0.002219 0.000316 -0.000825 -0.004059 0.018146
#
#
# Mechanical properties :
#
#
# Convention : Reuss Voigt Hill
#
# Bulk Modulus (GPa) = 52.42116 68.10906 60.26511
# Shear Modulus (GPa) = 37.47938 48.47244 42.97591
#
# Velocity S-wave (km/s) = 3.85477 4.38379 4.12776
# Velocity P-wave (km/s) = 6.37146 7.25440 6.82722
#
# Compressibility (1/GPa) = 0.01907627
#
# Stress axis : x y z
#
# Youngs Moduli (GPa) = 58.42975 86.89448 74.49507
#
# Poissons Ratio (x) = 0.29185 0.45757
# Poissons Ratio (y) = 0.19625 0.14781
# Poissons Ratio (z) = 0.35889 0.17241
#
# Static dielectric constant tensor:
#      x y z
#    x 2.181220 0.146470 0.182980 
#    y 0.146470 2.430340 0.301860 
#    z 0.182980 0.301860 2.257630 
# 
# From -- ./inp_files/21888.got.cif
#   From: 2010.05.17/outbox.cif.g08.bks.cpg/sg2_11_cif.got.tgz:21888.got - 2010.06.03 11:33:40.
