data_PCOD9069501
_publ_section_title
;
Structure prediction by ZEFSAII (Michael W. Deem and Ramdas Pophale) SiO2 
 PCOD9069501
Probable space group: P -1
;
_chemical_formula_sum "Si O2"
_cell_formula_units_Z 12
_cell_length_a 14.243974
_cell_length_b 8.487332
_cell_length_c 13.534349
_cell_angle_alpha 56.847008
_cell_angle_beta 19.105593
_cell_angle_gamma 58.534738
_cell_volume 448.287088
_symmetry_space_group_name_H-M "P -1"
_symmetry_group_IT_number 2
_symmetry_cell_setting 'triclinic'
loop_
_space_group_symop_operation_xyz
x,y,z
-x,-y,-z
loop_
_atom_site_type_symbol
_atom_site_label
_atom_site_fract_x
_atom_site_fract_y
_atom_site_fract_z
Si Si1 0.177311 0.183934 0.454838
Si Si2 0.344143 0.826808 0.160164
Si Si3 0.643307 0.466329 0.587794
Si Si4 0.141529 0.695110 0.767421
Si Si5 0.112138 0.698577 0.100238
Si Si6 0.407216 0.063916 0.732033
O O1 0.928674 0.109697 0.655807
O O2 0.009378 0.301730 0.666032
O O3 0.379414 0.039822 0.366145
O O4 0.415764 0.270471 0.116487
O O5 0.244014 0.676513 0.391156
O O6 0.500000 0.000000 0.000000
O O7 0.671024 0.351774 0.499419
O O8 0.836173 0.652093 0.326021
O O9 0.334335 0.534731 0.907180
O O10 0.374216 0.782589 0.580703
O O11 0.869226 0.834020 0.981008
O O12 0.000000 0.500000 0.000000
O O13 0.266086 0.897479 0.867369
#
# Coordination Sequence:
#
# PCOD9069501 Si02
#       6
#     2   2   2   2   2   2
#     4  12  23  44  72 100 149 198 237 270 372 419
#     4  12  26  41  67 111 150 197 242 291 349 422
#     4  12  27  45  70 108 149 179 256 302 341 429
#     4  12  27  50  79 106 139 190 240 307 373 428
#     4  12  24  47  72 105 149 197 228 297 364 419
#     4  12  23  49  76 103 144 193 236 291 366 438
#
# _framework density 26.768560000000001
#
# number of rings (size 3 to 8) (size 9 to 14) (size 15 to 20)
#    0.000    0.000    5.000    4.000    0.000    6.667 
#    0.000    5.000    0.000    0.000    0.000    0.000 
#    0.000    0.000    0.000    0.000    0.000    0.000 
#
# Total GULP energy -67225.331008 kJ/mol
# GULP energy per Si atom -5602.110917 kJ/mol
# Density = 2.670763 g / cm^3
# Si number density = 26.768560 Si / 1000 Ang^3
#
#
#
# Elastic Constant Matrix: (Units=GPa)
#
#
# Indices 1 2 3 4 5 6 
#
# 1 118.4950 60.7164 55.1060 14.1479 -14.2566 26.1907
# 2 60.7164 117.9621 72.8706 19.4824 8.9847 17.1050
# 3 55.1060 72.8706 196.3628 12.3831 -22.8763 20.4644
# 4 14.1479 19.4824 12.3831 76.0051 8.9910 -4.8081
# 5 -14.2566 8.9847 -22.8763 8.9910 51.4949 4.3250
# 6 26.1907 17.1050 20.4644 -4.8081 4.3250 35.4778
#
#
#
# Elastic Compliance Matrix: (Units=1/GPa)
#
#
# Indices 1 2 3 4 5 6 
#
# 1 0.014728 -0.006422 0.000081 -0.002432 0.006409 -0.008934
# 2 -0.006422 0.015175 -0.004560 -0.001164 -0.006304 0.000665
# 3 0.000081 -0.004560 0.007659 -0.000827 0.004613 -0.002954
# 4 -0.002432 -0.001164 -0.000827 0.014837 -0.003875 0.005317
# 5 0.006409 -0.006304 0.004613 -0.003875 0.025692 -0.008010
# 6 -0.008934 0.000665 -0.002954 0.005317 -0.008010 0.037862
#
#
# Mechanical properties :
#
#
# Convention : Reuss Voigt Hill
#
# Bulk Modulus (GPa) = 63.44412 90.02286 76.73349
# Shear Modulus (GPa) = 34.96260 48.87069 41.91665
#
# Velocity S-wave (km/s) = 3.61793 4.27743 3.96143
# Velocity P-wave (km/s) = 6.41911 7.62222 7.04639
#
# Compressibility (1/GPa) = 0.01576190
#
# Stress axis : x y z
#
# Youngs Moduli (GPa) = 67.89717 65.89635 130.55797
#
# Poissons Ratio (x) = 0.42317 -0.01058
# Poissons Ratio (y) = 0.43602 0.59531
# Poissons Ratio (z) = -0.00550 0.30047
#
# Static dielectric constant tensor:
#      x y z
#    x 2.100120 0.008430 0.038660 
#    y 0.008430 2.147890 -0.072940 
#    z 0.038660 -0.072940 2.065740 
# 
# From -- ./inp_files/526333.got.cif
#   From: 2010.05.17/outbox.cif.g08.bks.cpg/sg2_264_cif.got.tgz:526333.got - 2010.06.03 11:33:40.
