data_PCOD9069877
_publ_section_title
;
Structure prediction by ZEFSAII (Michael W. Deem and Ramdas Pophale) SiO2 
 PCOD9069877
Probable space group: P -1
;
_chemical_formula_sum "Si O2"
_cell_formula_units_Z 12
_cell_length_a 4.847542
_cell_length_b 16.968621
_cell_length_c 9.687506
_cell_angle_alpha 39.130835
_cell_angle_beta 86.237086
_cell_angle_gamma 78.805911
_cell_volume 488.655649
_symmetry_space_group_name_H-M "P -1"
_symmetry_group_IT_number 2
_symmetry_cell_setting 'triclinic'
loop_
_space_group_symop_operation_xyz
x,y,z
-x,-y,-z
loop_
_atom_site_type_symbol
_atom_site_label
_atom_site_fract_x
_atom_site_fract_y
_atom_site_fract_z
Si Si1 0.770241 0.132061 0.059231
Si Si2 0.072497 0.728940 0.867665
Si Si3 0.993553 0.551428 0.700382
Si Si4 0.482410 0.616509 0.448113
Si Si5 0.615105 0.731709 0.675115
Si Si6 0.627396 0.020925 0.818652
O O1 0.188087 0.208614 0.307985
O O2 0.507332 0.065186 0.165925
O O3 0.036675 0.029993 0.127453
O O4 0.863756 0.183829 0.129025
O O5 0.993723 0.599175 0.101368
O O6 0.330360 0.747320 0.202784
O O7 0.362313 0.693458 0.818793
O O8 0.795748 0.615561 0.492199
O O9 0.832046 0.614392 0.755631
O O10 0.296363 0.584308 0.625548
O O11 0.500000 0.500000 0.500000
O O12 0.475154 0.834135 0.425389
O O13 0.500000 0.000000 0.000000
#
# Coordination Sequence:
#
# PCOD9069877 Si02
#       6
#     2   2   2   2   2   2
#     4  12  26  44  72 103 138 178 230 285 340 403
#     4  12  26  44  71 103 142 180 231 280 344 407
#     4  12  25  45  71 103 142 180 231 286 337 406
#     4  12  24  42  72 103 137 175 230 287 345 395
#     4  12  26  46  70 100 141 188 227 276 344 410
#     4  12  27  48  72  99 137 180 232 284 339 409
#
# _framework density 24.557172000000001
#
# number of rings (size 3 to 8) (size 9 to 14) (size 15 to 20)
#    0.000    0.000    1.667    9.000    2.333    4.000 
#    0.000    0.000    0.000    0.000    0.000    0.000 
#    0.000    0.000    0.000    0.000    0.000    0.000 
#
# Total GULP energy -67360.890411 kJ/mol
# GULP energy per Si atom -5613.407534 kJ/mol
# Density = 2.450128 g / cm^3
# Si number density = 24.557172 Si / 1000 Ang^3
#
#
#
# Elastic Constant Matrix: (Units=GPa)
#
#
# Indices 1 2 3 4 5 6 
#
# 1 96.0346 0.8204 15.0053 -1.1796 4.3149 -0.5179
# 2 0.8204 71.2179 13.9242 -1.3568 6.3262 3.7806
# 3 15.0053 13.9242 65.3517 -8.0503 18.3513 -11.1830
# 4 -1.1796 -1.3568 -8.0503 32.7095 1.2338 2.7187
# 5 4.3149 6.3262 18.3513 1.2338 50.5895 2.2376
# 6 -0.5179 3.7806 -11.1830 2.7187 2.2376 48.8899
#
#
#
# Elastic Compliance Matrix: (Units=1/GPa)
#
#
# Indices 1 2 3 4 5 6 
#
# 1 0.010824 0.000424 -0.002701 -0.000214 0.000032 -0.000526
# 2 0.000424 0.014858 -0.003435 -0.000034 -0.000563 -0.001903
# 3 -0.002701 -0.003435 0.019989 0.004535 -0.006917 0.004874
# 4 -0.000214 -0.000034 0.004535 0.031820 -0.002371 -0.000623
# 5 0.000032 -0.000563 -0.006917 -0.002371 0.022509 -0.002437
# 6 -0.000526 -0.001903 0.004874 -0.000623 -0.002437 0.021857
#
#
# Mechanical properties :
#
#
# Convention : Reuss Voigt Hill
#
# Bulk Modulus (GPa) = 29.19829 32.45602 30.82716
# Shear Modulus (GPa) = 34.55474 39.96139 37.25807
#
# Velocity S-wave (km/s) = 3.75522 4.03833 3.89935
# Velocity P-wave (km/s) = 5.54238 5.91518 5.73181
#
# Compressibility (1/GPa) = 0.03424858
#
# Stress axis : x y z
#
# Youngs Moduli (GPa) = 92.38360 67.30163 50.02762
#
# Poissons Ratio (x) = -0.02856 0.13513
# Poissons Ratio (y) = -0.03921 0.17184
# Poissons Ratio (z) = 0.24954 0.23118
#
# Static dielectric constant tensor:
#      x y z
#    x 1.873990 0.019690 0.043120 
#    y 0.019690 1.958240 0.018510 
#    z 0.043120 0.018510 1.938270 
# 
# From -- ./inp_files/137131.got.cif
#   From: 2010.05.17/outbox.cif.g08.bks.cpg/sg2_69_cif.got.tgz:137131.got - 2010.06.03 11:33:40.
