data_PCOD9069179
_publ_section_title
;
Structure prediction by ZEFSAII (Michael W. Deem and Ramdas Pophale) SiO2 
 PCOD9069179
Probable space group: P -1
;
_chemical_formula_sum "Si O2"
_cell_formula_units_Z 14
_cell_length_a 12.597387
_cell_length_b 11.151619
_cell_length_c 7.185120
_cell_angle_alpha 127.199741
_cell_angle_beta 51.942007
_cell_angle_gamma 100.112831
_cell_volume 600.978664
_symmetry_space_group_name_H-M "P -1"
_symmetry_group_IT_number 2
_symmetry_cell_setting 'triclinic'
loop_
_space_group_symop_operation_xyz
x,y,z
-x,-y,-z
loop_
_atom_site_type_symbol
_atom_site_label
_atom_site_fract_x
_atom_site_fract_y
_atom_site_fract_z
Si Si1 0.263736 0.713984 0.127655
Si Si2 0.475790 0.566638 0.296697
Si Si3 0.401803 0.164166 0.673117
Si Si4 0.154621 0.610804 0.805425
Si Si5 0.045435 0.811693 0.764859
Si Si6 0.666239 0.967927 0.742362
Si Si7 0.818880 0.727961 0.670949
O O1 0.404118 0.563243 0.839222
O O2 0.148977 0.676415 0.080771
O O3 0.196663 0.747820 0.436815
O O4 0.300084 0.868252 0.164081
O O5 0.507160 0.733263 0.417031
O O6 0.318231 0.586882 0.551112
O O7 0.500000 0.500000 0.000000
O O8 0.311185 0.122100 0.565208
O O9 0.500000 0.000000 0.500000
O O10 0.058078 0.735461 0.882742
O O11 0.132719 0.441967 0.640072
O O12 0.936403 0.760469 0.705375
O O13 0.307989 0.261462 0.034659
O O14 0.000000 0.000000 0.000000
O O15 0.758955 0.861756 0.705428
O O16 0.500000 0.000000 0.000000
#
# Coordination Sequence:
#
# PCOD9069179 Si02
#       7
#     2   2   2   2   2   2   2
#     4  12  26  46  72 102 141 182 228 286 346 405
#     4  12  22  44  73 104 137 178 226 284 352 402
#     4  12  24  41  71 100 140 177 221 287 346 400
#     4  12  26  46  73 101 139 180 233 286 341 412
#     4  12  28  47  70  99 139 187 234 279 340 414
#     4  12  24  41  69 102 137 175 227 284 343 404
#     4  12  26  45  68 103 136 181 236 277 340 415
#
# _framework density 23.295335999999999
#
# number of rings (size 3 to 8) (size 9 to 14) (size 15 to 20)
#    0.000    0.000    4.286    6.000    2.000    4.000 
#    0.000    0.000    0.000    0.000    0.000    0.000 
#    0.000    0.000    0.000    0.000    0.000    0.000 
#
# Total GULP energy -78526.270164 kJ/mol
# GULP energy per Si atom -5609.019297 kJ/mol
# Density = 2.324232 g / cm^3
# Si number density = 23.295336 Si / 1000 Ang^3
#
#
#
# Elastic Constant Matrix: (Units=GPa)
#
#
# Indices 1 2 3 4 5 6 
#
# 1 142.6487 54.2497 8.7988 26.3099 13.4433 -16.2539
# 2 54.2497 116.0663 7.3731 40.0007 2.2341 0.4730
# 3 8.7988 7.3731 65.1716 5.0251 13.1612 0.5955
# 4 26.3099 40.0007 5.0251 47.0256 -0.4681 6.2036
# 5 13.4433 2.2341 13.1612 -0.4681 47.1135 2.7854
# 6 -16.2539 0.4730 0.5955 6.2036 2.7854 56.5436
#
#
#
# Elastic Compliance Matrix: (Units=1/GPa)
#
#
# Indices 1 2 3 4 5 6 
#
# 1 0.009451 -0.003392 -0.000156 -0.002834 -0.002709 0.003191
# 2 -0.003392 0.013508 -0.000405 -0.009538 0.000349 -0.000054
# 3 -0.000156 -0.000405 0.016436 -0.001392 -0.004551 0.000162
# 4 -0.002834 -0.009538 -0.001392 0.031703 0.002219 -0.004308
# 5 -0.002709 0.000349 -0.004551 0.002219 0.023401 -0.002130
# 6 0.003191 -0.000054 0.000162 -0.004308 -0.002130 0.019179
#
#
# Mechanical properties :
#
#
# Convention : Reuss Voigt Hill
#
# Bulk Modulus (GPa) = 31.75609 51.63662 41.69635
# Shear Modulus (GPa) = 37.85597 47.03421 42.44509
#
# Velocity S-wave (km/s) = 4.03556 4.49825 4.27317
# Velocity P-wave (km/s) = 5.94776 7.01378 6.50265
#
# Compressibility (1/GPa) = 0.03149002
#
# Stress axis : x y z
#
# Youngs Moduli (GPa) = 105.80396 74.03273 60.84264
#
# Poissons Ratio (x) = 0.25111 0.00948
# Poissons Ratio (y) = 0.35887 0.02463
# Poissons Ratio (z) = 0.01648 0.02996
#
# Static dielectric constant tensor:
#      x y z
#    x 1.852480 0.005690 0.003110 
#    y 0.005690 1.834070 -0.044240 
#    z 0.003110 -0.044240 1.885310 
# 
# From -- ./inp_files/245325.got.cif
#   From: 2010.05.17/outbox.cif.g08.bks.cpg/sg2_123_cif.got.tgz:245325.got - 2010.06.03 11:33:40.
