data_PCOD9069839
_publ_section_title
;
Structure prediction by ZEFSAII (Michael W. Deem and Ramdas Pophale) SiO2 
 PCOD9069839
Probable space group: P -1
;
_chemical_formula_sum "Si O2"
_cell_formula_units_Z 16
_cell_length_a 5.514670
_cell_length_b 29.805156
_cell_length_c 5.134807
_cell_angle_alpha 51.797856
_cell_angle_beta 88.441579
_cell_angle_gamma 106.169180
_cell_volume 614.361005
_symmetry_space_group_name_H-M "P -1"
_symmetry_group_IT_number 2
_symmetry_cell_setting 'triclinic'
loop_
_space_group_symop_operation_xyz
x,y,z
-x,-y,-z
loop_
_atom_site_type_symbol
_atom_site_label
_atom_site_fract_x
_atom_site_fract_y
_atom_site_fract_z
Si Si1 0.773330 0.762145 0.706444
Si Si2 0.347236 0.506272 0.731402
Si Si3 0.318552 0.637636 0.329124
Si Si4 0.811622 0.035777 0.293200
Si Si5 0.415618 0.875158 0.887664
Si Si6 0.024646 0.747966 0.248794
Si Si7 0.937883 0.374732 0.122598
Si Si8 0.241234 0.106431 0.676881
O O1 0.834000 0.764473 0.391849
O O2 0.750154 0.824685 0.573364
O O3 0.530549 0.700473 0.996514
O O4 0.994568 0.755996 0.914582
O O5 0.500000 0.500000 0.500000
O O6 0.342598 0.573617 0.489373
O O7 0.500000 0.500000 0.000000
O O8 0.083709 0.445928 0.941919
O O9 0.317064 0.641743 0.626791
O O10 0.074967 0.631298 0.166447
O O11 0.824536 0.100341 0.194504
O O12 0.500000 0.000000 0.500000
O O13 0.000000 0.000000 0.500000
O O14 0.943754 0.060116 0.917943
O O15 0.619809 0.904866 0.543237
O O16 0.567646 0.893089 0.090921
O O17 0.300955 0.801193 0.125770
O O18 0.969171 0.677478 0.577655
#
# Coordination Sequence:
#
# PCOD9069839 Si02
#       8
#     2   2   2   2   2   2   2   2
#     4  12  24  43  72 106 145 191 247 309 373 449
#     4  12  24  42  64  92 130 180 238 300 370 448
#     4  12  24  42  64  97 137 184 237 300 373 449
#     4  12  28  54  82 120 160 209 262 321 390 474
#     4  12  27  50  79 113 156 203 257 318 387 459
#     4  12  24  43  72 106 145 191 247 309 373 449
#     4  12  24  42  64  97 137 184 237 300 373 449
#     4  12  27  50  79 113 156 203 257 318 387 459
#
# _framework density 26.043320000000001
#
# number of rings (size 3 to 8) (size 9 to 14) (size 15 to 20)
#    0.000    0.000    2.500    8.250    0.000    1.000 
#    0.000    0.000    0.000    0.000    0.000    0.000 
#    0.000    0.000    0.000    0.000    0.000    0.000 
#
# Total GULP energy -89444.196090 kJ/mol
# GULP energy per Si atom -5590.262256 kJ/mol
# Density = 2.598404 g / cm^3
# Si number density = 26.043320 Si / 1000 Ang^3
#
#
#
# Elastic Constant Matrix: (Units=GPa)
#
#
# Indices 1 2 3 4 5 6 
#
# 1 76.4295 21.4537 39.5899 -7.7443 3.5210 -24.3351
# 2 21.4537 88.4919 27.5827 3.1899 8.6472 -21.6479
# 3 39.5899 27.5827 143.9560 -11.2124 -7.1484 -15.1767
# 4 -7.7443 3.1899 -11.2124 64.7343 -2.9063 -1.3957
# 5 3.5210 8.6472 -7.1484 -2.9063 60.6727 -2.8752
# 6 -24.3351 -21.6479 -15.1767 -1.3957 -2.8752 58.0726
#
#
#
# Elastic Compliance Matrix: (Units=1/GPa)
#
#
# Indices 1 2 3 4 5 6 
#
# 1 0.017557 -0.001628 -0.003830 0.001601 -0.000889 0.005744
# 2 -0.001628 0.013431 -0.001925 -0.001197 -0.001929 0.003697
# 3 -0.003830 -0.001925 0.008540 0.001186 0.001560 0.000015
# 4 0.001601 -0.001197 0.001186 0.015971 0.001028 0.000969
# 5 -0.000889 -0.001929 0.001560 0.001028 0.017050 0.000185
# 6 0.005744 0.003697 0.000015 0.000969 0.000185 0.021041
#
#
# Mechanical properties :
#
#
# Convention : Reuss Voigt Hill
#
# Bulk Modulus (GPa) = 40.38539 54.01443 47.19991
# Shear Modulus (GPa) = 42.87726 51.37933 47.12829
#
# Velocity S-wave (km/s) = 4.06197 4.44649 4.25857
# Velocity P-wave (km/s) = 6.12700 6.86636 6.50719
#
# Compressibility (1/GPa) = 0.02476143
#
# Stress axis : x y z
#
# Youngs Moduli (GPa) = 56.95705 74.45306 117.09257
#
# Poissons Ratio (x) = 0.12123 0.44851
# Poissons Ratio (y) = 0.09274 0.22539
# Poissons Ratio (z) = 0.21817 0.14332
#
# Static dielectric constant tensor:
#      x y z
#    x 2.172550 0.022300 -0.023570 
#    y 0.022300 2.152040 -0.094800 
#    z -0.023570 -0.094800 2.182560 
# 
# From -- ./inp_files/14942.got.cif
#   From: 2010.05.17/outbox.cif.g08.bks.cpg/sg2_8_cif.got.tgz:14942.got - 2010.06.03 11:33:40.
