data_PCOD9069338
_publ_section_title
;
Structure prediction by ZEFSAII (Michael W. Deem and Ramdas Pophale) SiO2 
 PCOD9069338
Probable space group: P -1
;
_chemical_formula_sum "Si O2"
_cell_formula_units_Z 16
_cell_length_a 9.616831
_cell_length_b 24.564931
_cell_length_c 12.076050
_cell_angle_alpha 138.421210
_cell_angle_beta 126.618341
_cell_angle_gamma 28.707434
_cell_volume 893.360855
_symmetry_space_group_name_H-M "P -1"
_symmetry_group_IT_number 2
_symmetry_cell_setting 'triclinic'
loop_
_space_group_symop_operation_xyz
x,y,z
-x,-y,-z
loop_
_atom_site_type_symbol
_atom_site_label
_atom_site_fract_x
_atom_site_fract_y
_atom_site_fract_z
Si Si1 0.471391 0.345419 0.220476
Si Si2 0.322099 0.911648 0.048268
Si Si3 0.255163 0.667637 0.458133
Si Si4 0.285532 0.945757 0.543509
Si Si5 0.772591 0.955221 0.568795
Si Si6 0.338507 0.086260 0.939344
Si Si7 0.796653 0.344079 0.213379
Si Si8 0.067683 0.332249 0.535927
O O1 0.612599 0.325265 0.371395
O O2 0.662347 0.314726 0.165959
O O3 0.146083 0.508513 0.308351
O O4 0.481619 0.244055 0.073671
O O5 0.470544 0.916807 0.037921
O O6 0.267962 0.980633 0.239959
O O7 0.000000 0.000000 0.000000
O O8 0.521331 0.507913 0.301225
O O9 0.079765 0.788116 0.469281
O O10 0.022583 0.698020 0.457382
O O11 0.588188 0.783207 0.468986
O O12 0.265984 0.976494 0.453217
O O13 0.300255 0.022238 0.743279
O O14 0.000000 0.000000 0.500000
O O15 0.500000 0.000000 0.500000
O O16 0.017772 0.240097 0.060982
O O17 0.500000 0.000000 0.000000
O O18 0.976244 0.323382 0.363843
#
# Coordination Sequence:
#
# PCOD9069338 Si02
#       8
#     2   2   2   2   2   2   2   2
#     4   9  19  36  66  93 117 156 215 257 295 362
#     4  12  24  39  65  96 121 162 216 254 299 368
#     4   9  17  37  64  92 117 164 207 247 307 363
#     4  12  27  42  62  93 128 168 203 252 321 368
#     4  12  23  42  64  87 130 168 203 250 306 375
#     4  12  24  41  63  93 128 161 207 262 307 359
#     4   9  19  36  66  91 122 157 204 262 306 354
#     4   9  17  39  62  89 122 162 206 253 301 364
#
# _framework density 17.909896
#
# number of rings (size 3 to 8) (size 9 to 14) (size 15 to 20)
#    0.000    1.500    5.000    2.250    3.500    0.000 
#    2.250    3.750    0.000    0.000    0.000    0.000 
#    0.000    0.000    0.000    0.000    0.000    0.000 
#
# Total GULP energy -89254.236116 kJ/mol
# GULP energy per Si atom -5578.389757 kJ/mol
# Density = 1.786913 g / cm^3
# Si number density = 17.909896 Si / 1000 Ang^3
#
#
#
# Elastic Constant Matrix: (Units=GPa)
#
#
# Indices 1 2 3 4 5 6 
#
# 1 122.1910 52.8868 53.9860 -0.0926 4.3476 -12.2530
# 2 52.8868 126.7447 43.0417 7.1125 5.7160 -13.3524
# 3 53.9860 43.0417 90.2422 2.9914 -0.1795 -5.9965
# 4 -0.0926 7.1125 2.9914 27.2226 -0.1240 0.3465
# 5 4.3476 5.7160 -0.1795 -0.1240 29.6911 0.4176
# 6 -12.2530 -13.3524 -5.9965 0.3465 0.4176 32.9674
#
#
#
# Elastic Compliance Matrix: (Units=1/GPa)
#
#
# Indices 1 2 3 4 5 6 
#
# 1 0.012326 -0.002923 -0.005874 0.001416 -0.001304 0.002330
# 2 -0.002923 0.010656 -0.003074 -0.002499 -0.001691 0.002718
# 3 -0.005874 -0.003074 0.016062 -0.000968 0.001552 -0.000516
# 4 0.001416 -0.002499 -0.000968 0.037514 0.000440 -0.001062
# 5 -0.001304 -0.001691 0.001552 0.000440 0.034226 -0.001325
# 6 0.002330 0.002718 -0.000516 -0.001062 -0.001325 0.032234
#
#
# Mechanical properties :
#
#
# Convention : Reuss Voigt Hill
#
# Bulk Modulus (GPa) = 65.35058 71.00076 68.17567
# Shear Modulus (GPa) = 29.09327 30.59378 29.84352
#
# Velocity S-wave (km/s) = 4.03479 4.13753 4.08648
# Velocity P-wave (km/s) = 7.63372 7.90916 7.77267
#
# Compressibility (1/GPa) = 0.01530208
#
# Stress axis : x y z
#
# Youngs Moduli (GPa) = 81.13200 93.84071 62.25819
#
# Poissons Ratio (x) = 0.27434 0.36570
# Poissons Ratio (y) = 0.23719 0.19136
# Poissons Ratio (z) = 0.47656 0.28843
#
# Static dielectric constant tensor:
#      x y z
#    x 1.579910 -0.002360 0.007240 
#    y -0.002360 1.626730 0.027790 
#    z 0.007240 0.027790 1.605610 
# 
# From -- ./inp_files/257007.got.cif
#   From: 2010.05.17/outbox.cif.g08.bks.cpg/sg2_129_cif.got.tgz:257007.got - 2010.06.03 11:33:40.
