data_PCOD9069864
_publ_section_title
;
Structure prediction by ZEFSAII (Michael W. Deem and Ramdas Pophale) SiO2 
 PCOD9069864
Probable space group: P -1
;
_chemical_formula_sum "Si O2"
_cell_formula_units_Z 12
_cell_length_a 15.267977
_cell_length_b 9.785148
_cell_length_c 18.677449
_cell_angle_alpha 38.619341
_cell_angle_beta 159.113401
_cell_angle_gamma 129.095144
_cell_volume 555.582301
_symmetry_space_group_name_H-M "P -1"
_symmetry_group_IT_number 2
_symmetry_cell_setting 'triclinic'
loop_
_space_group_symop_operation_xyz
x,y,z
-x,-y,-z
loop_
_atom_site_type_symbol
_atom_site_label
_atom_site_fract_x
_atom_site_fract_y
_atom_site_fract_z
Si Si1 0.445074 0.946509 0.060664
Si Si2 0.100122 0.566692 0.331506
Si Si3 0.181119 0.562713 0.228809
Si Si4 0.553933 0.736045 0.938536
Si Si5 0.259801 0.945239 0.368307
Si Si6 0.123568 0.081968 0.360388
O O1 0.708886 0.713093 0.387676
O O2 0.390907 0.169991 0.981713
O O3 0.182595 0.890605 0.882813
O O4 0.500000 0.000000 0.000000
O O5 0.068166 0.599345 0.208665
O O6 0.253392 0.721646 0.413306
O O7 0.814037 0.669458 0.112867
O O8 0.500000 0.500000 0.500000
O O9 0.137008 0.338037 0.255845
O O10 0.021109 0.811844 0.961294
O O11 0.290653 0.953061 0.611692
O O12 0.500000 0.500000 0.000000
O O13 0.500000 0.000000 0.500000
O O14 0.275510 0.909774 0.479641
#
# Coordination Sequence:
#
# PCOD9069864 Si02
#       6
#     2   2   2   2   2   2
#     4  12  28  48  73 105 139 183 236 292 354 416
#     4  12  25  47  72 104 146 181 233 292 343 416
#     4  12  24  44  71 104 145 186 232 282 344 412
#     4  12  28  48  73 105 139 183 236 292 354 416
#     4  12  24  42  69 106 139 186 234 278 344 416
#     4  12  25  47  72 104 146 181 233 292 343 416
#
# _framework density 21.598960999999999
#
# number of rings (size 3 to 8) (size 9 to 14) (size 15 to 20)
#    0.000    0.000    3.333    7.000    4.667    2.667 
#    0.000    0.000    0.000    0.000    0.000    0.000 
#    0.000    0.000    0.000    0.000    0.000    0.000 
#
# Total GULP energy -67258.044429 kJ/mol
# GULP energy per Si atom -5604.837036 kJ/mol
# Density = 2.154980 g / cm^3
# Si number density = 21.598961 Si / 1000 Ang^3
#
#
#
# Elastic Constant Matrix: (Units=GPa)
#
#
# Indices 1 2 3 4 5 6 
#
# 1 83.0878 1.1343 29.3759 11.8460 -8.6263 -6.2984
# 2 1.1343 111.4563 26.7402 2.5202 2.0595 -0.9499
# 3 29.3759 26.7402 70.4261 8.8577 7.9293 -4.6115
# 4 11.8460 2.5202 8.8577 31.2496 0.0322 -4.3190
# 5 -8.6263 2.0595 7.9293 0.0322 25.0649 -2.3178
# 6 -6.2984 -0.9499 -4.6115 -4.3190 -2.3178 31.0301
#
#
#
# Elastic Compliance Matrix: (Units=1/GPa)
#
#
# Indices 1 2 3 4 5 6 
#
# 1 0.016300 0.001639 -0.007706 -0.003819 0.008129 0.002289
# 2 0.001639 0.010043 -0.004615 -0.000120 0.001201 0.000027
# 3 -0.007706 -0.004615 0.020479 -0.002455 -0.008716 0.000345
# 4 -0.003819 -0.000120 -0.002455 0.034660 -0.000234 0.003663
# 5 0.008129 0.001201 -0.008716 -0.000234 0.045702 0.003773
# 6 0.002289 0.000027 0.000345 0.003663 0.003773 0.033535
#
#
# Mechanical properties :
#
#
# Convention : Reuss Voigt Hill
#
# Bulk Modulus (GPa) = 39.28314 42.16344 40.72329
# Shear Modulus (GPa) = 26.23712 31.31691 28.77702
#
# Velocity S-wave (km/s) = 3.48909 3.81192 3.65407
# Velocity P-wave (km/s) = 5.87015 6.24001 6.05791
#
# Compressibility (1/GPa) = 0.02545621
#
# Stress axis : x y z
#
# Youngs Moduli (GPa) = 61.35142 99.56715 48.83133
#
# Poissons Ratio (x) = -0.16315 0.37630
# Poissons Ratio (y) = -0.10053 0.22537
# Poissons Ratio (z) = 0.47278 0.45953
#
# Static dielectric constant tensor:
#      x y z
#    x 1.730420 -0.060200 0.012360 
#    y -0.060200 1.776090 0.097690 
#    z 0.012360 0.097690 1.796670 
# 
# From -- ./inp_files/4030.got.cif
#   From: 2010.05.17/outbox.cif.g08.bks.cpg/sg2_3_cif.got.tgz:4030.got - 2010.06.03 11:33:40.
