data_PCOD9069697
_publ_section_title
;
Structure prediction by ZEFSAII (Michael W. Deem and Ramdas Pophale) SiO2 
 PCOD9069697
Probable space group: P -1
;
_chemical_formula_sum "Si O2"
_cell_formula_units_Z 16
_cell_length_a 11.900295
_cell_length_b 9.718130
_cell_length_c 14.293985
_cell_angle_alpha 71.894241
_cell_angle_beta 126.589987
_cell_angle_gamma 64.930959
_cell_volume 760.402703
_symmetry_space_group_name_H-M "P -1"
_symmetry_group_IT_number 2
_symmetry_cell_setting 'triclinic'
loop_
_space_group_symop_operation_xyz
x,y,z
-x,-y,-z
loop_
_atom_site_type_symbol
_atom_site_label
_atom_site_fract_x
_atom_site_fract_y
_atom_site_fract_z
Si Si1 0.918877 0.855145 0.786489
Si Si2 0.659823 0.286267 0.048436
Si Si3 0.951364 0.505804 0.204135
Si Si4 0.518142 0.341378 0.765963
Si Si5 0.485765 0.408035 0.424064
Si Si6 0.452586 0.918868 0.911089
Si Si7 0.950511 0.802606 0.036470
Si Si8 0.790313 0.676854 0.432457
O O1 0.120160 0.798703 0.859338
O O2 0.936013 0.691596 0.773862
O O3 0.667028 0.131257 0.585358
O O4 0.941276 0.808214 0.918332
O O5 0.721862 0.069867 0.156329
O O6 0.500000 0.500000 0.000000
O O7 0.507256 0.376227 0.862532
O O8 0.880479 0.715573 0.075822
O O9 0.109905 0.391472 0.399122
O O10 0.705410 0.641191 0.082603
O O11 0.451172 0.546025 0.642268
O O12 0.356930 0.347545 0.646089
O O13 0.781689 0.071926 0.928888
O O14 0.500000 0.500000 0.500000
O O15 0.218249 0.591523 0.241423
O O16 0.367749 0.064839 0.742957
O O17 0.500000 0.000000 0.000000
O O18 0.000000 0.500000 0.500000
#
# Coordination Sequence:
#
# PCOD9069697 Si02
#       8
#     2   2   2   2   2   2   2   2
#     4  12  28  47  72 111 147 189 240 305 371 434
#     4  12  25  46  75 104 149 189 234 300 367 429
#     4  12  26  46  72 108 147 186 243 301 367 428
#     4  12  24  46  74 105 143 190 244 297 359 432
#     4  12  25  44  72 105 143 188 246 294 362 431
#     4  12  23  47  73 103 146 197 241 289 359 437
#     4  12  25  49  75 103 144 195 244 302 361 436
#     4  12  26  43  73 109 143 192 248 294 351 435
#
# _framework density 21.041481999999998
#
# number of rings (size 3 to 8) (size 9 to 14) (size 15 to 20)
#    0.000    0.000    7.500    2.250    1.750    2.500 
#    0.000    1.250    0.000    0.000    0.000    0.000 
#    0.000    0.000    0.000    0.000    0.000    0.000 
#
# Total GULP energy -89432.170589 kJ/mol
# GULP energy per Si atom -5589.510662 kJ/mol
# Density = 2.099359 g / cm^3
# Si number density = 21.041482 Si / 1000 Ang^3
#
#
#
# Elastic Constant Matrix: (Units=GPa)
#
#
# Indices 1 2 3 4 5 6 
#
# 1 85.6603 7.3464 32.5671 20.9257 -13.8039 -5.3563
# 2 7.3464 108.9484 42.7903 8.6967 -16.3679 -31.5309
# 3 32.5671 42.7903 141.1382 7.8077 -8.1725 -14.9421
# 4 20.9257 8.6967 7.8077 25.0291 2.0139 -0.3217
# 5 -13.8039 -16.3679 -8.1725 2.0139 29.7341 0.8266
# 6 -5.3563 -31.5309 -14.9421 -0.3217 0.8266 39.2496
#
#
#
# Elastic Compliance Matrix: (Units=1/GPa)
#
#
# Indices 1 2 3 4 5 6 
#
# 1 0.018973 0.004518 -0.003674 -0.017140 0.011323 0.004441
# 2 0.004518 0.015899 -0.003540 -0.008863 0.010150 0.011755
# 3 -0.003674 -0.003540 0.008844 0.001651 -0.001337 0.000063
# 4 -0.017140 -0.008863 0.001651 0.058040 -0.016091 -0.008016
# 5 0.011323 0.010150 -0.001337 -0.016091 0.044972 0.008111
# 6 0.004441 0.011755 0.000063 -0.008016 0.008111 0.035315
#
#
# Mechanical properties :
#
#
# Convention : Reuss Voigt Hill
#
# Bulk Modulus (GPa) = 26.09321 55.68382 40.88852
# Shear Modulus (GPa) = 24.97398 35.67210 30.32304
#
# Velocity S-wave (km/s) = 3.44887 4.12190 3.80031
# Velocity P-wave (km/s) = 5.31859 7.01246 6.22342
#
# Compressibility (1/GPa) = 0.03832414
#
# Stress axis : x y z
#
# Youngs Moduli (GPa) = 52.70730 62.89813 113.06815
#
# Poissons Ratio (x) = -0.28419 0.41538
# Poissons Ratio (y) = -0.23814 0.40029
# Poissons Ratio (z) = 0.19363 0.22268
#
# Static dielectric constant tensor:
#      x y z
#    x 4.819000 -2.004930 1.277400 
#    y -2.004930 3.165020 -0.880590 
#    z 1.277400 -0.880590 2.271260 
# 
# From -- ./inp_files/476372.got.cif
#   From: 2010.05.17/outbox.cif.g08.bks.cpg/sg2_239_cif.got.tgz:476372.got - 2010.06.03 11:33:40.
