data_PCOD9069670
_publ_section_title
;
Structure prediction by ZEFSAII (Michael W. Deem and Ramdas Pophale) SiO2 
 PCOD9069670
Probable space group: P -1
;
_chemical_formula_sum "Si O2"
_cell_formula_units_Z 12
_cell_length_a 15.557207
_cell_length_b 10.617838
_cell_length_c 12.311561
_cell_angle_alpha 42.348047
_cell_angle_beta 152.662370
_cell_angle_gamma 146.632827
_cell_volume 513.631230
_symmetry_space_group_name_H-M "P -1"
_symmetry_group_IT_number 2
_symmetry_cell_setting 'triclinic'
loop_
_space_group_symop_operation_xyz
x,y,z
-x,-y,-z
loop_
_atom_site_type_symbol
_atom_site_label
_atom_site_fract_x
_atom_site_fract_y
_atom_site_fract_z
Si Si1 0.576721 0.326048 0.390182
Si Si2 0.187555 0.142160 0.717118
Si Si3 0.393894 0.271179 0.455360
Si Si4 0.424390 0.909283 0.854347
Si Si5 0.911658 0.936709 0.094760
Si Si6 0.000571 0.589069 0.323156
O O1 0.500000 0.500000 0.500000
O O2 0.533396 0.286322 0.495579
O O3 0.657619 0.588006 0.304572
O O4 0.338957 0.147840 0.173633
O O5 0.098116 0.121506 0.751556
O O6 0.220850 0.670442 0.445059
O O7 0.358578 0.067349 0.969467
O O8 0.000000 0.000000 0.500000
O O9 0.369987 0.067110 0.628333
O O10 0.140392 0.193558 0.183040
O O11 0.222021 0.645934 0.817983
O O12 0.500000 0.000000 0.000000
O O13 0.971494 0.790305 0.183406
O O14 0.000000 0.500000 0.500000
#
# Coordination Sequence:
#
# PCOD9069670 Si02
#       6
#     2   2   2   2   2   2
#     4  12  25  46  75 108 148 190 241 311 367 427
#     4  12  24  46  76 107 143 195 250 300 363 438
#     4  12  28  49  70 108 154 190 243 308 373 432
#     4  12  25  47  76 106 143 196 245 299 365 446
#     4  12  25  47  75 106 147 193 248 301 360 442
#     4  12  23  46  77 107 141 189 254 297 358 435
#
# _framework density 23.363064999999999
#
# number of rings (size 3 to 8) (size 9 to 14) (size 15 to 20)
#    0.000    0.000    5.000    6.000    0.000    0.667 
#    3.000    4.167    0.000    0.000    0.000    0.000 
#    0.000    0.000    0.000    0.000    0.000    0.000 
#
# Total GULP energy -67112.753713 kJ/mol
# GULP energy per Si atom -5592.729476 kJ/mol
# Density = 2.330989 g / cm^3
# Si number density = 23.363065 Si / 1000 Ang^3
#
#
#
# Elastic Constant Matrix: (Units=GPa)
#
#
# Indices 1 2 3 4 5 6 
#
# 1 189.3783 54.6886 81.3811 20.9222 -1.4580 -8.3451
# 2 54.6886 149.2922 67.9709 39.1195 9.7211 -14.3383
# 3 81.3811 67.9709 127.5194 31.2344 20.1740 -11.9244
# 4 20.9222 39.1195 31.2344 50.5853 0.3603 -6.5417
# 5 -1.4580 9.7211 20.1740 0.3603 49.7215 0.5702
# 6 -8.3451 -14.3383 -11.9244 -6.5417 0.5702 32.4483
#
#
#
# Elastic Compliance Matrix: (Units=1/GPa)
#
#
# Indices 1 2 3 4 5 6 
#
# 1 0.007589 -0.000851 -0.004907 0.000510 0.002378 -0.000166
# 2 -0.000851 0.010091 -0.003281 -0.005162 -0.000652 0.002005
# 3 -0.004907 -0.003281 0.014831 -0.004297 -0.005511 0.001969
# 4 0.000510 -0.005162 -0.004297 0.026385 0.002559 0.001545
# 5 0.002378 -0.000652 -0.005511 0.002559 0.022545 -0.001582
# 6 -0.000166 0.002005 0.001969 0.001545 -0.001582 0.032725
#
#
# Mechanical properties :
#
#
# Convention : Reuss Voigt Hill
#
# Bulk Modulus (GPa) = 69.27641 97.14124 83.20883
# Shear Modulus (GPa) = 36.48216 44.02764 40.25490
#
# Velocity S-wave (km/s) = 3.95591 4.34579 4.15542
# Velocity P-wave (km/s) = 7.11211 8.17621 7.66265
#
# Compressibility (1/GPa) = 0.01443493
#
# Stress axis : x y z
#
# Youngs Moduli (GPa) = 131.76609 99.09379 67.42851
#
# Poissons Ratio (x) = 0.08429 0.33084
# Poissons Ratio (y) = 0.11208 0.22123
# Poissons Ratio (z) = 0.64652 0.32512
#
# Static dielectric constant tensor:
#      x y z
#    x 1.908170 0.069060 -0.042040 
#    y 0.069060 1.774880 -0.005290 
#    z -0.042040 -0.005290 1.884740 
# 
# From -- ./inp_files/447003.got.cif
#   From: 2010.05.17/outbox.cif.g08.bks.cpg/sg2_224_cif.got.tgz:447003.got - 2010.06.03 11:33:40.
