data_PCOD9069062
_publ_section_title
;
Structure prediction by ZEFSAII (Michael W. Deem and Ramdas Pophale) SiO2 
 PCOD9069062
Probable space group: P -1
;
_chemical_formula_sum "Si O2"
_cell_formula_units_Z 14
_cell_length_a 11.610482
_cell_length_b 7.993767
_cell_length_c 11.742825
_cell_angle_alpha 83.087722
_cell_angle_beta 51.723738
_cell_angle_gamma 52.686224
_cell_volume 621.054943
_symmetry_space_group_name_H-M "P -1"
_symmetry_group_IT_number 2
_symmetry_cell_setting 'triclinic'
loop_
_space_group_symop_operation_xyz
x,y,z
-x,-y,-z
loop_
_atom_site_type_symbol
_atom_site_label
_atom_site_fract_x
_atom_site_fract_y
_atom_site_fract_z
Si Si1 0.186662 0.977043 0.871320
Si Si2 0.945846 0.384410 0.119722
Si Si3 0.599309 0.868966 0.831634
Si Si4 0.504636 0.725265 0.275442
Si Si5 0.605668 0.527870 0.723241
Si Si6 0.066295 0.547827 0.611360
Si Si7 0.694835 0.950039 0.432080
O O1 0.175377 0.090188 0.751911
O O2 0.409963 0.732603 0.753252
O O3 0.143239 0.118702 0.999166
O O4 0.000000 0.000000 0.000000
O O5 0.731486 0.498361 0.189022
O O6 0.916046 0.431212 0.266867
O O7 0.000000 0.500000 0.000000
O O8 0.589140 0.676445 0.824073
O O9 0.836096 0.721723 0.705292
O O10 0.505355 0.075872 0.782290
O O11 0.500000 0.000000 0.000000
O O12 0.416903 0.657176 0.245407
O O13 0.378549 0.839427 0.460717
O O14 0.806324 0.420277 0.542253
O O15 0.173577 0.282421 0.555846
O O16 0.500000 0.000000 0.500000
#
# Coordination Sequence:
#
# PCOD9069062 Si02
#       7
#     2   2   2   2   2   2   2
#     4  12  24  39  67 110 150 172 232 304 358 406
#     4  12  22  41  71 104 136 184 233 295 357 409
#     4  12  28  51  72 101 143 189 237 296 360 430
#     4  12  26  45  73 103 142 187 241 293 351 427
#     4  12  26  47  72 104 143 185 242 292 355 429
#     4  12  25  45  74 100 141 192 239 286 356 429
#     4  12  22  44  72 103 145 190 236 291 356 430
#
# _framework density 22.542289
#
# number of rings (size 3 to 8) (size 9 to 14) (size 15 to 20)
#    0.000    0.000    7.143    3.000    2.000    2.286 
#    0.000    0.000    0.000    0.000    0.000    0.000 
#    0.000    0.000    0.000    0.000    0.000    0.000 
#
# Total GULP energy -78155.054763 kJ/mol
# GULP energy per Si atom -5582.503912 kJ/mol
# Density = 2.249098 g / cm^3
# Si number density = 22.542289 Si / 1000 Ang^3
#
#
#
# Elastic Constant Matrix: (Units=GPa)
#
#
# Indices 1 2 3 4 5 6 
#
# 1 122.1970 17.9171 54.3196 7.8543 -4.5528 19.0109
# 2 17.9171 42.9879 12.3462 22.9357 -6.2524 0.2118
# 3 54.3196 12.3462 127.1936 10.1731 6.8006 12.6187
# 4 7.8543 22.9357 10.1731 32.9999 -4.4031 -0.3900
# 5 -4.5528 -6.2524 6.8006 -4.4031 48.6696 11.3098
# 6 19.0109 0.2118 12.6187 -0.3900 11.3098 42.5229
#
#
#
# Elastic Compliance Matrix: (Units=1/GPa)
#
#
# Indices 1 2 3 4 5 6 
#
# 1 0.011333 -0.004036 -0.004272 0.001681 0.002308 -0.004377
# 2 -0.004036 0.039108 -0.000204 -0.025862 0.002134 0.000866
# 3 -0.004272 -0.000204 0.010041 -0.002196 -0.001891 -0.000586
# 4 0.001681 -0.025862 -0.002196 0.048761 0.001537 0.000067
# 5 0.002308 0.002134 -0.001891 0.001537 0.022968 -0.006576
# 6 -0.004377 0.000866 -0.000586 0.000067 -0.006576 0.027393
#
#
# Mechanical properties :
#
#
# Convention : Reuss Voigt Hill
#
# Bulk Modulus (GPa) = 23.01053 51.28271 37.14662
# Shear Modulus (GPa) = 26.16234 38.69152 32.42693
#
# Velocity S-wave (km/s) = 3.41044 4.14744 3.79686
# Velocity P-wave (km/s) = 5.07326 6.76269 5.97796
#
# Compressibility (1/GPa) = 0.04345836
#
# Stress axis : x y z
#
# Youngs Moduli (GPa) = 88.23629 25.57024 99.59140
#
# Poissons Ratio (x) = 0.10321 0.42543
# Poissons Ratio (y) = 0.35616 0.02029
# Poissons Ratio (z) = 0.37692 0.00521
#
# Static dielectric constant tensor:
#      x y z
#    x 1.900210 0.029240 0.042600 
#    y 0.029240 1.808900 0.023050 
#    z 0.042600 0.023050 1.866540 
# 
# From -- ./inp_files/227527.got.cif
#   From: 2010.05.17/outbox.cif.g08.bks.cpg/sg2_114_cif.got.tgz:227527.got - 2010.06.03 11:33:40.
