data_PCOD9069542
_publ_section_title
;
Structure prediction by ZEFSAII (Michael W. Deem and Ramdas Pophale) SiO2 
 PCOD9069542
Probable space group: P -1
;
_chemical_formula_sum "Si O2"
_cell_formula_units_Z 14
_cell_length_a 28.213705
_cell_length_b 5.032003
_cell_length_c 9.765950
_cell_angle_alpha 104.597784
_cell_angle_beta 152.933889
_cell_angle_gamma 64.121121
_cell_volume 535.063778
_symmetry_space_group_name_H-M "P -1"
_symmetry_group_IT_number 2
_symmetry_cell_setting 'triclinic'
loop_
_space_group_symop_operation_xyz
x,y,z
-x,-y,-z
loop_
_atom_site_type_symbol
_atom_site_label
_atom_site_fract_x
_atom_site_fract_y
_atom_site_fract_z
Si Si1 0.405901 0.471699 0.853755
Si Si2 0.350153 0.146673 0.889319
Si Si3 0.827260 0.856156 0.244958
Si Si4 0.390928 0.465920 0.276056
Si Si5 0.289862 0.452953 0.291321
Si Si6 0.036456 0.907315 0.736084
Si Si7 0.102631 0.508021 0.351266
O O1 0.434551 0.227476 0.019405
O O2 0.340560 0.356027 0.560073
O O3 0.348242 0.824782 0.813152
O O4 0.500000 0.500000 0.000000
O O5 0.218478 0.437719 0.552602
O O6 0.388570 0.186753 0.147140
O O7 0.831962 0.759269 0.401154
O O8 0.969041 0.707905 0.566766
O O9 0.772448 0.713413 0.975606
O O10 0.736758 0.226249 0.044085
O O11 0.500000 0.500000 0.500000
O O12 0.384304 0.443653 0.420940
O O13 0.175715 0.785144 0.076734
O O14 0.000000 0.000000 0.500000
O O15 0.966542 0.175928 0.700807
O O16 0.000000 0.500000 0.000000
#
# Coordination Sequence:
#
# PCOD9069542 Si02
#       7
#     2   2   2   2   2   2   2
#     4  12  30  50  77 110 156 205 259 320 389 459
#     4  12  26  53  73 113 155 198 261 322 385 463
#     4  12  24  45  74 106 149 193 261 307 389 450
#     4  12  27  47  79 108 150 201 260 319 379 457
#     4  12  27  46  75 110 147 201 251 317 384 460
#     4  12  23  45  69 108 147 188 250 314 385 455
#     4  12  27  44  73 108 151 199 248 317 388 463
#
# _framework density 26.165102999999998
#
# number of rings (size 3 to 8) (size 9 to 14) (size 15 to 20)
#    0.000    0.000    5.714    3.429    6.000    1.143 
#    0.000    0.000    0.000    0.000    0.000    0.000 
#    0.000    0.000    0.000    0.000    0.000    0.000 
#
# Total GULP energy -78197.013265 kJ/mol
# GULP energy per Si atom -5585.500948 kJ/mol
# Density = 2.610555 g / cm^3
# Si number density = 26.165103 Si / 1000 Ang^3
#
#
#
# Elastic Constant Matrix: (Units=GPa)
#
#
# Indices 1 2 3 4 5 6 
#
# 1 125.9784 30.5127 25.4263 10.5904 8.1311 -17.7407
# 2 30.5127 142.7586 23.3808 9.7888 -8.9203 -35.3144
# 3 25.4263 23.3808 86.3392 26.0840 -6.1697 -24.8721
# 4 10.5904 9.7888 26.0840 38.2480 -12.1788 3.2724
# 5 8.1311 -8.9203 -6.1697 -12.1788 58.9806 -5.3878
# 6 -17.7407 -35.3144 -24.8721 3.2724 -5.3878 49.0470
#
#
#
# Elastic Compliance Matrix: (Units=1/GPa)
#
#
# Indices 1 2 3 4 5 6 
#
# 1 0.009037 -0.001303 -0.001417 -0.001922 -0.001848 0.001537
# 2 -0.001303 0.009137 0.000779 -0.002540 0.001745 0.006864
# 3 -0.001417 0.000779 0.018956 -0.013489 0.000480 0.010614
# 4 -0.001922 -0.002540 -0.013489 0.039264 0.005538 -0.011376
# 5 -0.001848 0.001745 0.000480 0.005538 0.018899 0.002538
# 6 0.001537 0.006864 0.010614 -0.011376 0.002538 0.032307
#
#
# Mechanical properties :
#
#
# Convention : Reuss Voigt Hill
#
# Bulk Modulus (GPa) = 30.07738 57.07954 43.57846
# Shear Modulus (GPa) = 35.07230 47.63889 41.35560
#
# Velocity S-wave (km/s) = 3.66515 4.27160 3.97994
# Velocity P-wave (km/s) = 5.42506 6.79641 6.14909
#
# Compressibility (1/GPa) = 0.03324758
#
# Stress axis : x y z
#
# Youngs Moduli (GPa) = 110.65966 109.44734 52.75466
#
# Poissons Ratio (x) = 0.14258 0.07474
# Poissons Ratio (y) = 0.14416 -0.04108
# Poissons Ratio (z) = 0.15678 -0.08523
#
# Static dielectric constant tensor:
#      x y z
#    x 2.437550 0.008400 0.337190 
#    y 0.008400 2.165580 0.038410 
#    z 0.337190 0.038410 2.253340 
# 
# From -- ./inp_files/44960.got.cif
#   From: 2010.05.17/outbox.cif.g08.bks.cpg/sg2_23_cif.got.tgz:44960.got - 2010.06.03 11:33:40.
