data_PCOD9069063
_publ_section_title
;
Structure prediction by ZEFSAII (Michael W. Deem and Ramdas Pophale) SiO2 
 PCOD9069063
Probable space group: P -1
;
_chemical_formula_sum "Si O2"
_cell_formula_units_Z 14
_cell_length_a 15.221079
_cell_length_b 29.703672
_cell_length_c 24.641518
_cell_angle_alpha 10.343599
_cell_angle_beta 21.772167
_cell_angle_gamma 19.786899
_cell_volume 676.345886
_symmetry_space_group_name_H-M "P -1"
_symmetry_group_IT_number 2
_symmetry_cell_setting 'triclinic'
loop_
_space_group_symop_operation_xyz
x,y,z
-x,-y,-z
loop_
_atom_site_type_symbol
_atom_site_label
_atom_site_fract_x
_atom_site_fract_y
_atom_site_fract_z
Si Si1 0.059800 0.570145 0.822236
Si Si2 0.928847 0.645947 0.215449
Si Si3 0.001199 0.179641 0.145121
Si Si4 0.219701 0.721972 0.730257
Si Si5 0.550353 0.181604 0.854815
Si Si6 0.658878 0.220782 0.866184
Si Si7 0.793537 0.640155 0.499705
O O1 0.353047 0.370107 0.876452
O O2 0.036599 0.876004 0.469511
O O3 0.000000 0.500000 0.000000
O O4 0.857769 0.517760 0.961724
O O5 0.777791 0.445198 0.538034
O O6 0.123723 0.539050 0.280736
O O7 0.052863 0.643829 0.088097
O O8 0.729020 0.960184 0.971224
O O9 0.801368 0.268662 0.203812
O O10 0.271803 0.168356 0.027405
O O11 0.506065 0.681656 0.596941
O O12 0.000000 0.000000 0.500000
O O13 0.500000 0.500000 0.500000
O O14 0.683382 0.109501 0.922590
O O15 0.779225 0.943633 0.160631
O O16 0.000000 0.500000 0.500000
#
# Coordination Sequence:
#
# PCOD9069063 Si02
#       7
#     2   2   2   2   2   2   2
#     4  12  24  40  73 104 135 184 238 292 349 410
#     4  12  27  43  70 107 145 189 232 287 366 420
#     4  12  24  43  70 105 146 179 238 295 346 422
#     4  12  25  48  72 103 139 185 240 293 347 417
#     4  12  22  41  71 107 143 180 236 290 350 412
#     4  12  23  44  72 104 143 185 235 292 348 425
#     4  12  27  49  72 101 146 191 234 294 357 421
#
# _framework density 20.699466999999999
#
# number of rings (size 3 to 8) (size 9 to 14) (size 15 to 20)
#    0.000    0.000    8.571    1.714    2.000    0.571 
#    2.571    0.714    0.000    0.000    0.000    0.000 
#    0.000    0.000    0.000    0.000    0.000    0.000 
#
# Total GULP energy -78303.817047 kJ/mol
# GULP energy per Si atom -5593.129789 kJ/mol
# Density = 2.065235 g / cm^3
# Si number density = 20.699467 Si / 1000 Ang^3
#
#
#
# Elastic Constant Matrix: (Units=GPa)
#
#
# Indices 1 2 3 4 5 6 
#
# 1 78.0035 43.3952 25.6367 -1.7503 0.4827 2.6758
# 2 43.3952 109.6605 49.1159 16.1489 -5.4440 4.1443
# 3 25.6367 49.1159 144.6273 -6.1163 -21.2655 -5.0004
# 4 -1.7503 16.1489 -6.1163 28.1972 2.7431 -0.8473
# 5 0.4827 -5.4440 -21.2655 2.7431 51.7938 3.4724
# 6 2.6758 4.1443 -5.0004 -0.8473 3.4724 34.4784
#
#
#
# Elastic Compliance Matrix: (Units=1/GPa)
#
#
# Indices 1 2 3 4 5 6 
#
# 1 0.017275 -0.007453 -0.000523 0.005359 -0.001426 -0.000245
# 2 -0.007453 0.015739 -0.004461 -0.010572 0.000605 -0.002281
# 3 -0.000523 -0.004461 0.009199 0.004280 0.002971 0.001717
# 4 0.005359 -0.010572 0.004280 0.043044 -0.001866 0.002721
# 5 -0.001426 0.000605 0.002971 -0.001866 0.020815 -0.001673
# 6 -0.000245 -0.002281 0.001717 0.002721 -0.001673 0.029781
#
#
# Mechanical properties :
#
#
# Convention : Reuss Voigt Hill
#
# Bulk Modulus (GPa) = 57.66774 63.17632 60.42203
# Shear Modulus (GPa) = 30.02864 37.17012 33.59938
#
# Velocity S-wave (km/s) = 3.81293 4.24217 4.03327
# Velocity P-wave (km/s) = 6.87784 7.38794 7.13745
#
# Compressibility (1/GPa) = 0.01734072
#
# Stress axis : x y z
#
# Youngs Moduli (GPa) = 57.88573 63.53465 108.70438
#
# Poissons Ratio (x) = 0.47351 0.05684
# Poissons Ratio (y) = 0.43141 0.48494
# Poissons Ratio (z) = 0.03027 0.28343
#
# Static dielectric constant tensor:
#      x y z
#    x 1.797520 0.028080 0.033960 
#    y 0.028080 1.739320 -0.006400 
#    z 0.033960 -0.006400 1.760840 
# 
# From -- ./inp_files/348676.got.cif
#   From: 2010.05.17/outbox.cif.g08.bks.cpg/sg2_175_cif.got.tgz:348676.got - 2010.06.03 11:33:40.
