data_PCOD9069760
_publ_section_title
;
Structure prediction by ZEFSAII (Michael W. Deem and Ramdas Pophale) SiO2 
 PCOD9069760
Probable space group: P -1
;
_chemical_formula_sum "Si O2"
_cell_formula_units_Z 12
_cell_length_a 9.451602
_cell_length_b 14.729487
_cell_length_c 11.415568
_cell_angle_alpha 30.805145
_cell_angle_beta 53.539845
_cell_angle_gamma 39.148683
_cell_volume 500.991045
_symmetry_space_group_name_H-M "P -1"
_symmetry_group_IT_number 2
_symmetry_cell_setting 'triclinic'
loop_
_space_group_symop_operation_xyz
x,y,z
-x,-y,-z
loop_
_atom_site_type_symbol
_atom_site_label
_atom_site_fract_x
_atom_site_fract_y
_atom_site_fract_z
Si Si1 0.632338 0.320561 0.528805
Si Si2 0.815802 0.464000 0.834995
Si Si3 0.950046 0.038661 0.121687
Si Si4 0.313443 0.216066 0.770640
Si Si5 0.645834 0.933803 0.339767
Si Si6 0.781354 0.523645 0.049683
O O1 0.500000 0.500000 0.500000
O O2 0.442012 0.316772 0.569250
O O3 0.729428 0.403402 0.301202
O O4 0.836104 0.085460 0.756967
O O5 0.632816 0.741076 0.603461
O O6 0.064019 0.389274 0.760717
O O7 0.815749 0.416241 0.024046
O O8 0.791195 0.307603 0.938742
O O9 0.833491 0.924480 0.328552
O O10 0.000000 0.000000 0.000000
O O11 0.282051 0.133362 0.756804
O O12 0.500000 0.000000 0.000000
O O13 0.424086 0.200491 0.156045
O O14 0.000000 0.500000 0.000000
#
# Coordination Sequence:
#
# PCOD9069760 Si02
#       6
#     2   2   2   2   2   2
#     4  12  26  46  80 110 151 203 260 308 379 457
#     4  12  27  48  79 112 156 200 254 317 386 443
#     4  12  25  47  76 114 151 198 255 314 379 457
#     4  12  23  48  76 111 147 202 256 310 369 456
#     4  12  27  47  75 109 158 198 254 312 382 459
#     4  12  28  52  76 112 157 199 255 323 383 449
#
# _framework density 23.952527
#
# number of rings (size 3 to 8) (size 9 to 14) (size 15 to 20)
#    0.000    0.000    3.333    7.000    4.667    1.333 
#    3.000    0.000    0.000    0.000    0.000    0.000 
#    0.000    0.000    0.000    0.000    0.000    0.000 
#
# Total GULP energy -67217.946987 kJ/mol
# GULP energy per Si atom -5601.495582 kJ/mol
# Density = 2.389801 g / cm^3
# Si number density = 23.952527 Si / 1000 Ang^3
#
#
#
# Elastic Constant Matrix: (Units=GPa)
#
#
# Indices 1 2 3 4 5 6 
#
# 1 111.3749 33.4023 46.0860 10.4552 -26.6263 19.7185
# 2 33.4023 104.4944 53.5110 21.1972 -1.7276 17.8378
# 3 46.0860 53.5110 120.0390 8.4341 -8.3262 29.3227
# 4 10.4552 21.1972 8.4341 46.7343 5.0019 6.2005
# 5 -26.6263 -1.7276 -8.3262 5.0019 48.8917 -0.9149
# 6 19.7185 17.8378 29.3227 6.2005 -0.9149 37.3632
#
#
#
# Elastic Compliance Matrix: (Units=1/GPa)
#
#
# Indices 1 2 3 4 5 6 
#
# 1 0.013022 -0.001624 -0.002852 -0.001929 0.006683 -0.003375
# 2 -0.001624 0.013770 -0.004981 -0.004763 -0.000778 -0.001036
# 3 -0.002852 -0.004981 0.013204 0.001376 0.000253 -0.006701
# 4 -0.001929 -0.004763 0.001376 0.024372 -0.003514 -0.001919
# 5 0.006683 -0.000778 0.000253 -0.003514 0.024427 -0.002173
# 6 -0.003375 -0.001036 -0.006701 -0.001919 -0.002173 0.034565
#
#
# Mechanical properties :
#
#
# Convention : Reuss Voigt Hill
#
# Bulk Modulus (GPa) = 47.43424 66.87853 57.15639
# Shear Modulus (GPa) = 33.48925 40.12511 36.80718
#
# Velocity S-wave (km/s) = 3.74324 4.09735 3.92429
# Velocity P-wave (km/s) = 6.20717 7.09692 6.66690
#
# Compressibility (1/GPa) = 0.02108182
#
# Stress axis : x y z
#
# Youngs Moduli (GPa) = 76.79131 72.62180 75.73525
#
# Poissons Ratio (x) = 0.11795 0.21600
# Poissons Ratio (y) = 0.12472 0.37724
# Poissons Ratio (z) = 0.21901 0.36173
#
# Static dielectric constant tensor:
#      x y z
#    x 1.981270 -0.077540 -0.009880 
#    y -0.077540 1.944720 -0.009610 
#    z -0.009880 -0.009610 1.998480 
# 
# From -- ./inp_files/398015.got.cif
#   From: 2010.05.17/outbox.cif.g08.bks.cpg/sg2_200_cif.got.tgz:398015.got - 2010.06.03 11:33:40.
