data_PCOD9069469
_publ_section_title
;
Structure prediction by ZEFSAII (Michael W. Deem and Ramdas Pophale) SiO2 
 PCOD9069469
Probable space group: P -1
;
_chemical_formula_sum "Si O2"
_cell_formula_units_Z 16
_cell_length_a 5.320891
_cell_length_b 16.506948
_cell_length_c 9.676767
_cell_angle_alpha 85.797968
_cell_angle_beta 99.819435
_cell_angle_gamma 125.670735
_cell_volume 679.985583
_symmetry_space_group_name_H-M "P -1"
_symmetry_group_IT_number 2
_symmetry_cell_setting 'triclinic'
loop_
_space_group_symop_operation_xyz
x,y,z
-x,-y,-z
loop_
_atom_site_type_symbol
_atom_site_label
_atom_site_fract_x
_atom_site_fract_y
_atom_site_fract_z
Si Si1 0.227022 0.760861 0.057447
Si Si2 0.638259 0.762626 0.345010
Si Si3 0.420220 0.836292 0.783275
Si Si4 0.139531 0.517737 0.660102
Si Si5 0.805489 0.017311 0.593267
Si Si6 0.247981 0.368150 0.784803
Si Si7 0.884736 0.552719 0.891657
Si Si8 0.684141 0.733246 0.664637
O O1 0.438148 0.769286 0.204123
O O2 0.914930 0.727075 0.116928
O O3 0.399997 0.844341 0.946723
O O4 0.063998 0.661256 0.959704
O O5 0.644992 0.668117 0.324905
O O6 0.576616 0.753927 0.505819
O O7 0.972334 0.868851 0.352384
O O8 0.669612 0.939632 0.716395
O O9 0.553879 0.771565 0.763294
O O10 0.061201 0.788632 0.702046
O O11 0.056283 0.410204 0.708846
O O12 0.503208 0.613912 0.679662
O O13 0.000000 0.500000 0.500000
O O14 0.983977 0.551926 0.745667
O O15 0.500000 0.000000 0.500000
O O16 0.000000 0.000000 0.500000
O O17 0.516766 0.468838 0.871229
O O18 0.000000 0.500000 0.000000
#
# Coordination Sequence:
#
# PCOD9069469 Si02
#       8
#     2   2   2   2   2   2   2   2
#     4  12  27  44  74 111 154 198 255 310 379 454
#     4  12  28  47  78 108 151 194 258 318 387 453
#     4  12  27  50  80 111 144 199 253 316 376 453
#     4  12  27  42  69 108 148 198 258 309 363 444
#     4  12  26  53  83 111 146 197 252 319 394 454
#     4  12  26  44  71 104 155 204 244 305 378 446
#     4  12  23  44  65 100 149 202 246 290 375 445
#     4  12  27  48  77 110 150 198 259 308 375 448
#
# _framework density 23.529913000000001
#
# number of rings (size 3 to 8) (size 9 to 14) (size 15 to 20)
#    0.000    0.000    6.250    2.625    8.750    1.500 
#    0.000    0.625    0.000    0.000    0.000    0.000 
#    0.000    0.000    0.000    0.000    0.000    0.000 
#
# Total GULP energy -89307.718697 kJ/mol
# GULP energy per Si atom -5581.732419 kJ/mol
# Density = 2.347636 g / cm^3
# Si number density = 23.529913 Si / 1000 Ang^3
#
#
#
# Elastic Constant Matrix: (Units=GPa)
#
#
# Indices 1 2 3 4 5 6 
#
# 1 76.8111 -0.4630 26.8883 -3.5298 2.2895 18.6254
# 2 -0.4630 103.6622 13.3375 -18.3578 11.4682 26.3173
# 3 26.8883 13.3375 126.1847 -11.5156 2.8100 19.7650
# 4 -3.5298 -18.3578 -11.5156 49.5763 8.6786 -4.2461
# 5 2.2895 11.4682 2.8100 8.6786 28.3922 -2.7314
# 6 18.6254 26.3173 19.7650 -4.2461 -2.7314 35.5069
#
#
#
# Elastic Compliance Matrix: (Units=1/GPa)
#
#
# Indices 1 2 3 4 5 6 
#
# 1 0.016497 0.003808 -0.002005 0.001973 -0.004279 -0.010453
# 2 0.003808 0.015320 0.000527 0.006630 -0.009883 -0.013613
# 3 -0.002005 0.000527 0.009226 0.002180 -0.002051 -0.004371
# 4 0.001973 0.006630 0.002180 0.024786 -0.011115 -0.005054
# 5 -0.004279 -0.009883 -0.002051 -0.011115 0.044390 0.012797
# 6 -0.010453 -0.013613 -0.004371 -0.005054 0.012797 0.046550
#
#
# Mechanical properties :
#
#
# Convention : Reuss Voigt Hill
#
# Bulk Modulus (GPa) = 21.88114 42.90929 32.39521
# Shear Modulus (GPa) = 29.87897 40.48809 35.18353
#
# Velocity S-wave (km/s) = 3.56733 4.15264 3.87106
# Velocity P-wave (km/s) = 5.12711 6.42403 5.81186
#
# Compressibility (1/GPa) = 0.04570146
#
# Stress axis : x y z
#
# Youngs Moduli (GPa) = 60.61821 65.27624 108.39183
#
# Poissons Ratio (x) = -0.24858 0.21734
# Poissons Ratio (y) = -0.23084 -0.05709
# Poissons Ratio (z) = 0.12155 -0.03438
#
# Static dielectric constant tensor:
#      x y z
#    x 1.939620 0.116090 0.016610 
#    y 0.116090 2.101130 0.041890 
#    z 0.016610 0.041890 1.939130 
# 
# From -- ./inp_files/99806.got.cif
#   From: 2010.05.17/outbox.cif.g08.bks.cpg/sg2_50_cif.got.tgz:99806.got - 2010.06.03 11:33:40.
