data_PCOD9069981
_publ_section_title
;
Structure prediction by ZEFSAII (Michael W. Deem and Ramdas Pophale) SiO2 
 PCOD9069981
Probable space group: P -1
;
_chemical_formula_sum "Si O2"
_cell_formula_units_Z 14
_cell_length_a 20.980623
_cell_length_b 21.892870
_cell_length_c 7.662039
_cell_angle_alpha 132.358694
_cell_angle_beta 131.058571
_cell_angle_gamma 12.967116
_cell_volume 583.555095
_symmetry_space_group_name_H-M "P -1"
_symmetry_group_IT_number 2
_symmetry_cell_setting 'triclinic'
loop_
_space_group_symop_operation_xyz
x,y,z
-x,-y,-z
loop_
_atom_site_type_symbol
_atom_site_label
_atom_site_fract_x
_atom_site_fract_y
_atom_site_fract_z
Si Si1 0.293779 0.720545 0.905764
Si Si2 0.429063 0.476979 0.405819
Si Si3 0.923676 0.667217 0.678972
Si Si4 0.129269 0.553383 0.470359
Si Si5 0.602916 0.749988 0.987607
Si Si6 0.298626 0.911643 0.228115
Si Si7 0.141980 0.054777 0.825694
O O1 0.268786 0.660141 0.635207
O O2 0.500000 0.500000 0.000000
O O3 0.340574 0.771957 0.026902
O O4 0.000000 0.000000 0.000000
O O5 0.500000 0.500000 0.500000
O O6 0.195941 0.636174 0.204359
O O7 0.728411 0.157253 0.370509
O O8 0.161166 0.485157 0.888320
O O9 0.000000 0.500000 0.500000
O O10 0.963351 0.659375 0.532669
O O11 0.611242 0.978674 0.799534
O O12 0.414135 0.319143 0.625119
O O13 0.222362 0.412797 0.195580
O O14 0.950536 0.802640 0.573674
O O15 0.361886 0.904270 0.821691
O O16 0.220782 0.005653 0.069695
#
# Coordination Sequence:
#
# PCOD9069981 Si02
#       7
#     2   2   2   2   2   2   2
#     4  12  28  43  60  96 140 181 242 305 362 407
#     4  12  26  42  64  95 128 187 243 298 363 418
#     4  12  26  50  79 114 152 187 235 299 365 444
#     4  12  26  47  75 110 147 195 246 293 365 437
#     4  12  27  47  75 111 147 192 245 292 366 441
#     4  12  25  46  71  96 144 198 242 302 367 432
#     4  12  24  44  70  94 135 184 248 301 356 431
#
# _framework density 23.990877999999999
#
# number of rings (size 3 to 8) (size 9 to 14) (size 15 to 20)
#    0.000    0.000    4.286    5.143    8.000    1.143 
#    0.000    0.000    0.000    0.000    0.000    0.000 
#    0.000    0.000    0.000    0.000    0.000    0.000 
#
# Total GULP energy -77997.025918 kJ/mol
# GULP energy per Si atom -5571.216137 kJ/mol
# Density = 2.393627 g / cm^3
# Si number density = 23.990878 Si / 1000 Ang^3
#
#
#
# Elastic Constant Matrix: (Units=GPa)
#
#
# Indices 1 2 3 4 5 6 
#
# 1 88.2069 5.8789 36.7350 14.6131 -2.4417 7.6198
# 2 5.8789 140.1654 25.4275 8.0742 -11.4107 -5.0382
# 3 36.7350 25.4275 93.7308 21.0707 -13.7029 0.1689
# 4 14.6131 8.0742 21.0707 59.4285 3.1129 3.1017
# 5 -2.4417 -11.4107 -13.7029 3.1129 42.7665 8.0644
# 6 7.6198 -5.0382 0.1689 3.1017 8.0644 26.4970
#
#
#
# Elastic Compliance Matrix: (Units=1/GPa)
#
#
# Indices 1 2 3 4 5 6 
#
# 1 0.014077 0.000314 -0.005269 -0.001439 0.000019 -0.003792
# 2 0.000314 0.007638 -0.001879 -0.000571 0.001298 0.001046
# 3 -0.005269 -0.001879 0.014727 -0.003902 0.004152 0.000257
# 4 -0.001439 -0.000571 -0.003902 0.018836 -0.002655 -0.001067
# 5 0.000019 0.001298 0.004152 -0.002655 0.026686 -0.007596
# 6 -0.003792 0.001046 0.000257 -0.001067 -0.007596 0.041465
#
#
# Mechanical properties :
#
#
# Convention : Reuss Voigt Hill
#
# Bulk Modulus (GPa) = 43.90936 50.90953 47.40944
# Shear Modulus (GPa) = 34.55671 42.67584 38.61627
#
# Velocity S-wave (km/s) = 3.79939 4.22220 4.01636
# Velocity P-wave (km/s) = 6.13102 6.71087 6.42749
#
# Compressibility (1/GPa) = 0.02277419
#
# Stress axis : x y z
#
# Youngs Moduli (GPa) = 71.03814 130.91942 67.90156
#
# Poissons Ratio (x) = -0.04105 0.35778
# Poissons Ratio (y) = -0.02227 0.12756
# Poissons Ratio (z) = 0.37430 0.24595
#
# Static dielectric constant tensor:
#      x y z
#    x 2.167570 -0.029620 0.034890 
#    y -0.029620 1.847110 0.049070 
#    z 0.034890 0.049070 1.883210 
# 
# From -- ./inp_files/342338.got.cif
#   From: 2010.05.17/outbox.cif.g08.bks.cpg/sg2_172_cif.got.tgz:342338.got - 2010.06.03 11:33:40.
