data_PCOD9069569
_publ_section_title
;
Structure prediction by ZEFSAII (Michael W. Deem and Ramdas Pophale) SiO2 
 PCOD9069569
Probable space group: P -1
;
_chemical_formula_sum "Si O2"
_cell_formula_units_Z 14
_cell_length_a 7.713179
_cell_length_b 17.504059
_cell_length_c 8.089402
_cell_angle_alpha 36.690405
_cell_angle_beta 79.473842
_cell_angle_gamma 72.338591
_cell_volume 618.269250
_symmetry_space_group_name_H-M "P -1"
_symmetry_group_IT_number 2
_symmetry_cell_setting 'triclinic'
loop_
_space_group_symop_operation_xyz
x,y,z
-x,-y,-z
loop_
_atom_site_type_symbol
_atom_site_label
_atom_site_fract_x
_atom_site_fract_y
_atom_site_fract_z
Si Si1 0.793297 0.510855 0.470191
Si Si2 0.428930 0.253296 0.710927
Si Si3 0.760714 0.376947 0.362384
Si Si4 0.048874 0.206919 0.390837
Si Si5 0.676058 0.654546 0.775235
Si Si6 0.293654 0.722869 0.913540
Si Si7 0.630990 0.051931 0.261201
O O1 0.318749 0.339707 0.730107
O O2 0.788026 0.452227 0.392201
O O3 0.000000 0.500000 0.500000
O O4 0.707855 0.416574 0.763623
O O5 0.589392 0.319815 0.518768
O O6 0.313711 0.274677 0.524963
O O7 0.516876 0.107986 0.019007
O O8 0.072758 0.744446 0.509818
O O9 0.728383 0.494895 0.027255
O O10 0.182224 0.304020 0.198102
O O11 0.896721 0.225974 0.241070
O O12 0.187422 0.062484 0.612720
O O13 0.472003 0.702770 0.801357
O O14 0.311438 0.827192 0.869943
O O15 0.500000 0.000000 0.500000
#
# Coordination Sequence:
#
# PCOD9069569 Si02
#       7
#     2   2   2   2   2   2   2
#     4  12  25  43  76 111 144 185 241 304 366 427
#     4  12  25  47  73 105 145 190 238 298 368 422
#     4  12  23  45  73 108 145 183 240 302 368 423
#     4  12  27  46  72 104 147 195 240 290 358 435
#     4  12  24  47  76 108 146 183 237 309 367 423
#     4  12  24  49  76 105 145 189 242 306 355 423
#     4  12  28  50  73 101 145 201 245 289 353 432
#
# _framework density 22.643856
#
# number of rings (size 3 to 8) (size 9 to 14) (size 15 to 20)
#    0.000    0.000    5.714    5.143    2.000    1.143 
#    0.000    0.000    0.000    0.000    0.000    0.000 
#    0.000    0.000    0.000    0.000    0.000    0.000 
#
# Total GULP energy -78400.552560 kJ/mol
# GULP energy per Si atom -5600.039469 kJ/mol
# Density = 2.259232 g / cm^3
# Si number density = 22.643856 Si / 1000 Ang^3
#
#
#
# Elastic Constant Matrix: (Units=GPa)
#
#
# Indices 1 2 3 4 5 6 
#
# 1 125.2677 30.1598 16.7127 -4.3936 10.6303 -6.9608
# 2 30.1598 83.0604 1.5070 9.5240 7.8070 -29.7809
# 3 16.7127 1.5070 61.9882 9.5247 9.7520 -7.7575
# 4 -4.3936 9.5240 9.5247 36.8009 1.9140 10.5327
# 5 10.6303 7.8070 9.7520 1.9140 29.3061 -17.8511
# 6 -6.9608 -29.7809 -7.7575 10.5327 -17.8511 47.6034
#
#
#
# Elastic Compliance Matrix: (Units=1/GPa)
#
#
# Indices 1 2 3 4 5 6 
#
# 1 0.010134 -0.005869 -0.003396 0.005519 -0.004870 -0.005791
# 2 -0.005869 0.021834 0.004343 -0.013381 0.007483 0.019276
# 3 -0.003396 0.004343 0.019323 -0.008299 -0.001846 0.006513
# 4 0.005519 -0.013381 -0.008299 0.040457 -0.011926 -0.022341
# 5 -0.004870 0.007483 -0.001846 -0.011926 0.050715 0.025325
# 6 -0.005791 0.019276 0.006513 -0.022341 0.025325 0.047721
#
#
# Mechanical properties :
#
#
# Convention : Reuss Voigt Hill
#
# Bulk Modulus (GPa) = 24.12802 40.78614 32.45708
# Shear Modulus (GPa) = 23.38148 37.53786 30.45967
#
# Velocity S-wave (km/s) = 3.21686 4.07597 3.67162
# Velocity P-wave (km/s) = 4.94734 6.34054 5.68676
#
# Compressibility (1/GPa) = 0.04144559
#
# Stress axis : x y z
#
# Youngs Moduli (GPa) = 98.67578 45.79980 51.75273
#
# Poissons Ratio (x) = 0.26882 0.17576
# Poissons Ratio (y) = 0.57917 -0.22475
# Poissons Ratio (z) = 0.33511 -0.19890
#
# Static dielectric constant tensor:
#      x y z
#    x 1.837850 0.018630 0.025230 
#    y 0.018630 1.873110 0.065830 
#    z 0.025230 0.065830 1.879880 
# 
# From -- ./inp_files/221548.got.cif
#   From: 2010.05.17/outbox.cif.g08.bks.cpg/sg2_111_cif.got.tgz:221548.got - 2010.06.03 11:33:40.
