data_PCOD9069865
_publ_section_title
;
Structure prediction by ZEFSAII (Michael W. Deem and Ramdas Pophale) SiO2 
 PCOD9069865
Probable space group: P -1
;
_chemical_formula_sum "Si O2"
_cell_formula_units_Z 14
_cell_length_a 14.875727
_cell_length_b 11.944828
_cell_length_c 9.453677
_cell_angle_alpha 154.423834
_cell_angle_beta 61.273239
_cell_angle_gamma 125.349736
_cell_volume 587.419651
_symmetry_space_group_name_H-M "P -1"
_symmetry_group_IT_number 2
_symmetry_cell_setting 'triclinic'
loop_
_space_group_symop_operation_xyz
x,y,z
-x,-y,-z
loop_
_atom_site_type_symbol
_atom_site_label
_atom_site_fract_x
_atom_site_fract_y
_atom_site_fract_z
Si Si1 0.659116 0.038822 0.717668
Si Si2 0.998985 0.795462 0.396393
Si Si3 0.209747 0.579036 0.722590
Si Si4 0.488586 0.145450 0.817475
Si Si5 0.214593 0.130755 0.801161
Si Si6 0.546391 0.402588 0.493426
Si Si7 0.750893 0.253051 0.415283
O O1 0.610748 0.240692 0.902138
O O2 0.689318 0.861705 0.373246
O O3 0.554355 0.883752 0.719555
O O4 0.762684 0.190508 0.911761
O O5 0.886701 0.697186 0.462672
O O6 0.000000 0.000000 0.500000
O O7 0.101215 0.959318 0.608657
O O8 0.000000 0.500000 0.000000
O O9 0.327221 0.547940 0.576372
O O10 0.185718 0.690366 0.717760
O O11 0.500000 0.000000 0.500000
O O12 0.380917 0.908234 0.701648
O O13 0.455359 0.410163 0.154803
O O14 0.220926 0.946515 0.722482
O O15 0.226466 0.442377 0.188337
O O16 0.500000 0.500000 0.500000
#
# Coordination Sequence:
#
# PCOD9069865 Si02
#       7
#     2   2   2   2   2   2   2
#     4  12  25  44  74 110 151 203 253 309 375 468
#     4  12  29  53  83 113 147 203 265 317 380 453
#     4  12  27  49  75 114 153 202 256 326 384 451
#     4  12  24  42  69 109 157 201 246 302 383 457
#     4  12  28  50  79 111 155 201 263 311 375 460
#     4  12  25  41  71 110 155 197 250 315 384 450
#     4  12  27  47  74 115 156 199 251 319 388 445
#
# _framework density 23.833048000000002
#
# number of rings (size 3 to 8) (size 9 to 14) (size 15 to 20)
#    0.000    0.000    5.714    3.857    2.000    4.571 
#    0.000    0.000    0.000    0.000    0.000    0.000 
#    0.000    0.000    0.000    0.000    0.000    0.000 
#
# Total GULP energy -78305.522872 kJ/mol
# GULP energy per Si atom -5593.251634 kJ/mol
# Density = 2.377880 g / cm^3
# Si number density = 23.833048 Si / 1000 Ang^3
#
#
#
# Elastic Constant Matrix: (Units=GPa)
#
#
# Indices 1 2 3 4 5 6 
#
# 1 112.8875 53.8832 14.7043 16.1253 16.1473 -9.1753
# 2 53.8832 165.2285 3.6110 6.3913 3.6078 1.1846
# 3 14.7043 3.6110 95.8259 5.4412 5.9665 -1.6180
# 4 16.1253 6.3913 5.4412 41.1304 -1.1727 6.1127
# 5 16.1473 3.6078 5.9665 -1.1727 35.6765 3.2971
# 6 -9.1753 1.1846 -1.6180 6.1127 3.2971 46.6465
#
#
#
# Elastic Compliance Matrix: (Units=1/GPa)
#
#
# Indices 1 2 3 4 5 6 
#
# 1 0.012614 -0.003802 -0.001103 -0.004901 -0.005632 0.003580
# 2 -0.003802 0.007252 0.000195 0.000528 0.001071 -0.001070
# 3 -0.001103 0.000195 0.010754 -0.001119 -0.001393 0.000396
# 4 -0.004901 0.000528 -0.001119 0.027124 0.003690 -0.004831
# 5 -0.005632 0.001071 -0.001393 0.003690 0.031182 -0.003871
# 6 0.003580 -0.001070 0.000396 -0.004831 -0.003871 0.023090
#
#
# Mechanical properties :
#
#
# Convention : Reuss Voigt Hill
#
# Bulk Modulus (GPa) = 47.16931 57.59321 52.38126
# Shear Modulus (GPa) = 38.90992 44.80693 41.85842
#
# Velocity S-wave (km/s) = 4.04493 4.34064 4.19539
# Velocity P-wave (km/s) = 6.45367 7.02419 6.74496
#
# Compressibility (1/GPa) = 0.02120023
#
# Stress axis : x y z
#
# Youngs Moduli (GPa) = 79.27926 137.89563 92.98513
#
# Poissons Ratio (x) = 0.52435 0.10255
# Poissons Ratio (y) = 0.30146 -0.01818
# Poissons Ratio (z) = 0.08743 -0.02696
#
# Static dielectric constant tensor:
#      x y z
#    x 1.957760 -0.047650 -0.009170 
#    y -0.047650 1.930960 -0.004900 
#    z -0.009170 -0.004900 1.974900 
# 
# From -- ./inp_files/95040.got.cif
#   From: 2010.05.17/outbox.cif.g08.bks.cpg/sg2_48_cif.got.tgz:95040.got - 2010.06.03 11:33:40.
