data_PCOD9069634
_publ_section_title
;
Structure prediction by ZEFSAII (Michael W. Deem and Ramdas Pophale) SiO2 
 PCOD9069634
Probable space group: P -1
;
_chemical_formula_sum "Si O2"
_cell_formula_units_Z 16
_cell_length_a 27.429218
_cell_length_b 27.229408
_cell_length_c 8.854622
_cell_angle_alpha 38.826426
_cell_angle_beta 38.017788
_cell_angle_gamma 10.192316
_cell_volume 720.357721
_symmetry_space_group_name_H-M "P -1"
_symmetry_group_IT_number 2
_symmetry_cell_setting 'triclinic'
loop_
_space_group_symop_operation_xyz
x,y,z
-x,-y,-z
loop_
_atom_site_type_symbol
_atom_site_label
_atom_site_fract_x
_atom_site_fract_y
_atom_site_fract_z
Si Si1 0.742167 0.591130 0.926931
Si Si2 0.898202 0.074237 0.737544
Si Si3 0.580220 0.383553 0.242356
Si Si4 0.711756 0.856684 0.243975
Si Si5 0.575137 0.882137 0.247352
Si Si6 0.337923 0.461493 0.510276
Si Si7 0.128452 0.070458 0.714165
Si Si8 0.008079 0.647394 0.432355
O O1 0.819387 0.492800 0.804054
O O2 0.973284 0.438108 0.761617
O O3 0.434945 0.919563 0.912353
O O4 0.783369 0.487928 0.202658
O O5 0.604061 0.395859 0.713531
O O6 0.000000 0.000000 0.500000
O O7 0.106628 0.907820 0.759647
O O8 0.870929 0.007379 0.996007
O O9 0.485524 0.385112 0.440204
O O10 0.500000 0.500000 0.000000
O O11 0.708106 0.823001 0.168927
O O12 0.500000 0.000000 0.500000
O O13 0.798407 0.600264 0.362890
O O14 0.287766 0.114665 0.453016
O O15 0.500000 0.000000 0.000000
O O16 0.100075 0.723161 0.355740
O O17 0.573434 0.204843 0.436896
O O18 0.055315 0.217012 0.636477
#
# Coordination Sequence:
#
# PCOD9069634 Si02
#       8
#     2   2   2   2   2   2   2   2
#     4  12  26  45  70 102 133 182 227 284 349 408
#     4  12  26  46  74 108 141 190 236 290 353 413
#     4  12  23  48  75 102 143 185 245 291 337 416
#     4  12  23  46  72  94 135 174 235 287 334 407
#     4  12  27  44  70 101 130 182 227 284 345 410
#     4  12  27  45  73 103 138 187 233 285 349 411
#     4  12  26  47  68 102 146 182 226 291 349 418
#     4  12  26  47  66 100 143 175 224 286 351 412
#
# _framework density 22.211188
#
# number of rings (size 3 to 8) (size 9 to 14) (size 15 to 20)
#    0.000    0.000    5.000    4.500    7.000    0.000 
#    2.250    0.000    0.000    0.000    0.000    0.000 
#    0.000    0.000    0.000    0.000    0.000    0.000 
#
# Total GULP energy -89546.923567 kJ/mol
# GULP energy per Si atom -5596.682723 kJ/mol
# Density = 2.216063 g / cm^3
# Si number density = 22.211188 Si / 1000 Ang^3
#
#
#
# Elastic Constant Matrix: (Units=GPa)
#
#
# Indices 1 2 3 4 5 6 
#
# 1 67.5241 12.2659 29.1621 -5.2674 1.7333 14.3759
# 2 12.2659 106.8050 19.2639 -4.8716 -9.8953 10.5350
# 3 29.1621 19.2639 115.4660 3.7685 13.1673 22.3387
# 4 -5.2674 -4.8716 3.7685 26.8692 -2.2055 -3.5842
# 5 1.7333 -9.8953 13.1673 -2.2055 27.3455 -1.1507
# 6 14.3759 10.5350 22.3387 -3.5842 -1.1507 42.8506
#
#
#
# Elastic Compliance Matrix: (Units=1/GPa)
#
#
# Indices 1 2 3 4 5 6 
#
# 1 0.017584 -0.000782 -0.003830 0.003436 0.000580 -0.003408
# 2 -0.000782 0.010472 -0.002008 0.002308 0.004952 -0.000939
# 3 -0.003830 -0.002008 0.011801 -0.003971 -0.006692 -0.004885
# 4 0.003436 0.002308 -0.003971 0.039864 0.005906 0.003843
# 5 0.000580 0.004952 -0.006692 0.005906 0.042179 0.003703
# 6 -0.003408 -0.000939 -0.004885 0.003843 0.003703 0.027679
#
#
# Mechanical properties :
#
#
# Convention : Reuss Voigt Hill
#
# Bulk Modulus (GPa) = 37.56975 45.68652 41.62814
# Shear Modulus (GPa) = 29.12241 34.68659 31.90450
#
# Velocity S-wave (km/s) = 3.62492 3.95609 3.79412
# Velocity P-wave (km/s) = 5.87125 6.44060 6.16250
#
# Compressibility (1/GPa) = 0.02661716
#
# Stress axis : x y z
#
# Youngs Moduli (GPa) = 56.86951 95.49665 84.74159
#
# Poissons Ratio (x) = 0.07469 0.32452
# Poissons Ratio (y) = 0.04448 0.17015
# Poissons Ratio (z) = 0.21779 0.19174
#
# Static dielectric constant tensor:
#      x y z
#    x 1.494740 -0.033680 -0.194290 
#    y -0.033680 1.790570 -0.011680 
#    z -0.194290 -0.011680 1.731360 
# 
# From -- ./inp_files/357970.got.cif
#   From: 2010.05.17/outbox.cif.g08.bks.cpg/sg2_179_cif.got.tgz:357970.got - 2010.06.03 11:33:40.
