data_PCOD9069562
_publ_section_title
;
Structure prediction by ZEFSAII (Michael W. Deem and Ramdas Pophale) SiO2 
 PCOD9069562
Probable space group: P -1
;
_chemical_formula_sum "Si O2"
_cell_formula_units_Z 12
_cell_length_a 9.556278
_cell_length_b 11.772166
_cell_length_c 21.197587
_cell_angle_alpha 26.498610
_cell_angle_beta 35.561880
_cell_angle_gamma 26.538048
_cell_volume 474.396086
_symmetry_space_group_name_H-M "P -1"
_symmetry_group_IT_number 2
_symmetry_cell_setting 'triclinic'
loop_
_space_group_symop_operation_xyz
x,y,z
-x,-y,-z
loop_
_atom_site_type_symbol
_atom_site_label
_atom_site_fract_x
_atom_site_fract_y
_atom_site_fract_z
Si Si1 0.208561 0.823702 0.362144
Si Si2 0.036997 0.579782 0.361176
Si Si3 0.924346 0.383565 0.281028
Si Si4 0.318610 0.470365 0.024126
Si Si5 0.883374 0.821734 0.162829
Si Si6 0.270049 0.812074 0.742622
O O1 0.566853 0.557018 0.340503
O O2 0.071778 0.630886 0.507321
O O3 0.112433 0.013757 0.370111
O O4 0.997611 0.111220 0.243752
O O5 0.411937 0.361231 0.327409
O O6 0.915337 0.820295 0.225677
O O7 0.866971 0.829319 0.358005
O O8 0.046633 0.450041 0.265491
O O9 0.982622 0.584384 0.111552
O O10 0.527019 0.070349 0.146032
O O11 0.500000 0.500000 0.000000
O O12 0.327791 0.599689 0.889057
O O13 0.000000 0.000000 0.000000
#
# Coordination Sequence:
#
# PCOD9069562 Si02
#       6
#     2   2   2   2   2   2
#     4  12  28  46  64 104 142 184 216 270 350 408
#     4  12  25  45  75  98 134 179 232 281 326 402
#     4  12  26  46  68 100 146 174 224 276 342 408
#     4  12  23  45  73 103 130 175 235 284 332 388
#     4  12  23  45  73 103 130 175 235 284 332 388
#     4  12  25  45  75  98 134 179 232 281 326 402
#
# _framework density 25.295318000000002
#
# number of rings (size 3 to 8) (size 9 to 14) (size 15 to 20)
#    0.000    0.000    6.667    3.000    0.000    2.667 
#    0.000    0.000    0.000    0.000    0.000    0.000 
#    0.000    0.000    0.000    0.000    0.000    0.000 
#
# Total GULP energy -67037.219349 kJ/mol
# GULP energy per Si atom -5586.434946 kJ/mol
# Density = 2.523774 g / cm^3
# Si number density = 25.295318 Si / 1000 Ang^3
#
#
#
# Elastic Constant Matrix: (Units=GPa)
#
#
# Indices 1 2 3 4 5 6 
#
# 1 62.9595 25.1103 13.4112 1.6334 -7.4175 14.1027
# 2 25.1103 178.2372 20.5331 22.0056 -19.4566 3.9736
# 3 13.4112 20.5331 68.1935 10.7071 1.7155 -5.2910
# 4 1.6334 22.0056 10.7071 42.4099 -4.4994 -13.5996
# 5 -7.4175 -19.4566 1.7155 -4.4994 33.8572 -10.8974
# 6 14.1027 3.9736 -5.2910 -13.5996 -10.8974 44.6609
#
#
#
# Elastic Compliance Matrix: (Units=1/GPa)
#
#
# Indices 1 2 3 4 5 6 
#
# 1 0.018934 -0.001910 -0.003546 -0.000695 0.001156 -0.006159
# 2 -0.001910 0.006719 -0.001298 -0.002851 0.003042 -0.000274
# 3 -0.003546 -0.001298 0.016415 -0.003014 -0.002200 0.001725
# 4 -0.000695 -0.002851 -0.003014 0.029858 0.005745 0.010610
# 5 0.001156 0.003042 -0.002200 0.005745 0.035472 0.009509
# 6 -0.006159 -0.000274 0.001725 0.010610 0.009509 0.030116
#
#
# Mechanical properties :
#
#
# Convention : Reuss Voigt Hill
#
# Bulk Modulus (GPa) = 35.01357 47.49993 41.25675
# Shear Modulus (GPa) = 31.14457 40.87463 36.00960
#
# Velocity S-wave (km/s) = 3.51271 4.02418 3.77711
# Velocity P-wave (km/s) = 5.50673 6.35696 5.94706
#
# Compressibility (1/GPa) = 0.02856036
#
# Stress axis : x y z
#
# Youngs Moduli (GPa) = 52.81503 148.82938 60.92036
#
# Poissons Ratio (x) = 0.28420 0.21605
# Poissons Ratio (y) = 0.10086 0.07906
# Poissons Ratio (z) = 0.18730 0.19315
#
# Static dielectric constant tensor:
#      x y z
#    x 2.077200 -0.006590 -0.006990 
#    y -0.006590 2.300510 0.003250 
#    z -0.006990 0.003250 2.069660 
# 
# From -- ./inp_files/588797.got.cif
#   From: 2010.05.17/outbox.cif.g08.bks.cpg/sg2_295_cif.got.tgz:588797.got - 2010.06.03 11:33:40.
