data_PCOD9069385
_publ_section_title
;
Structure prediction by ZEFSAII (Michael W. Deem and Ramdas Pophale) SiO2 
 PCOD9069385
Probable space group: P -1
;
_chemical_formula_sum "Si O2"
_cell_formula_units_Z 14
_cell_length_a 10.954179
_cell_length_b 8.420458
_cell_length_c 8.666032
_cell_angle_alpha 105.085445
_cell_angle_beta 43.019744
_cell_angle_gamma 106.739499
_cell_volume 520.733344
_symmetry_space_group_name_H-M "P -1"
_symmetry_group_IT_number 2
_symmetry_cell_setting 'triclinic'
loop_
_space_group_symop_operation_xyz
x,y,z
-x,-y,-z
loop_
_atom_site_type_symbol
_atom_site_label
_atom_site_fract_x
_atom_site_fract_y
_atom_site_fract_z
Si Si1 0.284045 0.492381 0.698533
Si Si2 0.560020 0.899737 0.772003
Si Si3 0.759136 0.124579 0.155267
Si Si4 0.072267 0.194190 0.633923
Si Si5 0.807358 0.775531 0.018068
Si Si6 0.081049 0.694302 0.507442
Si Si7 0.488664 0.689533 0.050606
O O1 0.500000 0.500000 0.500000
O O2 0.237089 0.678312 0.762179
O O3 0.174143 0.372971 0.643019
O O4 0.227815 0.385266 0.879440
O O5 0.443405 0.917502 0.735762
O O6 0.769421 0.917716 0.549104
O O7 0.501072 0.723226 0.864325
O O8 0.500000 0.000000 0.000000
O O9 0.794062 0.951153 0.160710
O O10 0.907734 0.133697 0.883588
O O11 0.993751 0.213540 0.543860
O O12 0.659315 0.768582 0.015640
O O13 0.995886 0.760306 0.756335
O O14 0.298311 0.720877 0.305516
O O15 0.000000 0.500000 0.500000
O O16 0.500000 0.500000 0.000000
#
# Coordination Sequence:
#
# PCOD9069385 Si02
#       7
#     2   2   2   2   2   2   2
#     4  12  29  54  77 105 157 208 252 314 383 454
#     4  12  23  43  72 114 149 190 246 317 381 441
#     4  12  26  48  77 111 154 201 258 311 378 455
#     4  12  26  47  76 109 154 205 248 310 386 447
#     4  12  28  48  78 116 150 197 259 314 379 455
#     4  12  24  42  77 115 148 197 253 314 380 446
#     4  12  23  42  73 111 154 190 247 314 379 445
#
# _framework density 26.885162000000001
#
# number of rings (size 3 to 8) (size 9 to 14) (size 15 to 20)
#    0.000    0.000    7.143    2.143    4.000    2.286 
#    0.000    0.000    0.000    0.000    0.000    0.000 
#    0.000    0.000    0.000    0.000    0.000    0.000 
#
# Total GULP energy -78438.629510 kJ/mol
# GULP energy per Si atom -5602.759251 kJ/mol
# Density = 2.682397 g / cm^3
# Si number density = 26.885162 Si / 1000 Ang^3
#
#
#
# Elastic Constant Matrix: (Units=GPa)
#
#
# Indices 1 2 3 4 5 6 
#
# 1 125.4664 20.7941 42.2464 10.8392 -38.0590 -3.6542
# 2 20.7941 137.7532 25.4727 31.8362 -1.1894 6.4693
# 3 42.2464 25.4727 176.1909 6.2990 -44.9087 -4.3386
# 4 10.8392 31.8362 6.2990 43.0637 -0.9498 -2.6352
# 5 -38.0590 -1.1894 -44.9087 -0.9498 49.4240 1.7169
# 6 -3.6542 6.4693 -4.3386 -2.6352 1.7169 40.3324
#
#
#
# Elastic Compliance Matrix: (Units=1/GPa)
#
#
# Indices 1 2 3 4 5 6 
#
# 1 0.010853 -0.001172 -0.000325 -0.001599 0.007979 0.000692
# 2 -0.001172 0.009284 -0.001387 -0.006538 -0.001992 -0.002087
# 3 -0.000325 -0.001387 0.007663 0.000179 0.006657 0.000746
# 4 -0.001599 -0.006538 0.000179 0.028587 -0.000775 0.002824
# 5 0.007979 -0.001992 0.006657 -0.000775 0.032351 0.000331
# 6 0.000692 -0.002087 0.000746 0.002824 0.000331 0.025442
#
#
# Mechanical properties :
#
#
# Convention : Reuss Voigt Hill
#
# Bulk Modulus (GPa) = 45.38789 68.49299 56.94044
# Shear Modulus (GPa) = 39.28000 49.95718 44.61859
#
# Velocity S-wave (km/s) = 3.82649 4.31533 4.07824
# Velocity P-wave (km/s) = 6.03668 7.09654 6.58795
#
# Compressibility (1/GPa) = 0.02203231
#
# Stress axis : x y z
#
# Youngs Moduli (GPa) = 92.14454 107.70706 130.50221
#
# Poissons Ratio (x) = 0.12625 0.04238
# Poissons Ratio (y) = 0.10801 0.18097
# Poissons Ratio (z) = 0.02993 0.14936
#
# Static dielectric constant tensor:
#      x y z
#    x 2.142710 -0.254630 0.053120 
#    y -0.254630 2.852080 -0.056330 
#    z 0.053120 -0.056330 2.037630 
# 
# From -- ./inp_files/244325.got.cif
#   From: 2010.05.17/outbox.cif.g08.bks.cpg/sg2_123_cif.got.tgz:244325.got - 2010.06.03 11:33:40.
