data_PCOD9069621
_publ_section_title
;
Structure prediction by ZEFSAII (Michael W. Deem and Ramdas Pophale) SiO2 
 PCOD9069621
Probable space group: P -1
;
_chemical_formula_sum "Si O2"
_cell_formula_units_Z 16
_cell_length_a 8.194354
_cell_length_b 23.969724
_cell_length_c 23.771075
_cell_angle_alpha 12.521069
_cell_angle_beta 137.076320
_cell_angle_gamma 136.601977
_cell_volume 687.171124
_symmetry_space_group_name_H-M "P -1"
_symmetry_group_IT_number 2
_symmetry_cell_setting 'triclinic'
loop_
_space_group_symop_operation_xyz
x,y,z
-x,-y,-z
loop_
_atom_site_type_symbol
_atom_site_label
_atom_site_fract_x
_atom_site_fract_y
_atom_site_fract_z
Si Si1 0.660606 0.268009 0.785494
Si Si2 0.417402 0.935949 0.331493
Si Si3 0.558979 0.797328 0.389707
Si Si4 0.015474 0.028074 0.543344
Si Si5 0.338534 0.456732 0.860119
Si Si6 0.171729 0.687842 0.085681
Si Si7 0.883124 0.248884 0.749084
Si Si8 0.285549 0.491194 0.998651
O O1 0.500000 0.500000 0.500000
O O2 0.749487 0.296061 0.844489
O O3 0.881640 0.271643 0.793608
O O4 0.500000 0.000000 0.000000
O O5 0.374672 0.856820 0.334257
O O6 0.308226 0.718546 0.560648
O O7 0.705979 0.933713 0.409610
O O8 0.352279 0.215516 0.059191
O O9 0.682483 0.532367 0.689502
O O10 0.396607 0.775846 0.314392
O O11 0.754233 0.037469 0.193957
O O12 0.882823 0.771187 0.788457
O O13 0.000000 0.000000 0.500000
O O14 0.873506 0.271231 0.284471
O O15 0.582737 0.487118 0.928418
O O16 0.110827 0.392269 0.906321
O O17 0.000000 0.500000 0.500000
O O18 0.000000 0.000000 0.000000
O O19 0.500000 0.500000 0.000000
#
# Coordination Sequence:
#
# PCOD9069621 Si02
#       8
#     2   2   2   2   2   2   2   2
#     4  12  23  46  70  95 130 178 219 270 326 392
#     4  12  27  44  70  97 137 175 223 272 338 397
#     4  12  27  47  66 101 135 177 222 270 333 402
#     4  12  23  46  70  94 132 180 219 275 331 392
#     4  12  26  46  66 102 133 176 222 273 332 402
#     4  12  26  46  70  96 138 177 221 271 336 397
#     4  12  26  43  70  99 134 169 225 276 323 385
#     4  12  26  43  70 100 135 171 229 278 327 391
#
# _framework density 23.283864999999999
#
# number of rings (size 3 to 8) (size 9 to 14) (size 15 to 20)
#    0.000    0.000    5.000    4.500    7.000    0.000 
#    0.000    0.000    0.000    0.000    0.000    0.000 
#    0.000    0.000    0.000    0.000    0.000    0.000 
#
# Total GULP energy -89728.135069 kJ/mol
# GULP energy per Si atom -5608.008442 kJ/mol
# Density = 2.323087 g / cm^3
# Si number density = 23.283865 Si / 1000 Ang^3
#
#
#
# Elastic Constant Matrix: (Units=GPa)
#
#
# Indices 1 2 3 4 5 6 
#
# 1 102.0340 -12.5728 30.8759 -20.7531 2.5753 -3.5764
# 2 -12.5728 58.6459 10.1743 -5.6021 -3.0008 2.4880
# 3 30.8759 10.1743 144.0068 -39.3777 6.2139 10.9539
# 4 -20.7531 -5.6021 -39.3777 34.2181 1.7972 -4.4477
# 5 2.5753 -3.0008 6.2139 1.7972 67.6780 -3.6622
# 6 -3.5764 2.4880 10.9539 -4.4477 -3.6622 50.5114
#
#
#
# Elastic Compliance Matrix: (Units=1/GPa)
#
#
# Indices 1 2 3 4 5 6 
#
# 1 0.011970 0.003318 -0.001035 0.006822 -0.000314 0.001486
# 2 0.003318 0.018337 -0.000980 0.003843 0.000671 -0.000069
# 3 -0.001035 -0.000980 0.010438 0.011111 -0.001334 -0.001407
# 4 0.006822 0.003843 0.011111 0.047139 -0.002260 0.001871
# 5 -0.000314 0.000671 -0.001334 -0.002260 0.015061 0.001127
# 6 0.001486 -0.000069 -0.001407 0.001871 0.001127 0.020458
#
#
# Mechanical properties :
#
#
# Convention : Reuss Voigt Hill
#
# Bulk Modulus (GPa) = 23.06696 40.18239 31.62467
# Shear Modulus (GPa) = 36.96928 48.89546 42.93237
#
# Velocity S-wave (km/s) = 3.98900 4.58752 4.29869
# Velocity P-wave (km/s) = 5.58073 6.73465 6.18466
#
# Compressibility (1/GPa) = 0.04335204
#
# Stress axis : x y z
#
# Youngs Moduli (GPa) = 83.54019 54.53390 95.80314
#
# Poissons Ratio (x) = -0.18096 0.09917
# Poissons Ratio (y) = -0.27721 0.09389
# Poissons Ratio (z) = 0.08647 0.05344
#
# Static dielectric constant tensor:
#      x y z
#    x 1.875520 -0.067180 -0.001090 
#    y -0.067180 1.969820 -0.001940 
#    z -0.001090 -0.001940 1.815380 
# 
# From -- ./inp_files/357985.got.cif
#   From: 2010.05.17/outbox.cif.g08.bks.cpg/sg2_179_cif.got.tgz:357985.got - 2010.06.03 11:33:40.
