data_PCOD9069224
_publ_section_title
;
Structure prediction by ZEFSAII (Michael W. Deem and Ramdas Pophale) SiO2 
 PCOD9069224
Probable space group: P -1
;
_chemical_formula_sum "Si O2"
_cell_formula_units_Z 13
_cell_length_a 16.504285
_cell_length_b 9.422583
_cell_length_c 9.215582
_cell_angle_alpha 43.940794
_cell_angle_beta 31.486226
_cell_angle_gamma 38.657269
_cell_volume 461.089975
_symmetry_space_group_name_H-M "P -1"
_symmetry_group_IT_number 2
_symmetry_cell_setting 'triclinic'
loop_
_space_group_symop_operation_xyz
x,y,z
-x,-y,-z
loop_
_atom_site_type_symbol
_atom_site_label
_atom_site_fract_x
_atom_site_fract_y
_atom_site_fract_z
Si Si1 0.692591 0.405500 0.079461
Si Si2 0.000000 0.500000 0.500000
Si Si3 0.815825 0.897809 0.221053
Si Si4 0.778997 0.264354 0.357913
Si Si5 0.706494 0.733884 0.239138
Si Si6 0.573419 0.882344 0.819314
Si Si7 0.060108 0.154682 0.397385
O O1 0.841367 0.482323 0.839554
O O2 0.571280 0.637560 0.008790
O O3 0.731386 0.169682 0.114073
O O4 0.664914 0.326126 0.341290
O O5 0.034383 0.654150 0.474394
O O6 0.733087 0.783382 0.325759
O O7 0.774698 0.832424 0.495195
O O8 0.018159 0.821717 0.936134
O O9 0.707647 0.493508 0.392030
O O10 0.790512 0.051438 0.587795
O O11 0.545434 0.940476 0.252087
O O12 0.873407 0.722271 0.909593
O O13 0.500000 0.000000 0.000000
O O14 0.000000 0.000000 0.500000
#
# Coordination Sequence:
#
# PCOD9069224 Si02
#       7
#     2   1   2   2   2   2   2
#     4  12  26  44  77 109 151 195 256 310 378 453
#     4  12  22  46  74 112 150 192 254 318 372 444
#     4  12  28  46  79 113 146 203 256 316 389 449
#     4  12  25  45  78 113 149 194 252 319 379 457
#     4  12  27  51  73 113 157 197 249 320 384 459
#     4  12  28  51  74 105 155 205 254 312 379 468
#     4  12  26  45  76 112 155 193 254 317 391 447
#
# _framework density 28.194061999999999
#
# number of rings (size 3 to 8) (size 9 to 14) (size 15 to 20)
#    0.000    0.000    6.154    2.308    4.308    3.692 
#    0.000    0.000    0.000    0.000    0.000    0.000 
#    0.000    0.000    0.000    0.000    0.000    0.000 
#
# Total GULP energy -72588.658838 kJ/mol
# GULP energy per Si atom -5583.742988 kJ/mol
# Density = 2.812989 g / cm^3
# Si number density = 28.194062 Si / 1000 Ang^3
#
#
#
# Elastic Constant Matrix: (Units=GPa)
#
#
# Indices 1 2 3 4 5 6 
#
# 1 115.5228 40.8876 32.6289 7.4894 8.8426 20.5924
# 2 40.8876 226.3996 34.9679 -18.0280 9.2843 11.2408
# 3 32.6289 34.9679 112.0095 -17.0242 9.2819 4.8619
# 4 7.4894 -18.0280 -17.0242 54.2509 -1.8456 0.7418
# 5 8.8426 9.2843 9.2819 -1.8456 47.7952 -2.9006
# 6 20.5924 11.2408 4.8619 0.7418 -2.9006 57.9118
#
#
#
# Elastic Compliance Matrix: (Units=1/GPa)
#
#
# Indices 1 2 3 4 5 6 
#
# 1 0.010916 -0.001531 -0.002877 -0.002923 -0.001481 -0.003380
# 2 -0.001531 0.004986 -0.000809 0.001603 -0.000491 -0.000401
# 3 -0.002877 -0.000809 0.010632 0.003420 -0.001232 0.000182
# 4 -0.002923 0.001603 0.003420 0.020452 0.000367 0.000197
# 5 -0.001481 -0.000491 -0.001232 0.000367 0.021655 0.001805
# 6 -0.003380 -0.000401 0.000182 0.000197 0.001805 0.018620
#
#
# Mechanical properties :
#
#
# Convention : Reuss Voigt Hill
#
# Bulk Modulus (GPa) = 62.10744 74.54450 68.32597
# Shear Modulus (GPa) = 48.51443 55.02142 51.76793
#
# Velocity S-wave (km/s) = 4.15267 4.42240 4.28966
# Velocity P-wave (km/s) = 6.71337 7.25079 6.98725
#
# Compressibility (1/GPa) = 0.01610113
#
# Stress axis : x y z
#
# Youngs Moduli (GPa) = 91.60805 200.55685 94.05224
#
# Poissons Ratio (x) = 0.30712 0.27055
# Poissons Ratio (y) = 0.14028 0.07607
# Poissons Ratio (z) = 0.26352 0.16221
#
# Static dielectric constant tensor:
#      x y z
#    x 2.104840 0.084550 -0.075290 
#    y 0.084550 2.066430 0.174690 
#    z -0.075290 0.174690 2.406040 
# 
# From -- ./inp_files/326979.got.cif
#   From: 2010.05.17/outbox.cif.g08.bks.cpg/sg2_164_cif.got.tgz:326979.got - 2010.06.03 11:33:40.
