data_PCOD9069270
_publ_section_title
;
Structure prediction by ZEFSAII (Michael W. Deem and Ramdas Pophale) SiO2 
 PCOD9069270
Probable space group: P -1
;
_chemical_formula_sum "Si O2"
_cell_formula_units_Z 14
_cell_length_a 15.197681
_cell_length_b 5.304794
_cell_length_c 8.683964
_cell_angle_alpha 115.949174
_cell_angle_beta 120.011843
_cell_angle_gamma 79.566826
_cell_volume 544.476050
_symmetry_space_group_name_H-M "P -1"
_symmetry_group_IT_number 2
_symmetry_cell_setting 'triclinic'
loop_
_space_group_symop_operation_xyz
x,y,z
-x,-y,-z
loop_
_atom_site_type_symbol
_atom_site_label
_atom_site_fract_x
_atom_site_fract_y
_atom_site_fract_z
Si Si1 0.430951 0.719250 0.910491
Si Si2 0.094526 0.921489 0.660150
Si Si3 0.942548 0.262852 0.087214
Si Si4 0.295122 0.176600 0.925915
Si Si5 0.275879 0.675706 0.232440
Si Si6 0.148516 0.492590 0.357804
Si Si7 0.306625 0.214145 0.576060
O O1 0.372916 0.505192 0.682329
O O2 0.340690 0.891818 0.956393
O O3 0.500000 0.500000 0.000000
O O4 0.500000 0.000000 0.000000
O O5 0.061074 0.750560 0.734831
O O6 0.160182 0.745319 0.554257
O O7 0.173657 0.169206 0.846494
O O8 0.000000 0.000000 0.500000
O O9 0.032971 0.497344 0.197309
O O10 0.826577 0.244523 0.926340
O O11 0.000000 0.000000 0.000000
O O12 0.311213 0.186383 0.758065
O O13 0.335997 0.457226 0.123881
O O14 0.225905 0.512892 0.291239
O O15 0.336536 0.947151 0.430566
O O16 0.188449 0.242964 0.431670
#
# Coordination Sequence:
#
# PCOD9069270 Si02
#       7
#     2   2   2   2   2   2   2
#     4  12  27  53  88 116 153 202 259 333 412 478
#     4  12  23  41  68 106 154 211 268 313 387 459
#     4  12  23  39  63 105 161 213 267 320 370 458
#     4  12  26  48  78 115 151 207 260 328 393 472
#     4  12  26  44  73 112 156 209 267 322 388 464
#     4  12  23  43  67 101 157 211 262 316 381 456
#     4  12  24  49  79 107 155 195 259 319 405 459
#
# _framework density 25.712793000000001
#
# number of rings (size 3 to 8) (size 9 to 14) (size 15 to 20)
#    0.000    0.000    5.714    5.143    0.000    0.000 
#    0.000    1.429    0.000    0.000    0.000    0.000 
#    0.000    0.000    0.000    0.000    0.000    0.000 
#
# Total GULP energy -78180.303393 kJ/mol
# GULP energy per Si atom -5584.307385 kJ/mol
# Density = 2.565427 g / cm^3
# Si number density = 25.712793 Si / 1000 Ang^3
#
#
#
# Elastic Constant Matrix: (Units=GPa)
#
#
# Indices 1 2 3 4 5 6 
#
# 1 56.8432 30.3719 47.7326 -1.1366 14.3274 0.2015
# 2 30.3719 135.8326 78.1798 18.4621 -9.6753 -18.0493
# 3 47.7326 78.1798 155.6331 23.2303 -13.5474 -14.3876
# 4 -1.1366 18.4621 23.2303 76.5271 -1.4030 2.7286
# 5 14.3274 -9.6753 -13.5474 -1.4030 50.4420 7.5706
# 6 0.2015 -18.0493 -14.3876 2.7286 7.5706 38.8290
#
#
#
# Elastic Compliance Matrix: (Units=1/GPa)
#
#
# Indices 1 2 3 4 5 6 
#
# 1 0.030148 -0.002968 -0.009617 0.003994 -0.011122 -0.003211
# 2 -0.002968 0.011104 -0.003983 -0.001617 0.001325 0.003557
# 3 -0.009617 -0.003983 0.012432 -0.002939 0.004917 0.002053
# 4 0.003994 -0.001617 -0.002939 0.014475 -0.001441 -0.002597
# 5 -0.011122 0.001325 0.004917 -0.001441 0.024856 -0.002250
# 6 -0.003211 0.003557 0.002053 -0.002597 -0.002250 0.028806
#
#
# Mechanical properties :
#
#
# Convention : Reuss Voigt Hill
#
# Bulk Modulus (GPa) = 48.66127 73.43083 61.04605
# Shear Modulus (GPa) = 30.90144 45.96126 38.43135
#
# Velocity S-wave (km/s) = 3.47045 4.23245 3.87025
# Velocity P-wave (km/s) = 5.91817 7.24603 6.61550
#
# Compressibility (1/GPa) = 0.02055023
#
# Stress axis : x y z
#
# Youngs Moduli (GPa) = 33.16985 90.05365 80.43913
#
# Poissons Ratio (x) = 0.26726 0.77355
# Poissons Ratio (y) = 0.09844 0.32035
# Poissons Ratio (z) = 0.31898 0.35864
#
# Static dielectric constant tensor:
#      x y z
#    x 2.070500 0.061370 0.078770 
#    y 0.061370 2.248730 0.084080 
#    z 0.078770 0.084080 2.146900 
# 
# From -- ./inp_files/322038.got.cif
#   From: 2010.05.17/outbox.cif.g08.bks.cpg/sg2_162_cif.got.tgz:322038.got - 2010.06.03 11:33:40.
