data_PCOD9069207
_publ_section_title
;
Structure prediction by ZEFSAII (Michael W. Deem and Ramdas Pophale) SiO2 
 PCOD9069207
Probable space group: P -1
;
_chemical_formula_sum "Si O2"
_cell_formula_units_Z 16
_cell_length_a 9.383584
_cell_length_b 21.619152
_cell_length_c 11.078917
_cell_angle_alpha 150.713934
_cell_angle_beta 125.662750
_cell_angle_gamma 43.656409
_cell_volume 751.257969
_symmetry_space_group_name_H-M "P -1"
_symmetry_group_IT_number 2
_symmetry_cell_setting 'triclinic'
loop_
_space_group_symop_operation_xyz
x,y,z
-x,-y,-z
loop_
_atom_site_type_symbol
_atom_site_label
_atom_site_fract_x
_atom_site_fract_y
_atom_site_fract_z
Si Si1 0.206182 0.971615 0.982027
Si Si2 0.418717 0.665764 0.192910
Si Si3 0.081283 0.557334 0.530188
Si Si4 0.293818 0.167385 0.656973
Si Si5 0.750000 0.746819 0.496819
Si Si6 0.041609 0.901699 0.554705
Si Si7 0.250000 0.747485 0.997485
Si Si8 0.458391 0.290301 0.137295
O O1 0.189267 0.908128 0.738394
O O2 0.405499 0.852633 0.954037
O O3 0.226884 0.114144 0.220159
O O4 0.000000 0.000000 0.000000
O O5 0.557578 0.731882 0.413111
O O6 0.184809 0.787512 0.328022
O O7 0.500000 0.500000 0.000000
O O8 0.410980 0.660099 0.035116
O O9 0.089019 0.696062 0.821044
O O10 0.315191 0.431811 0.391301
O O11 0.000000 0.500000 0.500000
O O12 0.942421 0.608231 0.427001
O O13 0.273116 0.235013 0.628998
O O14 0.094501 0.156727 0.555323
O O15 0.500000 0.000000 0.500000
O O16 0.310733 0.267129 0.936863
O O17 0.873902 0.075065 0.734347
O O18 0.373902 0.710314 0.869595
#
# Coordination Sequence:
#
# PCOD9069207 Si02
#       8
#     2   2   2   2   2   2   2   2
#     4  12  22  45  77 110 137 178 244 300 349 422
#     4  12  30  47  67 104 150 189 234 291 355 418
#     4  12  30  47  67 104 150 189 234 291 355 418
#     4  12  22  45  77 110 137 178 244 300 349 422
#     4  12  24  48  72 100 146 190 242 286 354 434
#     4  12  26  45  76 104 142 182 235 298 354 422
#     4  12  24  50  70 102 138 188 234 288 356 426
#     4  12  26  45  76 104 142 182 235 298 354 422
#
# _framework density 21.297612000000001
#
# number of rings (size 3 to 8) (size 9 to 14) (size 15 to 20)
#    0.000    0.000    7.500    1.500    7.000    3.000 
#    0.000    0.000    0.000    0.000    0.000    0.000 
#    0.000    0.000    0.000    0.000    0.000    0.000 
#
# Total GULP energy -89402.177777 kJ/mol
# GULP energy per Si atom -5587.636111 kJ/mol
# Density = 2.124914 g / cm^3
# Si number density = 21.297612 Si / 1000 Ang^3
#
#
#
# Elastic Constant Matrix: (Units=GPa)
#
#
# Indices 1 2 3 4 5 6 
#
# 1 102.9371 41.1714 38.8335 29.7321 20.2089 2.7253
# 2 41.1714 117.6137 22.1329 3.9836 14.9950 14.9451
# 3 38.8335 22.1329 62.2533 2.3558 22.3766 5.3697
# 4 29.7321 3.9836 2.3558 42.5715 -6.6125 3.0463
# 5 20.2089 14.9950 22.3766 -6.6125 36.2735 1.1069
# 6 2.7253 14.9451 5.3697 3.0463 1.1069 31.6735
#
#
#
# Elastic Compliance Matrix: (Units=1/GPa)
#
#
# Indices 1 2 3 4 5 6 
#
# 1 0.020070 -0.004546 -0.008123 -0.014481 -0.007036 0.003434
# 2 -0.004546 0.010834 -0.000247 0.002333 -0.001220 -0.004861
# 3 -0.008123 -0.000247 0.025057 0.002968 -0.010187 -0.003362
# 4 -0.014481 0.002333 0.002968 0.035359 0.011846 -0.004173
# 5 -0.007036 -0.001220 -0.010187 0.011846 0.040426 0.000356
# 6 0.003434 -0.004861 -0.003362 -0.004173 0.000356 0.034529
#
#
# Mechanical properties :
#
#
# Convention : Reuss Voigt Hill
#
# Bulk Modulus (GPa) = 33.18767 54.11996 43.65382
# Shear Modulus (GPa) = 24.73411 34.14813 29.44112
#
# Velocity S-wave (km/s) = 3.41156 4.00856 3.72205
# Velocity P-wave (km/s) = 5.57987 6.84772 6.24605
#
# Compressibility (1/GPa) = 0.03013167
#
# Stress axis : x y z
#
# Youngs Moduli (GPa) = 49.82486 92.29848 39.90880
#
# Poissons Ratio (x) = 0.41959 0.32416
# Poissons Ratio (y) = 0.22650 0.00984
# Poissons Ratio (z) = 0.40471 0.02275
#
# Static dielectric constant tensor:
#      x y z
#    x 1.775080 0.004200 0.005120 
#    y 0.004200 1.737140 0.043640 
#    z 0.005120 0.043640 1.727000 
# 
# From -- ./inp_files/405730.got.cif
#   From: 2010.05.17/outbox.cif.g08.bks.cpg/sg2_203_cif.got.tgz:405730.got - 2010.06.03 11:33:40.
