data_PCOD9069182
_publ_section_title
;
Structure prediction by ZEFSAII (Michael W. Deem and Ramdas Pophale) SiO2 
 PCOD9069182
Probable space group: P -1
;
_chemical_formula_sum "Si O2"
_cell_formula_units_Z 16
_cell_length_a 21.615024
_cell_length_b 9.693134
_cell_length_c 9.436880
_cell_angle_alpha 49.516491
_cell_angle_beta 26.953743
_cell_angle_gamma 57.088971
_cell_volume 678.048779
_symmetry_space_group_name_H-M "P -1"
_symmetry_group_IT_number 2
_symmetry_cell_setting 'triclinic'
loop_
_space_group_symop_operation_xyz
x,y,z
-x,-y,-z
loop_
_atom_site_type_symbol
_atom_site_label
_atom_site_fract_x
_atom_site_fract_y
_atom_site_fract_z
Si Si1 0.898031 0.397545 0.666693
Si Si2 0.494235 0.568154 0.723889
Si Si3 0.654328 0.281665 0.434667
Si Si4 0.807452 0.518036 0.482012
Si Si5 0.938570 0.916228 0.534974
Si Si6 0.766182 0.190886 0.565256
Si Si7 0.721134 0.766470 0.284456
Si Si8 0.472930 0.963880 0.366508
O O1 0.902244 0.489758 0.441880
O O2 0.000000 0.500000 0.500000
O O3 0.946828 0.198243 0.684012
O O4 0.748744 0.379035 0.053934
O O5 0.546055 0.416709 0.616836
O O6 0.604637 0.600714 0.603245
O O7 0.495423 0.770890 0.520923
O O8 0.344933 0.503739 0.127680
O O9 0.746982 0.245746 0.405425
O O10 0.583009 0.096130 0.634615
O O11 0.813067 0.358098 0.462444
O O12 0.820386 0.706985 0.244859
O O13 0.876533 0.048954 0.462838
O O14 0.805935 0.791491 0.949901
O O15 0.000000 0.000000 0.500000
O O16 0.614397 0.095787 0.984170
O O17 0.642247 0.937066 0.380166
#
# Coordination Sequence:
#
# PCOD9069182 Si02
#       8
#     2   2   2   2   2   2   2   2
#     4  12  29  47  69 101 139 185 239 285 337 403
#     4  12  22  44  74 104 142 182 220 284 362 423
#     4  12  27  46  69 106 147 178 224 292 354 411
#     4  12  25  46  75 105 139 181 233 288 345 419
#     4  12  26  46  72  98 137 189 240 282 334 405
#     4  12  25  45  75 105 138 183 232 286 349 418
#     4  12  24  43  75 105 138 181 234 285 346 416
#     4  12  24  42  73 110 142 175 224 289 362 416
#
# _framework density 23.597121999999999
#
# number of rings (size 3 to 8) (size 9 to 14) (size 15 to 20)
#    0.000    0.000    6.250    4.500    0.000    3.000 
#    0.000    0.000    0.000    0.000    0.000    0.000 
#    0.000    0.000    0.000    0.000    0.000    0.000 
#
# Total GULP energy -89643.191591 kJ/mol
# GULP energy per Si atom -5602.699474 kJ/mol
# Density = 2.354341 g / cm^3
# Si number density = 23.597122 Si / 1000 Ang^3
#
#
#
# Elastic Constant Matrix: (Units=GPa)
#
#
# Indices 1 2 3 4 5 6 
#
# 1 161.5773 19.3976 -10.4345 -1.5829 10.2350 -2.4001
# 2 19.3976 68.6119 -6.7825 24.7427 8.4623 3.7653
# 3 -10.4345 -6.7825 41.2713 4.4428 4.6835 2.4986
# 4 -1.5829 24.7427 4.4428 33.9834 2.7704 1.1539
# 5 10.2350 8.4623 4.6835 2.7704 37.9216 -7.9315
# 6 -2.4001 3.7653 2.4986 1.1539 -7.9315 50.3441
#
#
#
# Elastic Compliance Matrix: (Units=1/GPa)
#
#
# Indices 1 2 3 4 5 6 
#
# 1 0.006663 -0.002262 0.001276 0.001913 -0.001563 0.000133
# 2 -0.002262 0.022477 0.005565 -0.016762 -0.004363 -0.002368
# 3 0.001276 0.005565 0.026917 -0.007036 -0.004877 -0.002298
# 4 0.001913 -0.016762 -0.007036 0.042513 0.001177 0.000905
# 5 -0.001563 -0.004363 -0.004877 0.001177 0.029347 0.005090
# 6 0.000133 -0.002368 -0.002298 0.000905 0.005090 0.020942
#
#
# Mechanical properties :
#
#
# Convention : Reuss Voigt Hill
#
# Bulk Modulus (GPa) = 15.33390 30.64687 22.99038
# Shear Modulus (GPa) = 30.97150 42.40182 36.68666
#
# Velocity S-wave (km/s) = 3.62679 4.24359 3.94726
# Velocity P-wave (km/s) = 4.90413 6.08494 5.52616
#
# Compressibility (1/GPa) = 0.06521497
#
# Stress axis : x y z
#
# Youngs Moduli (GPa) = 150.08965 44.48963 37.15108
#
# Poissons Ratio (x) = 0.10064 -0.04741
# Poissons Ratio (y) = 0.33951 -0.20674
# Poissons Ratio (z) = -0.19153 -0.24758
#
# Static dielectric constant tensor:
#      x y z
#    x 1.945360 -0.017650 -0.035340 
#    y -0.017650 1.854430 -0.045250 
#    z -0.035340 -0.045250 1.920690 
# 
# From -- ./inp_files/299404.got.cif
#   From: 2010.05.17/outbox.cif.g08.bks.cpg/sg2_150_cif.got.tgz:299404.got - 2010.06.03 11:33:40.
