data_PCOD9069879
_publ_section_title
;
Structure prediction by ZEFSAII (Michael W. Deem and Ramdas Pophale) SiO2 
 PCOD9069879
Probable space group: P -1
;
_chemical_formula_sum "Si O2"
_cell_formula_units_Z 16
_cell_length_a 14.065598
_cell_length_b 8.803479
_cell_length_c 9.564486
_cell_angle_alpha 107.762159
_cell_angle_beta 83.630146
_cell_angle_gamma 136.456696
_cell_volume 765.961920
_symmetry_space_group_name_H-M "P -1"
_symmetry_group_IT_number 2
_symmetry_cell_setting 'triclinic'
loop_
_space_group_symop_operation_xyz
x,y,z
-x,-y,-z
loop_
_atom_site_type_symbol
_atom_site_label
_atom_site_fract_x
_atom_site_fract_y
_atom_site_fract_z
Si Si1 0.642791 0.767260 0.534041
Si Si2 0.122695 0.398738 0.913303
Si Si3 0.239155 0.446226 0.210519
Si Si4 0.450126 0.085360 0.630516
Si Si5 0.794388 0.971295 0.853410
Si Si6 0.003581 0.357137 0.354462
Si Si7 0.119733 0.106451 0.619961
Si Si8 0.762734 0.166441 0.146018
O O1 0.500000 0.500000 0.500000
O O2 0.622090 0.879772 0.455174
O O3 0.710829 0.909647 0.707865
O O4 0.744467 0.758160 0.453717
O O5 0.138338 0.267941 0.771979
O O6 0.212091 0.651886 0.906471
O O7 0.180133 0.418242 0.060004
O O8 0.955245 0.227422 0.893256
O O9 0.405001 0.667964 0.261938
O O10 0.201373 0.216041 0.185400
O O11 0.156264 0.470913 0.329665
O O12 0.500000 0.000000 0.500000
O O13 0.343395 0.928631 0.734406
O O14 0.722761 0.968371 0.997922
O O15 0.000000 0.500000 0.500000
O O16 0.915303 0.309326 0.223626
O O17 0.919451 0.105102 0.357919
O O18 0.000000 0.000000 0.500000
#
# Coordination Sequence:
#
# PCOD9069879 Si02
#       8
#     2   2   2   2   2   2   2   2
#     4  12  27  48  75 108 144 195 246 306 369 437
#     4  12  26  44  76 111 148 188 249 304 369 434
#     4  12  26  47  74 105 151 192 239 315 367 430
#     4  12  30  51  71 107 154 196 245 302 370 440
#     4  12  25  49  76 109 147 185 251 311 367 433
#     4  12  24  42  72 106 141 191 247 305 363 430
#     4  12  24  44  73 107 144 193 246 300 364 438
#     4  12  28  46  74 108 146 199 244 300 374 438
#
# _framework density 20.888767999999999
#
# number of rings (size 3 to 8) (size 9 to 14) (size 15 to 20)
#    0.000    0.000    6.250    3.000    3.500    2.000 
#    0.000    0.000    0.000    0.000    0.000    0.000 
#    0.000    0.000    0.000    0.000    0.000    0.000 
#
# Total GULP energy -89518.397703 kJ/mol
# GULP energy per Si atom -5594.899856 kJ/mol
# Density = 2.084122 g / cm^3
# Si number density = 20.888768 Si / 1000 Ang^3
#
#
#
# Elastic Constant Matrix: (Units=GPa)
#
#
# Indices 1 2 3 4 5 6 
#
# 1 115.4307 47.7760 58.5905 -4.8316 -7.2827 12.7189
# 2 47.7760 78.8371 22.7831 -11.0277 1.9571 7.3645
# 3 58.5905 22.7831 145.1632 2.6642 -4.5796 3.7259
# 4 -4.8316 -11.0277 2.6642 29.1088 0.2146 -3.6485
# 5 -7.2827 1.9571 -4.5796 0.2146 58.2873 2.6312
# 6 12.7189 7.3645 3.7259 -3.6485 2.6312 40.4226
#
#
#
# Elastic Compliance Matrix: (Units=1/GPa)
#
#
# Indices 1 2 3 4 5 6 
#
# 1 0.014375 -0.007217 -0.004531 -0.000315 0.001816 -0.002937
# 2 -0.007217 0.017920 -0.000039 0.005557 -0.001509 -0.000391
# 3 -0.004531 -0.000039 0.008742 -0.001507 0.000106 0.000484
# 4 -0.000315 0.005557 -0.001507 0.036874 -0.000597 0.002593
# 5 0.001816 -0.001509 0.000106 -0.000597 0.017512 -0.001500
# 6 -0.002937 -0.000391 0.000484 0.002593 -0.001500 0.026021
#
#
# Mechanical properties :
#
#
# Convention : Reuss Voigt Hill
#
# Bulk Modulus (GPa) = 57.26143 66.41449 61.83796
# Shear Modulus (GPa) = 33.14761 39.58251 36.36506
#
# Velocity S-wave (km/s) = 3.98787 4.35779 4.17692
# Velocity P-wave (km/s) = 6.97683 7.56200 7.27530
#
# Compressibility (1/GPa) = 0.01746376
#
# Stress axis : x y z
#
# Youngs Moduli (GPa) = 69.56505 55.80220 114.38634
#
# Poissons Ratio (x) = 0.40271 0.51827
# Poissons Ratio (y) = 0.50203 0.00450
# Poissons Ratio (z) = 0.31519 0.00219
#
# Static dielectric constant tensor:
#      x y z
#    x 1.738960 0.001690 -0.021800 
#    y 0.001690 1.736320 -0.015110 
#    z -0.021800 -0.015110 1.720640 
# 
# From -- ./inp_files/186702.got.cif
#   From: 2010.05.17/outbox.cif.g08.bks.cpg/sg2_94_cif.got.tgz:186702.got - 2010.06.03 11:33:40.
