data_PCOD9069267
_publ_section_title
;
Structure prediction by ZEFSAII (Michael W. Deem and Ramdas Pophale) SiO2 
 PCOD9069267
Probable space group: P -1
;
_chemical_formula_sum "Si O2"
_cell_formula_units_Z 16
_cell_length_a 11.053465
_cell_length_b 11.420414
_cell_length_c 8.468180
_cell_angle_alpha 52.365861
_cell_angle_beta 117.773740
_cell_angle_gamma 97.496449
_cell_volume 730.695157
_symmetry_space_group_name_H-M "P -1"
_symmetry_group_IT_number 2
_symmetry_cell_setting 'triclinic'
loop_
_space_group_symop_operation_xyz
x,y,z
-x,-y,-z
loop_
_atom_site_type_symbol
_atom_site_label
_atom_site_fract_x
_atom_site_fract_y
_atom_site_fract_z
Si Si1 0.891816 0.020001 0.277529
Si Si2 0.640609 0.259889 0.459357
Si Si3 0.088255 0.802102 0.145721
Si Si4 0.912663 0.711483 0.401616
Si Si5 0.640378 0.603958 0.216141
Si Si6 0.664448 0.634734 0.833999
Si Si7 0.028935 0.430867 0.903815
Si Si8 0.663979 0.287625 0.069553
O O1 0.767856 0.158247 0.143062
O O2 0.861677 0.855283 0.364679
O O3 0.958458 0.065717 0.118129
O O4 0.000000 0.000000 0.500000
O O5 0.770975 0.166258 0.714315
O O6 0.645927 0.427771 0.385060
O O7 0.479012 0.253503 0.404296
O O8 0.669866 0.250321 0.294616
O O9 0.986800 0.766404 0.250383
O O10 0.087728 0.655530 0.155243
O O11 0.777131 0.650798 0.322247
O O12 0.022633 0.572602 0.664433
O O13 0.631960 0.621287 0.008821
O O14 0.492138 0.701423 0.101886
O O15 0.815873 0.675765 0.895486
O O16 0.685146 0.461428 0.924513
O O17 0.000000 0.500000 0.000000
#
# Coordination Sequence:
#
# PCOD9069267 Si02
#       8
#     2   2   2   2   2   2   2   2
#     4  12  26  43  59  88 130 171 200 256 316 369
#     4   9  18  36  66  93 118 161 208 255 299 368
#     4  12  23  40  66  94 120 161 220 251 301 373
#     4  12  23  40  65  91 129 161 214 251 303 372
#     4   9  17  36  64  95 116 164 200 260 303 363
#     4   9  17  35  61  92 126 156 203 253 311 361
#     4  12  23  38  63  99 126 159 204 264 313 355
#     4   9  19  37  62  87 129 161 204 244 319 365
#
# _framework density 21.896957
#
# number of rings (size 3 to 8) (size 9 to 14) (size 15 to 20)
#    0.000    1.500    2.500    6.750    0.000    0.500 
#    2.250    1.875    2.750    2.250    0.000    0.000 
#    0.000    0.000    0.000    0.000    0.000    0.000 
#
# Total GULP energy -89226.935074 kJ/mol
# GULP energy per Si atom -5576.683442 kJ/mol
# Density = 2.184712 g / cm^3
# Si number density = 21.896957 Si / 1000 Ang^3
#
#
#
# Elastic Constant Matrix: (Units=GPa)
#
#
# Indices 1 2 3 4 5 6 
#
# 1 80.2884 13.9318 35.2654 11.5887 27.5189 3.9806
# 2 13.9318 88.3742 16.0608 6.0130 10.2833 -5.1895
# 3 35.2654 16.0608 79.6802 21.4346 2.9215 15.4725
# 4 11.5887 6.0130 21.4346 27.4291 5.8611 8.3985
# 5 27.5189 10.2833 2.9215 5.8611 27.7377 3.9047
# 6 3.9806 -5.1895 15.4725 8.3985 3.9047 23.0986
#
#
#
# Elastic Compliance Matrix: (Units=1/GPa)
#
#
# Indices 1 2 3 4 5 6 
#
# 1 0.026691 0.001785 -0.013388 0.001987 -0.027373 0.008674
# 2 0.001785 0.013100 -0.004287 -0.000939 -0.006967 0.007026
# 3 -0.013388 -0.004287 0.024605 -0.012048 0.016739 -0.013587
# 4 0.001987 -0.000939 -0.012048 0.050077 -0.009661 -0.009057
# 5 -0.027373 -0.006967 0.016739 -0.009661 0.068337 -0.016099
# 6 0.008674 0.007026 -0.013587 -0.009057 -0.016099 0.058492
#
#
# Mechanical properties :
#
#
# Convention : Reuss Voigt Hill
#
# Bulk Modulus (GPa) = 30.65971 42.09541 36.37756
# Shear Modulus (GPa) = 17.60842 27.85874 22.73358
#
# Velocity S-wave (km/s) = 2.83883 3.57075 3.22562
# Velocity P-wave (km/s) = 4.97770 6.02216 5.52467
#
# Compressibility (1/GPa) = 0.03261610
#
# Stress axis : x y z
#
# Youngs Moduli (GPa) = 37.46546 76.33381 40.64153
#
# Poissons Ratio (x) = -0.13623 0.54412
# Poissons Ratio (y) = -0.06686 0.17423
# Poissons Ratio (z) = 0.50160 0.32724
#
# Static dielectric constant tensor:
#      x y z
#    x 1.941920 0.021510 0.072050 
#    y 0.021510 1.819650 -0.005250 
#    z 0.072050 -0.005250 1.873120 
# 
# From -- ./inp_files/261727.got.cif
#   From: 2010.05.17/outbox.cif.g08.bks.cpg/sg2_131_cif.got.tgz:261727.got - 2010.06.03 11:33:40.
