data_PCOD9069955
_publ_section_title
;
Structure prediction by ZEFSAII (Michael W. Deem and Ramdas Pophale) SiO2 
 PCOD9069955
Probable space group: P -1
;
_chemical_formula_sum "Si O2"
_cell_formula_units_Z 10
_cell_length_a 7.626305
_cell_length_b 9.247630
_cell_length_c 11.084358
_cell_angle_alpha 39.936855
_cell_angle_beta 132.912765
_cell_angle_gamma 117.268817
_cell_volume 364.120844
_symmetry_space_group_name_H-M "P -1"
_symmetry_group_IT_number 2
_symmetry_cell_setting 'triclinic'
loop_
_space_group_symop_operation_xyz
x,y,z
-x,-y,-z
loop_
_atom_site_type_symbol
_atom_site_label
_atom_site_fract_x
_atom_site_fract_y
_atom_site_fract_z
Si Si1 0.554457 0.450221 0.812064
Si Si2 0.797329 0.499516 0.645845
Si Si3 0.263571 0.865362 0.356797
Si Si4 0.767639 0.982320 0.200551
Si Si5 0.309806 0.336795 0.975542
O O1 0.620044 0.446481 0.703115
O O2 0.490459 0.724040 0.625467
O O3 0.310470 0.379212 0.804108
O O4 0.745112 0.236891 0.083822
O O5 0.800846 0.314930 0.658352
O O6 0.065493 0.434543 0.863742
O O7 0.777707 0.761770 0.430836
O O8 0.018050 0.943071 0.266696
O O9 0.351133 0.073730 0.193726
O O10 0.500000 0.000000 0.000000
O O11 0.500000 0.500000 0.000000
#
# Coordination Sequence:
#
# PCOD9069955 Si02
#       5
#     2   2   2   2   2
#     4  12  26  45  78 107 150 191 243 301 373 426
#     4  12  25  46  76 114 146 191 242 307 370 431
#     4  12  25  47  77 110 149 189 244 309 368 427
#     4  12  24  43  76 115 149 184 238 307 372 432
#     4  12  29  50  73 106 151 201 247 297 360 441
#
# _framework density 27.463411000000001
#
# number of rings (size 3 to 8) (size 9 to 14) (size 15 to 20)
#    0.000    0.000    6.000    4.200    2.800    1.600 
#    0.000    2.000    0.000    0.000    0.000    0.000 
#    0.000    0.000    0.000    0.000    0.000    0.000 
#
# Total GULP energy -55817.681836 kJ/mol
# GULP energy per Si atom -5581.768184 kJ/mol
# Density = 2.740090 g / cm^3
# Si number density = 27.463411 Si / 1000 Ang^3
#
#
#
# Elastic Constant Matrix: (Units=GPa)
#
#
# Indices 1 2 3 4 5 6 
#
# 1 201.9159 51.3106 60.8506 -38.3597 -1.5731 18.7893
# 2 51.3106 103.6763 67.1121 -26.6386 0.1434 1.3754
# 3 60.8506 67.1121 222.5705 -92.1819 -7.0019 21.9031
# 4 -38.3597 -26.6386 -92.1819 51.0405 16.7901 -5.9848
# 5 -1.5731 0.1434 -7.0019 16.7901 78.9325 -15.7801
# 6 18.7893 1.3754 21.9031 -5.9848 -15.7801 36.2485
#
#
#
# Elastic Compliance Matrix: (Units=1/GPa)
#
#
# Indices 1 2 3 4 5 6 
#
# 1 0.007313 -0.003345 0.004777 0.012779 -0.003319 -0.005885
# 2 -0.003345 0.013674 -0.006938 -0.007980 0.001980 0.004952
# 3 0.004777 -0.006938 0.029135 0.054702 -0.012158 -0.016079
# 4 0.012779 -0.007980 0.054702 0.129649 -0.028532 -0.030390
# 5 -0.003319 0.001980 -0.012158 -0.028532 0.020204 0.013077
# 6 -0.005885 0.004952 -0.016079 -0.030390 0.013077 0.040840
#
#
# Mechanical properties :
#
#
# Convention : Reuss Voigt Hill
#
# Bulk Modulus (GPa) = 25.57073 98.52328 62.04700
# Shear Modulus (GPa) = 18.87762 56.50360 37.69061
#
# Velocity S-wave (km/s) = 2.62462 4.54079 3.70860
# Velocity P-wave (km/s) = 4.30301 7.96517 6.40156
#
# Compressibility (1/GPa) = 0.03910721
#
# Stress axis : x y z
#
# Youngs Moduli (GPa) = 136.75211 73.13354 34.32307
#
# Poissons Ratio (x) = 0.24464 -0.16395
# Poissons Ratio (y) = 0.45744 0.23815
# Poissons Ratio (z) = -0.65321 0.50743
#
# Static dielectric constant tensor:
#      x y z
#    x 2.228450 -0.223000 -0.028890 
#    y -0.223000 2.344070 0.155600 
#    z -0.028890 0.155600 2.250240 
# 
# From -- ./inp_files/165850.got.cif
#   From: 2010.05.17/outbox.cif.g08.bks.cpg/sg2_83_cif.got.tgz:165850.got - 2010.06.03 11:33:40.
