data_PCOD9069745
_publ_section_title
;
Structure prediction by ZEFSAII (Michael W. Deem and Ramdas Pophale) SiO2 
 PCOD9069745
Probable space group: P -1
;
_chemical_formula_sum "Si O2"
_cell_formula_units_Z 16
_cell_length_a 17.250976
_cell_length_b 9.626260
_cell_length_c 11.009867
_cell_angle_alpha 63.687582
_cell_angle_beta 36.754320
_cell_angle_gamma 45.324742
_cell_volume 746.370054
_symmetry_space_group_name_H-M "P -1"
_symmetry_group_IT_number 2
_symmetry_cell_setting 'triclinic'
loop_
_space_group_symop_operation_xyz
x,y,z
-x,-y,-z
loop_
_atom_site_type_symbol
_atom_site_label
_atom_site_fract_x
_atom_site_fract_y
_atom_site_fract_z
Si Si1 0.685884 0.055521 0.071556
Si Si2 0.159580 0.768569 0.853899
Si Si3 0.924755 0.698956 0.094774
Si Si4 0.144764 0.498921 0.373483
Si Si5 0.910596 0.908119 0.615797
Si Si6 0.359441 0.117451 0.413434
Si Si7 0.315241 0.846492 0.421045
Si Si8 0.640468 0.429194 0.079338
O O1 0.532893 0.052111 0.273827
O O2 0.625668 0.278096 0.085760
O O3 0.832529 0.892634 0.045298
O O4 0.766421 0.985513 0.864430
O O5 0.238175 0.771915 0.630419
O O6 0.295333 0.664223 0.830940
O O7 0.083420 0.658044 0.975601
O O8 0.000000 0.000000 0.000000
O O9 0.784860 0.769945 0.345206
O O10 0.000000 0.500000 0.000000
O O11 0.295541 0.279922 0.323699
O O12 0.000000 0.500000 0.500000
O O13 0.053134 0.665787 0.530313
O O14 0.221248 0.566025 0.159130
O O15 0.828338 0.979691 0.557633
O O16 0.000000 0.000000 0.500000
O O17 0.374273 0.936715 0.403571
O O18 0.466745 0.658505 0.223675
#
# Coordination Sequence:
#
# PCOD9069745 Si02
#       8
#     2   2   2   2   2   2   2   2
#     4  12  27  46  69 101 142 180 223 283 342 404
#     4  12  23  48  74  94 137 180 228 282 332 404
#     4  12  27  46  72 104 135 178 230 281 340 402
#     4  12  25  45  71  99 135 179 230 281 335 400
#     4  12  25  45  71  99 135 179 230 281 335 400
#     4  12  27  46  69 101 142 180 223 283 342 404
#     4  12  27  45  70 103 137 182 228 276 344 407
#     4  12  27  45  70 103 137 182 228 276 344 407
#
# _framework density 21.437087999999999
#
# number of rings (size 3 to 8) (size 9 to 14) (size 15 to 20)
#    0.000    0.000    5.000    4.500    7.000    2.000 
#    0.000    0.000    0.000    0.000    0.000    0.000 
#    0.000    0.000    0.000    0.000    0.000    0.000 
#
# Total GULP energy -89603.520464 kJ/mol
# GULP energy per Si atom -5600.220029 kJ/mol
# Density = 2.138830 g / cm^3
# Si number density = 21.437088 Si / 1000 Ang^3
#
#
#
# Elastic Constant Matrix: (Units=GPa)
#
#
# Indices 1 2 3 4 5 6 
#
# 1 39.5420 -14.1413 16.0850 -3.6738 -0.6902 10.9590
# 2 -14.1413 79.1212 12.8547 16.1757 0.5150 24.8506
# 3 16.0850 12.8547 126.1356 -3.9544 6.7783 22.8915
# 4 -3.6738 16.1757 -3.9544 31.2634 -1.4295 3.9025
# 5 -0.6902 0.5150 6.7783 -1.4295 38.0822 -7.4295
# 6 10.9590 24.8506 22.8915 3.9025 -7.4295 51.3565
#
#
#
# Elastic Compliance Matrix: (Units=1/GPa)
#
#
# Indices 1 2 3 4 5 6 
#
# 1 0.032950 0.009769 -0.003263 -0.000340 -0.001000 -0.010423
# 2 0.009769 0.019601 -0.001443 -0.007949 -0.002206 -0.010641
# 3 -0.003263 -0.001443 0.009248 0.001829 -0.002239 -0.003191
# 4 -0.000340 -0.007949 0.001829 0.036281 0.001240 0.000526
# 5 -0.001000 -0.002206 -0.002239 0.001240 0.027930 0.006225
# 6 -0.010423 -0.010641 -0.003191 0.000526 0.006225 0.029128
#
#
# Mechanical properties :
#
#
# Convention : Reuss Voigt Hill
#
# Bulk Modulus (GPa) = 13.90332 30.48840 22.19586
# Shear Modulus (GPa) = 29.58820 39.47379 34.53100
#
# Velocity S-wave (km/s) = 3.71918 4.29578 4.01784
# Velocity P-wave (km/s) = 4.99428 6.23363 5.64805
#
# Compressibility (1/GPa) = 0.07192525
#
# Stress axis : x y z
#
# Youngs Moduli (GPa) = 30.34899 51.01838 108.13381
#
# Poissons Ratio (x) = -0.49839 0.35281
# Poissons Ratio (y) = -0.29647 0.15601
# Poissons Ratio (z) = 0.09902 0.07361
#
# Static dielectric constant tensor:
#      x y z
#    x 1.792050 0.044100 -0.017390 
#    y 0.044100 1.816300 -0.006760 
#    z -0.017390 -0.006760 1.776880 
# 
# From -- ./inp_files/274120.got.cif
#   From: 2010.05.17/outbox.cif.g08.bks.cpg/sg2_138_cif.got.tgz:274120.got - 2010.06.03 11:33:40.
