data_PCOD9069774
_publ_section_title
;
Structure prediction by ZEFSAII (Michael W. Deem and Ramdas Pophale) SiO2 
 PCOD9069774
Probable space group: P -1
;
_chemical_formula_sum "Si O2"
_cell_formula_units_Z 14
_cell_length_a 13.616527
_cell_length_b 15.843837
_cell_length_c 8.820214
_cell_angle_alpha 110.557142
_cell_angle_beta 80.022432
_cell_angle_gamma 159.326849
_cell_volume 555.291280
_symmetry_space_group_name_H-M "P -1"
_symmetry_group_IT_number 2
_symmetry_cell_setting 'triclinic'
loop_
_space_group_symop_operation_xyz
x,y,z
-x,-y,-z
loop_
_atom_site_type_symbol
_atom_site_label
_atom_site_fract_x
_atom_site_fract_y
_atom_site_fract_z
Si Si1 0.172563 0.760157 0.492892
Si Si2 0.218745 0.457048 0.024876
Si Si3 0.141508 0.950586 0.622014
Si Si4 0.229643 0.239059 0.219186
Si Si5 0.047441 0.141050 0.712889
Si Si6 0.753334 0.168427 0.148495
Si Si7 0.812140 0.418153 0.088908
O O1 0.168286 0.865255 0.554424
O O2 0.160117 0.720174 0.643762
O O3 0.906519 0.492961 0.284933
O O4 0.500000 0.000000 0.500000
O O5 0.062641 0.399973 0.133347
O O6 0.567118 0.751755 0.181492
O O7 0.062955 0.227632 0.899592
O O8 0.136077 0.433848 0.872479
O O9 0.856039 0.736188 0.673679
O O10 0.119643 0.969400 0.467491
O O11 0.582874 0.546875 0.246602
O O12 0.141657 0.102141 0.306568
O O13 0.000000 0.000000 0.000000
O O14 0.500000 0.000000 0.000000
O O15 0.547109 0.902088 0.062914
O O16 0.000000 0.500000 0.000000
#
# Coordination Sequence:
#
# PCOD9069774 Si02
#       7
#     2   2   2   2   2   2   2
#     4  12  25  46  76 108 153 201 254 318 395 471
#     4  12  26  46  73 111 147 204 257 323 399 463
#     4  12  27  49  81 112 155 205 260 325 397 474
#     4  12  28  54  84 117 160 207 263 329 400 464
#     4  12  29  52  82 117 160 205 265 329 395 473
#     4  12  27  43  73 106 152 206 261 321 388 470
#     4  12  23  49  69 101 155 196 257 324 384 470
#
# _framework density 25.211991999999999
#
# number of rings (size 3 to 8) (size 9 to 14) (size 15 to 20)
#    0.000    0.000    7.143    1.286    4.000    2.857 
#    0.000    0.000    0.000    0.000    0.000    0.000 
#    0.000    0.000    0.000    0.000    0.000    0.000 
#
# Total GULP energy -78172.646363 kJ/mol
# GULP energy per Si atom -5583.760454 kJ/mol
# Density = 2.515461 g / cm^3
# Si number density = 25.211992 Si / 1000 Ang^3
#
#
#
# Elastic Constant Matrix: (Units=GPa)
#
#
# Indices 1 2 3 4 5 6 
#
# 1 107.2926 22.9891 35.5832 -10.6260 -7.0685 0.1296
# 2 22.9891 71.1407 17.6898 -10.3822 20.6550 3.6412
# 3 35.5832 17.6898 208.9854 -15.0063 8.5544 1.1752
# 4 -10.6260 -10.3822 -15.0063 38.0076 -5.3204 -1.4657
# 5 -7.0685 20.6550 8.5544 -5.3204 40.9724 0.4324
# 6 0.1296 3.6412 1.1752 -1.4657 0.4324 29.9390
#
#
#
# Elastic Compliance Matrix: (Units=1/GPa)
#
#
# Indices 1 2 3 4 5 6 
#
# 1 0.011300 -0.004363 -0.001607 0.002019 0.004740 0.000575
# 2 -0.004363 0.018846 -0.000267 0.002364 -0.009869 -0.002004
# 3 -0.001607 -0.000267 0.005225 0.001390 -0.001052 -0.000082
# 4 0.002019 0.002364 0.001390 0.028465 0.002552 0.001006
# 5 0.004740 -0.009869 -0.001052 0.002552 0.030741 0.000902
# 6 0.000575 -0.002004 -0.000082 0.001006 0.000902 0.033682
#
#
# Mechanical properties :
#
#
# Convention : Reuss Voigt Hill
#
# Bulk Modulus (GPa) = 43.67662 59.99364 51.83513
# Shear Modulus (GPa) = 33.70048 42.52758 38.11403
#
# Velocity S-wave (km/s) = 3.66004 4.11152 3.89233
# Velocity P-wave (km/s) = 5.93486 6.81079 6.38785
#
# Compressibility (1/GPa) = 0.02289555
#
# Stress axis : x y z
#
# Youngs Moduli (GPa) = 88.49842 53.06125 191.40212
#
# Poissons Ratio (x) = 0.23151 0.30758
# Poissons Ratio (y) = 0.38613 0.05118
# Poissons Ratio (z) = 0.14221 0.01419
#
# Static dielectric constant tensor:
#      x y z
#    x 2.006000 -0.155160 -0.011580 
#    y -0.155160 1.970840 -0.051880 
#    z -0.011580 -0.051880 1.979270 
# 
# From -- ./inp_files/317756.got.cif
#   From: 2010.05.17/outbox.cif.g08.bks.cpg/sg2_159_cif.got.tgz:317756.got - 2010.06.03 11:33:40.
