data_PCOD9069605
_publ_section_title
;
Structure prediction by ZEFSAII (Michael W. Deem and Ramdas Pophale) SiO2 
 PCOD9069605
Probable space group: P -1
;
_chemical_formula_sum "Si O2"
_cell_formula_units_Z 12
_cell_length_a 10.024194
_cell_length_b 5.218015
_cell_length_c 23.969343
_cell_angle_alpha 112.314287
_cell_angle_beta 24.662824
_cell_angle_gamma 110.345485
_cell_volume 483.973495
_symmetry_space_group_name_H-M "P -1"
_symmetry_group_IT_number 2
_symmetry_cell_setting 'triclinic'
loop_
_space_group_symop_operation_xyz
x,y,z
-x,-y,-z
loop_
_atom_site_type_symbol
_atom_site_label
_atom_site_fract_x
_atom_site_fract_y
_atom_site_fract_z
Si Si1 0.679260 0.682418 0.792987
Si Si2 0.787618 0.039702 0.437485
Si Si3 0.264358 0.181485 0.947235
Si Si4 0.718902 0.400057 0.240115
Si Si5 0.346530 0.901591 0.380536
Si Si6 0.181157 0.503589 0.660446
O O1 0.470536 0.400645 0.849880
O O2 0.906652 0.719409 0.764950
O O3 0.453189 0.941315 0.888538
O O4 0.971935 0.700055 0.637641
O O5 0.653641 0.007837 0.547098
O O6 0.987417 0.776370 0.320251
O O7 0.500000 0.000000 0.500000
O O8 0.521318 0.409854 0.688956
O O9 0.067114 0.383950 0.080020
O O10 0.000000 0.000000 0.000000
O O11 0.585992 0.088685 0.269421
O O12 0.736933 0.499482 0.305995
O O13 0.000000 0.000000 0.500000
O O14 0.500000 0.500000 0.500000
#
# Coordination Sequence:
#
# PCOD9069605 Si02
#       6
#     2   2   2   2   2   2
#     4  12  26  47  80 107 143 204 253 300 373 444
#     4  12  23  46  79 115 151 190 242 315 386 444
#     4  12  30  52  71 102 153 209 255 301 359 448
#     4  12  27  49  72 106 154 194 246 316 364 444
#     4  12  27  45  76 111 149 193 247 314 383 443
#     4  12  23  45  79 114 150 185 248 316 385 442
#
# _framework density 24.794746
#
# number of rings (size 3 to 8) (size 9 to 14) (size 15 to 20)
#    0.000    0.000    6.667    2.000    2.333    2.667 
#    0.000    0.000    0.000    0.000    0.000    0.000 
#    0.000    0.000    0.000    0.000    0.000    0.000 
#
# Total GULP energy -66950.476690 kJ/mol
# GULP energy per Si atom -5579.206391 kJ/mol
# Density = 2.473831 g / cm^3
# Si number density = 24.794746 Si / 1000 Ang^3
#
#
#
# Elastic Constant Matrix: (Units=GPa)
#
#
# Indices 1 2 3 4 5 6 
#
# 1 140.0055 52.2417 63.8424 12.9273 -32.4751 -28.0521
# 2 52.2417 160.1950 59.1999 -26.1833 -9.1076 -29.5929
# 3 63.8424 59.1999 98.5184 -4.8617 -21.3023 -8.1640
# 4 12.9273 -26.1833 -4.8617 46.0713 -4.4991 -11.9187
# 5 -32.4751 -9.1076 -21.3023 -4.4991 39.4503 13.7704
# 6 -28.0521 -29.5929 -8.1640 -11.9187 13.7704 42.5755
#
#
#
# Elastic Compliance Matrix: (Units=1/GPa)
#
#
# Indices 1 2 3 4 5 6 
#
# 1 0.012745 -0.001605 -0.006067 -0.003743 0.005240 0.003376
# 2 -0.001605 0.011934 -0.005771 0.008788 -0.004147 0.009932
# 3 -0.006067 -0.005771 0.018198 -0.000805 0.005709 -0.006591
# 4 -0.003743 0.008788 -0.000805 0.030761 -0.002483 0.012902
# 5 0.005240 -0.004147 0.005709 -0.002483 0.035132 -0.010393
# 6 0.003376 0.009932 -0.006591 0.012902 -0.010393 0.038325
#
#
# Mechanical properties :
#
#
# Convention : Reuss Voigt Hill
#
# Bulk Modulus (GPa) = 62.53107 83.25412 72.89260
# Shear Modulus (GPa) = 27.88440 40.51508 34.19974
#
# Velocity S-wave (km/s) = 3.35716 4.04669 3.71794
# Velocity P-wave (km/s) = 6.34835 7.44879 6.92048
#
# Compressibility (1/GPa) = 0.01599205
#
# Stress axis : x y z
#
# Youngs Moduli (GPa) = 78.45912 83.79562 54.94975
#
# Poissons Ratio (x) = 0.13446 0.33339
# Poissons Ratio (y) = 0.12589 0.31712
# Poissons Ratio (z) = 0.47602 0.48360
#
# Static dielectric constant tensor:
#      x y z
#    x 2.057520 -0.256810 -0.089830 
#    y -0.256810 2.681090 0.199650 
#    z -0.089830 0.199650 2.040450 
# 
# From -- ./inp_files/586237.got.cif
#   From: 2010.05.17/outbox.cif.g08.bks.cpg/sg2_294_cif.got.tgz:586237.got - 2010.06.03 11:33:40.
