data_PCOD9069607
_publ_section_title
;
Structure prediction by ZEFSAII (Michael W. Deem and Ramdas Pophale) SiO2 
 PCOD9069607
Probable space group: P -1
;
_chemical_formula_sum "Si O2"
_cell_formula_units_Z 16
_cell_length_a 5.321261
_cell_length_b 9.166902
_cell_length_c 19.614462
_cell_angle_alpha 130.269771
_cell_angle_beta 60.520863
_cell_angle_gamma 118.178790
_cell_volume 618.173578
_symmetry_space_group_name_H-M "P -1"
_symmetry_group_IT_number 2
_symmetry_cell_setting 'triclinic'
loop_
_space_group_symop_operation_xyz
x,y,z
-x,-y,-z
loop_
_atom_site_type_symbol
_atom_site_label
_atom_site_fract_x
_atom_site_fract_y
_atom_site_fract_z
Si Si1 0.058549 0.712215 0.868956
Si Si2 0.985644 0.155336 0.228285
Si Si3 0.444358 0.494724 0.925734
Si Si4 0.525694 0.863518 0.271444
Si Si5 0.781832 0.136571 0.967791
Si Si6 0.526316 0.459397 0.706311
Si Si7 0.687477 0.336515 0.506113
Si Si8 0.107992 0.093183 0.440452
O O1 0.153985 0.840521 0.827562
O O2 0.280741 0.569090 0.800112
O O3 0.728860 0.581230 0.865997
O O4 0.017915 0.817043 0.977195
O O5 0.164669 0.376265 0.281916
O O6 0.772262 0.065187 0.290035
O O7 0.182344 0.998584 0.141081
O O8 0.378980 0.270900 0.841368
O O9 0.500000 0.500000 0.000000
O O10 0.243355 0.648770 0.986460
O O11 0.502312 0.735904 0.304374
O O12 0.217127 0.932472 0.330199
O O13 0.500000 0.000000 0.000000
O O14 0.508765 0.409118 0.614027
O O15 0.414396 0.260723 0.466131
O O16 0.000000 0.500000 0.500000
O O17 0.837198 0.166226 0.465110
O O18 0.000000 0.000000 0.500000
#
# Coordination Sequence:
#
# PCOD9069607 Si02
#       8
#     2   2   2   2   2   2   2   2
#     4  12  24  44  72 100 149 198 249 316 384 454
#     4  12  27  46  74 110 147 200 261 311 391 463
#     4  12  28  46  70 109 146 205 253 315 388 456
#     4  12  27  50  76 111 153 200 262 316 391 472
#     4  12  23  46  66 103 149 195 256 316 379 457
#     4  12  27  49  75 111 154 201 251 328 383 471
#     4  12  29  53  85 119 164 207 268 332 409 480
#     4  12  28  53  82 120 159 211 265 332 404 484
#
# _framework density 25.882695999999999
#
# number of rings (size 3 to 8) (size 9 to 14) (size 15 to 20)
#    0.000    0.000    6.250    2.625    8.750    1.000 
#    0.000    0.000    0.000    0.000    0.000    0.000 
#    0.000    0.000    0.000    0.000    0.000    0.000 
#
# Total GULP energy -89394.021758 kJ/mol
# GULP energy per Si atom -5587.126360 kJ/mol
# Density = 2.582379 g / cm^3
# Si number density = 25.882696 Si / 1000 Ang^3
#
#
#
# Elastic Constant Matrix: (Units=GPa)
#
#
# Indices 1 2 3 4 5 6 
#
# 1 68.4905 19.1174 -1.7549 15.6090 3.6822 -5.7844
# 2 19.1174 158.0319 9.1447 -2.6618 -0.2360 12.6902
# 3 -1.7549 9.1447 99.0020 -9.9531 9.9130 -7.6020
# 4 15.6090 -2.6618 -9.9531 28.8983 0.4231 -6.1528
# 5 3.6822 -0.2360 9.9130 0.4231 41.2518 2.4966
# 6 -5.7844 12.6902 -7.6020 -6.1528 2.4966 42.9342
#
#
#
# Elastic Compliance Matrix: (Units=1/GPa)
#
#
# Indices 1 2 3 4 5 6 
#
# 1 0.017656 -0.002437 -0.000107 -0.009386 -0.001578 0.001827
# 2 -0.002437 0.006880 -0.000802 0.001160 0.000581 -0.002371
# 3 -0.000107 -0.000802 0.011148 0.004507 -0.002902 0.003011
# 4 -0.009386 0.001160 0.004507 0.042484 -0.000997 0.005337
# 5 -0.001578 0.000581 -0.002902 -0.000997 0.025245 -0.002509
# 6 0.001827 -0.002371 0.003011 0.005337 -0.002509 0.025682
#
#
# Mechanical properties :
#
#
# Convention : Reuss Voigt Hill
#
# Bulk Modulus (GPa) = 34.49314 42.05987 38.27650
# Shear Modulus (GPa) = 34.37554 42.55134 38.46344
#
# Velocity S-wave (km/s) = 3.64830 4.05903 3.85914
# Velocity P-wave (km/s) = 5.57696 6.18491 5.88879
#
# Compressibility (1/GPa) = 0.02899127
#
# Stress axis : x y z
#
# Youngs Moduli (GPa) = 56.63717 145.35108 89.70227
#
# Poissons Ratio (x) = 0.35420 0.00962
# Poissons Ratio (y) = 0.13802 0.07197
# Poissons Ratio (z) = 0.00607 0.11662
#
# Static dielectric constant tensor:
#      x y z
#    x 2.342470 0.156560 0.222740 
#    y 0.156560 1.597370 -0.361760 
#    z 0.222740 -0.361760 1.710850 
# 
# From -- ./inp_files/582567.got.cif
#   From: 2010.05.17/outbox.cif.g08.bks.cpg/sg2_292_cif.got.tgz:582567.got - 2010.06.03 11:33:40.
