data_PCOD9069096
_publ_section_title
;
Structure prediction by ZEFSAII (Michael W. Deem and Ramdas Pophale) SiO2 
 PCOD9069096
Probable space group: P -1
;
_chemical_formula_sum "Si O2"
_cell_formula_units_Z 15
_cell_length_a 11.426770
_cell_length_b 21.122741
_cell_length_c 8.570988
_cell_angle_alpha 147.708049
_cell_angle_beta 140.661202
_cell_angle_gamma 34.453545
_cell_volume 604.962420
_symmetry_space_group_name_H-M "P -1"
_symmetry_group_IT_number 2
_symmetry_cell_setting 'triclinic'
loop_
_space_group_symop_operation_xyz
x,y,z
-x,-y,-z
loop_
_atom_site_type_symbol
_atom_site_label
_atom_site_fract_x
_atom_site_fract_y
_atom_site_fract_z
Si Si1 0.806055 0.982361 0.321925
Si Si2 0.403982 0.163899 0.757895
Si Si3 0.531771 0.767005 0.695027
Si Si4 0.050318 0.675247 0.545710
Si Si5 0.641010 0.426032 0.839736
Si Si6 0.180556 0.898877 0.097009
Si Si7 0.500000 0.500000 0.500000
Si Si8 0.061643 0.329058 0.236932
O O1 0.601523 0.097075 0.259578
O O2 0.789287 0.015537 0.557084
O O3 0.000000 0.000000 0.500000
O O4 0.851911 0.833485 0.016439
O O5 0.590026 0.189404 0.934390
O O6 0.181844 0.250962 0.621347
O O7 0.500000 0.000000 0.500000
O O8 0.380069 0.203212 0.995385
O O9 0.375127 0.712047 0.469506
O O10 0.732889 0.661454 0.579180
O O11 0.240764 0.563167 0.403306
O O12 0.109027 0.796029 0.876858
O O13 0.029366 0.622251 0.582849
O O14 0.544116 0.502960 0.739924
O O15 0.879931 0.388574 0.043171
O O16 0.500000 0.500000 0.000000
O O17 0.000000 0.000000 0.000000
#
# Coordination Sequence:
#
# PCOD9069096 Si02
#       8
#     2   2   2   2   2   2   1   2
#     4  12  22  42  73 109 150 189 236 301 387 460
#     4  12  24  42  71 112 150 187 242 310 379 455
#     4  12  26  46  74 112 149 195 245 304 387 456
#     4  12  25  47  70 107 149 195 250 310 371 449
#     4  12  27  53  77 103 145 201 259 313 370 431
#     4  12  24  41  70 104 147 193 239 304 383 450
#     4  12  28  50  76 104 144 202 260 312 366 438
#     4  12  25  47  75 109 150 192 245 315 381 450
#
# _framework density 24.794929
#
# number of rings (size 3 to 8) (size 9 to 14) (size 15 to 20)
#    0.000    0.000    5.333    5.200    1.867    0.533 
#    2.400    3.333    0.000    0.000    0.000    0.000 
#    0.000    0.000    0.000    0.000    0.000    0.000 
#
# Total GULP energy -83915.223132 kJ/mol
# GULP energy per Si atom -5594.348209 kJ/mol
# Density = 2.473849 g / cm^3
# Si number density = 24.794929 Si / 1000 Ang^3
#
#
#
# Elastic Constant Matrix: (Units=GPa)
#
#
# Indices 1 2 3 4 5 6 
#
# 1 136.3317 44.9525 38.7468 -14.3635 -21.1322 -22.0255
# 2 44.9525 135.8558 42.7103 -45.9174 -0.0937 -6.5083
# 3 38.7468 42.7103 71.9708 -9.8781 -14.0170 8.7114
# 4 -14.3635 -45.9174 -9.8781 52.2877 3.8281 4.2686
# 5 -21.1322 -0.0937 -14.0170 3.8281 57.8423 -6.2376
# 6 -22.0255 -6.5083 8.7114 4.2686 -6.2376 49.6028
#
#
#
# Elastic Compliance Matrix: (Units=1/GPa)
#
#
# Indices 1 2 3 4 5 6 
#
# 1 0.010742 -0.001896 -0.004741 -0.000335 0.003422 0.005813
# 2 -0.001896 0.013425 -0.006172 0.010242 -0.002761 0.000775
# 3 -0.004741 -0.006172 0.021063 -0.002460 0.002873 -0.006041
# 4 -0.000335 0.010242 -0.002460 0.027847 -0.002664 -0.001104
# 5 0.003422 -0.002761 0.002873 -0.002664 0.019770 0.003368
# 6 0.005813 0.000775 -0.006041 -0.001104 0.003368 0.024422
#
#
# Mechanical properties :
#
#
# Convention : Reuss Voigt Hill
#
# Bulk Modulus (GPa) = 50.99076 66.33083 58.66080
# Shear Modulus (GPa) = 33.46161 46.46313 39.96237
#
# Velocity S-wave (km/s) = 3.67759 4.33355 4.01897
# Velocity P-wave (km/s) = 6.21631 7.20065 6.72651
#
# Compressibility (1/GPa) = 0.01961140
#
# Stress axis : x y z
#
# Youngs Moduli (GPa) = 93.09355 74.48611 47.47713
#
# Poissons Ratio (x) = 0.14125 0.22509
# Poissons Ratio (y) = 0.17653 0.29303
# Poissons Ratio (z) = 0.44135 0.45973
#
# Static dielectric constant tensor:
#      x y z
#    x 2.024940 0.067300 0.096090 
#    y 0.067300 2.083120 0.180420 
#    z 0.096090 0.180420 2.047000 
# 
# From -- ./inp_files/284497.got.cif
#   From: 2010.05.17/outbox.cif.g08.bks.cpg/sg2_143_cif.got.tgz:284497.got - 2010.06.03 11:33:40.
