data_PCOD9069837
_publ_section_title
;
Structure prediction by ZEFSAII (Michael W. Deem and Ramdas Pophale) SiO2 
 PCOD9069837
Probable space group: P -1
;
_chemical_formula_sum "Si O2"
_cell_formula_units_Z 12
_cell_length_a 22.073488
_cell_length_b 18.885805
_cell_length_c 5.358507
_cell_angle_alpha 98.260871
_cell_angle_beta 97.753093
_cell_angle_gamma 12.441102
_cell_volume 476.101089
_symmetry_space_group_name_H-M "P -1"
_symmetry_group_IT_number 2
_symmetry_cell_setting 'triclinic'
loop_
_space_group_symop_operation_xyz
x,y,z
-x,-y,-z
loop_
_atom_site_type_symbol
_atom_site_label
_atom_site_fract_x
_atom_site_fract_y
_atom_site_fract_z
Si Si1 0.947996 0.727289 0.418428
Si Si2 0.562554 0.749722 0.288565
Si Si3 0.686574 0.152372 0.301785
Si Si4 0.847027 0.294735 0.963418
Si Si5 0.343122 0.707925 0.265644
Si Si6 0.265928 0.228643 0.151228
O O1 0.160752 0.538905 0.567308
O O2 0.128678 0.448929 0.346070
O O3 0.667168 0.025347 0.553029
O O4 0.830981 0.909571 0.220256
O O5 0.672063 0.565270 0.068340
O O6 0.415564 0.989470 0.230989
O O7 0.650533 0.215276 0.606994
O O8 0.377348 0.502243 0.183330
O O9 0.909819 0.953515 0.211251
O O10 0.015694 0.071001 0.184909
O O11 0.500000 0.500000 0.500000
O O12 0.500000 0.500000 0.000000
O O13 0.000000 0.500000 0.000000
O O14 0.500000 0.000000 0.000000
#
# Coordination Sequence:
#
# PCOD9069837 Si02
#       6
#     2   2   2   2   2   2
#     4  12  24  43  72 106 148 200 259 317 385 461
#     4  12  24  43  72 106 148 200 259 317 385 461
#     4  12  27  50  79 113 156 204 259 318 397 473
#     4  12  27  50  79 113 156 204 259 318 397 473
#     4  12  28  54  82 119 158 205 262 332 402 482
#     4  12  24  42  64 102 150 200 258 315 383 457
#
# _framework density 25.204730999999999
#
# number of rings (size 3 to 8) (size 9 to 14) (size 15 to 20)
#    0.000    0.000    3.333    7.000    0.000    1.333 
#    0.000    0.000    0.000    0.000    0.000    0.000 
#    0.000    0.000    0.000    0.000    0.000    0.000 
#
# Total GULP energy -67065.253278 kJ/mol
# GULP energy per Si atom -5588.771107 kJ/mol
# Density = 2.514736 g / cm^3
# Si number density = 25.204731 Si / 1000 Ang^3
#
#
#
# Elastic Constant Matrix: (Units=GPa)
#
#
# Indices 1 2 3 4 5 6 
#
# 1 101.9441 66.8553 36.7993 1.4666 -3.3047 -10.3451
# 2 66.8553 233.7456 85.5997 -15.2048 3.4584 -23.0077
# 3 36.7993 85.5997 115.1255 -7.6261 24.6473 -16.2640
# 4 1.4666 -15.2048 -7.6261 74.5293 -0.0329 3.2812
# 5 -3.3047 3.4584 24.6473 -0.0329 57.9566 -2.9653
# 6 -10.3451 -23.0077 -16.2640 3.2812 -2.9653 84.5404
#
#
#
# Elastic Compliance Matrix: (Units=1/GPa)
#
#
# Indices 1 2 3 4 5 6 
#
# 1 0.012623 -0.002796 -0.002377 -0.001080 0.001919 0.000436
# 2 -0.002796 0.006737 -0.004227 0.000967 0.001272 0.000685
# 3 -0.002377 -0.004227 0.014012 0.000570 -0.005789 0.001029
# 4 -0.001080 0.000967 0.000570 0.013708 -0.000370 -0.000304
# 5 0.001919 0.001272 -0.005789 -0.000370 0.019758 0.000175
# 6 0.000436 0.000685 0.001029 -0.000304 0.000175 0.012284
#
#
# Mechanical properties :
#
#
# Convention : Reuss Voigt Hill
#
# Bulk Modulus (GPa) = 68.62532 92.14710 80.38621
# Shear Modulus (GPa) = 48.64790 60.84265 54.74528
#
# Velocity S-wave (km/s) = 4.39807 4.91851 4.66555
# Velocity P-wave (km/s) = 7.28539 8.30027 7.80934
#
# Compressibility (1/GPa) = 0.01457188
#
# Stress axis : x y z
#
# Youngs Moduli (GPa) = 79.22251 148.42587 71.36930
#
# Poissons Ratio (x) = 0.41494 0.16965
# Poissons Ratio (y) = 0.22147 0.30170
# Poissons Ratio (z) = 0.18831 0.62744
#
# Static dielectric constant tensor:
#      x y z
#    x 2.405000 0.396100 0.014690 
#    y 0.396100 2.165250 0.038730 
#    z 0.014690 0.038730 2.089910 
# 
# From -- ./inp_files/120556.got.cif
#   From: 2010.05.17/outbox.cif.g08.bks.cpg/sg2_61_cif.got.tgz:120556.got - 2010.06.03 11:33:40.
