data_PCOD9069651
_publ_section_title
;
Structure prediction by ZEFSAII (Michael W. Deem and Ramdas Pophale) SiO2 
 PCOD9069651
Probable space group: P -1
;
_chemical_formula_sum "Si O2"
_cell_formula_units_Z 10
_cell_length_a 8.814837
_cell_length_b 11.107530
_cell_length_c 12.203853
_cell_angle_alpha 156.123772
_cell_angle_beta 65.025506
_cell_angle_gamma 116.454276
_cell_volume 432.640665
_symmetry_space_group_name_H-M "P -1"
_symmetry_group_IT_number 2
_symmetry_cell_setting 'triclinic'
loop_
_space_group_symop_operation_xyz
x,y,z
-x,-y,-z
loop_
_atom_site_type_symbol
_atom_site_label
_atom_site_fract_x
_atom_site_fract_y
_atom_site_fract_z
Si Si1 0.405454 0.418404 0.847776
Si Si2 0.763123 0.728629 0.597423
Si Si3 0.502296 0.911679 0.666018
Si Si4 0.030990 0.168994 0.745510
Si Si5 0.816002 0.069774 0.080946
O O1 0.494449 0.245236 0.583414
O O2 0.227132 0.211688 0.753504
O O3 0.500000 0.500000 0.000000
O O4 0.390436 0.751053 0.084608
O O5 0.598817 0.729525 0.572254
O O6 0.823921 0.406094 0.310489
O O7 0.910611 0.981731 0.714659
O O8 0.736045 0.831405 0.815107
O O9 0.315011 0.940924 0.787631
O O10 0.000000 0.000000 0.500000
O O11 0.000000 0.500000 0.000000
O O12 0.000000 0.000000 0.000000
#
# Coordination Sequence:
#
# PCOD9069651 Si02
#       5
#     2   2   2   2   2
#     4  12  26  46  74 112 151 191 235 311 369 431
#     4  12  24  47  79 101 147 195 246 300 360 441
#     4  12  25  49  75 107 147 195 251 292 365 444
#     4  12  23  46  75 109 145 186 249 297 365 442
#     4  12  28  48  71 110 146 193 245 310 367 423
#
# _framework density 23.113869999999999
#
# number of rings (size 3 to 8) (size 9 to 14) (size 15 to 20)
#    0.000    0.000    4.000    6.000    2.800    0.000 
#    0.000    0.000    0.000    0.000    0.000    0.000 
#    0.000    0.000    0.000    0.000    0.000    0.000 
#
# Total GULP energy -56043.808738 kJ/mol
# GULP energy per Si atom -5604.380874 kJ/mol
# Density = 2.306126 g / cm^3
# Si number density = 23.113870 Si / 1000 Ang^3
#
#
#
# Elastic Constant Matrix: (Units=GPa)
#
#
# Indices 1 2 3 4 5 6 
#
# 1 164.0311 40.8707 57.7028 -24.4748 0.3622 16.3632
# 2 40.8707 74.2169 27.0692 -10.2341 -3.8479 19.9107
# 3 57.7028 27.0692 176.4651 -17.4515 3.5353 0.4236
# 4 -24.4748 -10.2341 -17.4515 60.4301 -12.1631 -3.1722
# 5 0.3622 -3.8479 3.5353 -12.1631 46.5698 6.5504
# 6 16.3632 19.9107 0.4236 -3.1722 6.5504 29.8684
#
#
#
# Elastic Compliance Matrix: (Units=1/GPa)
#
#
# Indices 1 2 3 4 5 6 
#
# 1 0.008059 -0.002665 -0.002013 0.002262 0.000819 -0.002549
# 2 -0.002665 0.019354 -0.001970 0.001787 0.003936 -0.012087
# 3 -0.002013 -0.001970 0.006713 0.000760 -0.000821 0.002582
# 4 0.002262 0.001787 0.000760 0.018959 0.005246 -0.001578
# 5 0.000819 0.003936 -0.000821 0.005246 0.024327 -0.007839
# 6 -0.002549 -0.012087 0.002582 -0.001578 -0.007839 0.044449
#
#
# Mechanical properties :
#
#
# Convention : Reuss Voigt Hill
#
# Bulk Modulus (GPa) = 48.01307 73.99983 61.00645
# Shear Modulus (GPa) = 35.18653 46.64500 40.91576
#
# Velocity S-wave (km/s) = 3.90591 4.49715 4.21192
# Velocity P-wave (km/s) = 6.41553 7.68444 7.07848
#
# Compressibility (1/GPa) = 0.02082766
#
# Stress axis : x y z
#
# Youngs Moduli (GPa) = 124.09088 51.67007 148.97222
#
# Poissons Ratio (x) = 0.13772 0.29985
# Poissons Ratio (y) = 0.33076 0.29352
# Poissons Ratio (z) = 0.24977 0.10181
#
# Static dielectric constant tensor:
#      x y z
#    x 1.853180 0.010790 -0.015670 
#    y 0.010790 1.888270 -0.009130 
#    z -0.015670 -0.009130 1.828340 
# 
# From -- ./inp_files/18076.got.cif
#   From: 2010.05.17/outbox.cif.g08.bks.cpg/sg2_10_cif.got.tgz:18076.got - 2010.06.03 11:33:40.
