data_PCOD9069051
_publ_section_title
;
Structure prediction by ZEFSAII (Michael W. Deem and Ramdas Pophale) SiO2 
 PCOD9069051
Probable space group: P -1
;
_chemical_formula_sum "Si O2"
_cell_formula_units_Z 16
_cell_length_a 26.521732
_cell_length_b 9.309458
_cell_length_c 21.407239
_cell_angle_alpha 147.059318
_cell_angle_beta 161.000871
_cell_angle_gamma 41.454712
_cell_volume 906.263982
_symmetry_space_group_name_H-M "P -1"
_symmetry_group_IT_number 2
_symmetry_cell_setting 'triclinic'
loop_
_space_group_symop_operation_xyz
x,y,z
-x,-y,-z
loop_
_atom_site_type_symbol
_atom_site_label
_atom_site_fract_x
_atom_site_fract_y
_atom_site_fract_z
Si Si1 0.080589 0.318702 0.227819
Si Si2 0.555339 0.320897 0.599117
Si Si3 0.904024 0.236760 0.255447
Si Si4 0.981510 0.152758 0.177375
Si Si5 0.216119 0.762041 0.338431
Si Si6 0.994601 0.675155 0.155701
Si Si7 0.685921 0.840550 0.633926
Si Si8 0.579040 0.865604 0.761594
O O1 0.257249 0.348520 0.418981
O O2 0.061036 0.363257 0.293783
O O3 0.994807 0.502908 0.154522
O O4 0.000000 0.000000 0.000000
O O5 0.457023 0.315738 0.546245
O O6 0.631465 0.629010 0.777051
O O7 0.449158 0.212107 0.373320
O O8 0.652520 0.096948 0.649427
O O9 0.928209 0.270397 0.221234
O O10 0.000000 0.500000 0.500000
O O11 0.973811 0.972975 0.252733
O O12 0.719702 0.139320 0.025594
O O13 0.110704 0.974962 0.275308
O O14 0.825607 0.962555 0.892245
O O15 0.403581 0.867975 0.583403
O O16 0.159388 0.688814 0.315956
O O17 0.144483 0.494010 0.114704
#
# Coordination Sequence:
#
# PCOD9069051 Si02
#       8
#     2   2   2   2   2   2   2   2
#     4  10  18  28  54  83 116 135 178 220 288 346
#     4  10  20  29  53  87 125 143 163 228 302 346
#     4  11  25  42  55  73 112 163 204 232 265 320
#     4  10  20  36  55  84 117 146 185 225 279 345
#     4  10  19  32  58  90 114 141 176 237 296 340
#     4  10  19  34  57  84 116 143 182 227 283 342
#     4  10  18  32  50  91 125 142 161 217 301 363
#     4  11  21  33  54  82 113 147 195 228 277 334
#
# _framework density 17.654900000000001
#
# number of rings (size 3 to 8) (size 9 to 14) (size 15 to 20)
#    0.000    1.750    3.750    3.000    7.000    0.000 
#    0.000    3.125    0.000    0.000    0.000    3.500 
#    0.000    0.000    0.000    0.000    0.000    0.000 
#
# Total GULP energy -89156.425013 kJ/mol
# GULP energy per Si atom -5572.276563 kJ/mol
# Density = 1.761472 g / cm^3
# Si number density = 17.654900 Si / 1000 Ang^3
#
#
#
# Elastic Constant Matrix: (Units=GPa)
#
#
# Indices 1 2 3 4 5 6 
#
# 1 121.2288 42.5615 45.5395 2.9020 17.9725 15.4988
# 2 42.5615 79.7093 24.9059 -7.1831 1.9085 14.9643
# 3 45.5395 24.9059 87.6950 10.7718 11.5385 -7.6234
# 4 2.9020 -7.1831 10.7718 16.4563 -5.6240 0.5429
# 5 17.9725 1.9085 11.5385 -5.6240 22.6710 -5.6219
# 6 15.4988 14.9643 -7.6234 0.5429 -5.6219 35.2358
#
#
#
# Elastic Compliance Matrix: (Units=1/GPa)
#
#
# Indices 1 2 3 4 5 6 
#
# 1 0.014585 -0.005402 -0.004303 -0.006028 -0.012122 -0.006893
# 2 -0.005402 0.020114 -0.006750 0.017343 0.008714 -0.006503
# 3 -0.004303 -0.006750 0.019604 -0.018203 -0.008550 0.007917
# 4 -0.006028 0.017343 -0.018203 0.093288 0.034592 -0.004570
# 5 -0.012122 0.008714 -0.008550 0.034592 0.068440 0.010168
# 6 -0.006893 -0.006503 0.007917 -0.004570 0.010168 0.037580
#
#
# Mechanical properties :
#
#
# Convention : Reuss Voigt Hill
#
# Bulk Modulus (GPa) = 46.74414 57.18300 51.96357
# Shear Modulus (GPa) = 17.02707 26.58101 21.80404
#
# Velocity S-wave (km/s) = 3.10891 3.88440 3.51809
# Velocity P-wave (km/s) = 6.27863 7.25105 6.78229
#
# Compressibility (1/GPa) = 0.02139306
#
# Stress axis : x y z
#
# Youngs Moduli (GPa) = 68.56541 49.71654 51.01035
#
# Poissons Ratio (x) = 0.26856 0.21952
# Poissons Ratio (y) = 0.37038 0.34429
# Poissons Ratio (z) = 0.29506 0.33556
#
# Static dielectric constant tensor:
#      x y z
#    x 1.679310 -0.000760 0.072190 
#    y -0.000760 1.654750 -0.046530 
#    z 0.072190 -0.046530 1.598240 
# 
# From -- ./inp_files/391366.got.cif
#   From: 2010.05.17/outbox.cif.g08.bks.cpg/sg2_196_cif.got.tgz:391366.got - 2010.06.03 11:33:40.
