data_PCOD9069236
_publ_section_title
;
Structure prediction by ZEFSAII (Michael W. Deem and Ramdas Pophale) SiO2 
 PCOD9069236
Probable space group: P -1
;
_chemical_formula_sum "Si O2"
_cell_formula_units_Z 16
_cell_length_a 8.007329
_cell_length_b 7.409101
_cell_length_c 17.030834
_cell_angle_alpha 71.668121
_cell_angle_beta 142.794011
_cell_angle_gamma 107.212267
_cell_volume 578.141476
_symmetry_space_group_name_H-M "P -1"
_symmetry_group_IT_number 2
_symmetry_cell_setting 'triclinic'
loop_
_space_group_symop_operation_xyz
x,y,z
-x,-y,-z
loop_
_atom_site_type_symbol
_atom_site_label
_atom_site_fract_x
_atom_site_fract_y
_atom_site_fract_z
Si Si1 0.603021 0.216492 0.984262
Si Si2 0.185740 0.830529 0.776317
Si Si3 0.668581 0.372153 0.697651
Si Si4 0.153442 0.133429 0.605415
Si Si5 0.977148 0.773266 0.005430
Si Si6 0.289078 0.955932 0.354362
Si Si7 0.395988 0.701424 0.605512
Si Si8 0.366039 0.554608 0.781272
O O1 0.852487 0.241243 0.010860
O O2 0.377596 0.343809 0.846269
O O3 0.674327 0.290476 0.088041
O O4 0.500000 0.000000 0.000000
O O5 0.120093 0.667217 0.709927
O O6 0.977329 0.944737 0.732679
O O7 0.308828 0.004459 0.743361
O O8 0.372098 0.269776 0.623870
O O9 0.873009 0.330664 0.852222
O O10 0.594757 0.592152 0.636863
O O11 0.747949 0.252397 0.667527
O O12 0.905309 0.238071 0.540118
O O13 0.000000 0.000000 0.500000
O O14 0.664613 0.672367 0.897315
O O15 0.000000 0.000000 0.000000
O O16 0.435664 0.105204 0.326549
O O17 0.500000 0.000000 0.500000
O O18 0.348629 0.566300 0.680687
#
# Coordination Sequence:
#
# PCOD9069236 Si02
#       8
#     2   2   2   2   2   2   2   2
#     4  12  26  46  71 114 157 197 256 331 388 448
#     4  12  25  44  75 103 152 192 253 315 397 436
#     4  12  26  46  78 109 144 204 259 310 383 467
#     4  12  22  47  76 107 148 201 249 323 382 463
#     4  12  25  47  77 109 154 206 264 308 384 477
#     4  12  26  50  71 111 153 196 246 331 391 446
#     4  12  25  47  80 108 151 200 268 302 383 477
#     4  12  26  48  77 113 152 215 259 313 384 476
#
# _framework density 27.674887999999999
#
# number of rings (size 3 to 8) (size 9 to 14) (size 15 to 20)
#    0.000    0.000    5.000    5.625    1.750    0.500 
#    2.250    0.000    0.000    0.000    0.000    0.000 
#    0.000    0.000    0.000    0.000    0.000    0.000 
#
# Total GULP energy -89557.517530 kJ/mol
# GULP energy per Si atom -5597.344846 kJ/mol
# Density = 2.761190 g / cm^3
# Si number density = 27.674888 Si / 1000 Ang^3
#
#
#
# Elastic Constant Matrix: (Units=GPa)
#
#
# Indices 1 2 3 4 5 6 
#
# 1 140.9396 43.9627 32.8706 1.0107 5.0865 -31.1784
# 2 43.9627 156.5128 29.2365 -17.6529 5.3524 -20.9127
# 3 32.8706 29.2365 129.5149 -21.4528 -14.9455 3.3198
# 4 1.0107 -17.6529 -21.4528 55.2123 2.4719 7.9243
# 5 5.0865 5.3524 -14.9455 2.4719 47.8804 -2.1354
# 6 -31.1784 -20.9127 3.3198 7.9243 -2.1354 56.0654
#
#
#
# Elastic Compliance Matrix: (Units=1/GPa)
#
#
# Indices 1 2 3 4 5 6 
#
# 1 0.009440 -0.001701 -0.002695 -0.002433 -0.001302 0.005069
# 2 -0.001701 0.007537 -0.001131 0.001813 -0.001035 0.001637
# 3 -0.002695 -0.001131 0.009715 0.003740 0.003122 -0.002906
# 4 -0.002433 0.001813 0.003740 0.020740 -0.000018 -0.003830
# 5 -0.001302 -0.001035 0.003122 -0.000018 0.022095 -0.000451
# 6 0.005069 0.001637 -0.002906 -0.003830 -0.000451 0.021962
#
#
# Mechanical properties :
#
#
# Convention : Reuss Voigt Hill
#
# Bulk Modulus (GPa) = 63.94655 71.01186 67.47921
# Shear Modulus (GPa) = 46.40166 53.22477 49.81321
#
# Velocity S-wave (km/s) = 4.09916 4.39021 4.24718
# Velocity P-wave (km/s) = 6.74986 7.17032 6.96327
#
# Compressibility (1/GPa) = 0.01563806
#
# Stress axis : x y z
#
# Youngs Moduli (GPa) = 105.93001 132.68232 102.93712
#
# Poissons Ratio (x) = 0.22566 0.27744
# Poissons Ratio (y) = 0.18016 0.11641
# Poissons Ratio (z) = 0.28550 0.15004
#
# Static dielectric constant tensor:
#      x y z
#    x 2.192400 -0.007320 -0.011870 
#    y -0.007320 2.226530 0.034980 
#    z -0.011870 0.034980 2.334960 
# 
# From -- ./inp_files/557143.got.cif
#   From: 2010.05.17/outbox.cif.g08.bks.cpg/sg2_279_cif.got.tgz:557143.got - 2010.06.03 11:33:40.
