data_PCOD9069031
_publ_section_title
;
Structure prediction by ZEFSAII (Michael W. Deem and Ramdas Pophale) SiO2 
 PCOD9069031
Probable space group: P -1
;
_chemical_formula_sum "Si O2"
_cell_formula_units_Z 15
_cell_length_a 19.646883
_cell_length_b 11.265432
_cell_length_c 8.495110
_cell_angle_alpha 115.031489
_cell_angle_beta 47.233468
_cell_angle_gamma 149.764002
_cell_volume 623.382463
_symmetry_space_group_name_H-M "P -1"
_symmetry_group_IT_number 2
_symmetry_cell_setting 'triclinic'
loop_
_space_group_symop_operation_xyz
x,y,z
-x,-y,-z
loop_
_atom_site_type_symbol
_atom_site_label
_atom_site_fract_x
_atom_site_fract_y
_atom_site_fract_z
Si Si1 0.340930 0.890549 0.269983
Si Si2 0.174092 0.211609 0.961587
Si Si3 0.196279 0.449601 0.331284
Si Si4 0.100440 0.891348 0.136266
Si Si5 0.414246 0.654248 0.625483
Si Si6 0.424548 0.128597 0.846391
Si Si7 0.000000 0.500000 0.500000
Si Si8 0.130490 0.538441 0.984775
O O1 0.175076 0.578931 0.389047
O O2 0.216179 0.826645 0.320608
O O3 0.426026 0.068859 0.381007
O O4 0.500000 0.000000 0.000000
O O5 0.164694 0.320987 0.159794
O O6 0.167423 0.075571 0.003981
O O7 0.356460 0.458097 0.707488
O O8 0.000000 0.000000 0.000000
O O9 0.407870 0.689937 0.193515
O O10 0.057604 0.248975 0.577738
O O11 0.006036 0.655117 0.056594
O O12 0.273265 0.056790 0.061900
O O13 0.473569 0.709194 0.385602
O O14 0.233070 0.525228 0.841268
O O15 0.303207 0.848080 0.855156
O O16 0.024263 0.451351 0.259401
#
# Coordination Sequence:
#
# PCOD9069031 Si02
#       8
#     2   2   2   2   2   2   1   2
#     4  12  22  40  69 107 139 178 225 295 351 407
#     4  12  26  47  72 101 141 193 237 282 349 421
#     4  12  24  46  75 100 140 185 234 295 347 412
#     4  12  27  46  71 104 142 188 235 282 348 420
#     4  12  23  45  73  99 147 183 232 288 354 412
#     4  12  25  45  73 105 138 180 233 296 350 413
#     4  12  24  38  68 110 144 174 226 286 358 418
#     4  12  22  44  72 106 141 180 226 294 357 409
#
# _framework density 24.062275
#
# number of rings (size 3 to 8) (size 9 to 14) (size 15 to 20)
#    0.000    0.000    6.667    3.600    0.000    1.067 
#    0.000    0.000    0.000    0.000    0.000    0.000 
#    0.000    0.000    0.000    0.000    0.000    0.000 
#
# Total GULP energy -83796.954444 kJ/mol
# GULP energy per Si atom -5586.463630 kJ/mol
# Density = 2.400751 g / cm^3
# Si number density = 24.062275 Si / 1000 Ang^3
#
#
#
# Elastic Constant Matrix: (Units=GPa)
#
#
# Indices 1 2 3 4 5 6 
#
# 1 114.7642 40.2978 44.5503 -12.8044 11.1445 3.1603
# 2 40.2978 112.0200 34.4418 -3.1645 11.2099 13.9849
# 3 44.5503 34.4418 121.4712 -22.8845 0.0046 15.9230
# 4 -12.8044 -3.1645 -22.8845 20.7629 0.5541 18.0707
# 5 11.1445 11.2099 0.0046 0.5541 51.8374 -11.0100
# 6 3.1603 13.9849 15.9230 18.0707 -11.0100 52.8320
#
#
#
# Elastic Compliance Matrix: (Units=1/GPa)
#
#
# Indices 1 2 3 4 5 6 
#
# 1 0.011455 -0.002866 -0.001960 0.006226 -0.002323 -0.001949
# 2 -0.002866 0.011093 -0.001413 0.001311 -0.002499 -0.003308
# 3 -0.001960 -0.001413 0.017696 0.032682 -0.003167 -0.016681
# 4 0.006226 0.001311 0.032682 0.143628 -0.016573 -0.063150
# 5 -0.002323 -0.002499 -0.003167 -0.016573 0.023108 0.012239
# 6 -0.001949 -0.003308 -0.016681 -0.063150 0.012239 0.049098
#
#
# Mechanical properties :
#
#
# Convention : Reuss Voigt Hill
#
# Bulk Modulus (GPa) = 36.01728 65.20392 50.61060
# Shear Modulus (GPa) = 17.99787 40.35082 29.17435
#
# Velocity S-wave (km/s) = 2.73787 4.09948 3.48581
# Velocity P-wave (km/s) = 4.99954 7.04020 6.10573
#
# Compressibility (1/GPa) = 0.02776445
#
# Stress axis : x y z
#
# Youngs Moduli (GPa) = 87.30047 90.14885 56.51107
#
# Poissons Ratio (x) = 0.25840 0.11075
# Poissons Ratio (y) = 0.25024 0.07986
# Poissons Ratio (z) = 0.17109 0.12739
#
# Static dielectric constant tensor:
#      x y z
#    x 1.607070 -0.045670 0.162530 
#    y -0.045670 1.906010 -0.021670 
#    z 0.162530 -0.021670 1.860980 
# 
# From -- ./inp_files/345425.got.cif
#   From: 2010.05.17/outbox.cif.g08.bks.cpg/sg2_173_cif.got.tgz:345425.got - 2010.06.03 11:33:40.
