data_PCOD9069946
_publ_section_title
;
Structure prediction by ZEFSAII (Michael W. Deem and Ramdas Pophale) SiO2 
 PCOD9069946
Probable space group: P -1
;
_chemical_formula_sum "Si O2"
_cell_formula_units_Z 15
_cell_length_a 11.744778
_cell_length_b 8.419076
_cell_length_c 16.993110
_cell_angle_alpha 147.785012
_cell_angle_beta 134.823925
_cell_angle_gamma 61.374006
_cell_volume 603.981598
_symmetry_space_group_name_H-M "P -1"
_symmetry_group_IT_number 2
_symmetry_cell_setting 'triclinic'
loop_
_space_group_symop_operation_xyz
x,y,z
-x,-y,-z
loop_
_atom_site_type_symbol
_atom_site_label
_atom_site_fract_x
_atom_site_fract_y
_atom_site_fract_z
Si Si1 0.562069 0.257500 0.704791
Si Si2 0.407632 0.687967 0.590654
Si Si3 0.325229 0.054607 0.955761
Si Si4 0.748048 0.869443 0.380168
Si Si5 0.000000 0.000000 0.000000
Si Si6 0.722934 0.259036 0.040180
Si Si7 0.012826 0.855793 0.630459
Si Si8 0.179391 0.073694 0.283043
O O1 0.408934 0.249839 0.684965
O O2 0.500000 0.000000 0.500000
O O3 0.709352 0.154543 0.773678
O O4 0.638449 0.597695 0.847779
O O5 0.500000 0.500000 0.500000
O O6 0.306665 0.430557 0.495860
O O7 0.272190 0.806818 0.526025
O O8 0.547847 0.993950 0.820389
O O9 0.243604 0.810311 0.881387
O O10 0.210653 0.029200 0.812259
O O11 0.500000 0.000000 0.000000
O O12 0.720022 0.612953 0.190231
O O13 0.920502 0.893292 0.520742
O O14 0.945219 0.953441 0.860878
O O15 0.865799 0.196671 0.031153
O O16 0.917136 0.988338 0.707478
O O17 0.000000 0.500000 0.500000
#
# Coordination Sequence:
#
# PCOD9069946 Si02
#       8
#     2   2   2   2   1   2   2   2
#     4  12  24  43  74 112 146 191 251 312 371 454
#     4  12  26  45  77 107 146 205 251 301 378 461
#     4  12  26  46  79 110 143 201 250 313 388 446
#     4  12  25  48  75 114 150 194 256 316 380 447
#     4  12  24  48  70 102 154 198 240 310 384 430
#     4  12  25  47  77 105 156 197 256 311 380 458
#     4  12  25  48  74 109 153 190 248 323 378 441
#     4  12  26  46  72 104 152 194 247 313 369 443
#
# _framework density 24.835193
#
# number of rings (size 3 to 8) (size 9 to 14) (size 15 to 20)
#    0.000    0.000    8.000    1.200    1.867    1.600 
#    0.000    2.667    0.000    0.000    0.000    0.000 
#    0.000    0.000    0.000    0.000    0.000    0.000 
#
# Total GULP energy -83801.218007 kJ/mol
# GULP energy per Si atom -5586.747867 kJ/mol
# Density = 2.477867 g / cm^3
# Si number density = 24.835193 Si / 1000 Ang^3
#
#
#
# Elastic Constant Matrix: (Units=GPa)
#
#
# Indices 1 2 3 4 5 6 
#
# 1 87.7290 13.9882 21.9168 5.6485 -11.5099 -36.7905
# 2 13.9882 160.3108 48.6912 -12.1860 1.9996 -25.1784
# 3 21.9168 48.6912 83.2063 -17.8840 -15.0727 -11.0495
# 4 5.6485 -12.1860 -17.8840 54.7094 -0.9694 1.4076
# 5 -11.5099 1.9996 -15.0727 -0.9694 25.2911 0.5897
# 6 -36.7905 -25.1784 -11.0495 1.4076 0.5897 41.8082
#
#
#
# Elastic Compliance Matrix: (Units=1/GPa)
#
#
# Indices 1 2 3 4 5 6 
#
# 1 0.020864 0.001861 -0.003628 -0.003285 0.006628 0.018539
# 2 0.001861 0.008601 -0.005437 -0.000250 -0.003210 0.005434
# 3 -0.003628 -0.005437 0.019000 0.005604 0.010359 -0.001780
# 4 -0.003285 -0.000250 0.005604 0.020500 0.002704 -0.002289
# 5 0.006628 -0.003210 0.010359 0.002704 0.048950 0.005855
# 6 0.018539 0.005434 -0.001780 -0.002289 0.005855 0.043029
#
#
# Mechanical properties :
#
#
# Convention : Reuss Voigt Hill
#
# Bulk Modulus (GPa) = 29.36291 55.60426 42.48359
# Shear Modulus (GPa) = 26.77988 40.80506 33.79247
#
# Velocity S-wave (km/s) = 3.28732 4.05783 3.69273
# Velocity P-wave (km/s) = 5.12419 6.66278 5.94348
#
# Compressibility (1/GPa) = 0.03405657
#
# Stress axis : x y z
#
# Youngs Moduli (GPa) = 47.92926 116.25890 52.63078
#
# Poissons Ratio (x) = -0.21633 0.19096
# Poissons Ratio (y) = -0.08919 0.28617
# Poissons Ratio (z) = 0.17390 0.63213
#
# Static dielectric constant tensor:
#      x y z
#    x 1.946160 0.010890 0.038110 
#    y 0.010890 2.017640 -0.031390 
#    z 0.038110 -0.031390 2.010540 
# 
# From -- ./inp_files/157351.got.cif
#   From: 2010.05.17/outbox.cif.g08.bks.cpg/sg2_79_cif.got.tgz:157351.got - 2010.06.03 11:33:40.
