data_PCOD9069210
_publ_section_title
;
Structure prediction by ZEFSAII (Michael W. Deem and Ramdas Pophale) SiO2 
 PCOD9069210
Probable space group: P -1
;
_chemical_formula_sum "Si O2"
_cell_formula_units_Z 14
_cell_length_a 9.271298
_cell_length_b 14.272291
_cell_length_c 12.561103
_cell_angle_alpha 149.320093
_cell_angle_beta 132.308794
_cell_angle_gamma 66.413635
_cell_volume 552.318689
_symmetry_space_group_name_H-M "P -1"
_symmetry_group_IT_number 2
_symmetry_cell_setting 'triclinic'
loop_
_space_group_symop_operation_xyz
x,y,z
-x,-y,-z
loop_
_atom_site_type_symbol
_atom_site_label
_atom_site_fract_x
_atom_site_fract_y
_atom_site_fract_z
Si Si1 0.749751 0.952381 0.355310
Si Si2 0.236178 0.609421 0.167422
Si Si3 0.679606 0.644126 0.433837
Si Si4 0.302028 0.053856 0.448999
Si Si5 0.327773 0.068417 0.938947
Si Si6 0.156365 0.318851 0.216403
Si Si7 0.035153 0.393339 0.637762
O O1 0.712223 0.152604 0.555778
O O2 0.629853 0.871164 0.104758
O O3 0.688442 0.838517 0.327329
O O4 0.000000 0.000000 0.500000
O O5 0.420261 0.550118 0.246323
O O6 0.000000 0.500000 0.000000
O O7 0.184333 0.524088 0.938358
O O8 0.681197 0.812736 0.515651
O O9 0.821828 0.717006 0.683043
O O10 0.804076 0.550347 0.330021
O O11 0.500000 0.000000 0.500000
O O12 0.072725 0.845641 0.113954
O O13 0.095446 0.852949 0.636712
O O14 0.500000 0.000000 0.000000
O O15 0.327513 0.260262 0.187204
O O16 0.149440 0.533341 0.405176
#
# Coordination Sequence:
#
# PCOD9069210 Si02
#       7
#     2   2   2   2   2   2   2
#     4  12  22  46  69 104 143 189 244 299 362 438
#     4  12  25  46  72 104 149 193 247 308 366 442
#     4  12  26  49  74 108 151 198 247 314 372 437
#     4  12  24  43  77 106 143 197 245 301 367 434
#     4  12  27  46  75 112 152 195 247 308 377 440
#     4  12  26  49  73 111 153 192 252 307 371 443
#     4  12  25  48  76 107 149 198 251 304 375 445
#
# _framework density 25.347684999999998
#
# number of rings (size 3 to 8) (size 9 to 14) (size 15 to 20)
#    0.000    0.000    7.143    2.143    0.000    0.571 
#    2.571    0.000    0.000    0.000    0.000    0.000 
#    0.000    0.000    0.000    0.000    0.000    0.000 
#
# Total GULP energy -78302.779917 kJ/mol
# GULP energy per Si atom -5593.055708 kJ/mol
# Density = 2.528999 g / cm^3
# Si number density = 25.347685 Si / 1000 Ang^3
#
#
#
# Elastic Constant Matrix: (Units=GPa)
#
#
# Indices 1 2 3 4 5 6 
#
# 1 142.9297 39.4932 51.3117 -10.2047 -39.4641 -24.9283
# 2 39.4932 172.3732 45.7153 -6.3197 -25.9173 -19.9901
# 3 51.3117 45.7153 82.7915 -5.7749 -36.7294 -1.3858
# 4 -10.2047 -6.3197 -5.7749 55.8120 6.9117 -6.1098
# 5 -39.4641 -25.9173 -36.7294 6.9117 59.7272 -7.6594
# 6 -24.9283 -19.9901 -1.3858 -6.1098 -7.6594 62.2077
#
#
#
# Elastic Compliance Matrix: (Units=1/GPa)
#
#
# Indices 1 2 3 4 5 6 
#
# 1 0.010935 0.000057 -0.004389 0.001484 0.005029 0.005067
# 2 0.000057 0.007182 -0.003311 0.000583 0.001368 0.002483
# 3 -0.004389 -0.003311 0.020069 -0.000230 0.007847 -0.001432
# 4 0.001484 0.000583 -0.000230 0.018597 -0.000738 0.002513
# 5 0.005029 0.001368 0.007847 -0.000738 0.026313 0.005797
# 6 0.005067 0.002483 -0.001432 0.002513 0.005797 0.019832
#
#
# Mechanical properties :
#
#
# Convention : Reuss Voigt Hill
#
# Bulk Modulus (GPa) = 43.67337 74.57054 59.12196
# Shear Modulus (GPa) = 39.73068 52.98767 46.35918
#
# Velocity S-wave (km/s) = 3.96337 4.57709 4.28124
# Velocity P-wave (km/s) = 6.18155 7.57733 6.91475
#
# Compressibility (1/GPa) = 0.02289725
#
# Stress axis : x y z
#
# Youngs Moduli (GPa) = 91.45336 139.24486 49.82920
#
# Poissons Ratio (x) = -0.00792 0.21871
# Poissons Ratio (y) = -0.00520 0.16501
# Poissons Ratio (z) = 0.40140 0.46110
#
# Static dielectric constant tensor:
#      x y z
#    x 2.079730 0.062940 0.100220 
#    y 0.062940 2.017440 0.067610 
#    z 0.100220 0.067610 2.016030 
# 
# From -- ./inp_files/183266.got.cif
#   From: 2010.05.17/outbox.cif.g08.bks.cpg/sg2_92_cif.got.tgz:183266.got - 2010.06.03 11:33:40.
