data_PCOD9069110
_publ_section_title
;
Structure prediction by ZEFSAII (Michael W. Deem and Ramdas Pophale) SiO2 
 PCOD9069110
Probable space group: P -1
;
_chemical_formula_sum "Si O2"
_cell_formula_units_Z 11
_cell_length_a 8.744075
_cell_length_b 9.190892
_cell_length_c 8.179956
_cell_angle_alpha 78.495572
_cell_angle_beta 129.075875
_cell_angle_gamma 109.812004
_cell_volume 480.041103
_symmetry_space_group_name_H-M "P -1"
_symmetry_group_IT_number 2
_symmetry_cell_setting 'triclinic'
loop_
_space_group_symop_operation_xyz
x,y,z
-x,-y,-z
loop_
_atom_site_type_symbol
_atom_site_label
_atom_site_fract_x
_atom_site_fract_y
_atom_site_fract_z
Si Si1 0.372798 0.859059 0.840659
Si Si2 0.000000 0.000000 0.500000
Si Si3 0.940720 0.443548 0.662405
Si Si4 0.474559 0.824304 0.574059
Si Si5 0.702019 0.682072 0.497288
Si Si6 0.364046 0.540026 0.044798
O O1 0.509648 0.829743 0.789529
O O2 0.175051 0.905496 0.634731
O O3 0.319030 0.703593 0.942393
O O4 0.500000 0.000000 0.000000
O O5 0.181298 0.168361 0.564002
O O6 0.755689 0.287009 0.577275
O O7 0.850865 0.575054 0.650546
O O8 0.000000 0.500000 0.500000
O O9 0.137667 0.424767 0.897053
O O10 0.625789 0.753810 0.588588
O O11 0.500000 0.000000 0.500000
O O12 0.506587 0.573282 0.292638
O O13 0.500000 0.500000 0.000000
#
# Coordination Sequence:
#
# PCOD9069110 Si02
#       6
#     2   1   2   2   2   2
#     4  12  24  45  71  99 138 184 237 281 347 424
#     4  12  22  42  76  96 140 190 230 276 360 404
#     4  12  24  45  74 101 140 189 233 284 353 416
#     4  12  25  45  70 104 144 181 231 299 347 406
#     4  12  25  44  71 106 144 182 235 292 347 414
#     4  12  24  41  73 104 133 186 238 281 342 426
#
# _framework density 22.914705999999999
#
# number of rings (size 3 to 8) (size 9 to 14) (size 15 to 20)
#    0.000    0.000    9.091    0.545    0.000    0.727 
#    0.000    2.727    0.000    0.000    0.000    0.000 
#    0.000    0.000    0.000    0.000    0.000    0.000 
#
# Total GULP energy -61300.868152 kJ/mol
# GULP energy per Si atom -5572.806196 kJ/mol
# Density = 2.286255 g / cm^3
# Si number density = 22.914706 Si / 1000 Ang^3
#
#
#
# Elastic Constant Matrix: (Units=GPa)
#
#
# Indices 1 2 3 4 5 6 
#
# 1 136.8811 35.3304 64.8112 23.6577 19.7903 -29.4168
# 2 35.3304 144.7936 14.2275 13.1812 23.1049 8.0650
# 3 64.8112 14.2275 80.3010 17.5110 11.5459 -16.4127
# 4 23.6577 13.1812 17.5110 42.8041 -9.2350 4.5924
# 5 19.7903 23.1049 11.5459 -9.2350 31.2301 1.6354
# 6 -29.4168 8.0650 -16.4127 4.5924 1.6354 55.5402
#
#
#
# Elastic Compliance Matrix: (Units=1/GPa)
#
#
# Indices 1 2 3 4 5 6 
#
# 1 0.015370 -0.001351 -0.007970 -0.007348 -0.008325 0.006835
# 2 -0.001351 0.008652 0.001173 -0.003799 -0.007045 -0.001104
# 3 -0.007970 0.001173 0.021386 -0.006214 -0.005698 0.002610
# 4 -0.007348 -0.003799 -0.006214 0.036626 0.021058 -0.008825
# 5 -0.008325 -0.007045 -0.005698 0.021058 0.051277 -0.008321
# 6 0.006835 -0.001104 0.002610 -0.008825 -0.008321 0.023531
#
#
# Mechanical properties :
#
#
# Convention : Reuss Voigt Hill
#
# Bulk Modulus (GPa) = 34.34874 65.63489 49.99182
# Shear Modulus (GPa) = 27.34615 42.42200 34.88408
#
# Velocity S-wave (km/s) = 3.45829 4.30734 3.90596
# Velocity P-wave (km/s) = 5.56496 7.31047 6.49660
#
# Compressibility (1/GPa) = 0.02911315
#
# Stress axis : x y z
#
# Youngs Moduli (GPa) = 65.06081 115.57875 46.76043
#
# Poissons Ratio (x) = 0.15610 0.37267
# Poissons Ratio (y) = 0.08787 -0.05485
# Poissons Ratio (z) = 0.51852 -0.13556
#
# Static dielectric constant tensor:
#      x y z
#    x 1.877920 0.038710 -0.021710 
#    y 0.038710 1.909770 -0.044660 
#    z -0.021710 -0.044660 1.966670 
# 
# From -- ./inp_files/148593.got.cif
#   From: 2010.05.17/outbox.cif.g08.bks.cpg/sg2_75_cif.got.tgz:148593.got - 2010.06.03 11:33:40.
