data_PCOD9069665
_publ_section_title
;
Structure prediction by ZEFSAII (Michael W. Deem and Ramdas Pophale) SiO2 
 PCOD9069665
Probable space group: P -1
;
_chemical_formula_sum "Si O2"
_cell_formula_units_Z 16
_cell_length_a 9.634189
_cell_length_b 27.033759
_cell_length_c 9.108441
_cell_angle_alpha 28.153933
_cell_angle_beta 45.535050
_cell_angle_gamma 40.731954
_cell_volume 726.348127
_symmetry_space_group_name_H-M "P -1"
_symmetry_group_IT_number 2
_symmetry_cell_setting 'triclinic'
loop_
_space_group_symop_operation_xyz
x,y,z
-x,-y,-z
loop_
_atom_site_type_symbol
_atom_site_label
_atom_site_fract_x
_atom_site_fract_y
_atom_site_fract_z
Si Si1 0.935697 0.874606 0.183740
Si Si2 0.892305 0.910297 0.792223
Si Si3 0.503435 0.507996 0.801353
Si Si4 0.474926 0.948384 0.812517
Si Si5 0.582790 0.227007 0.870931
Si Si6 0.900542 0.535931 0.820055
Si Si7 0.044085 0.681940 0.132253
Si Si8 0.863767 0.699258 0.895341
O O1 0.958988 0.762388 0.550108
O O2 0.178808 0.862575 0.029824
O O3 0.754223 0.977606 0.137289
O O4 0.858869 0.876837 0.069664
O O5 0.669693 0.946398 0.773787
O O6 0.000000 0.000000 0.500000
O O7 0.055875 0.797448 0.880195
O O8 0.440439 0.642295 0.463585
O O9 0.729620 0.424383 0.785103
O O10 0.500000 0.500000 0.000000
O O11 0.331899 0.461607 0.999121
O O12 0.500000 0.000000 0.500000
O O13 0.474161 0.824294 0.100731
O O14 0.392027 0.239641 0.089731
O O15 0.915950 0.645507 0.446473
O O16 0.000000 0.500000 0.000000
O O17 0.034474 0.433150 0.877839
O O18 0.928045 0.707727 0.992988
#
# Coordination Sequence:
#
# PCOD9069665 Si02
#       8
#     2   2   2   2   2   2   2   2
#     4  12  26  47  74 108 152 189 247 312 371 431
#     4  12  29  51  74 112 148 195 249 312 374 435
#     4  12  25  43  75 112 145 195 249 297 367 448
#     4  12  25  49  77 105 144 201 247 303 369 442
#     4  12  24  44  77 107 146 194 249 296 366 445
#     4  12  26  45  72 112 153 192 240 305 377 435
#     4  12  25  48  76 104 150 200 247 304 363 448
#     4  12  23  46  77 105 151 196 249 300 364 447
#
# _framework density 22.028005
#
# number of rings (size 3 to 8) (size 9 to 14) (size 15 to 20)
#    0.000    0.000    6.250    3.375    0.000    3.500 
#    2.250    0.000    0.000    0.000    0.000    0.000 
#    0.000    0.000    0.000    0.000    0.000    0.000 
#
# Total GULP energy -89462.336035 kJ/mol
# GULP energy per Si atom -5591.396002 kJ/mol
# Density = 2.197787 g / cm^3
# Si number density = 22.028005 Si / 1000 Ang^3
#
#
#
# Elastic Constant Matrix: (Units=GPa)
#
#
# Indices 1 2 3 4 5 6 
#
# 1 156.9655 40.1742 52.2521 16.6931 0.6289 -2.8728
# 2 40.1742 138.3422 29.8317 -10.5444 -8.2431 -17.3582
# 3 52.2521 29.8317 96.4055 -1.7312 -9.4425 7.9603
# 4 16.6931 -10.5444 -1.7312 42.7422 8.2867 -0.6897
# 5 0.6289 -8.2431 -9.4425 8.2867 34.6876 11.3586
# 6 -2.8728 -17.3582 7.9603 -0.6897 11.3586 50.9570
#
#
#
# Elastic Compliance Matrix: (Units=1/GPa)
#
#
# Indices 1 2 3 4 5 6 
#
# 1 0.008734 -0.001851 -0.004402 -0.003815 -0.001131 0.000750
# 2 -0.001851 0.008811 -0.001959 0.002904 -0.000174 0.003281
# 3 -0.004402 -0.001959 0.014177 0.000846 0.004631 -0.004151
# 4 -0.003815 0.002904 0.000846 0.026880 -0.006215 0.002391
# 5 -0.001131 -0.000174 0.004631 -0.006215 0.034366 -0.008591
# 6 0.000750 0.003281 -0.004151 0.002391 -0.008591 0.023380
#
#
# Mechanical properties :
#
#
# Convention : Reuss Voigt Hill
#
# Bulk Modulus (GPa) = 65.37268 70.69216 68.03242
# Shear Modulus (GPa) = 36.26548 43.64102 39.95325
#
# Velocity S-wave (km/s) = 4.06191 4.45585 4.26343
# Velocity P-wave (km/s) = 7.19307 7.65731 7.42882
#
# Compressibility (1/GPa) = 0.01529691
#
# Stress axis : x y z
#
# Youngs Moduli (GPa) = 114.49496 113.49290 70.53888
#
# Poissons Ratio (x) = 0.21008 0.31053
# Poissons Ratio (y) = 0.21194 0.13819
# Poissons Ratio (z) = 0.50404 0.22234
#
# Static dielectric constant tensor:
#      x y z
#    x 2.012640 0.012990 0.055240 
#    y 0.012990 1.805100 -0.075100 
#    z 0.055240 -0.075100 2.013110 
# 
# From -- ./inp_files/225814.got.cif
#   From: 2010.05.17/outbox.cif.g08.bks.cpg/sg2_113_cif.got.tgz:225814.got - 2010.06.03 11:33:40.
