data_PCOD9069249
_publ_section_title
;
Structure prediction by ZEFSAII (Michael W. Deem and Ramdas Pophale) SiO2 
 PCOD9069249
Probable space group: P -1
;
_chemical_formula_sum "Si O2"
_cell_formula_units_Z 16
_cell_length_a 9.361344
_cell_length_b 17.800224
_cell_length_c 9.398461
_cell_angle_alpha 79.034560
_cell_angle_beta 55.117233
_cell_angle_gamma 39.816696
_cell_volume 724.296279
_symmetry_space_group_name_H-M "P -1"
_symmetry_group_IT_number 2
_symmetry_cell_setting 'triclinic'
loop_
_space_group_symop_operation_xyz
x,y,z
-x,-y,-z
loop_
_atom_site_type_symbol
_atom_site_label
_atom_site_fract_x
_atom_site_fract_y
_atom_site_fract_z
Si Si1 0.615755 0.385389 0.392135
Si Si2 0.255456 0.269174 0.583301
Si Si3 0.310715 0.117891 0.176811
Si Si4 0.347248 0.751312 0.161206
Si Si5 0.331648 0.008565 0.478104
Si Si6 0.638141 0.145678 0.130497
Si Si7 0.375472 0.559752 0.204873
Si Si8 0.749196 0.612778 0.223231
O O1 0.500000 0.500000 0.500000
O O2 0.527287 0.441773 0.262691
O O3 0.429851 0.384319 0.576150
O O4 0.976894 0.251863 0.254597
O O5 0.483732 0.212723 0.348640
O O6 0.124224 0.376791 0.731671
O O7 0.982927 0.326393 0.635922
O O8 0.447751 0.141561 0.614972
O O9 0.268174 0.078928 0.349813
O O10 0.487517 0.128637 0.134756
O O11 0.500000 0.000000 0.000000
O O12 0.410945 0.637722 0.189046
O O13 0.496490 0.738649 0.216417
O O14 0.992394 0.896539 0.310778
O O15 0.446786 0.750038 0.954726
O O16 0.500000 0.000000 0.500000
O O17 0.000000 0.000000 0.000000
O O18 0.500000 0.500000 0.000000
O O19 0.000000 0.500000 0.000000
#
# Coordination Sequence:
#
# PCOD9069249 Si02
#       8
#     2   2   2   2   2   2   2   2
#     4  12  27  52  77 106 157 204 260 312 387 466
#     4  12  28  48  78 112 152 199 254 318 389 451
#     4  12  29  47  80 114 153 206 253 318 386 463
#     4  12  25  47  73 107 155 192 253 316 380 452
#     4  12  22  48  76 107 150 197 249 312 382 459
#     4  12  27  46  74 116 155 195 252 319 383 457
#     4  12  28  48  76 107 148 210 255 307 381 463
#     4  12  30  50  76 112 152 200 257 325 382 452
#
# _framework density 22.090406000000002
#
# number of rings (size 3 to 8) (size 9 to 14) (size 15 to 20)
#    0.000    0.000    6.250    1.500   10.500    1.000 
#    0.000    0.000    0.000    0.000    0.000    0.000 
#    0.000    0.000    0.000    0.000    0.000    0.000 
#
# Total GULP energy -89371.339697 kJ/mol
# GULP energy per Si atom -5585.708731 kJ/mol
# Density = 2.204013 g / cm^3
# Si number density = 22.090406 Si / 1000 Ang^3
#
#
#
# Elastic Constant Matrix: (Units=GPa)
#
#
# Indices 1 2 3 4 5 6 
#
# 1 97.0628 34.3999 43.7628 5.1391 3.2157 -8.5828
# 2 34.3999 134.1029 53.7284 -8.5833 -6.9513 -24.8513
# 3 43.7628 53.7284 127.3686 2.2889 11.4452 -9.4767
# 4 5.1391 -8.5833 2.2889 46.1094 -3.6455 2.8583
# 5 3.2157 -6.9513 11.4452 -3.6455 39.4263 4.5530
# 6 -8.5828 -24.8513 -9.4767 2.8583 4.5530 30.8376
#
#
#
# Elastic Compliance Matrix: (Units=1/GPa)
#
#
# Indices 1 2 3 4 5 6 
#
# 1 0.012709 -0.001792 -0.003423 -0.001713 -0.000667 0.001298
# 2 -0.001792 0.010923 -0.003780 0.002222 0.002618 0.006549
# 3 -0.003423 -0.003780 0.010976 -0.001160 -0.003683 0.000026
# 4 -0.001713 0.002222 -0.001160 0.022699 0.003153 -0.001612
# 5 -0.000667 0.002618 -0.003683 0.003153 0.027654 -0.003583
# 6 0.001298 0.006549 0.000026 -0.001612 -0.003583 0.038754
#
#
# Mechanical properties :
#
#
# Convention : Reuss Voigt Hill
#
# Bulk Modulus (GPa) = 60.18025 69.14629 64.66327
# Shear Modulus (GPa) = 33.95740 38.38418 36.17079
#
# Velocity S-wave (km/s) = 3.92497 4.17297 4.05087
# Velocity P-wave (km/s) = 6.91682 7.38835 7.15647
#
# Compressibility (1/GPa) = 0.01661675
#
# Stress axis : x y z
#
# Youngs Moduli (GPa) = 78.68518 91.55302 91.11136
#
# Poissons Ratio (x) = 0.16408 0.31191
# Poissons Ratio (y) = 0.14102 0.34437
# Poissons Ratio (z) = 0.26937 0.34604
#
# Static dielectric constant tensor:
#      x y z
#    x 1.833510 0.036960 -0.074080 
#    y 0.036960 1.743400 -0.025480 
#    z -0.074080 -0.025480 1.965950 
# 
# From -- ./inp_files/217442.got.cif
#   From: 2010.05.17/outbox.cif.g08.bks.cpg/sg2_109_cif.got.tgz:217442.got - 2010.06.03 11:33:40.
