data_PCOD9069989
_publ_section_title
;
Structure prediction by ZEFSAII (Michael W. Deem and Ramdas Pophale) SiO2 
 PCOD9069989
Probable space group: P -1
;
_chemical_formula_sum "Si O2"
_cell_formula_units_Z 16
_cell_length_a 12.620419
_cell_length_b 9.336935
_cell_length_c 18.392501
_cell_angle_alpha 124.422937
_cell_angle_beta 29.996448
_cell_angle_gamma 135.555023
_cell_volume 749.970221
_symmetry_space_group_name_H-M "P -1"
_symmetry_group_IT_number 2
_symmetry_cell_setting 'triclinic'
loop_
_space_group_symop_operation_xyz
x,y,z
-x,-y,-z
loop_
_atom_site_type_symbol
_atom_site_label
_atom_site_fract_x
_atom_site_fract_y
_atom_site_fract_z
Si Si1 0.869184 0.753696 0.528290
Si Si2 0.018721 0.509814 0.077968
Si Si3 0.420562 0.007134 0.469323
Si Si4 0.598706 0.588128 0.388206
Si Si5 0.482178 0.795649 0.979773
Si Si6 0.329277 0.700009 0.210828
Si Si7 0.221541 0.954995 0.861769
Si Si8 0.855058 0.695982 0.691712
O O1 0.611526 0.588091 0.591796
O O2 0.808740 0.697646 0.633474
O O3 0.085340 0.712414 0.367877
O O4 0.000000 0.000000 0.500000
O O5 0.863482 0.610066 0.224111
O O6 0.888407 0.277936 0.116590
O O7 0.294421 0.629179 0.984077
O O8 0.000000 0.500000 0.000000
O O9 0.153073 0.803454 0.551124
O O10 0.500000 0.000000 0.500000
O O11 0.385884 0.198307 0.552021
O O12 0.624252 0.019966 0.296153
O O13 0.500000 0.500000 0.500000
O O14 0.375401 0.708049 0.098856
O O15 0.755802 0.830835 0.823191
O O16 0.500000 0.000000 0.000000
O O17 0.277657 0.509048 0.237939
O O18 0.576753 0.896215 0.155125
O O19 0.000000 0.000000 0.000000
#
# Coordination Sequence:
#
# PCOD9069989 Si02
#       8
#     2   2   2   2   2   2   2   2
#     4  12  24  44  72 103 141 185 235 289 351 422
#     4  12  26  47  74 105 144 185 237 293 360 427
#     4  12  28  45  73 105 144 188 238 295 356 426
#     4  12  24  45  72 104 143 183 238 294 350 419
#     4  12  26  47  73 104 141 186 236 291 357 427
#     4  12  26  46  72 102 144 184 238 294 350 429
#     4  12  28  48  71 104 145 187 238 294 363 424
#     4  12  26  47  71 105 142 188 239 288 358 419
#
# _framework density 21.33418
#
# number of rings (size 3 to 8) (size 9 to 14) (size 15 to 20)
#    0.000    0.000    2.500    7.500    7.000    0.000 
#    0.000    0.000    0.000    0.000    0.000    0.000 
#    0.000    0.000    0.000    0.000    0.000    0.000 
#
# Total GULP energy -89410.857199 kJ/mol
# GULP energy per Si atom -5588.178575 kJ/mol
# Density = 2.128562 g / cm^3
# Si number density = 21.334180 Si / 1000 Ang^3
#
#
#
# Elastic Constant Matrix: (Units=GPa)
#
#
# Indices 1 2 3 4 5 6 
#
# 1 126.6520 14.7298 29.8460 -14.2515 31.4336 3.6970
# 2 14.7298 68.7145 3.9464 -11.7046 4.1435 2.0663
# 3 29.8460 3.9464 145.4163 11.2421 14.0809 -12.6221
# 4 -14.2515 -11.7046 11.2421 38.2890 -2.2758 -10.1693
# 5 31.4336 4.1435 14.0809 -2.2758 50.9614 -4.0639
# 6 3.6970 2.0663 -12.6221 -10.1693 -4.0639 35.9039
#
#
#
# Elastic Compliance Matrix: (Units=1/GPa)
#
#
# Indices 1 2 3 4 5 6 
#
# 1 0.010310 -0.001146 -0.001910 0.003347 -0.005697 -0.001364
# 2 -0.001146 0.015606 -0.000495 0.004562 -0.000197 0.000316
# 3 -0.001910 -0.000495 0.007753 -0.002631 -0.000873 0.002107
# 4 0.003347 0.004562 -0.002631 0.031520 0.000292 0.007429
# 5 -0.005697 -0.000197 -0.000873 0.000292 0.023650 0.003051
# 6 -0.001364 0.000316 0.002107 0.007429 0.003051 0.031164
#
#
# Mechanical properties :
#
#
# Convention : Reuss Voigt Hill
#
# Bulk Modulus (GPa) = 37.63939 48.64748 43.14344
# Shear Modulus (GPa) = 36.77516 44.51489 40.64502
#
# Velocity S-wave (km/s) = 4.15633 4.57284 4.36955
# Velocity P-wave (km/s) = 6.38079 7.12272 6.76194
#
# Compressibility (1/GPa) = 0.02656791
#
# Stress axis : x y z
#
# Youngs Moduli (GPa) = 96.99754 64.07651 128.97984
#
# Poissons Ratio (x) = 0.07340 0.24640
# Poissons Ratio (y) = 0.11112 0.06380
# Poissons Ratio (z) = 0.18530 0.03169
#
# Static dielectric constant tensor:
#      x y z
#    x 1.646000 -0.054110 0.050090 
#    y -0.054110 1.728960 0.003840 
#    z 0.050090 0.003840 1.742370 
# 
# From -- ./inp_files/209488.got.cif
#   From: 2010.05.17/outbox.cif.g08.bks.cpg/sg2_105_cif.got.tgz:209488.got - 2010.06.03 11:33:40.
