data_PCOD9069091
_publ_section_title
;
Structure prediction by ZEFSAII (Michael W. Deem and Ramdas Pophale) SiO2 
 PCOD9069091
Probable space group: P -1
;
_chemical_formula_sum "Si O2"
_cell_formula_units_Z 14
_cell_length_a 18.083102
_cell_length_b 17.712595
_cell_length_c 12.268156
_cell_angle_alpha 30.810609
_cell_angle_beta 18.887083
_cell_angle_gamma 31.993205
_cell_volume 636.414918
_symmetry_space_group_name_H-M "P -1"
_symmetry_group_IT_number 2
_symmetry_cell_setting 'triclinic'
loop_
_space_group_symop_operation_xyz
x,y,z
-x,-y,-z
loop_
_atom_site_type_symbol
_atom_site_label
_atom_site_fract_x
_atom_site_fract_y
_atom_site_fract_z
Si Si1 0.266286 0.935446 0.892077
Si Si2 0.297587 0.449200 0.418611
Si Si3 0.531908 0.114024 0.546068
Si Si4 0.245431 0.884270 0.305311
Si Si5 0.637878 0.349531 0.732160
Si Si6 0.122923 0.503813 0.207716
Si Si7 0.209103 0.838298 0.656883
O O1 0.260697 0.910407 0.801295
O O2 0.500000 0.000000 0.500000
O O3 0.310893 0.778203 0.088006
O O4 0.037463 0.045832 0.120888
O O5 0.351233 0.266769 0.571081
O O6 0.309174 0.507769 0.453634
O O7 0.053425 0.518885 0.613717
O O8 0.500000 0.500000 0.000000
O O9 0.623536 0.142689 0.501340
O O10 0.420354 0.967625 0.892987
O O11 0.224417 0.729266 0.467370
O O12 0.311754 0.863041 0.365125
O O13 0.000000 0.000000 0.500000
O O14 0.370771 0.389416 0.014205
O O15 0.000000 0.500000 0.500000
O O16 0.168344 0.670059 0.923618
#
# Coordination Sequence:
#
# PCOD9069091 Si02
#       7
#     2   2   2   2   2   2   2
#     4  12  22  42  73 105 136 185 239 298 354 413
#     4  12  23  43  70 108 145 182 234 301 359 417
#     4  12  24  45  73 107 140 184 245 296 353 427
#     4  12  26  49  70  99 147 193 235 293 354 429
#     4  12  25  44  73 103 143 184 238 286 363 416
#     4  12  24  44  73 105 148 183 232 301 360 414
#     4  12  26  46  71 104 145 192 235 294 359 424
#
# _framework density 21.998228999999998
#
# number of rings (size 3 to 8) (size 9 to 14) (size 15 to 20)
#    0.000    0.000    7.143    3.429    0.000    1.714 
#    2.571    1.429    0.000    0.000    0.000    0.000 
#    0.000    0.000    0.000    0.000    0.000    0.000 
#
# Total GULP energy -78332.417351 kJ/mol
# GULP energy per Si atom -5595.172668 kJ/mol
# Density = 2.194816 g / cm^3
# Si number density = 21.998229 Si / 1000 Ang^3
#
#
#
# Elastic Constant Matrix: (Units=GPa)
#
#
# Indices 1 2 3 4 5 6 
#
# 1 149.9037 14.5976 16.1427 13.2187 12.0393 7.5397
# 2 14.5976 104.1292 19.9341 11.2791 14.9164 -1.5786
# 3 16.1427 19.9341 36.1814 -5.1274 10.6292 -5.8450
# 4 13.2187 11.2791 -5.1274 36.0958 -3.5972 3.0313
# 5 12.0393 14.9164 10.6292 -3.5972 41.9198 2.8953
# 6 7.5397 -1.5786 -5.8450 3.0313 2.8953 46.3806
#
#
#
# Elastic Compliance Matrix: (Units=1/GPa)
#
#
# Indices 1 2 3 4 5 6 
#
# 1 0.007542 0.000222 -0.003753 -0.003397 -0.001490 -0.001376
# 2 0.000222 0.011773 -0.006377 -0.004978 -0.003069 0.000078
# 3 -0.003753 -0.006377 0.036305 0.007567 -0.005542 0.004820
# 4 -0.003397 -0.004978 0.007567 0.032024 0.003644 -0.000984
# 5 -0.001490 -0.003069 -0.005542 0.003644 0.027266 -0.002501
# 6 -0.001376 0.000078 0.004820 -0.000984 -0.002501 0.022615
#
#
# Mechanical properties :
#
#
# Convention : Reuss Voigt Hill
#
# Bulk Modulus (GPa) = 27.92974 43.50700 35.71837
# Shear Modulus (GPa) = 29.53743 40.84857 35.19300
#
# Velocity S-wave (km/s) = 3.66829 4.31385 4.00410
# Velocity P-wave (km/s) = 5.53766 6.68079 6.13590
#
# Compressibility (1/GPa) = 0.03580413
#
# Stress axis : x y z
#
# Youngs Moduli (GPa) = 132.59108 84.93942 27.54405
#
# Poissons Ratio (x) = -0.01883 0.10338
# Poissons Ratio (y) = -0.02940 0.17564
# Poissons Ratio (z) = 0.49765 0.54163
#
# Static dielectric constant tensor:
#      x y z
#    x 1.869210 0.057710 0.000900 
#    y 0.057710 1.806760 0.007370 
#    z 0.000900 0.007370 1.801340 
# 
# From -- ./inp_files/183111.got.cif
#   From: 2010.05.17/outbox.cif.g08.bks.cpg/sg2_92_cif.got.tgz:183111.got - 2010.06.03 11:33:40.
