data_PCOD9069355
_publ_section_title
;
Structure prediction by ZEFSAII (Michael W. Deem and Ramdas Pophale) SiO2 
 PCOD9069355
Probable space group: P -1
;
_chemical_formula_sum "Si O2"
_cell_formula_units_Z 16
_cell_length_a 8.916316
_cell_length_b 12.244571
_cell_length_c 18.502997
_cell_angle_alpha 148.671512
_cell_angle_beta 133.245538
_cell_angle_gamma 48.129237
_cell_volume 746.844357
_symmetry_space_group_name_H-M "P -1"
_symmetry_group_IT_number 2
_symmetry_cell_setting 'triclinic'
loop_
_space_group_symop_operation_xyz
x,y,z
-x,-y,-z
loop_
_atom_site_type_symbol
_atom_site_label
_atom_site_fract_x
_atom_site_fract_y
_atom_site_fract_z
Si Si1 0.463743 0.281723 0.400953
Si Si2 0.675644 0.127927 0.651451
Si Si3 0.961309 0.938487 0.160119
Si Si4 0.355409 0.536917 0.829732
Si Si5 0.013243 0.632387 0.652905
Si Si6 0.166348 0.795511 0.408604
Si Si7 0.628443 0.855866 0.121745
Si Si8 0.867710 0.502971 0.117390
O O1 0.500000 0.500000 0.500000
O O2 0.221377 0.305334 0.356458
O O3 0.614889 0.236394 0.495042
O O4 0.543127 0.080575 0.260664
O O5 0.556477 0.351929 0.772483
O O6 0.795749 0.165861 0.640475
O O7 0.846992 0.016319 0.702076
O O8 0.500000 0.000000 0.500000
O O9 0.782200 0.889284 0.126395
O O10 0.899130 0.155207 0.216624
O O11 0.050760 0.727357 0.022855
O O12 0.283852 0.511020 0.873364
O O13 0.172442 0.514149 0.700168
O O14 0.433689 0.758471 0.975395
O O15 0.000000 0.500000 0.500000
O O16 0.064145 0.589172 0.263314
O O17 0.000000 0.000000 0.500000
O O18 0.755029 0.680691 0.122138
#
# Coordination Sequence:
#
# PCOD9069355 Si02
#       8
#     2   2   2   2   2   2   2   2
#     4  12  26  45  71 102 143 187 231 288 352 414
#     4  12  24  40  68 102 133 182 235 284 346 409
#     4  12  25  45  73 102 141 183 230 295 349 410
#     4  12  27  44  72 102 141 189 232 283 356 414
#     4  12  28  50  68 102 146 187 235 285 347 421
#     4  12  23  42  70 101 137 183 233 287 348 412
#     4  12  25  46  73 106 143 178 236 297 346 414
#     4  12  24  44  73 107 143 174 236 294 345 417
#
# _framework density 21.423473000000001
#
# number of rings (size 3 to 8) (size 9 to 14) (size 15 to 20)
#    0.000    0.000    3.750    6.750    1.750    3.500 
#    0.000    0.000    0.000    0.000    0.000    0.000 
#    0.000    0.000    0.000    0.000    0.000    0.000 
#
# Total GULP energy -89621.213757 kJ/mol
# GULP energy per Si atom -5601.325860 kJ/mol
# Density = 2.137471 g / cm^3
# Si number density = 21.423473 Si / 1000 Ang^3
#
#
#
# Elastic Constant Matrix: (Units=GPa)
#
#
# Indices 1 2 3 4 5 6 
#
# 1 154.1892 23.2096 40.6677 10.6927 -19.2932 12.0480
# 2 23.2096 67.6039 0.9377 -3.0585 -6.0511 3.7269
# 3 40.6677 0.9377 124.7134 12.5022 -6.4081 4.2404
# 4 10.6927 -3.0585 12.5022 45.4167 -9.6254 9.6283
# 5 -19.2932 -6.0511 -6.4081 -9.6254 47.3864 -0.0945
# 6 12.0480 3.7269 4.2404 9.6283 -0.0945 27.7822
#
#
#
# Elastic Compliance Matrix: (Units=1/GPa)
#
#
# Indices 1 2 3 4 5 6 
#
# 1 0.008010 -0.002351 -0.002342 -0.000281 0.002582 -0.002695
# 2 -0.002351 0.015944 0.000573 0.002228 0.001605 -0.001974
# 3 -0.002342 0.000573 0.008961 -0.001942 -0.000062 0.000244
# 4 -0.000281 0.002228 -0.001942 0.025713 0.005113 -0.008774
# 5 0.002582 0.001605 -0.000062 0.005113 0.023383 -0.003018
# 6 -0.002695 -0.001974 0.000244 -0.008774 -0.003018 0.040421
#
#
# Mechanical properties :
#
#
# Convention : Reuss Voigt Hill
#
# Bulk Modulus (GPa) = 40.52493 52.90405 46.71449
# Shear Modulus (GPa) = 35.99781 42.89650 39.44716
#
# Velocity S-wave (km/s) = 4.10359 4.47958 4.29570
# Velocity P-wave (km/s) = 6.43505 7.17659 6.81591
#
# Compressibility (1/GPa) = 0.02467617
#
# Stress axis : x y z
#
# Youngs Moduli (GPa) = 124.84138 62.71806 111.59597
#
# Poissons Ratio (x) = 0.14742 0.26135
# Poissons Ratio (y) = 0.29345 -0.06393
# Poissons Ratio (z) = 0.29236 -0.03593
#
# Static dielectric constant tensor:
#      x y z
#    x 1.088640 -0.117130 0.315220 
#    y -0.117130 1.752590 0.049230 
#    z 0.315220 0.049230 1.667980 
# 
# From -- ./inp_files/186701.got.cif
#   From: 2010.05.17/outbox.cif.g08.bks.cpg/sg2_94_cif.got.tgz:186701.got - 2010.06.03 11:33:40.
