data_PCOD9069695
_publ_section_title
;
Structure prediction by ZEFSAII (Michael W. Deem and Ramdas Pophale) SiO2 
 PCOD9069695
Probable space group: P -1
;
_chemical_formula_sum "Si O2"
_cell_formula_units_Z 15
_cell_length_a 7.265497
_cell_length_b 14.347218
_cell_length_c 9.641867
_cell_angle_alpha 108.947997
_cell_angle_beta 95.701679
_cell_angle_gamma 41.647802
_cell_volume 615.089430
_symmetry_space_group_name_H-M "P -1"
_symmetry_group_IT_number 2
_symmetry_cell_setting 'triclinic'
loop_
_space_group_symop_operation_xyz
x,y,z
-x,-y,-z
loop_
_atom_site_type_symbol
_atom_site_label
_atom_site_fract_x
_atom_site_fract_y
_atom_site_fract_z
Si Si1 0.018553 0.282836 0.287086
Si Si2 0.252317 0.040597 0.582460
Si Si3 0.671399 0.668039 0.060742
Si Si4 0.000000 0.500000 0.500000
Si Si5 0.432129 0.577096 0.885694
Si Si6 0.691763 0.346794 0.553596
Si Si7 0.445264 0.055388 0.865435
Si Si8 0.406092 0.288300 0.604956
O O1 0.114548 0.356858 0.343065
O O2 0.883086 0.318205 0.143266
O O3 0.773870 0.357216 0.417663
O O4 0.258462 0.105942 0.252974
O O5 0.225927 0.088788 0.762290
O O6 0.957763 0.176132 0.548162
O O7 0.500000 0.000000 0.500000
O O8 0.372104 0.882486 0.505805
O O9 0.616786 0.804021 0.085934
O O10 0.567092 0.696921 0.226372
O O11 0.493758 0.666998 0.949988
O O12 0.000000 0.500000 0.000000
O O13 0.919177 0.601567 0.402968
O O14 0.625958 0.447080 0.721768
O O15 0.500000 0.500000 0.000000
O O16 0.431656 0.371392 0.540552
O O17 0.500000 0.000000 0.000000
#
# Coordination Sequence:
#
# PCOD9069695 Si02
#       8
#     2   2   2   1   2   2   2   2
#     4  12  27  48  74 107 152 191 257 311 375 449
#     4  12  23  47  73 102 143 191 248 306 368 448
#     4  12  28  47  76 108 150 203 255 301 382 454
#     4  12  24  44  74 106 146 188 256 300 368 446
#     4  12  27  47  72 109 151 196 246 312 380 445
#     4  12  25  45  73 107 144 192 249 310 374 443
#     4  12  29  45  73 111 151 196 246 315 377 439
#     4  12  25  44  75 107 141 196 253 309 375 443
#
# _framework density 24.386699
#
# number of rings (size 3 to 8) (size 9 to 14) (size 15 to 20)
#    0.000    0.000    6.667    1.600    7.467    1.600 
#    0.000    0.000    0.000    0.000    0.000    0.000 
#    0.000    0.000    0.000    0.000    0.000    0.000 
#
# Total GULP energy -83715.396630 kJ/mol
# GULP energy per Si atom -5581.026442 kJ/mol
# Density = 2.433119 g / cm^3
# Si number density = 24.386699 Si / 1000 Ang^3
#
#
#
# Elastic Constant Matrix: (Units=GPa)
#
#
# Indices 1 2 3 4 5 6 
#
# 1 61.5097 17.0665 29.5861 8.2081 14.5933 23.4135
# 2 17.0665 177.3466 43.3046 13.8075 17.5592 23.6011
# 3 29.5861 43.3046 138.1610 -8.0404 23.4125 28.6755
# 4 8.2081 13.8075 -8.0404 56.9851 7.2776 8.7966
# 5 14.5933 17.5592 23.4125 7.2776 45.1103 5.0148
# 6 23.4135 23.6011 28.6755 8.7966 5.0148 34.0107
#
#
#
# Elastic Compliance Matrix: (Units=1/GPa)
#
#
# Indices 1 2 3 4 5 6 
#
# 1 0.023688 0.000592 -0.001361 -0.000805 -0.005438 -0.014560
# 2 0.000592 0.006587 -0.001304 -0.001153 -0.001519 -0.003356
# 3 -0.001361 -0.001304 0.010359 0.003624 -0.004212 -0.007208
# 4 -0.000805 -0.001153 0.003624 0.019899 -0.003681 -0.006305
# 5 -0.005438 -0.001519 -0.004212 -0.003681 0.026702 0.005364
# 6 -0.014560 -0.003356 -0.007208 -0.006305 0.005364 0.048672
#
#
# Mechanical properties :
#
#
# Convention : Reuss Voigt Hill
#
# Bulk Modulus (GPa) = 27.40787 61.88132 44.64460
# Shear Modulus (GPa) = 32.84782 46.35855 39.60318
#
# Velocity S-wave (km/s) = 3.67407 4.36475 4.03422
# Velocity P-wave (km/s) = 5.40941 7.12962 6.32824
#
# Compressibility (1/GPa) = 0.03648586
#
# Stress axis : x y z
#
# Youngs Moduli (GPa) = 42.21500 151.81172 96.53494
#
# Poissons Ratio (x) = -0.08982 0.13143
# Poissons Ratio (y) = -0.02498 0.12592
# Poissons Ratio (z) = 0.05747 0.19802
#
# Static dielectric constant tensor:
#      x y z
#    x 1.765720 0.063310 -0.040840 
#    y 0.063310 1.977950 0.032260 
#    z -0.040840 0.032260 1.968720 
# 
# From -- ./inp_files/208368.got.cif
#   From: 2010.05.17/outbox.cif.g08.bks.cpg/sg2_105_cif.got.tgz:208368.got - 2010.06.03 11:33:40.
