data_PCOD9069261
_publ_section_title
;
Structure prediction by ZEFSAII (Michael W. Deem and Ramdas Pophale) SiO2 
 PCOD9069261
Probable space group: P -1
;
_chemical_formula_sum "Si O2"
_cell_formula_units_Z 14
_cell_length_a 5.345179
_cell_length_b 13.115362
_cell_length_c 9.171618
_cell_angle_alpha 111.487963
_cell_angle_beta 95.831044
_cell_angle_gamma 106.747086
_cell_volume 557.205015
_symmetry_space_group_name_H-M "P -1"
_symmetry_group_IT_number 2
_symmetry_cell_setting 'triclinic'
loop_
_space_group_symop_operation_xyz
x,y,z
-x,-y,-z
loop_
_atom_site_type_symbol
_atom_site_label
_atom_site_fract_x
_atom_site_fract_y
_atom_site_fract_z
Si Si1 0.598530 0.296557 0.204884
Si Si2 0.501070 0.853104 0.598527
Si Si3 0.232682 0.957595 0.060844
Si Si4 0.549093 0.505159 0.775336
Si Si5 0.173017 0.258432 0.950209
Si Si6 0.036120 0.137286 0.568201
Si Si7 0.992228 0.521123 0.337966
O O1 0.619452 0.228387 0.311584
O O2 0.453960 0.392666 0.288581
O O3 0.871847 0.386535 0.205296
O O4 0.407659 0.226429 0.030030
O O5 0.248533 0.854943 0.492118
O O6 0.665657 0.978239 0.746357
O O7 0.723478 0.815519 0.510023
O O8 0.087613 0.819640 0.012185
O O9 0.500000 0.000000 0.000000
O O10 0.000000 0.000000 0.000000
O O11 0.231986 0.431575 0.711305
O O12 0.722700 0.430172 0.694953
O O13 0.693438 0.597887 0.961760
O O14 0.126884 0.203825 0.760083
O O15 0.000000 0.000000 0.500000
O O16 0.000000 0.500000 0.500000
#
# Coordination Sequence:
#
# PCOD9069261 Si02
#       7
#     2   2   2   2   2   2   2
#     4   8  22  35  60  83 111 145 193 228 285 335
#     4  12  25  38  57  82 111 152 200 241 282 326
#     4  12  23  34  58  80 106 148 194 238 282 320
#     4   8  19  31  57  80 113 139 186 216 285 331
#     4   9  22  40  55  81 113 156 191 237 277 342
#     4  12  26  41  53  80 117 156 200 239 284 321
#     4   9  17  32  56  90 117 134 171 237 294 337
#
# _framework density 25.125405000000001
#
# number of rings (size 3 to 8) (size 9 to 14) (size 15 to 20)
#    1.714    0.000    2.857    1.714    4.000    2.286 
#    0.000    0.000    0.000    0.000    0.000   14.000 
#    0.000    0.000    0.000    0.000    0.000    0.000 
#
# Total GULP energy -78014.150838 kJ/mol
# GULP energy per Si atom -5572.439346 kJ/mol
# Density = 2.506822 g / cm^3
# Si number density = 25.125405 Si / 1000 Ang^3
#
#
#
# Elastic Constant Matrix: (Units=GPa)
#
#
# Indices 1 2 3 4 5 6 
#
# 1 166.1855 6.9993 60.0355 16.1507 15.8666 6.1279
# 2 6.9993 77.3773 6.6518 8.9332 5.3278 7.9498
# 3 60.0355 6.6518 149.3199 11.5664 24.4251 1.9072
# 4 16.1507 8.9332 11.5664 31.5448 1.1311 5.8635
# 5 15.8666 5.3278 24.4251 1.1311 32.6450 4.9168
# 6 6.1279 7.9498 1.9072 5.8635 4.9168 25.9565
#
#
#
# Elastic Compliance Matrix: (Units=1/GPa)
#
#
# Indices 1 2 3 4 5 6 
#
# 1 0.007346 0.000032 -0.002490 -0.002678 -0.001519 -0.000668
# 2 0.000032 0.013737 -0.000070 -0.003233 -0.001616 -0.003173
# 3 -0.002490 -0.000070 0.008729 -0.001980 -0.005459 0.001449
# 4 -0.002678 -0.003233 -0.001980 0.035890 0.003111 -0.006929
# 5 -0.001519 -0.001616 -0.005459 0.003111 0.036571 -0.006376
# 6 -0.000668 -0.003173 0.001449 -0.006929 -0.006376 0.042322
#
#
# Mechanical properties :
#
#
# Convention : Reuss Voigt Hill
#
# Bulk Modulus (GPa) = 40.39372 60.02841 50.21107
# Shear Modulus (GPa) = 31.66489 39.30901 35.48695
#
# Velocity S-wave (km/s) = 3.55388 3.95968 3.76226
# Velocity P-wave (km/s) = 5.74037 6.69693 6.23702
#
# Compressibility (1/GPa) = 0.02475633
#
# Stress axis : x y z
#
# Youngs Moduli (GPa) = 136.13579 72.79426 114.55768
#
# Poissons Ratio (x) = -0.00233 0.28529
# Poissons Ratio (y) = -0.00436 0.00797
# Poissons Ratio (z) = 0.33903 0.00507
#
# Static dielectric constant tensor:
#      x y z
#    x 2.143940 0.051410 -0.037260 
#    y 0.051410 2.060560 0.068740 
#    z -0.037260 0.068740 2.000640 
# 
# From -- ./inp_files/134366.got.cif
#   From: 2010.05.17/outbox.cif.g08.bks.cpg/sg2_68_cif.got.tgz:134366.got - 2010.06.03 11:33:40.
