data_PCOD9069321
_publ_section_title
;
Structure prediction by ZEFSAII (Michael W. Deem and Ramdas Pophale) SiO2 
 PCOD9069321
Probable space group: P -1
;
_chemical_formula_sum "Si O2"
_cell_formula_units_Z 14
_cell_length_a 6.205969
_cell_length_b 12.695500
_cell_length_c 12.402649
_cell_angle_alpha 70.301863
_cell_angle_beta 72.921109
_cell_angle_gamma 42.912006
_cell_volume 624.728090
_symmetry_space_group_name_H-M "P -1"
_symmetry_group_IT_number 2
_symmetry_cell_setting 'triclinic'
loop_
_space_group_symop_operation_xyz
x,y,z
-x,-y,-z
loop_
_atom_site_type_symbol
_atom_site_label
_atom_site_fract_x
_atom_site_fract_y
_atom_site_fract_z
Si Si1 0.379660 0.419862 0.987538
Si Si2 0.965633 0.929312 0.630870
Si Si3 0.898117 0.728696 0.636807
Si Si4 0.596534 0.588557 0.410083
Si Si5 0.722544 0.772620 0.404993
Si Si6 0.177791 0.755136 0.220372
Si Si7 0.305845 0.884077 0.813149
O O1 0.549943 0.362380 0.865626
O O2 0.500000 0.500000 0.000000
O O3 0.576438 0.255687 0.078917
O O4 0.000000 0.500000 0.000000
O O5 0.102521 0.762636 0.631880
O O6 0.116289 0.907532 0.728558
O O7 0.588119 0.059677 0.651573
O O8 0.000000 0.000000 0.500000
O O9 0.779840 0.795575 0.509737
O O10 0.626286 0.814763 0.734237
O O11 0.096720 0.547211 0.659380
O O12 0.500000 0.500000 0.500000
O O13 0.676110 0.656423 0.459026
O O14 0.338504 0.730983 0.319198
O O15 0.993310 0.708239 0.301858
O O16 0.919492 0.940530 0.163785
#
# Coordination Sequence:
#
# PCOD9069321 Si02
#       7
#     2   2   2   2   2   2   2
#     4  12  33  58  87 116 152 206 269 337 402 466
#     4  12  23  41  71 113 156 201 252 309 387 478
#     4  12  25  40  70 110 157 197 254 308 390 460
#     4  12  26  41  68 110 158 202 258 313 393 461
#     4  12  24  42  70 112 156 206 256 317 389 472
#     4  12  27  50  75 110 154 202 261 328 388 477
#     4  12  27  49  78 109 153 206 256 322 388 476
#
# _framework density 22.409748
#
# number of rings (size 3 to 8) (size 9 to 14) (size 15 to 20)
#    0.000    0.000    5.714    3.857    8.000    0.000 
#    0.000    2.143    0.000    0.000    0.000    0.000 
#    0.000    0.000    0.000    0.000    0.000    0.000 
#
# Total GULP energy -78025.311434 kJ/mol
# GULP energy per Si atom -5573.236531 kJ/mol
# Density = 2.235874 g / cm^3
# Si number density = 22.409748 Si / 1000 Ang^3
#
#
#
# Elastic Constant Matrix: (Units=GPa)
#
#
# Indices 1 2 3 4 5 6 
#
# 1 67.2629 25.3774 30.7223 4.4864 -15.9880 10.4272
# 2 25.3774 99.3155 13.4926 -3.8343 -14.3977 6.6474
# 3 30.7223 13.4926 110.7813 0.7719 -12.8535 -2.1409
# 4 4.4864 -3.8343 0.7719 46.0254 -13.4853 4.8752
# 5 -15.9880 -14.3977 -12.8535 -13.4853 33.4252 3.3709
# 6 10.4272 6.6474 -2.1409 4.8752 3.3709 44.4609
#
#
#
# Elastic Compliance Matrix: (Units=1/GPa)
#
#
# Indices 1 2 3 4 5 6 
#
# 1 0.020739 -0.003214 -0.004593 0.000544 0.007517 -0.005234
# 2 -0.003214 0.011831 -0.000035 0.002914 0.004893 -0.001707
# 3 -0.004593 -0.000035 0.010558 0.000708 0.001996 0.001362
# 4 0.000544 0.002914 0.000708 0.026105 0.012760 -0.004359
# 5 0.007517 0.004893 0.001996 0.012760 0.042242 -0.007000
# 6 -0.005234 -0.001707 0.001362 -0.004359 -0.007000 0.025049
#
#
# Mechanical properties :
#
#
# Convention : Reuss Voigt Hill
#
# Bulk Modulus (GPa) = 36.43828 46.28268 41.36048
# Shear Modulus (GPa) = 30.98721 38.63347 34.81034
#
# Velocity S-wave (km/s) = 3.72258 4.15656 3.94554
# Velocity P-wave (km/s) = 5.89679 6.61315 6.26522
#
# Compressibility (1/GPa) = 0.02744367
#
# Stress axis : x y z
#
# Youngs Moduli (GPa) = 48.21759 84.52266 94.71677
#
# Poissons Ratio (x) = 0.27169 0.43502
# Poissons Ratio (y) = 0.15499 0.00333
# Poissons Ratio (z) = 0.22145 0.00297
#
# Static dielectric constant tensor:
#      x y z
#    x 1.957620 -0.037830 -0.076700 
#    y -0.037830 1.877370 0.019690 
#    z -0.076700 0.019690 1.842970 
# 
# From -- ./inp_files/98696.got.cif
#   From: 2010.05.17/outbox.cif.g08.bks.cpg/sg2_50_cif.got.tgz:98696.got - 2010.06.03 11:33:40.
