data_PCOD9069412
_publ_section_title
;
Structure prediction by ZEFSAII (Michael W. Deem and Ramdas Pophale) SiO2 
 PCOD9069412
Probable space group: P -1
;
_chemical_formula_sum "Si O2"
_cell_formula_units_Z 14
_cell_length_a 14.840987
_cell_length_b 17.136037
_cell_length_c 5.134233
_cell_angle_alpha 58.915658
_cell_angle_beta 113.590293
_cell_angle_gamma 144.760278
_cell_volume 644.604413
_symmetry_space_group_name_H-M "P -1"
_symmetry_group_IT_number 2
_symmetry_cell_setting 'triclinic'
loop_
_space_group_symop_operation_xyz
x,y,z
-x,-y,-z
loop_
_atom_site_type_symbol
_atom_site_label
_atom_site_fract_x
_atom_site_fract_y
_atom_site_fract_z
Si Si1 0.403386 0.676306 0.852934
Si Si2 0.077635 0.227305 0.719291
Si Si3 0.346931 0.437775 0.324549
Si Si4 0.602750 0.854615 0.293559
Si Si5 0.954257 0.525161 0.153370
Si Si6 0.095817 0.824842 0.877010
Si Si7 0.833106 0.852804 0.681266
O O1 0.476379 0.773741 0.513760
O O2 0.230168 0.587025 0.862873
O O3 0.389960 0.557456 0.004431
O O4 0.517549 0.774527 0.060748
O O5 0.234713 0.388203 0.517730
O O6 0.957086 0.152975 0.471730
O O7 0.130196 0.162424 0.964903
O O8 0.999028 0.213025 0.909341
O O9 0.500000 0.500000 0.500000
O O10 0.248864 0.292126 0.305750
O O11 0.712385 0.847922 0.514565
O O12 0.722852 0.025093 0.121459
O O13 0.000000 0.500000 0.500000
O O14 0.000000 0.500000 0.000000
O O15 0.046876 0.687346 0.990452
O O16 0.000000 0.000000 0.500000
#
# Coordination Sequence:
#
# PCOD9069412 Si02
#       7
#     2   2   2   2   2   2   2
#     4  12  27  47  72 107 149 186 240 305 360 425
#     4  12  23  43  69 100 146 196 240 290 338 413
#     4  12  25  41  67 104 149 194 240 288 347 417
#     4  12  27  45  69 106 153 194 237 293 362 415
#     4  12  27  51  82 109 133 183 244 305 377 445
#     4  12  26  47  75 103 143 186 241 298 362 429
#     4  12  25  40  66 105 149 202 253 278 334 421
#
# _framework density 21.718748000000001
#
# number of rings (size 3 to 8) (size 9 to 14) (size 15 to 20)
#    0.000    0.000    5.714    3.429    4.000    2.286 
#    0.000    4.286    0.000    0.000    0.000    0.000 
#    0.000    0.000    0.000    0.000    0.000    0.000 
#
# Total GULP energy -78405.178368 kJ/mol
# GULP energy per Si atom -5600.369883 kJ/mol
# Density = 2.166931 g / cm^3
# Si number density = 21.718748 Si / 1000 Ang^3
#
#
#
# Elastic Constant Matrix: (Units=GPa)
#
#
# Indices 1 2 3 4 5 6 
#
# 1 93.5101 52.4850 9.1933 -5.8479 -10.2484 -6.8314
# 2 52.4850 171.8830 41.6327 -12.5830 1.1383 -10.8192
# 3 9.1933 41.6327 76.6829 9.8721 -10.3796 -12.1947
# 4 -5.8479 -12.5830 9.8721 42.7593 8.6129 -8.7418
# 5 -10.2484 1.1383 -10.3796 8.6129 38.2520 7.5305
# 6 -6.8314 -10.8192 -12.1947 -8.7418 7.5305 32.4497
#
#
#
# Elastic Compliance Matrix: (Units=1/GPa)
#
#
# Indices 1 2 3 4 5 6 
#
# 1 0.013572 -0.004545 0.001604 -0.000517 0.004158 0.000840
# 2 -0.004545 0.008956 -0.005121 0.004554 -0.004361 0.002343
# 3 0.001604 -0.005121 0.017622 -0.006203 0.006345 0.002109
# 4 -0.000517 0.004554 -0.006203 0.030220 -0.010670 0.009695
# 5 0.004158 -0.004361 0.006345 -0.010670 0.033239 -0.008782
# 6 0.000840 0.002343 0.002109 0.009695 -0.008782 0.037218
#
#
# Mechanical properties :
#
#
# Convention : Reuss Voigt Hill
#
# Bulk Modulus (GPa) = 41.62508 60.96645 51.29577
# Shear Modulus (GPa) = 30.31029 38.60986 34.46007
#
# Velocity S-wave (km/s) = 3.73980 4.22088 3.98760
# Velocity P-wave (km/s) = 6.15266 7.20321 6.69856
#
# Compressibility (1/GPa) = 0.02402398
#
# Stress axis : x y z
#
# Youngs Moduli (GPa) = 73.67990 111.65684 56.74811
#
# Poissons Ratio (x) = 0.50751 -0.09100
# Poissons Ratio (y) = 0.33489 0.29062
# Poissons Ratio (z) = -0.11815 0.57183
#
# Static dielectric constant tensor:
#      x y z
#    x 1.789770 -0.018930 -0.011460 
#    y -0.018930 1.798340 -0.001740 
#    z -0.011460 -0.001740 1.817830 
# 
# From -- ./inp_files/99507.got.cif
#   From: 2010.05.17/outbox.cif.g08.bks.cpg/sg2_50_cif.got.tgz:99507.got - 2010.06.03 11:33:40.
