data_PCOD9069903
_publ_section_title
;
Structure prediction by ZEFSAII (Michael W. Deem and Ramdas Pophale) SiO2 
 PCOD9069903
Probable space group: P -1
;
_chemical_formula_sum "Si O2"
_cell_formula_units_Z 12
_cell_length_a 23.127848
_cell_length_b 20.012927
_cell_length_c 5.329748
_cell_angle_alpha 82.149666
_cell_angle_beta 82.610425
_cell_angle_gamma 11.807193
_cell_volume 499.887835
_symmetry_space_group_name_H-M "P -1"
_symmetry_group_IT_number 2
_symmetry_cell_setting 'triclinic'
loop_
_space_group_symop_operation_xyz
x,y,z
-x,-y,-z
loop_
_atom_site_type_symbol
_atom_site_label
_atom_site_fract_x
_atom_site_fract_y
_atom_site_fract_z
Si Si1 0.946216 0.299843 0.243028
Si Si2 0.338311 0.611691 0.517033
Si Si3 0.434698 0.717198 0.945429
Si Si4 0.349390 0.239155 0.054572
Si Si5 0.158982 0.254585 0.634331
Si Si6 0.566076 0.179590 0.482894
O O1 0.736107 0.484304 0.389866
O O2 0.773062 0.564677 0.157913
O O3 0.204403 0.030701 0.414624
O O4 0.103370 0.091715 0.017571
O O5 0.500000 0.500000 0.500000
O O6 0.452413 0.449862 0.276609
O O7 0.410774 0.488110 0.793374
O O8 0.000000 0.000000 0.500000
O O9 0.476149 0.748091 0.817707
O O10 0.074886 0.524619 0.208579
O O11 0.582511 0.012532 0.206932
O O12 0.500000 0.000000 0.000000
O O13 0.000000 0.500000 0.500000
O O14 0.291438 0.054924 0.460147
#
# Coordination Sequence:
#
# PCOD9069903 Si02
#       6
#     2   2   2   2   2   2
#     4  12  27  47  76 113 155 203 264 321 389 456
#     4  12  30  54  84 118 157 204 253 318 402 478
#     4  12  28  54  84 118 163 202 261 324 386 480
#     4  12  24  43  68 103 153 205 266 326 384 452
#     4  12  24  43  68 103 153 205 266 326 384 452
#     4  12  27  47  76 113 155 203 264 321 389 456
#
# _framework density 24.005382999999998
#
# number of rings (size 3 to 8) (size 9 to 14) (size 15 to 20)
#    0.000    0.000    3.333    6.000    2.333    2.667 
#    0.000    0.000    0.000    0.000    0.000    0.000 
#    0.000    0.000    0.000    0.000    0.000    0.000 
#
# Total GULP energy -67155.910077 kJ/mol
# GULP energy per Si atom -5596.325840 kJ/mol
# Density = 2.395075 g / cm^3
# Si number density = 24.005383 Si / 1000 Ang^3
#
#
#
# Elastic Constant Matrix: (Units=GPa)
#
#
# Indices 1 2 3 4 5 6 
#
# 1 93.8113 77.2696 47.0954 -7.7878 -2.6522 -8.7063
# 2 77.2696 210.6598 91.8636 18.7754 -9.3772 -17.9789
# 3 47.0954 91.8636 151.5707 5.3855 -25.8330 -2.7983
# 4 -7.7878 18.7754 5.3855 64.2815 4.0171 -4.1771
# 5 -2.6522 -9.3772 -25.8330 4.0171 58.3359 7.0705
# 6 -8.7063 -17.9789 -2.7983 -4.1771 7.0705 70.1764
#
#
#
# Elastic Compliance Matrix: (Units=1/GPa)
#
#
# Indices 1 2 3 4 5 6 
#
# 1 0.016671 -0.005476 -0.002241 0.003963 -0.001504 0.000963
# 2 -0.005476 0.008599 -0.003448 -0.002782 -0.000355 0.001256
# 3 -0.002241 -0.003448 0.010054 -0.000432 0.003969 -0.001186
# 4 0.003963 -0.002782 -0.000432 0.017057 -0.001748 0.000953
# 5 -0.001504 -0.000355 0.003969 -0.001748 0.019156 -0.002153
# 6 0.000963 0.001256 -0.001186 0.000953 -0.002153 0.014918
#
#
# Mechanical properties :
#
#
# Convention : Reuss Voigt Hill
#
# Bulk Modulus (GPa) = 76.96048 98.72210 87.84129
# Shear Modulus (GPa) = 44.20340 54.54630 49.37485
#
# Velocity S-wave (km/s) = 4.29580 4.77199 4.54014
# Velocity P-wave (km/s) = 7.53223 8.46030 8.00972
#
# Compressibility (1/GPa) = 0.01299368
#
# Stress axis : x y z
#
# Youngs Moduli (GPa) = 59.98612 116.29762 99.46552
#
# Poissons Ratio (x) = 0.63680 0.22285
# Poissons Ratio (y) = 0.32846 0.34300
# Poissons Ratio (z) = 0.13440 0.40105
#
# Static dielectric constant tensor:
#      x y z
#    x 2.001390 0.106280 0.002620 
#    y 0.106280 1.937340 -0.029690 
#    z 0.002620 -0.029690 1.985670 
# 
# From -- ./inp_files/125015.got.cif
#   From: 2010.05.17/outbox.cif.g08.bks.cpg/sg2_63_cif.got.tgz:125015.got - 2010.06.03 11:33:40.
