data_PCOD9069546
_publ_section_title
;
Structure prediction by ZEFSAII (Michael W. Deem and Ramdas Pophale) SiO2 
 PCOD9069546
Probable space group: P -1
;
_chemical_formula_sum "Si O2"
_cell_formula_units_Z 15
_cell_length_a 12.389692
_cell_length_b 8.667354
_cell_length_c 8.482934
_cell_angle_alpha 58.370149
_cell_angle_beta 125.472274
_cell_angle_gamma 114.294950
_cell_volume 624.089549
_symmetry_space_group_name_H-M "P -1"
_symmetry_group_IT_number 2
_symmetry_cell_setting 'triclinic'
loop_
_space_group_symop_operation_xyz
x,y,z
-x,-y,-z
loop_
_atom_site_type_symbol
_atom_site_label
_atom_site_fract_x
_atom_site_fract_y
_atom_site_fract_z
Si Si1 0.734072 0.711455 0.312399
Si Si2 0.000000 0.000000 0.500000
Si Si3 0.652761 0.031492 0.566481
Si Si4 0.582410 0.348847 0.851719
Si Si5 0.994702 0.290039 0.053210
Si Si6 0.239438 0.303639 0.023732
Si Si7 0.762863 0.078207 0.304994
Si Si8 0.270437 0.649096 0.337506
O O1 0.573248 0.703323 0.205825
O O2 0.806859 0.913518 0.320252
O O3 0.775480 0.560730 0.544872
O O4 0.760962 0.669151 0.178012
O O5 0.023201 0.138090 0.282860
O O6 0.085444 0.840937 0.571066
O O7 0.695902 0.244479 0.528585
O O8 0.500000 0.000000 0.500000
O O9 0.720421 0.894328 0.803477
O O10 0.682230 0.993572 0.431731
O O11 0.650262 0.542519 0.880667
O O12 0.608557 0.346730 0.687193
O O13 0.670053 0.202224 0.075139
O O14 0.098745 0.302119 0.991124
O O15 0.840911 0.248759 0.889897
O O16 0.000000 0.500000 0.000000
#
# Coordination Sequence:
#
# PCOD9069546 Si02
#       8
#     2   1   2   2   2   2   2   2
#     4  12  26  43  69 106 142 188 241 298 364 435
#     4  12  24  46  74 100 144 188 238 296 366 418
#     4  12  25  44  68 105 143 184 238 295 353 433
#     4  12  23  45  70 102 143 189 238 301 364 431
#     4  12  25  49  75 107 146 189 248 302 362 438
#     4  12  25  44  71 102 145 187 239 299 361 429
#     4  12  24  44  71  99 140 192 237 297 365 422
#     4  12  25  43  72 101 143 191 241 292 363 426
#
# _framework density 24.035008999999999
#
# number of rings (size 3 to 8) (size 9 to 14) (size 15 to 20)
#    0.000    0.000    4.000    6.800    0.000    2.133 
#    0.000    0.000    0.000    0.000    0.000    0.000 
#    0.000    0.000    0.000    0.000    0.000    0.000 
#
# Total GULP energy -83792.086149 kJ/mol
# GULP energy per Si atom -5586.139077 kJ/mol
# Density = 2.398030 g / cm^3
# Si number density = 24.035009 Si / 1000 Ang^3
#
#
#
# Elastic Constant Matrix: (Units=GPa)
#
#
# Indices 1 2 3 4 5 6 
#
# 1 197.5221 13.2591 53.5659 9.3624 -9.3674 -9.3785
# 2 13.2591 98.1146 16.4804 -6.4616 -1.7557 -0.9194
# 3 53.5659 16.4804 128.4809 -24.9028 -9.4785 -11.8102
# 4 9.3624 -6.4616 -24.9028 22.0018 -3.7220 -6.9215
# 5 -9.3674 -1.7557 -9.4785 -3.7220 45.6667 -4.5759
# 6 -9.3785 -0.9194 -11.8102 -6.9215 -4.5759 24.2251
#
#
#
# Elastic Compliance Matrix: (Units=1/GPa)
#
#
# Indices 1 2 3 4 5 6 
#
# 1 0.006719 -0.000758 -0.004840 -0.009505 -0.000694 -0.002634
# 2 -0.000758 0.010591 -0.000154 0.003756 0.000649 0.001229
# 3 -0.004840 -0.000154 0.016926 0.027035 0.006249 0.015277
# 4 -0.009505 0.003756 0.027035 0.096493 0.015696 0.040178
# 5 -0.000694 0.000649 0.006249 0.015696 0.025571 0.012117
# 6 -0.002634 0.001229 0.015277 0.040178 0.012117 0.061523
#
#
# Mechanical properties :
#
#
# Convention : Reuss Voigt Hill
#
# Bulk Modulus (GPa) = 43.98920 65.63650 54.81285
# Shear Modulus (GPa) = 21.10572 41.09951 31.10261
#
# Velocity S-wave (km/s) = 2.96653 4.13968 3.60120
# Velocity P-wave (km/s) = 5.48412 7.08642 6.33612
#
# Compressibility (1/GPa) = 0.02273285
#
# Stress axis : x y z
#
# Youngs Moduli (GPa) = 148.84007 94.42075 59.08049
#
# Poissons Ratio (x) = 0.07158 0.28593
# Poissons Ratio (y) = 0.11284 0.00908
# Poissons Ratio (z) = 0.72032 0.01451
#
# Static dielectric constant tensor:
#      x y z
#    x 2.934860 0.997610 0.639400 
#    y 0.997610 2.891440 0.634780 
#    z 0.639400 0.634780 2.230980 
# 
# From -- ./inp_files/175824.got.cif
#   From: 2010.05.17/outbox.cif.g08.bks.cpg/sg2_88_cif.got.tgz:175824.got - 2010.06.03 11:33:40.
