data_PCOD9069005
_publ_section_title
;
Structure prediction by ZEFSAII (Michael W. Deem and Ramdas Pophale) SiO2 
 PCOD9069005
Probable space group: P -1
;
_chemical_formula_sum "Si O2"
_cell_formula_units_Z 14
_cell_length_a 17.146119
_cell_length_b 5.102786
_cell_length_c 16.277348
_cell_angle_alpha 64.283596
_cell_angle_beta 26.472007
_cell_angle_gamma 75.757625
_cell_volume 534.793667
_symmetry_space_group_name_H-M "P -1"
_symmetry_group_IT_number 2
_symmetry_cell_setting 'triclinic'
loop_
_space_group_symop_operation_xyz
x,y,z
-x,-y,-z
loop_
_atom_site_type_symbol
_atom_site_label
_atom_site_fract_x
_atom_site_fract_y
_atom_site_fract_z
Si Si1 0.581875 0.384903 0.237712
Si Si2 0.970190 0.144823 0.092394
Si Si3 0.673343 0.834524 0.303864
Si Si4 0.984983 0.665152 0.734627
Si Si5 0.485543 0.831906 0.950660
Si Si6 0.064198 0.707615 0.329996
Si Si7 0.631569 0.141470 0.611257
O O1 0.490556 0.642187 0.310203
O O2 0.617495 0.132890 0.298365
O O3 0.454300 0.173525 0.314411
O O4 0.786528 0.545241 0.981926
O O5 0.750158 0.914879 0.319814
O O6 0.000000 0.500000 0.000000
O O7 0.182504 0.160594 0.913447
O O8 0.000000 0.000000 0.000000
O O9 0.500000 0.500000 0.500000
O O10 0.004555 0.449713 0.671578
O O11 0.149329 0.699832 0.641316
O O12 0.996560 0.997231 0.643908
O O13 0.632656 0.042691 0.718581
O O14 0.500000 0.500000 0.000000
O O15 0.285941 0.793570 0.106003
O O16 0.500000 0.000000 0.000000
O O17 0.000000 0.500000 0.500000
#
# Coordination Sequence:
#
# PCOD9069005 Si02
#       7
#     2   2   2   2   2   2   2
#     4  12  25  46  68 100 142 180 228 283 347 407
#     4   8  20  40  64  99 134 163 230 265 338 400
#     4   9  23  43  71 101 138 182 227 284 338 416
#     4  12  24  46  65  94 140 173 226 281 342 406
#     4  12  22  39  64  96 131 167 228 283 327 403
#     4  12  23  42  68  95 130 176 224 284 344 399
#     4  12  26  44  67 100 136 181 232 279 348 409
#
# _framework density 26.178319999999999
#
# number of rings (size 3 to 8) (size 9 to 14) (size 15 to 20)
#    0.857    0.000    2.857    4.714    2.000    2.857 
#    2.571    0.000    0.000    0.000    0.000    0.000 
#    0.000    0.000    0.000    0.000    0.000    0.000 
#
# Total GULP energy -77971.100585 kJ/mol
# GULP energy per Si atom -5569.364327 kJ/mol
# Density = 2.611874 g / cm^3
# Si number density = 26.178320 Si / 1000 Ang^3
#
#
#
# Elastic Constant Matrix: (Units=GPa)
#
#
# Indices 1 2 3 4 5 6 
#
# 1 70.8307 0.9702 33.1483 -17.3498 -13.8933 -3.8895
# 2 0.9702 143.4956 19.9653 -6.4305 -4.9566 -19.4447
# 3 33.1483 19.9653 128.5831 -1.7623 -35.0428 -16.7551
# 4 -17.3498 -6.4305 -1.7623 42.7881 -10.2658 -8.8395
# 5 -13.8933 -4.9566 -35.0428 -10.2658 59.0075 -4.9462
# 6 -3.8895 -19.4447 -16.7551 -8.8395 -4.9462 46.7498
#
#
#
# Elastic Compliance Matrix: (Units=1/GPa)
#
#
# Indices 1 2 3 4 5 6 
#
# 1 0.019076 0.001362 -0.003330 0.009570 0.004566 0.003253
# 2 0.001362 0.007735 -0.000641 0.002803 0.001394 0.003778
# 3 -0.003330 -0.000641 0.011050 0.001429 0.006338 0.004357
# 4 0.009570 0.002803 0.001429 0.032037 0.009712 0.009559
# 5 0.004566 0.001394 0.006338 0.009712 0.024233 0.007631
# 6 0.003253 0.003778 0.004357 0.009559 0.007631 0.027409
#
#
# Mechanical properties :
#
#
# Convention : Reuss Voigt Hill
#
# Bulk Modulus (GPa) = 30.63613 50.11968 40.37790
# Shear Modulus (GPa) = 36.32706 48.96412 42.64559
#
# Velocity S-wave (km/s) = 3.72920 4.32951 4.04052
# Velocity P-wave (km/s) = 5.50189 6.64680 6.10126
#
# Compressibility (1/GPa) = 0.03264120
#
# Stress axis : x y z
#
# Youngs Moduli (GPa) = 52.42126 129.28961 90.49941
#
# Poissons Ratio (x) = -0.17605 0.30135
# Poissons Ratio (y) = -0.07138 0.05805
# Poissons Ratio (z) = 0.17456 0.08294
#
# Static dielectric constant tensor:
#      x y z
#    x 2.132710 0.066470 0.142100 
#    y 0.066470 1.953670 -0.051720 
#    z 0.142100 -0.051720 2.090840 
# 
# From -- ./inp_files/600731.got.cif
#   From: 2010.05.17/outbox.cif.g08.bks.cpg/sg2_301_cif.got.tgz:600731.got - 2010.06.03 11:33:40.
