data_PCOD9069256
_publ_section_title
;
Structure prediction by ZEFSAII (Michael W. Deem and Ramdas Pophale) SiO2 
 PCOD9069256
Probable space group: P -1
;
_chemical_formula_sum "Si O2"
_cell_formula_units_Z 12
_cell_length_a 9.780093
_cell_length_b 9.472446
_cell_length_c 10.582611
_cell_angle_alpha 42.909390
_cell_angle_beta 111.628804
_cell_angle_gamma 81.965981
_cell_volume 472.918139
_symmetry_space_group_name_H-M "P -1"
_symmetry_group_IT_number 2
_symmetry_cell_setting 'triclinic'
loop_
_space_group_symop_operation_xyz
x,y,z
-x,-y,-z
loop_
_atom_site_type_symbol
_atom_site_label
_atom_site_fract_x
_atom_site_fract_y
_atom_site_fract_z
Si Si1 0.933517 0.868412 0.837911
Si Si2 0.775425 0.746072 0.252270
Si Si3 0.000000 0.000000 0.500000
Si Si4 0.500000 0.500000 0.000000
Si Si5 0.764593 0.622885 0.051111
Si Si6 0.639979 0.430805 0.479180
Si Si7 0.700171 0.265797 0.992632
O O1 0.917269 0.968784 0.626162
O O2 0.830019 0.120523 0.734957
O O3 0.840771 0.729926 0.913889
O O4 0.163966 0.687386 0.054306
O O5 0.721045 0.774253 0.069156
O O6 0.678314 0.639610 0.357779
O O7 0.000000 0.500000 0.500000
O O8 0.734449 0.010286 0.116303
O O9 0.068173 0.698997 0.663495
O O10 0.428423 0.326690 0.084677
O O11 0.715143 0.250622 0.159656
O O12 0.500000 0.500000 0.500000
O O13 0.524674 0.482853 0.273752
#
# Coordination Sequence:
#
# PCOD9069256 Si02
#       7
#     2   2   1   1   2   2   2
#     4  12  27  50  78 114 157 211 258 328 395 473
#     4  12  25  49  78 112 159 213 258 330 394 466
#     4  12  22  50  74 108 156 198 264 308 390 472
#     4  12  26  48  74 114 152 204 258 328 386 468
#     4  12  27  49  79 112 159 204 266 324 396 468
#     4  12  27  47  74 117 156 202 271 321 388 474
#     4  12  26  49  77 113 160 205 264 322 401 467
#
# _framework density 25.374372000000001
#
# number of rings (size 3 to 8) (size 9 to 14) (size 15 to 20)
#    0.000    0.000    6.667    2.000    4.667    1.333 
#    3.000    1.667    0.000    0.000    0.000    0.000 
#    0.000    0.000    0.000    0.000    0.000    0.000 
#
# Total GULP energy -66821.450477 kJ/mol
# GULP energy per Si atom -5568.454206 kJ/mol
# Density = 2.531662 g / cm^3
# Si number density = 25.374372 Si / 1000 Ang^3
#
#
#
# Elastic Constant Matrix: (Units=GPa)
#
#
# Indices 1 2 3 4 5 6 
#
# 1 276.0205 51.9112 45.9258 -12.0261 -34.9096 14.8047
# 2 51.9112 125.7432 10.7449 -25.8097 -13.0282 6.4606
# 3 45.9258 10.7449 51.3148 -6.8468 -14.4756 -0.4814
# 4 -12.0261 -25.8097 -6.8468 28.7095 -6.5827 13.2062
# 5 -34.9096 -13.0282 -14.4756 -6.5827 60.5191 -12.1361
# 6 14.8047 6.4606 -0.4814 13.2062 -12.1361 34.7853
#
#
#
# Elastic Compliance Matrix: (Units=1/GPa)
#
#
# Indices 1 2 3 4 5 6 
#
# 1 0.004752 -0.001153 -0.003448 0.001314 0.001440 -0.001853
# 2 -0.001153 0.011676 0.001005 0.013547 0.002362 -0.005982
# 3 -0.003448 0.001005 0.024570 0.005956 0.004972 0.001094
# 4 0.001314 0.013547 0.005956 0.061596 0.006999 -0.023936
# 5 0.001440 0.002362 0.004972 0.006999 0.020519 0.003519
# 6 -0.001853 -0.005982 0.001094 -0.023936 0.003519 0.040977
#
#
# Mechanical properties :
#
#
# Convention : Reuss Voigt Hill
#
# Bulk Modulus (GPa) = 29.58005 74.47137 52.02571
# Shear Modulus (GPa) = 27.38977 47.76921 37.57949
#
# Velocity S-wave (km/s) = 3.28903 4.34357 3.85255
# Velocity P-wave (km/s) = 5.10944 7.38703 6.35117
#
# Compressibility (1/GPa) = 0.03380657
#
# Stress axis : x y z
#
# Youngs Moduli (GPa) = 210.43223 85.64885 40.69999
#
# Poissons Ratio (x) = 0.09877 0.14031
# Poissons Ratio (y) = 0.24267 -0.04091
# Poissons Ratio (z) = 0.72547 -0.08609
#
# Static dielectric constant tensor:
#      x y z
#    x 1.693590 0.470810 -0.326020 
#    y 0.470810 1.203320 0.614700 
#    z -0.326020 0.614700 1.603620 
# 
# From -- ./inp_files/166933.got.cif
#   From: 2010.05.17/outbox.cif.g08.bks.cpg/sg2_84_cif.got.tgz:166933.got - 2010.06.03 11:33:40.
