data_PCOD9069841
_publ_section_title
;
Structure prediction by ZEFSAII (Michael W. Deem and Ramdas Pophale) SiO2 
 PCOD9069841
Probable space group: P -1
;
_chemical_formula_sum "Si O2"
_cell_formula_units_Z 12
_cell_length_a 24.717434
_cell_length_b 5.298170
_cell_length_c 4.786490
_cell_angle_alpha 57.828037
_cell_angle_beta 66.101676
_cell_angle_gamma 69.600526
_cell_volume 477.888168
_symmetry_space_group_name_H-M "P -1"
_symmetry_group_IT_number 2
_symmetry_cell_setting 'triclinic'
loop_
_space_group_symop_operation_xyz
x,y,z
-x,-y,-z
loop_
_atom_site_type_symbol
_atom_site_label
_atom_site_fract_x
_atom_site_fract_y
_atom_site_fract_z
Si Si1 0.559492 0.050418 0.185805
Si Si2 0.898377 0.539918 0.256330
Si Si3 0.772686 0.478811 0.840043
Si Si4 0.940743 0.156772 0.871678
Si Si5 0.601621 0.363581 0.434811
Si Si6 0.727351 0.164080 0.601650
O O1 0.591211 0.722139 0.207756
O O2 0.448619 0.728274 0.194046
O O3 0.500000 0.000000 0.500000
O O4 0.597954 0.191161 0.255154
O O5 0.835863 0.506644 0.551890
O O6 0.904455 0.385465 0.034870
O O7 0.948977 0.351855 0.465180
O O8 0.907065 0.884008 0.016068
O O9 0.742481 0.805958 0.826757
O O10 0.733447 0.354733 0.754010
O O11 0.774821 0.249354 0.226954
O O12 0.000000 0.000000 0.000000
O O13 0.663539 0.254723 0.531074
#
# Coordination Sequence:
#
# PCOD9069841 Si02
#       6
#     2   2   2   2   2   2
#     4  12  24  42  66  96 130 170 214 264 318 378
#     4  12  24  42  66  94 128 166 210 262 316 378
#     4  12  24  42  64  94 126 166 212 262 318 378
#     4  12  25  44  67  96 129 168 211 260 316 378
#     4  12  24  43  65  94 129 169 214 264 318 378
#     4  12  25  43  66  94 128 169 213 264 318 378
#
# _framework density 25.110478000000001
#
# number of rings (size 3 to 8) (size 9 to 14) (size 15 to 20)
#    0.000    0.000    0.000   12.000    0.000    0.000 
#    0.000    0.000    0.000    0.000    0.000    0.000 
#    0.000    0.000    0.000    0.000    0.000    0.000 
#
# Total GULP energy -67398.386294 kJ/mol
# GULP energy per Si atom -5616.532191 kJ/mol
# Density = 2.505333 g / cm^3
# Si number density = 25.110478 Si / 1000 Ang^3
#
#
#
# Elastic Constant Matrix: (Units=GPa)
#
#
# Indices 1 2 3 4 5 6 
#
# 1 74.3385 29.9230 -16.8337 -6.5759 -3.9112 16.5184
# 2 29.9230 129.8558 33.0287 -29.5299 -8.9709 33.0046
# 3 -16.8337 33.0287 107.4652 -7.1789 2.1124 26.2619
# 4 -6.5759 -29.5299 -7.1789 48.1031 -1.7856 -2.4831
# 5 -3.9112 -8.9709 2.1124 -1.7856 41.2874 5.8297
# 6 16.5184 33.0046 26.2619 -2.4831 5.8297 40.5217
#
#
#
# Elastic Compliance Matrix: (Units=1/GPa)
#
#
# Indices 1 2 3 4 5 6 
#
# 1 0.018291 -0.003021 0.006068 0.001157 0.002109 -0.009161
# 2 -0.003021 0.012801 -0.002070 0.006873 0.004030 -0.008012
# 3 0.006068 -0.002070 0.013252 0.001081 0.000825 -0.009429
# 4 0.001157 0.006873 0.001081 0.025159 0.003444 -0.005723
# 5 0.002109 0.004030 0.000825 0.003444 0.026573 -0.008289
# 6 -0.009161 -0.008012 -0.009429 -0.005723 -0.008289 0.041891
#
#
# Mechanical properties :
#
#
# Convention : Reuss Voigt Hill
#
# Bulk Modulus (GPa) = 21.59872 44.87728 33.23800
# Shear Modulus (GPa) = 33.01508 43.68520 38.35014
#
# Velocity S-wave (km/s) = 3.62994 4.17552 3.91225
# Velocity P-wave (km/s) = 5.11750 6.41540 5.80285
#
# Compressibility (1/GPa) = 0.04629903
#
# Stress axis : x y z
#
# Youngs Moduli (GPa) = 54.67134 78.11869 75.45911
#
# Poissons Ratio (x) = 0.23601 -0.45790
# Poissons Ratio (y) = 0.16517 0.15618
# Poissons Ratio (z) = -0.33176 0.16169
#
# Static dielectric constant tensor:
#      x y z
#    x 2.025790 -0.048760 -0.062430 
#    y -0.048760 1.916210 0.032400 
#    z -0.062430 0.032400 1.925740 
# 
# From -- ./inp_files/9581.got.cif
#   From: 2010.05.17/outbox.cif.g08.bks.cpg/sg2_5_cif.got.tgz:9581.got - 2010.06.03 11:33:40.
