data_PCOD9069950
_publ_section_title
;
Structure prediction by ZEFSAII (Michael W. Deem and Ramdas Pophale) SiO2 
 PCOD9069950
Probable space group: P -1
;
_chemical_formula_sum "Si O2"
_cell_formula_units_Z 12
_cell_length_a 12.191504
_cell_length_b 18.528184
_cell_length_c 9.108018
_cell_angle_alpha 152.009192
_cell_angle_beta 125.872297
_cell_angle_gamma 37.756029
_cell_volume 544.339902
_symmetry_space_group_name_H-M "P -1"
_symmetry_group_IT_number 2
_symmetry_cell_setting 'triclinic'
loop_
_space_group_symop_operation_xyz
x,y,z
-x,-y,-z
loop_
_atom_site_type_symbol
_atom_site_label
_atom_site_fract_x
_atom_site_fract_y
_atom_site_fract_z
Si Si1 0.890447 0.057358 0.672192
Si Si2 0.158495 0.307808 0.398052
Si Si3 0.182504 0.576439 0.539333
Si Si4 0.242500 0.678541 0.457230
Si Si5 0.564555 0.198297 0.291184
Si Si6 0.475900 0.304274 0.725862
O O1 0.700607 0.107168 0.595282
O O2 0.842268 0.262911 0.075359
O O3 0.000000 0.000000 0.500000
O O4 0.035090 0.856347 0.535988
O O5 0.316628 0.301311 0.565158
O O6 0.000000 0.500000 0.500000
O O7 0.016615 0.355917 0.498066
O O8 0.296181 0.053141 0.000836
O O9 0.233559 0.612057 0.489449
O O10 0.359987 0.325226 0.283787
O O11 0.322413 0.787338 0.709494
O O12 0.381725 0.474370 0.089741
O O13 0.509309 0.337209 0.644601
#
# Coordination Sequence:
#
# PCOD9069950 Si02
#       6
#     2   2   2   2   2   2
#     4  12  24  43  75 108 141 182 243 295 342 419
#     4  12  28  46  73 104 144 190 236 289 363 429
#     4  12  26  46  74 105 145 192 236 288 361 420
#     4  12  26  44  76 108 144 185 241 296 349 418
#     4  12  24  45  76 101 140 188 240 294 349 421
#     4  12  26  43  72 110 139 182 241 295 350 416
#
# _framework density 22.04505
#
# number of rings (size 3 to 8) (size 9 to 14) (size 15 to 20)
#    0.000    0.000    6.667    3.000    2.333    0.667 
#    0.000    1.667    0.000    0.000    0.000    0.000 
#    0.000    0.000    0.000    0.000    0.000    0.000 
#
# Total GULP energy -67013.315271 kJ/mol
# GULP energy per Si atom -5584.442939 kJ/mol
# Density = 2.199487 g / cm^3
# Si number density = 22.045050 Si / 1000 Ang^3
#
#
#
# Elastic Constant Matrix: (Units=GPa)
#
#
# Indices 1 2 3 4 5 6 
#
# 1 139.6789 54.4928 50.4814 -1.0845 -14.7578 -18.0556
# 2 54.4928 133.5727 52.4718 29.9408 -16.4627 -27.4715
# 3 50.4814 52.4718 97.2622 16.0189 -13.7104 8.4975
# 4 -1.0845 29.9408 16.0189 30.1723 -8.3809 -1.1859
# 5 -14.7578 -16.4627 -13.7104 -8.3809 16.9814 1.9829
# 6 -18.0556 -27.4715 8.4975 -1.1859 1.9829 55.4798
#
#
#
# Elastic Compliance Matrix: (Units=1/GPa)
#
#
# Indices 1 2 3 4 5 6 
#
# 1 0.011197 -0.003099 -0.004777 0.007915 0.006452 0.002780
# 2 -0.003099 0.014825 -0.004901 -0.011622 0.001194 0.006792
# 3 -0.004777 -0.004901 0.017151 -0.003578 0.003976 -0.006827
# 4 0.007915 -0.011622 -0.003578 0.051945 0.018614 -0.002186
# 5 0.006452 0.001194 0.003976 0.018614 0.078085 -0.000311
# 6 0.002780 0.006792 -0.006827 -0.002186 -0.000311 0.023302
#
#
# Mechanical properties :
#
#
# Convention : Reuss Voigt Hill
#
# Bulk Modulus (GPa) = 56.75147 76.15622 66.45385
# Shear Modulus (GPa) = 21.93655 34.73122 28.33388
#
# Velocity S-wave (km/s) = 3.15791 3.97352 3.58896
# Velocity P-wave (km/s) = 6.25266 7.46140 6.88362
#
# Compressibility (1/GPa) = 0.01762069
#
# Stress axis : x y z
#
# Youngs Moduli (GPa) = 89.30973 67.45376 58.30652
#
# Poissons Ratio (x) = 0.20902 0.27851
# Poissons Ratio (y) = 0.27675 0.28573
# Poissons Ratio (z) = 0.42661 0.33056
#
# Static dielectric constant tensor:
#      x y z
#    x 1.826550 -0.025960 0.023390 
#    y -0.025960 1.812570 0.011270 
#    z 0.023390 0.011270 1.868490 
# 
# From -- ./inp_files/60805.got.cif
#   From: 2010.05.17/outbox.cif.g08.bks.cpg/sg2_31_cif.got.tgz:60805.got - 2010.06.03 11:33:40.
