data_PCOD9069461
_publ_section_title
;
Structure prediction by ZEFSAII (Michael W. Deem and Ramdas Pophale) SiO2 
 PCOD9069461
Probable space group: P -1
;
_chemical_formula_sum "Si O2"
_cell_formula_units_Z 16
_cell_length_a 6.715933
_cell_length_b 19.447259
_cell_length_c 11.074219
_cell_angle_alpha 29.512213
_cell_angle_beta 93.231131
_cell_angle_gamma 96.669076
_cell_volume 704.711546
_symmetry_space_group_name_H-M "P -1"
_symmetry_group_IT_number 2
_symmetry_cell_setting 'triclinic'
loop_
_space_group_symop_operation_xyz
x,y,z
-x,-y,-z
loop_
_atom_site_type_symbol
_atom_site_label
_atom_site_fract_x
_atom_site_fract_y
_atom_site_fract_z
Si Si1 0.378053 0.712231 0.888724
Si Si2 0.652517 0.597050 0.271427
Si Si3 0.615416 0.868210 0.220975
Si Si4 0.902101 0.547849 0.802617
Si Si5 0.299843 0.250711 0.361749
Si Si6 0.084187 0.159882 0.942352
Si Si7 0.072289 0.919314 0.511068
Si Si8 0.776916 0.328160 0.561877
O O1 0.510294 0.708707 0.777877
O O2 0.269975 0.851734 0.660531
O O3 0.527404 0.687916 0.039797
O O4 0.202029 0.580359 0.084329
O O5 0.500000 0.500000 0.500000
O O6 0.794403 0.706015 0.190731
O O7 0.767753 0.483221 0.379890
O O8 0.676334 0.873570 0.355031
O O9 0.800709 0.868384 0.134824
O O10 0.446827 0.735772 0.386618
O O11 0.500000 0.000000 0.000000
O O12 0.731652 0.630418 0.724634
O O13 0.070668 0.646470 0.584144
O O14 0.000000 0.500000 0.000000
O O15 0.102545 0.205957 0.342754
O O16 0.871581 0.214947 0.821540
O O17 0.092977 0.027685 0.233789
O O18 0.000000 0.000000 0.500000
#
# Coordination Sequence:
#
# PCOD9069461 Si02
#       8
#     2   2   2   2   2   2   2   2
#     4  12  27  48  73 106 148 187 240 300 359 427
#     4  12  26  48  76 105 143 191 241 298 362 419
#     4  12  26  44  74 108 148 190 236 294 360 427
#     4  12  23  43  76 106 142 184 236 297 361 419
#     4  12  25  48  71 108 144 185 241 294 363 424
#     4  12  27  48  73 107 147 192 241 294 358 430
#     4  12  30  48  74 106 143 198 241 289 355 432
#     4  12  26  47  74 110 145 186 244 298 361 425
#
# _framework density 22.704325999999998
#
# number of rings (size 3 to 8) (size 9 to 14) (size 15 to 20)
#    0.000    0.000    3.750    6.000    5.250    4.000 
#    0.000    0.000    0.000    0.000    0.000    0.000 
#    0.000    0.000    0.000    0.000    0.000    0.000 
#
# Total GULP energy -89549.822952 kJ/mol
# GULP energy per Si atom -5596.863934 kJ/mol
# Density = 2.265265 g / cm^3
# Si number density = 22.704326 Si / 1000 Ang^3
#
#
#
# Elastic Constant Matrix: (Units=GPa)
#
#
# Indices 1 2 3 4 5 6 
#
# 1 96.5669 24.4064 40.0535 8.8685 20.0404 -12.1993
# 2 24.4064 51.1598 11.4435 6.7883 -0.5262 -1.3409
# 3 40.0535 11.4435 108.9236 15.5501 21.5294 -12.0401
# 4 8.8685 6.7883 15.5501 45.2646 3.9540 -2.1071
# 5 20.0404 -0.5262 21.5294 3.9540 52.4390 3.5761
# 6 -12.1993 -1.3409 -12.0401 -2.1071 3.5761 40.9642
#
#
#
# Elastic Compliance Matrix: (Units=1/GPa)
#
#
# Indices 1 2 3 4 5 6 
#
# 1 0.014762 -0.006192 -0.003463 -0.000215 -0.004508 0.003558
# 2 -0.006192 0.022938 -0.000598 -0.002373 0.003134 -0.001665
# 3 -0.003463 -0.000598 0.011918 -0.002896 -0.003535 0.002612
# 4 -0.000215 -0.002373 -0.002896 0.023545 -0.000546 0.000266
# 5 -0.004508 0.003134 -0.003535 -0.000546 0.022609 -0.004281
# 6 0.003558 -0.001665 0.002612 0.000266 -0.004281 0.026572
#
#
# Mechanical properties :
#
#
# Convention : Reuss Voigt Hill
#
# Bulk Modulus (GPa) = 34.34988 45.38411 39.86699
# Shear Modulus (GPa) = 32.77577 39.78336 36.27957
#
# Velocity S-wave (km/s) = 3.80358 4.19051 4.00173
# Velocity P-wave (km/s) = 5.86956 6.59139 6.24092
#
# Compressibility (1/GPa) = 0.02911218
#
# Stress axis : x y z
#
# Youngs Moduli (GPa) = 67.74351 43.59611 83.90904
#
# Poissons Ratio (x) = 0.26996 0.29054
# Poissons Ratio (y) = 0.41949 0.05015
# Poissons Ratio (z) = 0.23456 0.02605
#
# Static dielectric constant tensor:
#      x y z
#    x 1.882250 -0.006210 0.116850 
#    y -0.006210 1.828680 -0.044870 
#    z 0.116850 -0.044870 2.131330 
# 
# From -- ./inp_files/70712.got.cif
#   From: 2010.05.17/outbox.cif.g08.bks.cpg/sg2_36_cif.got.tgz:70712.got - 2010.06.03 11:33:40.
