data_PCOD9069216
_publ_section_title
;
Structure prediction by ZEFSAII (Michael W. Deem and Ramdas Pophale) SiO2 
 PCOD9069216
Probable space group: P -1
;
_chemical_formula_sum "Si O2"
_cell_formula_units_Z 15
_cell_length_a 8.637670
_cell_length_b 20.514068
_cell_length_c 11.408662
_cell_angle_alpha 30.875000
_cell_angle_beta 134.508469
_cell_angle_gamma 135.029850
_cell_volume 708.218799
_symmetry_space_group_name_H-M "P -1"
_symmetry_group_IT_number 2
_symmetry_cell_setting 'triclinic'
loop_
_space_group_symop_operation_xyz
x,y,z
-x,-y,-z
loop_
_atom_site_type_symbol
_atom_site_label
_atom_site_fract_x
_atom_site_fract_y
_atom_site_fract_z
Si Si1 0.241082 0.979033 0.932215
Si Si2 0.510091 0.641343 0.842125
Si Si3 0.500000 0.000000 0.500000
Si Si4 0.766127 0.758752 0.384973
Si Si5 0.001280 0.145387 0.229569
Si Si6 0.609212 0.235073 0.012837
Si Si7 0.758480 0.167309 0.602924
Si Si8 0.733372 0.473143 0.874682
O O1 0.079528 0.880878 0.907121
O O2 0.190226 0.120781 0.685668
O O3 0.209391 0.922760 0.133165
O O4 0.500000 0.000000 0.000000
O O5 0.343875 0.718713 0.578833
O O6 0.758132 0.744951 0.806117
O O7 0.500000 0.500000 0.000000
O O8 0.416956 0.608301 0.975046
O O9 0.468031 0.860823 0.769098
O O10 0.407246 0.918000 0.452437
O O11 0.684993 0.614199 0.620543
O O12 0.001108 0.770879 0.425973
O O13 0.584276 0.780372 0.162843
O O14 0.818890 0.195590 0.127617
O O15 0.000000 0.000000 0.500000
O O16 0.679400 0.385258 0.864940
O O17 0.000000 0.500000 0.000000
#
# Coordination Sequence:
#
# PCOD9069216 Si02
#       8
#     2   2   1   2   2   2   2   2
#     4  12  26  49  72 113 150 193 249 315 387 437
#     4  12  28  48  75 111 149 201 251 309 384 454
#     4  12  22  46  72 110 140 190 250 300 368 438
#     4  12  27  46  73 107 147 195 246 317 368 455
#     4  12  29  47  78 111 154 199 249 313 380 456
#     4  12  26  47  74 107 148 191 254 305 380 444
#     4  12  27  45  76 105 147 190 253 308 372 449
#     4  12  26  49  74 105 148 200 254 310 372 465
#
# _framework density 21.179895999999999
#
# number of rings (size 3 to 8) (size 9 to 14) (size 15 to 20)
#    0.000    0.000    5.333    3.200   11.200    0.000 
#    0.000    1.333    0.000    0.000    0.000    0.000 
#    0.000    0.000    0.000    0.000    0.000    0.000 
#
# Total GULP energy -83746.724258 kJ/mol
# GULP energy per Si atom -5583.114951 kJ/mol
# Density = 2.113169 g / cm^3
# Si number density = 21.179896 Si / 1000 Ang^3
#
#
#
# Elastic Constant Matrix: (Units=GPa)
#
#
# Indices 1 2 3 4 5 6 
#
# 1 46.3494 33.2598 25.3087 -5.3977 15.8279 1.2650
# 2 33.2598 90.9689 25.8038 -22.4817 12.9449 6.0287
# 3 25.3087 25.8038 110.1761 -25.2091 1.4496 3.9589
# 4 -5.3977 -22.4817 -25.2091 40.6686 -5.7551 1.2370
# 5 15.8279 12.9449 1.4496 -5.7551 48.1328 -0.1938
# 6 1.2650 6.0287 3.9589 1.2370 -0.1938 35.6042
#
#
#
# Elastic Compliance Matrix: (Units=1/GPa)
#
#
# Indices 1 2 3 4 5 6 
#
# 1 0.036359 -0.011895 -0.007251 -0.007634 -0.009445 0.001742
# 2 -0.011895 0.017429 0.000726 0.008626 0.000222 -0.002908
# 3 -0.007251 0.000726 0.012304 0.007494 0.002709 -0.001479
# 4 -0.007634 0.008626 0.007494 0.033648 0.003975 -0.003170
# 5 -0.009445 0.000222 0.002709 0.003975 0.024216 -0.000010
# 6 0.001742 -0.002908 -0.001479 -0.003170 -0.000010 0.028792
#
#
# Mechanical properties :
#
#
# Convention : Reuss Voigt Hill
#
# Bulk Modulus (GPa) = 34.18683 46.24880 40.21781
# Shear Modulus (GPa) = 25.08293 35.75591 30.41942
#
# Velocity S-wave (km/s) = 3.44507 4.11323 3.79389
# Velocity P-wave (km/s) = 5.65693 6.66647 6.18234
#
# Compressibility (1/GPa) = 0.02925103
#
# Stress axis : x y z
#
# Youngs Moduli (GPa) = 27.50352 57.37681 81.27201
#
# Poissons Ratio (x) = 0.68248 0.58933
# Poissons Ratio (y) = 0.32715 -0.05897
# Poissons Ratio (z) = 0.19944 -0.04163
#
# Static dielectric constant tensor:
#      x y z
#    x 1.785240 0.005320 -0.006090 
#    y 0.005320 1.784350 -0.025040 
#    z -0.006090 -0.025040 1.781130 
# 
# From -- ./inp_files/391136.got.cif
#   From: 2010.05.17/outbox.cif.g08.bks.cpg/sg2_196_cif.got.tgz:391136.got - 2010.06.03 11:33:40.
