data_PCOD9069183
_publ_section_title
;
Structure prediction by ZEFSAII (Michael W. Deem and Ramdas Pophale) SiO2 
 PCOD9069183
Probable space group: P -1
;
_chemical_formula_sum "Si O2"
_cell_formula_units_Z 16
_cell_length_a 11.788632
_cell_length_b 11.372772
_cell_length_c 8.927734
_cell_angle_alpha 119.225346
_cell_angle_beta 86.091711
_cell_angle_gamma 131.836192
_cell_volume 714.632991
_symmetry_space_group_name_H-M "P -1"
_symmetry_group_IT_number 2
_symmetry_cell_setting 'triclinic'
loop_
_space_group_symop_operation_xyz
x,y,z
-x,-y,-z
loop_
_atom_site_type_symbol
_atom_site_label
_atom_site_fract_x
_atom_site_fract_y
_atom_site_fract_z
Si Si1 0.168481 0.198413 0.521833
Si Si2 0.977090 0.424564 0.624458
Si Si3 0.020256 0.899777 0.820121
Si Si4 0.489367 0.982507 0.166968
Si Si5 0.189210 0.471177 0.203779
Si Si6 0.449070 0.210963 0.516867
Si Si7 0.268578 0.980780 0.685290
Si Si8 0.230207 0.524425 0.892378
O O1 0.313530 0.210984 0.501353
O O2 0.244726 0.397116 0.719865
O O3 0.106428 0.179901 0.350982
O O4 0.000000 0.000000 0.500000
O O5 0.834649 0.389773 0.693347
O O6 0.906428 0.213359 0.488623
O O7 0.000000 0.500000 0.500000
O O8 0.123910 0.532276 0.798020
O O9 0.210103 0.051452 0.839487
O O10 0.962974 0.719925 0.806500
O O11 0.000000 0.000000 0.000000
O O12 0.441565 0.080018 0.317032
O O13 0.669691 0.093496 0.274794
O O14 0.382208 0.754425 0.063076
O O15 0.500000 0.000000 0.000000
O O16 0.360618 0.579547 0.338781
O O17 0.169577 0.424266 0.000366
O O18 0.393120 0.110897 0.622235
#
# Coordination Sequence:
#
# PCOD9069183 Si02
#       8
#     2   2   2   2   2   2   2   2
#     4  12  26  50  74 106 149 196 249 304 376 447
#     4  12  22  44  74 104 144 190 244 304 367 431
#     4  12  28  46  75 107 147 199 249 304 368 452
#     4  12  28  46  76 114 148 191 254 309 373 440
#     4  12  26  45  73 108 146 192 253 300 376 439
#     4  12  27  48  76 104 153 197 241 313 375 442
#     4  12  23  49  74 103 149 194 239 305 371 437
#     4  12  26  45  74 111 146 193 247 305 371 439
#
# _framework density 22.389115
#
# number of rings (size 3 to 8) (size 9 to 14) (size 15 to 20)
#    0.000    0.000    6.250    3.000    3.500    3.000 
#    0.000    0.000    0.000    0.000    0.000    0.000 
#    0.000    0.000    0.000    0.000    0.000    0.000 
#
# Total GULP energy -89224.657571 kJ/mol
# GULP energy per Si atom -5576.541098 kJ/mol
# Density = 2.233816 g / cm^3
# Si number density = 22.389115 Si / 1000 Ang^3
#
#
#
# Elastic Constant Matrix: (Units=GPa)
#
#
# Indices 1 2 3 4 5 6 
#
# 1 167.6277 3.4038 69.0496 -18.7302 -17.0927 5.9111
# 2 3.4038 70.3494 25.3363 -21.4422 0.9364 3.5162
# 3 69.0496 25.3363 140.0163 -28.4733 -17.7752 2.4832
# 4 -18.7302 -21.4422 -28.4733 44.8630 4.2198 4.3259
# 5 -17.0927 0.9364 -17.7752 4.2198 44.0273 -7.7636
# 6 5.9111 3.5162 2.4832 4.3259 -7.7636 29.8968
#
#
#
# Elastic Compliance Matrix: (Units=1/GPa)
#
#
# Indices 1 2 3 4 5 6 
#
# 1 0.007766 0.001488 -0.003585 0.001703 0.001132 -0.001365
# 2 0.001488 0.017746 -0.002518 0.008099 -0.002287 -0.003938
# 3 -0.003585 -0.002518 0.010429 0.003650 0.002572 0.000278
# 4 0.001703 0.008099 0.003650 0.030006 -0.002054 -0.006467
# 5 0.001132 -0.002287 0.002572 -0.002054 0.025633 0.006785
# 6 -0.001365 -0.003938 0.000278 -0.006467 0.006785 0.036856
#
#
# Mechanical properties :
#
#
# Convention : Reuss Voigt Hill
#
# Bulk Modulus (GPa) = 37.43882 63.73030 50.58456
# Shear Modulus (GPa) = 34.11350 42.43767 38.27558
#
# Velocity S-wave (km/s) = 3.90765 4.35841 4.13917
# Velocity P-wave (km/s) = 6.09244 7.33855 6.74434
#
# Compressibility (1/GPa) = 0.02671024
#
# Stress axis : x y z
#
# Youngs Moduli (GPa) = 128.76821 56.35212 95.88313
#
# Poissons Ratio (x) = -0.08383 0.34371
# Poissons Ratio (y) = -0.19155 0.24145
# Poissons Ratio (z) = 0.46159 0.14191
#
# Static dielectric constant tensor:
#      x y z
#    x 1.967830 -0.003610 -0.117930 
#    y -0.003610 1.993960 0.036020 
#    z -0.117930 0.036020 1.972220 
# 
# From -- ./inp_files/187872.got.cif
#   From: 2010.05.17/outbox.cif.g08.bks.cpg/sg2_94_cif.got.tgz:187872.got - 2010.06.03 11:33:40.
