data_PCOD9069805
_publ_section_title
;
Structure prediction by ZEFSAII (Michael W. Deem and Ramdas Pophale) SiO2 
 PCOD9069805
Probable space group: P -1
;
_chemical_formula_sum "Si O2"
_cell_formula_units_Z 16
_cell_length_a 18.897619
_cell_length_b 8.757274
_cell_length_c 11.854274
_cell_angle_alpha 85.468667
_cell_angle_beta 50.574963
_cell_angle_gamma 125.674846
_cell_volume 859.212048
_symmetry_space_group_name_H-M "P -1"
_symmetry_group_IT_number 2
_symmetry_cell_setting 'triclinic'
loop_
_space_group_symop_operation_xyz
x,y,z
-x,-y,-z
loop_
_atom_site_type_symbol
_atom_site_label
_atom_site_fract_x
_atom_site_fract_y
_atom_site_fract_z
Si Si1 0.591456 0.956456 0.194823
Si Si2 0.762917 0.808457 0.228728
Si Si3 0.464737 0.204775 0.504261
Si Si4 0.722029 0.677302 0.518794
Si Si5 0.917310 0.772904 0.508523
Si Si6 0.608292 0.228063 0.971183
Si Si7 0.187767 0.028310 0.063887
Si Si8 0.498838 0.339753 0.222480
O O1 0.613141 0.129980 0.082802
O O2 0.584396 0.977680 0.335578
O O3 0.426277 0.639482 0.346818
O O4 0.734621 0.032403 0.022284
O O5 0.646317 0.509123 0.328143
O O6 0.646105 0.796366 0.361658
O O7 0.820411 0.850137 0.293983
O O8 0.869778 0.996612 0.001350
O O9 0.452817 0.166005 0.385035
O O10 0.826960 0.746029 0.505063
O O11 0.637350 0.717538 0.644240
O O12 0.783816 0.494204 0.726603
O O13 0.000000 0.000000 0.500000
O O14 0.049927 0.854387 0.305469
O O15 0.532323 0.285777 0.082108
O O16 0.500000 0.000000 0.000000
O O17 0.336662 0.344372 0.929540
#
# Coordination Sequence:
#
# PCOD9069805 Si02
#       8
#     2   2   2   2   2   2   2   2
#     4   9  18  35  58  81 109 142 177 225 276 320
#     4   7  12  27  54  84 104 129 177 224 268 323
#     4   7  12  27  54  84 104 129 177 224 268 323
#     4   9  18  35  59  81 106 143 182 223 270 323
#     4  12  24  37  53  80 112 147 190 224 256 318
#     4  12  24  37  53  80 112 147 190 224 256 318
#     4   9  18  35  58  81 109 142 177 225 276 320
#     4   9  18  35  59  81 106 143 182 223 270 323
#
# _framework density 18.621713
#
# number of rings (size 3 to 8) (size 9 to 14) (size 15 to 20)
#    0.000    2.750    2.500    3.000    0.000    3.000 
#    0.000    0.000    0.000    0.000    0.000    5.250 
#    0.000    0.000    0.000    0.000    0.000    0.000 
#
# Total GULP energy -89137.254240 kJ/mol
# GULP energy per Si atom -5571.078390 kJ/mol
# Density = 1.857933 g / cm^3
# Si number density = 18.621713 Si / 1000 Ang^3
#
#
#
# Elastic Constant Matrix: (Units=GPa)
#
#
# Indices 1 2 3 4 5 6 
#
# 1 63.4111 1.1324 -10.5279 -7.1016 1.9982 2.4078
# 2 1.1324 39.4570 26.1933 9.9673 -2.7707 -0.5524
# 3 -10.5279 26.1933 55.6988 8.1439 1.4916 4.9812
# 4 -7.1016 9.9673 8.1439 25.0202 -5.5247 1.9723
# 5 1.9982 -2.7707 1.4916 -5.5247 23.1076 -1.2595
# 6 2.4078 -0.5524 4.9812 1.9723 -1.2595 15.1780
#
#
#
# Elastic Compliance Matrix: (Units=1/GPa)
#
#
# Indices 1 2 3 4 5 6 
#
# 1 0.017775 -0.006092 0.005969 0.005632 -0.001626 -0.005867
# 2 -0.006092 0.042701 -0.020629 -0.011860 0.004755 0.011227
# 3 0.005969 -0.020629 0.030030 -0.000157 -0.005620 -0.011999
# 4 0.005632 -0.011860 -0.000157 0.048966 0.009434 -0.006854
# 5 -0.001626 0.004755 -0.005620 0.009434 0.046874 0.004939
# 6 -0.005867 0.011227 -0.011999 -0.006854 0.004939 0.072463
#
#
# Mechanical properties :
#
#
# Convention : Reuss Voigt Hill
#
# Bulk Modulus (GPa) = 20.40769 21.35140 20.87955
# Shear Modulus (GPa) = 15.79053 22.11244 18.95149
#
# Velocity S-wave (km/s) = 2.91514 3.44968 3.19362
# Velocity P-wave (km/s) = 4.72373 5.23047 4.98355
#
# Compressibility (1/GPa) = 0.04900112
#
# Stress axis : x y z
#
# Youngs Moduli (GPa) = 56.25955 23.41889 33.30024
#
# Poissons Ratio (x) = 0.14267 -0.19878
# Poissons Ratio (y) = 0.34273 0.68696
# Poissons Ratio (z) = -0.33583 0.48312
#
# Static dielectric constant tensor:
#      x y z
#    x 1.660700 0.000420 0.028160 
#    y 0.000420 1.629330 0.019380 
#    z 0.028160 0.019380 1.652150 
# 
# From -- ./inp_files/212272.got.cif
#   From: 2010.05.17/outbox.cif.g08.bks.cpg/sg2_107_cif.got.tgz:212272.got - 2010.06.03 11:33:40.
