data_PCOD9069440
_publ_section_title
;
Structure prediction by ZEFSAII (Michael W. Deem and Ramdas Pophale) SiO2 
 PCOD9069440
Probable space group: P -1
;
_chemical_formula_sum "Si O2"
_cell_formula_units_Z 16
_cell_length_a 12.940738
_cell_length_b 18.890024
_cell_length_c 8.774246
_cell_angle_alpha 47.433406
_cell_angle_beta 121.428969
_cell_angle_gamma 152.982364
_cell_volume 696.146285
_symmetry_space_group_name_H-M "P -1"
_symmetry_group_IT_number 2
_symmetry_cell_setting 'triclinic'
loop_
_space_group_symop_operation_xyz
x,y,z
-x,-y,-z
loop_
_atom_site_type_symbol
_atom_site_label
_atom_site_fract_x
_atom_site_fract_y
_atom_site_fract_z
Si Si1 0.569543 0.442484 0.078651
Si Si2 0.178915 0.096115 0.865054
Si Si3 0.108254 0.012691 0.427253
Si Si4 0.814550 0.311629 0.033479
Si Si5 0.708683 0.026304 0.877419
Si Si6 0.999344 0.608785 0.272117
Si Si7 0.159295 0.859914 0.531581
Si Si8 0.370450 0.498603 0.314647
O O1 0.327887 0.218634 0.226057
O O2 0.757046 0.506557 0.226369
O O3 0.500000 0.500000 0.000000
O O4 0.658600 0.524345 0.856780
O O5 0.445826 0.289624 0.834709
O O6 0.114792 0.133101 0.641517
O O7 0.140251 0.962988 0.966226
O O8 0.000000 0.000000 0.000000
O O9 0.182873 0.952623 0.553350
O O10 0.000000 0.000000 0.500000
O O11 0.744582 0.174642 0.285537
O O12 0.558655 0.174870 0.987852
O O13 0.935217 0.359692 0.900816
O O14 0.000000 0.500000 0.000000
O O15 0.816328 0.197705 0.777373
O O16 0.729766 0.034509 0.697319
O O17 0.000000 0.500000 0.500000
O O18 0.883057 0.655789 0.585012
O O19 0.500000 0.500000 0.500000
#
# Coordination Sequence:
#
# PCOD9069440 Si02
#       8
#     2   2   2   2   2   2   2   2
#     4  12  27  47  76 108 153 195 250 313 378 447
#     4  12  23  45  72 108 148 189 245 307 377 445
#     4  12  27  42  71 110 151 193 242 305 379 449
#     4  12  28  51  78 107 146 200 256 309 375 447
#     4  12  27  48  78 105 152 198 250 312 372 451
#     4  12  30  52  76 112 154 201 257 311 377 451
#     4  12  25  45  75 108 145 194 249 303 375 447
#     4  12  23  43  73 108 150 190 245 304 377 447
#
# _framework density 22.983675999999999
#
# number of rings (size 3 to 8) (size 9 to 14) (size 15 to 20)
#    0.000    0.000    5.000    3.750    7.000    1.000 
#    0.000    0.000    0.000    0.000    0.000    0.000 
#    0.000    0.000    0.000    0.000    0.000    0.000 
#
# Total GULP energy -89303.806154 kJ/mol
# GULP energy per Si atom -5581.487885 kJ/mol
# Density = 2.293136 g / cm^3
# Si number density = 22.983676 Si / 1000 Ang^3
#
#
#
# Elastic Constant Matrix: (Units=GPa)
#
#
# Indices 1 2 3 4 5 6 
#
# 1 115.3992 47.3928 15.1068 -11.7634 16.3090 -3.9864
# 2 47.3928 106.2826 6.2717 -15.6873 7.6212 -0.3794
# 3 15.1068 6.2717 62.9917 -2.3995 15.0839 0.3180
# 4 -11.7634 -15.6873 -2.3995 40.3487 1.5359 6.2435
# 5 16.3090 7.6212 15.0839 1.5359 52.5656 -1.9191
# 6 -3.9864 -0.3794 0.3180 6.2435 -1.9191 42.1475
#
#
#
# Elastic Compliance Matrix: (Units=1/GPa)
#
#
# Indices 1 2 3 4 5 6 
#
# 1 0.011246 -0.004540 -0.001626 0.001396 -0.002379 0.000720
# 2 -0.004540 0.011973 0.000155 0.003493 -0.000506 -0.000863
# 3 -0.001626 0.000155 0.017377 0.000889 -0.004553 -0.000623
# 4 0.001396 0.003493 0.000889 0.027300 -0.002138 -0.003985
# 5 -0.002379 -0.000506 -0.004553 -0.002138 0.021244 0.001089
# 6 0.000720 -0.000863 -0.000623 -0.003985 0.001089 0.024431
#
#
# Mechanical properties :
#
#
# Convention : Reuss Voigt Hill
#
# Bulk Modulus (GPa) = 34.99544 46.91289 40.95417
# Shear Modulus (GPa) = 37.00500 41.40585 39.20543
#
# Velocity S-wave (km/s) = 4.01690 4.24905 4.13461
# Velocity P-wave (km/s) = 6.06410 6.67295 6.37580
#
# Compressibility (1/GPa) = 0.02857515
#
# Stress axis : x y z
#
# Youngs Moduli (GPa) = 88.91894 83.52255 57.54773
#
# Poissons Ratio (x) = 0.37916 0.09357
# Poissons Ratio (y) = 0.40366 -0.00893
# Poissons Ratio (z) = 0.14457 -0.01296
#
# Static dielectric constant tensor:
#      x y z
#    x 1.938050 0.017090 0.085770 
#    y 0.017090 1.879980 0.024140 
#    z 0.085770 0.024140 1.891390 
# 
# From -- ./inp_files/279096.got.cif
#   From: 2010.05.17/outbox.cif.g08.bks.cpg/sg2_140_cif.got.tgz:279096.got - 2010.06.03 11:33:40.
