data_PCOD9069752
_publ_section_title
;
Structure prediction by ZEFSAII (Michael W. Deem and Ramdas Pophale) SiO2 
 PCOD9069752
Probable space group: P -1
;
_chemical_formula_sum "Si O2"
_cell_formula_units_Z 16
_cell_length_a 9.029675
_cell_length_b 17.332522
_cell_length_c 17.989973
_cell_angle_alpha 32.699641
_cell_angle_beta 41.797627
_cell_angle_gamma 29.001518
_cell_volume 736.974919
_symmetry_space_group_name_H-M "P -1"
_symmetry_group_IT_number 2
_symmetry_cell_setting 'triclinic'
loop_
_space_group_symop_operation_xyz
x,y,z
-x,-y,-z
loop_
_atom_site_type_symbol
_atom_site_label
_atom_site_fract_x
_atom_site_fract_y
_atom_site_fract_z
Si Si1 0.262836 0.201115 0.880441
Si Si2 0.771027 0.470276 0.618901
Si Si3 0.748094 0.291388 0.261260
Si Si4 0.848841 0.916369 0.131297
Si Si5 0.747279 0.491915 0.956830
Si Si6 0.678182 0.848802 0.753821
Si Si7 0.566140 0.856588 0.527636
Si Si8 0.302405 0.465536 0.566414
O O1 0.126954 0.170408 0.887302
O O2 0.390763 0.280513 0.723865
O O3 0.026921 0.362684 0.899114
O O4 0.500000 0.000000 0.000000
O O5 0.561470 0.560200 0.695981
O O6 0.592150 0.567595 0.531342
O O7 0.000000 0.500000 0.500000
O O8 0.973588 0.242780 0.740397
O O9 0.679139 0.165202 0.354820
O O10 0.009719 0.211575 0.288274
O O11 0.791853 0.387097 0.102191
O O12 0.508009 0.080991 0.156231
O O13 0.000000 0.000000 0.000000
O O14 0.692656 0.683423 0.844552
O O15 0.500000 0.500000 0.000000
O O16 0.512578 0.028887 0.612642
O O17 0.928862 0.650751 0.560855
O O18 0.500000 0.000000 0.500000
O O19 0.500000 0.500000 0.500000
#
# Coordination Sequence:
#
# PCOD9069752 Si02
#       8
#     2   2   2   2   2   2   2   2
#     4  12  28  48  72 107 146 190 246 302 366 442
#     4  12  23  48  76 102 146 196 247 306 370 432
#     4  12  26  46  73 108 148 197 250 309 368 443
#     4  12  25  45  75 108 146 194 249 300 364 442
#     4  12  26  49  72 105 154 198 240 304 373 442
#     4  12  26  46  75 111 148 196 249 305 371 446
#     4  12  26  47  71 107 146 192 243 305 378 441
#     4  12  28  47  75 107 147 193 247 306 373 446
#
# _framework density 21.710372
#
# number of rings (size 3 to 8) (size 9 to 14) (size 15 to 20)
#    0.000    0.000    3.750    6.000    5.250    3.000 
#    0.000    0.000    0.000    0.000    0.000    0.000 
#    0.000    0.000    0.000    0.000    0.000    0.000 
#
# Total GULP energy -89308.358038 kJ/mol
# GULP energy per Si atom -5581.772377 kJ/mol
# Density = 2.166096 g / cm^3
# Si number density = 21.710372 Si / 1000 Ang^3
#
#
#
# Elastic Constant Matrix: (Units=GPa)
#
#
# Indices 1 2 3 4 5 6 
#
# 1 97.7193 -0.8065 51.8549 4.8090 -4.8284 -11.3047
# 2 -0.8065 60.2223 14.7874 8.9923 2.2872 6.5302
# 3 51.8549 14.7874 178.3528 -9.8410 -2.1799 -5.9656
# 4 4.8090 8.9923 -9.8410 28.7084 3.0683 9.0283
# 5 -4.8284 2.2872 -2.1799 3.0683 54.6841 6.5959
# 6 -11.3047 6.5302 -5.9656 9.0283 6.5959 38.3109
#
#
#
# Elastic Compliance Matrix: (Units=1/GPa)
#
#
# Indices 1 2 3 4 5 6 
#
# 1 0.013226 0.001532 -0.004127 -0.005500 0.000745 0.004167
# 2 0.001532 0.018320 -0.002365 -0.006308 -0.000188 -0.001520
# 3 -0.004127 -0.002365 0.007207 0.004118 -0.000132 -0.000640
# 4 -0.005500 -0.006308 0.004118 0.042315 -0.001267 -0.009660
# 5 0.000745 -0.000188 -0.000132 -0.001267 0.018752 -0.002699
# 6 0.004167 -0.001520 -0.000640 -0.009660 -0.002699 0.030232
#
#
# Mechanical properties :
#
#
# Convention : Reuss Voigt Hill
#
# Bulk Modulus (GPa) = 34.68475 51.99621 43.34048
# Shear Modulus (GPa) = 33.42580 42.37127 37.89853
#
# Velocity S-wave (km/s) = 3.92806 4.42255 4.18262
# Velocity P-wave (km/s) = 6.04844 7.07676 6.58271
#
# Compressibility (1/GPa) = 0.02883112
#
# Stress axis : x y z
#
# Youngs Moduli (GPa) = 75.61045 54.58408 138.75058
#
# Poissons Ratio (x) = -0.08361 0.57266
# Poissons Ratio (y) = -0.11581 0.32821
# Poissons Ratio (z) = 0.31207 0.12912
#
# Static dielectric constant tensor:
#      x y z
#    x 1.789160 0.037440 -0.010730 
#    y 0.037440 1.600680 -0.088800 
#    z -0.010730 -0.088800 1.755380 
# 
# From -- ./inp_files/562058.got.cif
#   From: 2010.05.17/outbox.cif.g08.bks.cpg/sg2_282_cif.got.tgz:562058.got - 2010.06.03 11:33:40.
