data_PCOD9069284
_publ_section_title
;
Structure prediction by ZEFSAII (Michael W. Deem and Ramdas Pophale) SiO2 
 PCOD9069284
Probable space group: P -1
;
_chemical_formula_sum "Si O2"
_cell_formula_units_Z 16
_cell_length_a 24.996872
_cell_length_b 5.177955
_cell_length_c 11.977835
_cell_angle_alpha 116.601647
_cell_angle_beta 30.755848
_cell_angle_gamma 107.251402
_cell_volume 695.554791
_symmetry_space_group_name_H-M "P -1"
_symmetry_group_IT_number 2
_symmetry_cell_setting 'triclinic'
loop_
_space_group_symop_operation_xyz
x,y,z
-x,-y,-z
loop_
_atom_site_type_symbol
_atom_site_label
_atom_site_fract_x
_atom_site_fract_y
_atom_site_fract_z
Si Si1 0.704143 0.840763 0.998738
Si Si2 0.231429 0.258705 0.896592
Si Si3 0.695900 0.903142 0.642360
Si Si4 0.550705 0.480700 0.094485
Si Si5 0.854578 0.897923 0.561047
Si Si6 0.009940 0.613196 0.630853
Si Si7 0.658934 0.243359 0.552689
Si Si8 0.413797 0.608426 0.582488
O O1 0.775157 0.713332 0.951455
O O2 0.652527 0.616691 0.974458
O O3 0.613363 0.049515 0.271730
O O4 0.764570 0.019419 0.839521
O O5 0.307160 0.475558 0.760725
O O6 0.289875 0.939243 0.682621
O O7 0.108918 0.325612 0.092660
O O8 0.789834 0.868275 0.558537
O O9 0.676525 0.576253 0.593260
O O10 0.713895 0.051875 0.520713
O O11 0.596614 0.148245 0.912601
O O12 0.471008 0.704187 0.200272
O O13 0.472935 0.497068 0.342157
O O14 0.915112 0.608455 0.462172
O O15 0.938489 0.100655 0.422360
O O16 0.000000 0.500000 0.500000
O O17 0.500000 0.500000 0.500000
#
# Coordination Sequence:
#
# PCOD9069284 Si02
#       8
#     2   2   2   2   2   2   2   2
#     4  12  24  43  72 111 152 187 236 307 388 446
#     4  12  27  45  73 111 152 191 241 305 380 443
#     4  12  28  51  73 104 147 203 261 298 354 430
#     4  12  24  45  75 112 149 200 248 302 368 445
#     4  12  27  49  76 108 145 193 246 314 369 432
#     4  12  26  47  78 114 146 182 243 309 386 444
#     4  12  27  49  73 106 151 202 250 303 351 442
#     4  12  23  40  67 109 156 192 230 288 383 456
#
# _framework density 23.003219999999999
#
# number of rings (size 3 to 8) (size 9 to 14) (size 15 to 20)
#    0.000    0.000    3.750    6.750    1.750    2.000 
#    0.000    3.750    0.000    0.000    0.000    0.000 
#    0.000    0.000    0.000    0.000    0.000    0.000 
#
# Total GULP energy -89473.310195 kJ/mol
# GULP energy per Si atom -5592.081887 kJ/mol
# Density = 2.295086 g / cm^3
# Si number density = 23.003220 Si / 1000 Ang^3
#
#
#
# Elastic Constant Matrix: (Units=GPa)
#
#
# Indices 1 2 3 4 5 6 
#
# 1 121.1027 32.6399 24.0944 -1.4264 -12.4296 -19.4296
# 2 32.6399 122.1444 35.4004 0.4010 4.4908 -1.0650
# 3 24.0944 35.4004 100.4249 -3.5875 -14.3727 9.2446
# 4 -1.4264 0.4010 -3.5875 41.9112 -2.9421 2.5683
# 5 -12.4296 4.4908 -14.3727 -2.9421 32.8849 2.0617
# 6 -19.4296 -1.0650 9.2446 2.5683 2.0617 38.7904
#
#
#
# Elastic Compliance Matrix: (Units=1/GPa)
#
#
# Indices 1 2 3 4 5 6 
#
# 1 0.010426 -0.002364 -0.001703 0.000126 0.003193 0.005385
# 2 -0.002364 0.009998 -0.003560 -0.000766 -0.003896 0.000197
# 3 -0.001703 -0.003560 0.012946 0.001775 0.005940 -0.004469
# 4 0.000126 -0.000766 0.001775 0.024384 0.003246 -0.002168
# 5 0.003193 -0.003896 0.005940 0.003246 0.035160 -0.002007
# 6 0.005385 0.000197 -0.004469 -0.002168 -0.002007 0.029798
#
#
# Mechanical properties :
#
#
# Convention : Reuss Voigt Hill
#
# Bulk Modulus (GPa) = 55.19517 58.66016 56.92767
# Shear Modulus (GPa) = 34.72097 39.48644 37.10370
#
# Velocity S-wave (km/s) = 3.88931 4.14764 4.02055
# Velocity P-wave (km/s) = 6.64948 6.96372 6.80841
#
# Compressibility (1/GPa) = 0.01811753
#
# Stress axis : x y z
#
# Youngs Moduli (GPa) = 95.90954 100.02029 77.24302
#
# Poissons Ratio (x) = 0.23641 0.13152
# Poissons Ratio (y) = 0.22669 0.27501
# Poissons Ratio (z) = 0.16330 0.35610
#
# Static dielectric constant tensor:
#      x y z
#    x 2.124150 -0.090450 -0.173040 
#    y -0.090450 1.835430 -0.028600 
#    z -0.173040 -0.028600 1.801260 
# 
# From -- ./inp_files/473468.got.cif
#   From: 2010.05.17/outbox.cif.g08.bks.cpg/sg2_237_cif.got.tgz:473468.got - 2010.06.03 11:33:40.
