data_PCOD9069716
_publ_section_title
;
Structure prediction by ZEFSAII (Michael W. Deem and Ramdas Pophale) SiO2 
 PCOD9069716
Probable space group: P -1
;
_chemical_formula_sum "Si O2"
_cell_formula_units_Z 12
_cell_length_a 8.536093
_cell_length_b 14.905711
_cell_length_c 8.601415
_cell_angle_alpha 122.343126
_cell_angle_beta 146.920831
_cell_angle_gamma 65.815974
_cell_volume 502.886616
_symmetry_space_group_name_H-M "P -1"
_symmetry_group_IT_number 2
_symmetry_cell_setting 'triclinic'
loop_
_space_group_symop_operation_xyz
x,y,z
-x,-y,-z
loop_
_atom_site_type_symbol
_atom_site_label
_atom_site_fract_x
_atom_site_fract_y
_atom_site_fract_z
Si Si1 0.491352 0.710728 0.818275
Si Si2 0.221839 0.068193 0.851447
Si Si3 0.135911 0.259897 0.559516
Si Si4 0.134829 0.413852 0.419179
Si Si5 0.749160 0.425020 0.807149
Si Si6 0.811680 0.984589 0.680755
O O1 0.380768 0.646398 0.512778
O O2 0.200980 0.739073 0.686520
O O3 0.673199 0.813933 0.998405
O O4 0.692805 0.677783 0.098835
O O5 0.000000 0.000000 0.500000
O O6 0.003901 0.069524 0.815686
O O7 0.500000 0.000000 0.000000
O O8 0.190039 0.315299 0.488273
O O9 0.201896 0.136432 0.505609
O O10 0.446000 0.460148 0.655574
O O11 0.000000 0.500000 0.500000
O O12 0.920881 0.386674 0.068584
O O13 0.000000 0.500000 0.000000
O O14 0.500000 0.000000 0.500000
O O15 0.000000 0.000000 0.000000
#
# Coordination Sequence:
#
# PCOD9069716 Si02
#       6
#     2   2   2   2   2   2
#     4  12  25  49  79 112 153 202 259 314 369 461
#     4  12  23  47  75 108 151 205 254 300 376 448
#     4  12  26  50  76 115 154 206 250 312 390 448
#     4  12  28  52  81 112 154 199 249 320 392 457
#     4  12  28  51  81 114 147 199 259 319 381 456
#     4  12  26  45  74 109 161 199 250 312 373 453
#
# _framework density 23.862238000000001
#
# number of rings (size 3 to 8) (size 9 to 14) (size 15 to 20)
#    0.000    0.000    3.333    6.000    2.333    2.667 
#    0.000    0.000    0.000    0.000    0.000    0.000 
#    0.000    0.000    0.000    0.000    0.000    0.000 
#
# Total GULP energy -66936.913331 kJ/mol
# GULP energy per Si atom -5578.076111 kJ/mol
# Density = 2.380793 g / cm^3
# Si number density = 23.862238 Si / 1000 Ang^3
#
#
#
# Elastic Constant Matrix: (Units=GPa)
#
#
# Indices 1 2 3 4 5 6 
#
# 1 161.0493 32.4513 75.0374 -1.2460 27.8638 17.2403
# 2 32.4513 58.1475 50.9011 7.3708 1.5799 17.9844
# 3 75.0374 50.9011 237.9975 -6.7684 3.8033 21.5517
# 4 -1.2460 7.3708 -6.7684 51.7550 -5.3237 5.3897
# 5 27.8638 1.5799 3.8033 -5.3237 68.2173 -18.3690
# 6 17.2403 17.9844 21.5517 5.3897 -18.3690 43.4415
#
#
#
# Elastic Compliance Matrix: (Units=1/GPa)
#
#
# Indices 1 2 3 4 5 6 
#
# 1 0.008611 -0.001959 -0.001906 0.000159 -0.004294 -0.003496
# 2 -0.001959 0.024742 -0.004031 -0.003479 -0.001934 -0.007852
# 3 -0.001906 -0.004031 0.005726 0.001371 0.000566 -0.000346
# 4 0.000159 -0.003479 0.001371 0.020258 0.001163 -0.001325
# 5 -0.004294 -0.001934 0.000566 0.001163 0.019271 0.010228
# 6 -0.003496 -0.007852 -0.000346 -0.001325 0.010228 0.032319
#
#
# Mechanical properties :
#
#
# Convention : Reuss Voigt Hill
#
# Bulk Modulus (GPa) = 42.94411 85.99712 64.47061
# Shear Modulus (GPa) = 37.18012 52.60303 44.89157
#
# Velocity S-wave (km/s) = 3.95158 4.70025 4.34208
# Velocity P-wave (km/s) = 6.23344 8.09776 7.22597
#
# Compressibility (1/GPa) = 0.02328608
#
# Stress axis : x y z
#
# Youngs Moduli (GPa) = 116.13561 40.41779 174.63981
#
# Poissons Ratio (x) = 0.07918 0.33287
# Poissons Ratio (y) = 0.22753 0.70396
# Poissons Ratio (z) = 0.22136 0.16292
#
# Static dielectric constant tensor:
#      x y z
#    x 1.976280 -0.056220 -0.158900 
#    y -0.056220 2.124120 0.038470 
#    z -0.158900 0.038470 1.907720 
# 
# From -- ./inp_files/208867.got.cif
#   From: 2010.05.17/outbox.cif.g08.bks.cpg/sg2_105_cif.got.tgz:208867.got - 2010.06.03 11:33:40.
