data_PCOD9069600
_publ_section_title
;
Structure prediction by ZEFSAII (Michael W. Deem and Ramdas Pophale) SiO2 
 PCOD9069600
Probable space group: P -1
;
_chemical_formula_sum "Si O2"
_cell_formula_units_Z 13
_cell_length_a 9.270755
_cell_length_b 12.042283
_cell_length_c 14.304597
_cell_angle_alpha 134.352211
_cell_angle_beta 126.088336
_cell_angle_gamma 27.563761
_cell_volume 526.133962
_symmetry_space_group_name_H-M "P -1"
_symmetry_group_IT_number 2
_symmetry_cell_setting 'triclinic'
loop_
_space_group_symop_operation_xyz
x,y,z
-x,-y,-z
loop_
_atom_site_type_symbol
_atom_site_label
_atom_site_fract_x
_atom_site_fract_y
_atom_site_fract_z
Si Si1 0.748994 0.899089 0.256665
Si Si2 0.442474 0.428477 0.523016
Si Si3 0.250989 0.410379 0.817234
Si Si4 0.665061 0.981512 0.971764
Si Si5 0.159290 0.317426 0.545847
Si Si6 0.500000 0.500000 0.000000
Si Si7 0.392604 0.518716 0.189297
O O1 0.855803 0.674795 0.227338
O O2 0.457297 0.029248 0.169533
O O3 0.019111 0.755960 0.203317
O O4 0.638856 0.128149 0.406777
O O5 0.500000 0.500000 0.500000
O O6 0.509726 0.452835 0.664653
O O7 0.081496 0.644858 0.500055
O O8 0.182576 0.436282 0.699425
O O9 0.574811 0.250807 0.880536
O O10 0.043438 0.704999 0.949440
O O11 0.545785 0.239062 0.088334
O O12 0.500000 0.000000 0.000000
O O13 0.000000 0.500000 0.500000
O O14 0.500000 0.000000 0.500000
O O15 0.480724 0.517847 0.120613
#
# Coordination Sequence:
#
# PCOD9069600 Si02
#       7
#     2   2   2   2   2   1   2
#     4  12  24  51  79 113 159 217 280 343 421 498
#     4  12  27  51  82 125 160 212 289 360 414 495
#     4  12  26  48  77 112 156 219 273 339 415 504
#     4  12  23  45  77 110 153 204 277 333 409 490
#     4  12  28  51  81 115 167 223 272 336 431 516
#     4  12  28  46  70 114 164 212 266 340 414 512
#     4  12  26  47  79 120 165 214 274 344 425 499
#
# _framework density 24.708537
#
# number of rings (size 3 to 8) (size 9 to 14) (size 15 to 20)
#    0.000    0.000    4.615    5.538    0.000    4.308 
#    0.000    0.000    0.000    0.000    0.000    0.000 
#    0.000    0.000    0.000    0.000    0.000    0.000 
#
# Total GULP energy -72471.006848 kJ/mol
# GULP energy per Si atom -5574.692834 kJ/mol
# Density = 2.465230 g / cm^3
# Si number density = 24.708537 Si / 1000 Ang^3
#
#
#
# Elastic Constant Matrix: (Units=GPa)
#
#
# Indices 1 2 3 4 5 6 
#
# 1 166.0653 37.7930 74.2915 -6.3420 -2.7110 24.0597
# 2 37.7930 101.9837 65.7888 7.5122 -8.4504 -2.3771
# 3 74.2915 65.7888 230.5613 -16.2609 -3.4711 15.7809
# 4 -6.3420 7.5122 -16.2609 61.6120 2.8613 -3.7153
# 5 -2.7110 -8.4504 -3.4711 2.8613 40.1625 -9.5268
# 6 24.0597 -2.3771 15.7809 -3.7153 -9.5268 31.9660
#
#
#
# Elastic Compliance Matrix: (Units=1/GPa)
#
#
# Indices 1 2 3 4 5 6 
#
# 1 0.008076 -0.002293 -0.001538 0.000419 -0.001497 -0.005887
# 2 -0.002293 0.013666 -0.003663 -0.002724 0.003876 0.005389
# 3 -0.001538 -0.003663 0.006145 0.001822 -0.001004 -0.002236
# 4 0.000419 -0.002724 0.001822 0.017167 -0.001585 0.000105
# 5 -0.001497 0.003876 -0.001004 -0.001585 0.028031 0.010080
# 6 -0.005887 0.005389 -0.002236 0.000105 0.010080 0.040235
#
#
# Mechanical properties :
#
#
# Convention : Reuss Voigt Hill
#
# Bulk Modulus (GPa) = 77.53030 94.92854 86.22942
# Shear Modulus (GPa) = 37.70564 48.13058 42.91811
#
# Velocity S-wave (km/s) = 3.91066 4.41833 4.17222
# Velocity P-wave (km/s) = 7.19980 8.03315 7.62787
#
# Compressibility (1/GPa) = 0.01289818
#
# Stress axis : x y z
#
# Youngs Moduli (GPa) = 123.82222 73.17568 162.74684
#
# Poissons Ratio (x) = 0.16777 0.25032
# Poissons Ratio (y) = 0.28389 0.59618
# Poissons Ratio (z) = 0.19045 0.26806
#
# Static dielectric constant tensor:
#      x y z
#    x 2.012140 0.078030 -0.058820 
#    y 0.078030 1.707930 0.010850 
#    z -0.058820 0.010850 1.908330 
# 
# From -- ./inp_files/488779.got.cif
#   From: 2010.05.17/outbox.cif.g08.bks.cpg/sg2_245_cif.got.tgz:488779.got - 2010.06.03 11:33:40.
