data_PCOD9069827
_publ_section_title
;
Structure prediction by ZEFSAII (Michael W. Deem and Ramdas Pophale) SiO2 
 PCOD9069827
Probable space group: P -1
;
_chemical_formula_sum "Si O2"
_cell_formula_units_Z 14
_cell_length_a 22.680852
_cell_length_b 22.675235
_cell_length_c 8.996417
_cell_angle_alpha 143.929491
_cell_angle_beta 142.817682
_cell_angle_gamma 12.684917
_cell_volume 597.008400
_symmetry_space_group_name_H-M "P -1"
_symmetry_group_IT_number 2
_symmetry_cell_setting 'triclinic'
loop_
_space_group_symop_operation_xyz
x,y,z
-x,-y,-z
loop_
_atom_site_type_symbol
_atom_site_label
_atom_site_fract_x
_atom_site_fract_y
_atom_site_fract_z
Si Si1 0.765600 0.258967 0.950813
Si Si2 0.476917 0.318311 0.803055
Si Si3 0.268253 0.912421 0.619844
Si Si4 0.272469 0.799933 0.675801
Si Si5 0.032089 0.296985 0.489124
Si Si6 0.197165 0.497519 0.226413
Si Si7 0.240118 0.267551 0.626645
O O1 0.768518 0.170408 0.653225
O O2 0.500000 0.500000 0.000000
O O3 0.732393 0.404762 0.134381
O O4 0.000000 0.000000 0.000000
O O5 0.230895 0.480853 0.689148
O O6 0.720483 0.016703 0.618133
O O7 0.656242 0.224220 0.068754
O O8 0.301143 0.873197 0.782920
O O9 0.525759 0.705727 0.628488
O O10 0.021481 0.215882 0.693182
O O11 0.500000 0.500000 0.500000
O O12 0.000000 0.000000 0.500000
O O13 0.179223 0.241731 0.576463
O O14 0.899880 0.446426 0.691020
O O15 0.247051 0.362142 0.931696
O O16 0.000000 0.500000 0.500000
O O17 0.500000 0.000000 0.500000
#
# Coordination Sequence:
#
# PCOD9069827 Si02
#       7
#     2   2   2   2   2   2   2
#     4  12  24  41  67 103 149 193 245 302 357 439
#     4  12  26  44  76 110 151 201 258 304 376 445
#     4  12  26  44  73 106 149 197 253 303 372 443
#     4  12  26  46  68 104 155 210 253 307 374 434
#     4  12  27  50  79 111 151 198 252 316 383 453
#     4  12  27  50  76 111 149 195 249 312 383 447
#     4  12  29  52  80 115 147 191 248 316 387 461
#
# _framework density 23.450256
#
# number of rings (size 3 to 8) (size 9 to 14) (size 15 to 20)
#    0.000    0.000    1.429    9.000    8.000    0.000 
#    0.000    4.286    0.000    0.000    0.000    0.000 
#    0.000    0.000    0.000    0.000    0.000    0.000 
#
# Total GULP energy -78118.986398 kJ/mol
# GULP energy per Si atom -5579.927600 kJ/mol
# Density = 2.339688 g / cm^3
# Si number density = 23.450256 Si / 1000 Ang^3
#
#
#
# Elastic Constant Matrix: (Units=GPa)
#
#
# Indices 1 2 3 4 5 6 
#
# 1 116.4559 55.4964 36.2177 10.2782 -4.0856 -5.0106
# 2 55.4964 224.5182 48.7886 6.1694 1.4971 -6.2630
# 3 36.2177 48.7886 111.2992 18.4498 2.2023 -6.1400
# 4 10.2782 6.1694 18.4498 36.3689 -2.1241 -5.4279
# 5 -4.0856 1.4971 2.2023 -2.1241 20.7733 -5.2021
# 6 -5.0106 -6.2630 -6.1400 -5.4279 -5.2021 41.5630
#
#
#
# Elastic Compliance Matrix: (Units=1/GPa)
#
#
# Indices 1 2 3 4 5 6 
#
# 1 0.010519 -0.002056 -0.002334 -0.001175 0.002539 0.000778
# 2 -0.002056 0.005336 -0.001739 0.000578 -0.000466 0.000316
# 3 -0.002334 -0.001739 0.011371 -0.004892 -0.001977 0.000250
# 4 -0.001175 0.000578 -0.004892 0.031038 0.004377 0.003824
# 5 0.002539 -0.000466 -0.001977 0.004377 0.051058 0.006906
# 6 0.000778 0.000316 0.000250 0.003824 0.006906 0.025602
#
#
# Mechanical properties :
#
#
# Convention : Reuss Voigt Hill
#
# Bulk Modulus (GPa) = 66.81390 81.47542 74.14466
# Shear Modulus (GPa) = 32.85766 40.52574 36.69170
#
# Velocity S-wave (km/s) = 3.74727 4.16162 3.95987
# Velocity P-wave (km/s) = 6.87578 7.60996 7.25217
#
# Compressibility (1/GPa) = 0.01496694
#
# Stress axis : x y z
#
# Youngs Moduli (GPa) = 95.06763 187.40175 87.94603
#
# Poissons Ratio (x) = 0.38525 0.20529
# Poissons Ratio (y) = 0.19543 0.15297
# Poissons Ratio (z) = 0.22191 0.32595
#
# Static dielectric constant tensor:
#      x y z
#    x 1.920730 0.018980 -0.103170 
#    y 0.018980 1.843680 -0.042620 
#    z -0.103170 -0.042620 2.252720 
# 
# From -- ./inp_files/355512.got.cif
#   From: 2010.05.17/outbox.cif.g08.bks.cpg/sg2_178_cif.got.tgz:355512.got - 2010.06.03 11:33:40.
