data_PCOD9069275
_publ_section_title
;
Structure prediction by ZEFSAII (Michael W. Deem and Ramdas Pophale) SiO2 
 PCOD9069275
Probable space group: P -1
;
_chemical_formula_sum "Si O2"
_cell_formula_units_Z 16
_cell_length_a 8.259235
_cell_length_b 12.817047
_cell_length_c 7.324691
_cell_angle_alpha 84.430084
_cell_angle_beta 124.135565
_cell_angle_gamma 112.286299
_cell_volume 587.032220
_symmetry_space_group_name_H-M "P -1"
_symmetry_group_IT_number 2
_symmetry_cell_setting 'triclinic'
loop_
_space_group_symop_operation_xyz
x,y,z
-x,-y,-z
loop_
_atom_site_type_symbol
_atom_site_label
_atom_site_fract_x
_atom_site_fract_y
_atom_site_fract_z
Si Si1 0.214094 0.050316 0.005590
Si Si2 0.269721 0.600577 0.993593
Si Si3 0.733944 0.643629 0.387841
Si Si4 0.649357 0.403402 0.385531
Si Si5 0.820382 0.644976 0.007370
Si Si6 0.018316 0.121773 0.560238
Si Si7 0.780870 0.177156 0.952781
Si Si8 0.632256 0.165990 0.488314
O O1 0.415645 0.115168 0.247831
O O2 0.233093 0.938892 0.943831
O O3 0.190658 0.135554 0.827720
O O4 0.000000 0.000000 0.000000
O O5 0.488569 0.624652 0.239297
O O6 0.233816 0.716771 0.971073
O O7 0.302423 0.593967 0.799158
O O8 0.133180 0.468106 0.979765
O O9 0.761455 0.533228 0.505708
O O10 0.787092 0.643943 0.204841
O O11 0.880477 0.769163 0.526626
O O12 0.708512 0.303550 0.518821
O O13 0.396396 0.370768 0.232531
O O14 0.001921 0.759912 0.033106
O O15 0.805878 0.127563 0.509647
O O16 0.000000 0.000000 0.500000
O O17 0.604573 0.131288 0.688041
#
# Coordination Sequence:
#
# PCOD9069275 Si02
#       8
#     2   2   2   2   2   2   2   2
#     4  12  26  47  66  92 138 182 220 275 340 391
#     4   9  20  35  69  99 130 173 221 277 331 389
#     4   9  18  42  65  94 133 173 214 274 334 393
#     4   9  20  40  71  93 130 177 218 268 339 394
#     4   9  17  41  64  95 135 176 214 274 336 390
#     4  12  28  45  69 100 134 172 231 281 324 398
#     4  12  23  39  65  99 137 175 224 275 326 402
#     4  12  26  44  69 101 131 182 227 268 338 406
#
# _framework density 27.255744
#
# number of rings (size 3 to 8) (size 9 to 14) (size 15 to 20)
#    0.000    1.500    2.500    4.500    3.500    1.000 
#    0.000    3.750    0.000    0.000    0.000    0.000 
#    0.000    0.000    0.000    0.000    0.000    0.000 
#
# Total GULP energy -89681.325581 kJ/mol
# GULP energy per Si atom -5605.082849 kJ/mol
# Density = 2.719371 g / cm^3
# Si number density = 27.255744 Si / 1000 Ang^3
#
#
#
# Elastic Constant Matrix: (Units=GPa)
#
#
# Indices 1 2 3 4 5 6 
#
# 1 33.1395 52.8565 16.3537 3.3170 3.4092 -20.5501
# 2 52.8565 268.7058 39.6671 -7.4304 13.9067 -38.0606
# 3 16.3537 39.6671 98.1399 -4.7981 16.6980 -0.9175
# 4 3.3170 -7.4304 -4.7981 54.3093 1.6916 4.4896
# 5 3.4092 13.9067 16.6980 1.6916 29.1589 2.1421
# 6 -20.5501 -38.0606 -0.9175 4.4896 2.1421 45.2870
#
#
#
# Elastic Compliance Matrix: (Units=1/GPa)
#
#
# Indices 1 2 3 4 5 6 
#
# 1 0.060240 -0.008007 -0.006879 -0.007121 -0.000429 0.021193
# 2 -0.008007 0.005651 -0.000619 0.001168 -0.001550 0.001061
# 3 -0.006879 -0.000619 0.012674 0.001915 -0.006028 -0.003290
# 4 -0.007121 0.001168 0.001915 0.019565 -0.001657 -0.004072
# 5 -0.000429 -0.001550 -0.006028 -0.001657 0.038874 -0.003294
# 6 0.021193 0.001061 -0.003290 -0.004072 -0.003294 0.033082
#
#
# Mechanical properties :
#
#
# Convention : Reuss Voigt Hill
#
# Bulk Modulus (GPa) = 21.02810 68.63773 44.83292
# Shear Modulus (GPa) = 23.04697 45.15826 34.10261
#
# Velocity S-wave (km/s) = 2.91104 4.07484 3.54108
# Velocity P-wave (km/s) = 4.36243 6.88307 5.76226
#
# Compressibility (1/GPa) = 0.04755542
#
# Stress axis : x y z
#
# Youngs Moduli (GPa) = 16.60033 176.96906 78.89867
#
# Poissons Ratio (x) = 1.41700 0.54273
# Poissons Ratio (y) = 0.13292 0.04883
# Poissons Ratio (z) = 0.11419 0.10953
#
# Static dielectric constant tensor:
#      x y z
#    x 2.138390 -0.027660 -0.005750 
#    y -0.027660 2.118670 0.046240 
#    z -0.005750 0.046240 2.185760 
# 
# From -- ./inp_files/188067.got.cif
#   From: 2010.05.17/outbox.cif.g08.bks.cpg/sg2_95_cif.got.tgz:188067.got - 2010.06.03 11:33:40.
