data_PCOD9069931
_publ_section_title
;
Structure prediction by ZEFSAII (Michael W. Deem and Ramdas Pophale) SiO2 
 PCOD9069931
Probable space group: P -1
;
_chemical_formula_sum "Si O2"
_cell_formula_units_Z 14
_cell_length_a 15.020650
_cell_length_b 15.441301
_cell_length_c 8.746346
_cell_angle_alpha 131.364225
_cell_angle_beta 113.933462
_cell_angle_gamma 28.517207
_cell_volume 634.309267
_symmetry_space_group_name_H-M "P -1"
_symmetry_group_IT_number 2
_symmetry_cell_setting 'triclinic'
loop_
_space_group_symop_operation_xyz
x,y,z
-x,-y,-z
loop_
_atom_site_type_symbol
_atom_site_label
_atom_site_fract_x
_atom_site_fract_y
_atom_site_fract_z
Si Si1 0.233678 0.091080 0.541182
Si Si2 0.176362 0.358465 0.574833
Si Si3 0.047538 0.746674 0.049435
Si Si4 0.588450 0.927487 0.147806
Si Si5 0.202966 0.536312 0.237561
Si Si6 0.451899 0.674402 0.597589
Si Si7 0.431196 0.451410 0.824317
O O1 0.215812 0.217735 0.562958
O O2 0.269165 0.110199 0.757647
O O3 0.015805 0.248559 0.569976
O O4 0.428287 0.801119 0.300777
O O5 0.000000 0.500000 0.500000
O O6 0.390137 0.151088 0.384284
O O7 0.096707 0.562645 0.825662
O O8 0.141843 0.665672 0.190495
O O9 0.185114 0.681620 0.955828
O O10 0.796403 0.035112 0.210042
O O11 0.719099 0.675822 0.987670
O O12 0.500000 0.000000 0.000000
O O13 0.391997 0.399000 0.298383
O O14 0.500000 0.500000 0.500000
O O15 0.509522 0.611602 0.385837
O O16 0.500000 0.500000 0.000000
#
# Coordination Sequence:
#
# PCOD9069931 Si02
#       7
#     2   2   2   2   2   2   2
#     4  12  25  47  75 114 157 202 254 313 386 456
#     4  12  26  43  71 113 155 200 252 308 382 466
#     4  12  27  52  78 110 156 201 256 318 385 455
#     4  12  24  43  72 112 156 199 252 308 383 460
#     4  12  26  46  78 108 155 201 251 320 380 452
#     4  12  30  54  77 113 151 204 264 317 387 460
#     4  12  28  50  81 113 151 202 261 317 380 457
#
# _framework density 22.071252999999999
#
# number of rings (size 3 to 8) (size 9 to 14) (size 15 to 20)
#    0.000    0.000    4.286    5.143    6.000    2.857 
#    0.000    0.000    0.000    0.000    0.000    0.000 
#    0.000    0.000    0.000    0.000    0.000    0.000 
#
# Total GULP energy -78468.740880 kJ/mol
# GULP energy per Si atom -5604.910063 kJ/mol
# Density = 2.202102 g / cm^3
# Si number density = 22.071253 Si / 1000 Ang^3
#
#
#
# Elastic Constant Matrix: (Units=GPa)
#
#
# Indices 1 2 3 4 5 6 
#
# 1 121.3074 46.4552 55.1057 2.3427 -13.3258 -11.0342
# 2 46.4552 129.8728 53.4464 2.0572 -9.7352 -19.7526
# 3 55.1057 53.4464 102.6836 1.4386 -16.8093 -12.2456
# 4 2.3427 2.0572 1.4386 32.4105 -12.7155 -1.0093
# 5 -13.3258 -9.7352 -16.8093 -12.7155 50.1018 2.7179
# 6 -11.0342 -19.7526 -12.2456 -1.0093 2.7179 48.5730
#
#
#
# Elastic Compliance Matrix: (Units=1/GPa)
#
#
# Indices 1 2 3 4 5 6 
#
# 1 0.011340 -0.001896 -0.004878 -0.000090 0.000960 0.000520
# 2 -0.001896 0.010499 -0.004121 -0.000287 -0.000072 0.002798
# 3 -0.004878 -0.004121 0.015119 0.001242 0.003242 0.000872
# 4 -0.000090 -0.000287 0.001242 0.034383 0.009042 0.000384
# 5 0.000960 -0.000072 0.003242 0.009042 0.023590 -0.000126
# 6 0.000520 0.002798 0.000872 0.000384 -0.000126 0.022078
#
#
# Mechanical properties :
#
#
# Convention : Reuss Voigt Hill
#
# Bulk Modulus (GPa) = 65.93459 73.76427 69.84943
# Shear Modulus (GPa) = 34.75682 39.47415 37.11549
#
# Velocity S-wave (km/s) = 3.97262 4.23364 4.10521
# Velocity P-wave (km/s) = 7.14008 7.57574 7.36113
#
# Compressibility (1/GPa) = 0.01516655
#
# Stress axis : x y z
#
# Youngs Moduli (GPa) = 88.18117 95.24959 66.14231
#
# Poissons Ratio (x) = 0.18063 0.32267
# Poissons Ratio (y) = 0.16723 0.27257
# Poissons Ratio (z) = 0.43018 0.39251
#
# Static dielectric constant tensor:
#      x y z
#    x 1.891000 -0.059130 -0.039080 
#    y -0.059130 1.866330 0.000180 
#    z -0.039080 0.000180 1.795580 
# 
# From -- ./inp_files/315950.got.cif
#   From: 2010.05.17/outbox.cif.g08.bks.cpg/sg2_158_cif.got.tgz:315950.got - 2010.06.03 11:33:40.
