data_PCOD9069548
_publ_section_title
;
Structure prediction by ZEFSAII (Michael W. Deem and Ramdas Pophale) SiO2 
 PCOD9069548
Probable space group: P -1
;
_chemical_formula_sum "Si O2"
_cell_formula_units_Z 12
_cell_length_a 8.936237
_cell_length_b 24.297669
_cell_length_c 26.464534
_cell_angle_alpha 170.690065
_cell_angle_beta 31.088972
_cell_angle_gamma 148.539167
_cell_volume 477.857342
_symmetry_space_group_name_H-M "P -1"
_symmetry_group_IT_number 2
_symmetry_cell_setting 'triclinic'
loop_
_space_group_symop_operation_xyz
x,y,z
-x,-y,-z
loop_
_atom_site_type_symbol
_atom_site_label
_atom_site_fract_x
_atom_site_fract_y
_atom_site_fract_z
Si Si1 0.270153 0.171213 0.611049
Si Si2 0.370695 0.666237 0.946487
Si Si3 0.165636 0.401262 0.667095
Si Si4 0.615631 0.919851 0.948250
Si Si5 0.526272 0.500091 0.931259
Si Si6 0.996359 0.364986 0.304615
O O1 0.334587 0.536795 0.896473
O O2 0.296565 0.266008 0.749681
O O3 0.000000 0.000000 0.500000
O O4 0.502067 0.897500 0.286129
O O5 0.144180 0.468828 0.794481
O O6 0.683761 0.564870 0.746492
O O7 0.327301 0.059913 0.306742
O O8 0.368136 0.712743 0.865903
O O9 0.844060 0.384097 0.721838
O O10 0.884161 0.682516 0.653387
O O11 0.500000 0.000000 0.000000
O O12 0.744389 0.277103 0.257311
O O13 0.500000 0.500000 0.000000
O O14 0.000000 0.000000 0.000000
#
# Coordination Sequence:
#
# PCOD9069548 Si02
#       6
#     2   2   2   2   2   2
#     4  12  28  50  77 109 143 190 252 308 368 442
#     4  12  26  45  75 105 147 191 245 302 357 436
#     4  12  25  47  70 108 147 193 240 300 371 428
#     4  12  26  42  70 106 152 191 240 295 355 434
#     4  12  28  50  78 107 147 192 243 309 378 442
#     4  12  23  45  70 105 146 196 241 285 359 430
#
# _framework density 25.112096000000001
#
# number of rings (size 3 to 8) (size 9 to 14) (size 15 to 20)
#    0.000    0.000    3.333    6.000    4.667    2.667 
#    0.000    0.000    0.000    0.000    0.000    0.000 
#    0.000    0.000    0.000    0.000    0.000    0.000 
#
# Total GULP energy -67141.954648 kJ/mol
# GULP energy per Si atom -5595.162887 kJ/mol
# Density = 2.505494 g / cm^3
# Si number density = 25.112096 Si / 1000 Ang^3
#
#
#
# Elastic Constant Matrix: (Units=GPa)
#
#
# Indices 1 2 3 4 5 6 
#
# 1 180.7158 49.7657 44.6431 3.1475 14.2197 -4.2539
# 2 49.7657 88.7652 17.2432 -16.4226 -10.4719 17.2932
# 3 44.6431 17.2432 124.6683 -19.1378 0.9405 4.4458
# 4 3.1475 -16.4226 -19.1378 26.1866 1.4274 1.6299
# 5 14.2197 -10.4719 0.9405 1.4274 57.6288 -3.5050
# 6 -4.2539 17.2932 4.4458 1.6299 -3.5050 33.7055
#
#
#
# Elastic Compliance Matrix: (Units=1/GPa)
#
#
# Indices 1 2 3 4 5 6 
#
# 1 0.008960 -0.007296 -0.003681 -0.008523 -0.002933 0.005467
# 2 -0.007296 0.020776 0.002657 0.016373 0.004381 -0.012267
# 3 -0.003681 0.002657 0.010642 0.010072 0.000746 -0.003641
# 4 -0.008523 0.016373 0.010072 0.057523 0.002680 -0.013308
# 5 -0.002933 0.004381 0.000746 0.002680 0.018739 -0.000897
# 6 0.005467 -0.012267 -0.003641 -0.013308 -0.000897 0.037683
#
#
# Mechanical properties :
#
#
# Convention : Reuss Voigt Hill
#
# Bulk Modulus (GPa) = 42.12582 68.60592 55.36587
# Shear Modulus (GPa) = 27.95240 42.33732 35.14486
#
# Velocity S-wave (km/s) = 3.33994 4.11047 3.74507
# Velocity P-wave (km/s) = 5.62896 7.06450 6.38718
#
# Compressibility (1/GPa) = 0.02373841
#
# Stress axis : x y z
#
# Youngs Moduli (GPa) = 111.60795 48.13254 93.96606
#
# Poissons Ratio (x) = 0.35119 0.34584
# Poissons Ratio (y) = 0.81432 -0.24967
# Poissons Ratio (z) = 0.41078 -0.12789
#
# Static dielectric constant tensor:
#      x y z
#    x 1.993010 -0.010660 -0.014720 
#    y -0.010660 1.971710 -0.009650 
#    z -0.014720 -0.009650 1.930900 
# 
# From -- ./inp_files/617609.got.cif
#   From: 2010.05.17/outbox.cif.g08.bks.cpg/sg2_309_cif.got.tgz:617609.got - 2010.06.03 11:33:40.
