data_PCOD9069100
_publ_section_title
;
Structure prediction by ZEFSAII (Michael W. Deem and Ramdas Pophale) SiO2 
 PCOD9069100
Probable space group: P -1
;
_chemical_formula_sum "Si O2"
_cell_formula_units_Z 15
_cell_length_a 12.355098
_cell_length_b 9.587492
_cell_length_c 17.856739
_cell_angle_alpha 149.054646
_cell_angle_beta 47.256597
_cell_angle_gamma 134.435745
_cell_volume 758.797886
_symmetry_space_group_name_H-M "P -1"
_symmetry_group_IT_number 2
_symmetry_cell_setting 'triclinic'
loop_
_space_group_symop_operation_xyz
x,y,z
-x,-y,-z
loop_
_atom_site_type_symbol
_atom_site_label
_atom_site_fract_x
_atom_site_fract_y
_atom_site_fract_z
Si Si1 0.901463 0.358742 0.694403
Si Si2 0.500000 0.500000 0.500000
Si Si3 0.583230 0.268420 0.032763
Si Si4 0.270247 0.078661 0.304786
Si Si5 0.211378 0.676994 0.778284
Si Si6 0.133343 0.396837 0.850001
Si Si7 0.364517 0.344622 0.049473
Si Si8 0.990355 0.758686 0.572478
O O1 0.763952 0.497220 0.817418
O O2 0.931340 0.258658 0.552130
O O3 0.055353 0.585966 0.760114
O O4 0.846910 0.094402 0.655789
O O5 0.418803 0.292744 0.372394
O O6 0.332625 0.550525 0.621925
O O7 0.677134 0.154220 0.873468
O O8 0.709600 0.502681 0.129141
O O9 0.450175 0.361264 0.096570
O O10 0.500000 0.000000 0.000000
O O11 0.182232 0.236882 0.364860
O O12 0.168426 0.538378 0.816713
O O13 0.286006 0.016192 0.911016
O O14 0.072736 0.058241 0.711888
O O15 0.000000 0.500000 0.000000
O O16 0.500000 0.500000 0.000000
O O17 0.000000 0.500000 0.500000
#
# Coordination Sequence:
#
# PCOD9069100 Si02
#       8
#     2   1   2   2   2   2   2   2
#     4  12  25  47  73  99 148 185 247 298 358 433
#     4  12  22  42  74 102 136 184 252 288 354 432
#     4  12  24  44  72 102 148 190 237 296 363 432
#     4  12  23  48  72 100 143 196 235 298 361 436
#     4  12  24  44  76 106 139 196 244 295 367 433
#     4  12  25  45  76 103 144 197 245 286 370 445
#     4  12  26  44  68 112 143 186 243 300 359 430
#     4  12  28  45  72 108 141 186 241 305 360 421
#
# _framework density 19.768111000000001
#
# number of rings (size 3 to 8) (size 9 to 14) (size 15 to 20)
#    0.000    0.000    8.000    1.600    3.733    1.067 
#    2.400    0.667    0.000    0.000    0.000    0.000 
#    0.000    0.000    0.000    0.000    0.000    0.000 
#
# Total GULP energy -83696.725457 kJ/mol
# GULP energy per Si atom -5579.781697 kJ/mol
# Density = 1.972312 g / cm^3
# Si number density = 19.768111 Si / 1000 Ang^3
#
#
#
# Elastic Constant Matrix: (Units=GPa)
#
#
# Indices 1 2 3 4 5 6 
#
# 1 192.0260 57.1421 62.8548 15.5026 1.6551 22.6746
# 2 57.1421 78.4265 34.5981 18.2956 -1.9405 -3.5960
# 3 62.8548 34.5981 118.3059 3.6279 2.9195 2.6761
# 4 15.5026 18.2956 3.6279 42.2212 10.2538 1.8175
# 5 1.6551 -1.9405 2.9195 10.2538 50.2615 2.5430
# 6 22.6746 -3.5960 2.6761 1.8175 2.5430 39.3677
#
#
#
# Elastic Compliance Matrix: (Units=1/GPa)
#
#
# Indices 1 2 3 4 5 6 
#
# 1 0.008191 -0.004846 -0.002810 -0.000466 0.000052 -0.004951
# 2 -0.004846 0.019629 -0.003114 -0.007238 0.002323 0.004980
# 3 -0.002810 -0.003114 0.010817 0.001676 -0.001028 0.000588
# 4 -0.000466 -0.007238 0.001676 0.028386 -0.006080 -0.001424
# 5 0.000052 0.002323 -0.001028 -0.006080 0.021327 -0.000845
# 6 -0.004951 0.004980 0.000588 -0.001424 -0.000845 0.028789
#
#
# Mechanical properties :
#
#
# Convention : Reuss Voigt Hill
#
# Bulk Modulus (GPa) = 58.48528 77.54981 68.01755
# Shear Modulus (GPa) = 34.63151 41.98098 38.30625
#
# Velocity S-wave (km/s) = 4.19010 4.61333 4.40680
# Velocity P-wave (km/s) = 7.28417 8.22752 7.77017
#
# Compressibility (1/GPa) = 0.01709832
#
# Stress axis : x y z
#
# Youngs Moduli (GPa) = 122.08417 50.94402 92.44831
#
# Poissons Ratio (x) = 0.24685 0.25976
# Poissons Ratio (y) = 0.59157 0.28790
# Poissons Ratio (z) = 0.34303 0.15865
#
# Static dielectric constant tensor:
#      x y z
#    x 1.680300 0.008210 -0.009300 
#    y 0.008210 1.673890 -0.001700 
#    z -0.009300 -0.001700 1.676530 
# 
# From -- ./inp_files/172753.got.cif
#   From: 2010.05.17/outbox.cif.g08.bks.cpg/sg2_87_cif.got.tgz:172753.got - 2010.06.03 11:33:40.
