data_PCOD9069213
_publ_section_title
;
Structure prediction by ZEFSAII (Michael W. Deem and Ramdas Pophale) SiO2 
 PCOD9069213
Probable space group: P -1
;
_chemical_formula_sum "Si O2"
_cell_formula_units_Z 16
_cell_length_a 11.897760
_cell_length_b 17.703051
_cell_length_c 9.769336
_cell_angle_alpha 138.313221
_cell_angle_beta 122.194081
_cell_angle_gamma 31.658629
_cell_volume 686.354740
_symmetry_space_group_name_H-M "P -1"
_symmetry_group_IT_number 2
_symmetry_cell_setting 'triclinic'
loop_
_space_group_symop_operation_xyz
x,y,z
-x,-y,-z
loop_
_atom_site_type_symbol
_atom_site_label
_atom_site_fract_x
_atom_site_fract_y
_atom_site_fract_z
Si Si1 0.042803 0.558080 0.484990
Si Si2 0.452464 0.383559 0.935751
Si Si3 0.512094 0.681407 0.438625
Si Si4 0.113837 0.996650 0.186680
Si Si5 0.320536 0.638804 0.447347
Si Si6 0.639110 0.952116 0.156312
Si Si7 0.017696 0.556617 0.944530
Si Si8 0.396544 0.012838 0.316876
O O1 0.246773 0.495467 0.572821
O O2 0.000000 0.500000 0.500000
O O3 0.103044 0.445153 0.239760
O O4 0.817456 0.774637 0.593499
O O5 0.448446 0.405805 0.799626
O O6 0.281664 0.393411 0.858874
O O7 0.721320 0.190607 0.867615
O O8 0.370014 0.517318 0.191342
O O9 0.344688 0.740840 0.519488
O O10 0.442054 0.862476 0.619876
O O11 0.298497 0.956117 0.193518
O O12 0.924591 0.194452 0.416654
O O13 0.000000 0.000000 0.000000
O O14 0.500000 0.500000 0.500000
O O15 0.577501 0.908191 0.178008
O O16 0.907525 0.752757 0.082785
O O17 0.500000 0.000000 0.000000
O O18 0.000000 0.500000 0.000000
O O19 0.500000 0.000000 0.500000
#
# Coordination Sequence:
#
# PCOD9069213 Si02
#       8
#     2   2   2   2   2   2   2   2
#     4  12  22  46  71 107 153 202 248 322 401 466
#     4  12  28  51  76 114 155 210 267 323 400 470
#     4  12  27  50  76 112 165 204 266 329 401 476
#     4  12  28  51  79 116 158 207 267 330 404 478
#     4  12  29  54  79 111 151 212 271 325 400 483
#     4  12  25  45  75 119 154 205 262 325 401 471
#     4  12  26  43  76 117 158 199 261 328 394 474
#     4  12  26  47  77 111 157 201 264 332 397 475
#
# _framework density 23.311558999999999
#
# number of rings (size 3 to 8) (size 9 to 14) (size 15 to 20)
#    0.000    0.000    5.000    4.125    8.750    0.500 
#    2.250    0.000    0.000    0.000    0.000    0.000 
#    0.000    0.000    0.000    0.000    0.000    0.000 
#
# Total GULP energy -89259.215852 kJ/mol
# GULP energy per Si atom -5578.700991 kJ/mol
# Density = 2.325850 g / cm^3
# Si number density = 23.311559 Si / 1000 Ang^3
#
#
#
# Elastic Constant Matrix: (Units=GPa)
#
#
# Indices 1 2 3 4 5 6 
#
# 1 70.7642 -6.8917 2.1562 -29.3161 -5.6828 12.3829
# 2 -6.8917 151.0307 39.7702 -21.4504 5.3164 5.4704
# 3 2.1562 39.7702 120.9634 -29.3111 -1.9214 21.9398
# 4 -29.3161 -21.4504 -29.3111 53.6744 4.7521 -3.5842
# 5 -5.6828 5.3164 -1.9214 4.7521 34.8004 -10.1697
# 6 12.3829 5.4704 21.9398 -3.5842 -10.1697 26.4590
#
#
#
# Elastic Compliance Matrix: (Units=1/GPa)
#
#
# Indices 1 2 3 4 5 6 
#
# 1 0.023033 0.002545 0.005135 0.015675 -0.002718 -0.014485
# 2 0.002545 0.007772 -0.001371 0.003792 -0.001916 -0.001884
# 3 0.005135 -0.001371 0.013069 0.008811 -0.003235 -0.013006
# 4 0.015675 0.003792 0.008811 0.033162 -0.005922 -0.013210
# 5 -0.002718 -0.001916 -0.003235 -0.005922 0.034079 0.016646
# 6 -0.014485 -0.001884 -0.013006 -0.013210 0.016646 0.060356
#
#
# Mechanical properties :
#
#
# Convention : Reuss Voigt Hill
#
# Bulk Modulus (GPa) = 17.70107 45.86976 31.78542
# Shear Modulus (GPa) = 28.14005 43.50168 35.82087
#
# Velocity S-wave (km/s) = 3.47815 4.32452 3.92422
# Velocity P-wave (km/s) = 4.87234 6.68243 5.84785
#
# Compressibility (1/GPa) = 0.05649376
#
# Stress axis : x y z
#
# Youngs Moduli (GPa) = 43.41566 128.65911 76.51820
#
# Poissons Ratio (x) = -0.32750 -0.39291
# Poissons Ratio (y) = -0.11051 0.10488
# Poissons Ratio (z) = -0.22293 0.17635
#
# Static dielectric constant tensor:
#      x y z
#    x 1.583910 0.323390 0.259420 
#    y 0.323390 1.620170 -0.135710 
#    z 0.259420 -0.135710 1.751250 
# 
# From -- ./inp_files/279945.got.cif
#   From: 2010.05.17/outbox.cif.g08.bks.cpg/sg2_140_cif.got.tgz:279945.got - 2010.06.03 11:33:40.
