data_PCOD9069912
_publ_section_title
;
Structure prediction by ZEFSAII (Michael W. Deem and Ramdas Pophale) SiO2 
 PCOD9069912
Probable space group: P -1
;
_chemical_formula_sum "Si O2"
_cell_formula_units_Z 14
_cell_length_a 14.468660
_cell_length_b 11.978538
_cell_length_c 21.357881
_cell_angle_alpha 150.913089
_cell_angle_beta 159.330880
_cell_angle_gamma 39.778612
_cell_volume 608.592107
_symmetry_space_group_name_H-M "P -1"
_symmetry_group_IT_number 2
_symmetry_cell_setting 'triclinic'
loop_
_space_group_symop_operation_xyz
x,y,z
-x,-y,-z
loop_
_atom_site_type_symbol
_atom_site_label
_atom_site_fract_x
_atom_site_fract_y
_atom_site_fract_z
Si Si1 0.226755 0.696963 0.278602
Si Si2 0.698062 0.971771 0.892234
Si Si3 0.603272 0.751758 0.361795
Si Si4 0.037593 0.452728 0.166192
Si Si5 0.230982 0.383193 0.469380
Si Si6 0.639898 0.750390 0.245147
Si Si7 0.843952 0.230727 0.479153
O O1 0.147659 0.647735 0.276862
O O2 0.518159 0.657388 0.430873
O O3 0.257181 0.963548 0.403961
O O4 0.000000 0.500000 0.000000
O O5 0.780699 0.733518 0.810400
O O6 0.457504 0.922126 0.766928
O O7 0.571471 0.090471 0.813743
O O8 0.964694 0.164757 0.180836
O O9 0.687722 0.614590 0.405601
O O10 0.692375 0.692552 0.320947
O O11 0.273959 0.687071 0.117893
O O12 0.055450 0.583670 0.308362
O O13 0.184790 0.619367 0.527056
O O14 0.914628 0.878276 0.443462
O O15 0.500000 0.500000 0.000000
#
# Coordination Sequence:
#
# PCOD9069912 Si02
#       7
#     2   2   2   2   2   2   2
#     4  12  24  43  70 110 147 179 228 289 363 419
#     4  12  25  45  72 104 140 183 237 297 350 407
#     4  12  26  44  72 106 144 187 227 290 359 414
#     4  12  24  43  75 106 140 181 237 292 352 416
#     4  12  25  42  70 103 145 177 234 291 352 415
#     4  12  26  50  71  99 145 192 237 286 347 420
#     4  12  27  47  70 105 142 190 238 289 345 424
#
# _framework density 23.003913000000001
#
# number of rings (size 3 to 8) (size 9 to 14) (size 15 to 20)
#    0.000    0.000    7.143    3.000    2.000    1.714 
#    0.000    0.714    0.000    0.000    0.000    0.000 
#    0.000    0.000    0.000    0.000    0.000    0.000 
#
# Total GULP energy -78443.218433 kJ/mol
# GULP energy per Si atom -5603.087031 kJ/mol
# Density = 2.295156 g / cm^3
# Si number density = 23.003913 Si / 1000 Ang^3
#
#
#
# Elastic Constant Matrix: (Units=GPa)
#
#
# Indices 1 2 3 4 5 6 
#
# 1 147.8071 33.4987 47.7139 -27.2246 11.3718 16.2286
# 2 33.4987 77.9036 31.9833 -21.7003 -6.8892 15.0467
# 3 47.7139 31.9833 145.3312 -6.3659 28.9420 1.3919
# 4 -27.2246 -21.7003 -6.3659 27.1985 3.7128 2.8435
# 5 11.3718 -6.8892 28.9420 3.7128 37.8579 -7.3900
# 6 16.2286 15.0467 1.3919 2.8435 -7.3900 42.3800
#
#
#
# Elastic Compliance Matrix: (Units=1/GPa)
#
#
# Indices 1 2 3 4 5 6 
#
# 1 0.010304 0.000277 -0.002218 0.011045 -0.003470 -0.005317
# 2 0.000277 0.021086 -0.004809 0.016196 0.004326 -0.007767
# 3 -0.002218 -0.004809 0.009996 -0.002833 -0.007351 0.001137
# 4 0.011045 0.016196 -0.002833 0.062693 -0.007355 -0.015376
# 5 -0.003470 0.004326 -0.007351 -0.007355 0.035911 0.006790
# 6 -0.005317 -0.007767 0.001137 -0.015376 0.006790 0.030568
#
#
# Mechanical properties :
#
#
# Convention : Reuss Voigt Hill
#
# Bulk Modulus (GPa) = 35.86049 66.38151 51.12100
# Shear Modulus (GPa) = 25.85926 38.67702 32.26814
#
# Velocity S-wave (km/s) = 3.35643 4.10484 3.74936
# Velocity P-wave (km/s) = 5.53566 7.16837 6.40426
#
# Compressibility (1/GPa) = 0.02788584
#
# Stress axis : x y z
#
# Youngs Moduli (GPa) = 97.04866 47.42508 100.03649
#
# Poissons Ratio (x) = -0.01312 0.22188
# Poissons Ratio (y) = -0.02685 0.48106
# Poissons Ratio (z) = 0.21525 0.22806
#
# Static dielectric constant tensor:
#      x y z
#    x 1.858120 0.003510 0.017370 
#    y 0.003510 1.911220 0.001430 
#    z 0.017370 0.001430 1.842750 
# 
# From -- ./inp_files/187742.got.cif
#   From: 2010.05.17/outbox.cif.g08.bks.cpg/sg2_94_cif.got.tgz:187742.got - 2010.06.03 11:33:40.
