data_PCOD9069706
_publ_section_title
;
Structure prediction by ZEFSAII (Michael W. Deem and Ramdas Pophale) SiO2 
 PCOD9069706
Probable space group: P -1
;
_chemical_formula_sum "Si O2"
_cell_formula_units_Z 16
_cell_length_a 10.663443
_cell_length_b 8.586352
_cell_length_c 9.434013
_cell_angle_alpha 112.588643
_cell_angle_beta 68.344807
_cell_angle_gamma 73.605634
_cell_volume 644.430140
_symmetry_space_group_name_H-M "P -1"
_symmetry_group_IT_number 2
_symmetry_cell_setting 'triclinic'
loop_
_space_group_symop_operation_xyz
x,y,z
-x,-y,-z
loop_
_atom_site_type_symbol
_atom_site_label
_atom_site_fract_x
_atom_site_fract_y
_atom_site_fract_z
Si Si1 0.842225 0.857264 0.036596
Si Si2 0.257917 0.935097 0.118798
Si Si3 0.417409 0.255114 0.985915
Si Si4 0.746686 0.196174 0.392733
Si Si5 0.819849 0.298583 0.704910
Si Si6 0.814178 0.466207 0.257645
Si Si7 0.465791 0.212545 0.641178
Si Si8 0.897387 0.681747 0.504683
O O1 0.702267 0.820796 0.031886
O O2 0.813479 0.976396 0.233964
O O3 0.005154 0.661508 0.900607
O O4 0.836838 0.001500 0.965288
O O5 0.443798 0.836832 0.989813
O O6 0.207926 0.808463 0.190469
O O7 0.201498 0.134635 0.294605
O O8 0.514580 0.208648 0.782222
O O9 0.312278 0.477664 0.150439
O O10 0.813417 0.214548 0.522927
O O11 0.770649 0.323006 0.308345
O O12 0.566258 0.271114 0.520376
O O13 0.986460 0.285672 0.631481
O O14 0.706814 0.601692 0.224956
O O15 0.791286 0.627429 0.438404
O O16 0.500000 0.000000 0.500000
O O17 0.000000 0.500000 0.500000
#
# Coordination Sequence:
#
# PCOD9069706 Si02
#       8
#     2   2   2   2   2   2   2   2
#     4  12  27  50  75 116 150 200 249 310 386 443
#     4  12  26  46  78 112 155 192 259 313 371 448
#     4  12  26  50  76 110 153 202 251 307 379 450
#     4  12  27  49  78 112 153 200 250 309 380 447
#     4  12  26  49  77 111 155 196 256 313 372 449
#     4  12  27  48  77 110 159 194 251 310 378 455
#     4  12  27  52  74 114 152 200 251 310 383 446
#     4  12  23  47  74 110 148 202 249 306 378 444
#
# _framework density 24.828137999999999
#
# number of rings (size 3 to 8) (size 9 to 14) (size 15 to 20)
#    0.000    0.000    6.250    2.625    1.750    1.500 
#    2.250    0.000    0.000    0.000    0.000    0.000 
#    0.000    0.000    0.000    0.000    0.000    0.000 
#
# Total GULP energy -89653.965702 kJ/mol
# GULP energy per Si atom -5603.372856 kJ/mol
# Density = 2.477163 g / cm^3
# Si number density = 24.828138 Si / 1000 Ang^3
#
#
#
# Elastic Constant Matrix: (Units=GPa)
#
#
# Indices 1 2 3 4 5 6 
#
# 1 68.9995 41.2480 13.8614 8.7019 -7.6260 5.5065
# 2 41.2480 99.3983 25.5352 4.2731 -2.1825 -2.3070
# 3 13.8614 25.5352 110.5303 29.1778 5.1675 5.2142
# 4 8.7019 4.2731 29.1778 32.6654 2.7495 0.3251
# 5 -7.6260 -2.1825 5.1675 2.7495 36.0941 2.6316
# 6 5.5065 -2.3070 5.2142 0.3251 2.6316 43.7559
#
#
#
# Elastic Compliance Matrix: (Units=1/GPa)
#
#
# Indices 1 2 3 4 5 6 
#
# 1 0.020961 -0.008641 0.000766 -0.005480 0.004463 -0.003412
# 2 -0.008641 0.014350 -0.003169 0.003310 -0.000921 0.002252
# 3 0.000766 -0.003169 0.012723 -0.011063 -0.000889 -0.001644
# 4 -0.005480 0.003310 -0.011063 0.041729 -0.002701 0.002035
# 5 0.004463 -0.000921 -0.000889 -0.002701 0.029088 -0.002234
# 6 -0.003412 0.002252 -0.001644 0.002035 -0.002234 0.023717
#
#
# Mechanical properties :
#
#
# Convention : Reuss Voigt Hill
#
# Bulk Modulus (GPa) = 38.53888 48.91301 43.72595
# Shear Modulus (GPa) = 28.85107 35.72198 32.28653
#
# Velocity S-wave (km/s) = 3.41256 3.79723 3.61002
# Velocity P-wave (km/s) = 5.57524 6.24249 5.91828
#
# Compressibility (1/GPa) = 0.02594782
#
# Stress axis : x y z
#
# Youngs Moduli (GPa) = 47.70747 69.68603 78.59997
#
# Poissons Ratio (x) = 0.60215 -0.06025
# Poissons Ratio (y) = 0.41224 0.24905
# Poissons Ratio (z) = -0.03657 0.22081
#
# Static dielectric constant tensor:
#      x y z
#    x 2.068040 -0.046320 0.006810 
#    y -0.046320 2.030600 -0.073290 
#    z 0.006810 -0.073290 1.937740 
# 
# From -- ./inp_files/244988.got.cif
#   From: 2010.05.17/outbox.cif.g08.bks.cpg/sg2_123_cif.got.tgz:244988.got - 2010.06.03 11:33:40.
