data_PCOD9069012
_publ_section_title
;
Structure prediction by ZEFSAII (Michael W. Deem and Ramdas Pophale) SiO2 
 PCOD9069012
Probable space group: P -1
;
_chemical_formula_sum "Si O2"
_cell_formula_units_Z 15
_cell_length_a 14.958246
_cell_length_b 9.252525
_cell_length_c 11.216332
_cell_angle_alpha 99.651767
_cell_angle_beta 62.575439
_cell_angle_gamma 47.703481
_cell_volume 699.313722
_symmetry_space_group_name_H-M "P -1"
_symmetry_group_IT_number 2
_symmetry_cell_setting 'triclinic'
loop_
_space_group_symop_operation_xyz
x,y,z
-x,-y,-z
loop_
_atom_site_type_symbol
_atom_site_label
_atom_site_fract_x
_atom_site_fract_y
_atom_site_fract_z
Si Si1 0.803942 0.155268 0.613478
Si Si2 0.567992 0.227498 0.187983
Si Si3 0.500000 0.500000 0.500000
Si Si4 0.133390 0.382584 0.514793
Si Si5 0.886564 0.958221 0.783072
Si Si6 0.545602 0.923125 0.101320
Si Si7 0.065704 0.982272 0.831777
Si Si8 0.994938 0.311497 0.758611
O O1 0.625638 0.473180 0.720209
O O2 0.765169 0.126727 0.759253
O O3 0.000000 0.000000 0.500000
O O4 0.867724 0.959385 0.447972
O O5 0.590034 0.291962 0.303747
O O6 0.560467 0.061900 0.176471
O O7 0.752456 0.038274 0.967390
O O8 0.294066 0.668601 0.634968
O O9 0.000000 0.500000 0.500000
O O10 0.080178 0.620195 0.593591
O O11 0.062456 0.385830 0.677978
O O12 0.360279 0.075328 0.298386
O O13 0.946382 0.038106 0.814089
O O14 0.762364 0.584439 0.922634
O O15 0.500000 0.000000 0.000000
O O16 0.033381 0.194692 0.849170
O O17 0.000000 0.000000 0.000000
#
# Coordination Sequence:
#
# PCOD9069012 Si02
#       8
#     2   2   1   2   2   2   2   2
#     4  12  22  39  67 109 145 181 242 305 369 434
#     4  12  25  43  73 105 144 200 242 301 362 446
#     4  12  24  48  72 102 140 192 252 290 362 424
#     4  12  23  41  67 105 153 187 226 297 376 442
#     4  12  23  44  71 106 144 187 243 303 372 427
#     4  12  24  43  71 108 156 191 235 300 383 439
#     4  12  27  48  74 100 143 193 249 309 346 433
#     4  12  25  43  71 109 143 190 237 299 368 434
#
# _framework density 21.449598999999999
#
# number of rings (size 3 to 8) (size 9 to 14) (size 15 to 20)
#    0.000    0.000    8.000    2.800    0.000    2.133 
#    0.000    2.667    0.000    3.200    0.000    0.000 
#    0.000    0.000    0.000    0.000    0.000    0.000 
#
# Total GULP energy -83537.398164 kJ/mol
# GULP energy per Si atom -5569.159878 kJ/mol
# Density = 2.140078 g / cm^3
# Si number density = 21.449599 Si / 1000 Ang^3
#
#
#
# Elastic Constant Matrix: (Units=GPa)
#
#
# Indices 1 2 3 4 5 6 
#
# 1 56.5290 8.7110 3.7056 -13.6854 -1.4302 2.5612
# 2 8.7110 98.6195 37.0028 -23.0787 -3.0715 -0.2759
# 3 3.7056 37.0028 124.8558 -6.8574 -27.3425 -9.2552
# 4 -13.6854 -23.0787 -6.8574 33.6699 -2.3188 0.2017
# 5 -1.4302 -3.0715 -27.3425 -2.3188 48.1898 0.0064
# 6 2.5612 -0.2759 -9.2552 0.2017 0.0064 25.7787
#
#
#
# Elastic Compliance Matrix: (Units=1/GPa)
#
#
# Indices 1 2 3 4 5 6 
#
# 1 0.019778 0.000274 -0.000171 0.008267 0.000906 -0.002088
# 2 0.000274 0.013526 -0.003843 0.008546 -0.000899 -0.001329
# 3 -0.000171 -0.003843 0.010701 -0.000146 0.005814 0.003818
# 4 0.008267 0.008546 -0.000146 0.039073 0.002587 -0.001089
# 5 0.000906 -0.000899 0.005814 0.002587 0.024144 0.001962
# 6 -0.002088 -0.001329 0.003818 -0.001089 0.001962 0.040364
#
#
# Mechanical properties :
#
#
# Convention : Reuss Voigt Hill
#
# Bulk Modulus (GPa) = 27.37729 42.09367 34.73548
# Shear Modulus (GPa) = 29.89723 36.90001 33.39862
#
# Velocity S-wave (km/s) = 3.73746 4.15216 3.95026
# Velocity P-wave (km/s) = 5.60501 6.53103 6.08566
#
# Compressibility (1/GPa) = 0.03652662
#
# Stress axis : x y z
#
# Youngs Moduli (GPa) = 50.56143 73.93308 93.44602
#
# Poissons Ratio (x) = -0.02026 0.01594
# Poissons Ratio (y) = -0.01385 0.35908
# Poissons Ratio (z) = 0.00863 0.28410
#
# Static dielectric constant tensor:
#      x y z
#    x 1.798960 0.028400 -0.002760 
#    y 0.028400 1.871050 -0.052480 
#    z -0.002760 -0.052480 1.803210 
# 
# From -- ./inp_files/446057.got.cif
#   From: 2010.05.17/outbox.cif.g08.bks.cpg/sg2_224_cif.got.tgz:446057.got - 2010.06.03 11:33:40.
