data_PCOD9069765
_publ_section_title
;
Structure prediction by ZEFSAII (Michael W. Deem and Ramdas Pophale) SiO2 
 PCOD9069765
Probable space group: P -1
;
_chemical_formula_sum "Si O2"
_cell_formula_units_Z 16
_cell_length_a 6.946188
_cell_length_b 26.244387
_cell_length_c 9.925025
_cell_angle_alpha 148.266535
_cell_angle_beta 107.125820
_cell_angle_gamma 51.450998
_cell_volume 610.152822
_symmetry_space_group_name_H-M "P -1"
_symmetry_group_IT_number 2
_symmetry_cell_setting 'triclinic'
loop_
_space_group_symop_operation_xyz
x,y,z
-x,-y,-z
loop_
_atom_site_type_symbol
_atom_site_label
_atom_site_fract_x
_atom_site_fract_y
_atom_site_fract_z
Si Si1 0.548726 0.155430 0.376508
Si Si2 0.731827 0.057247 0.482125
Si Si3 0.911538 0.755974 0.146014
Si Si4 0.548726 0.655431 0.376508
Si Si5 0.044753 0.653172 0.369822
Si Si6 0.911537 0.255976 0.146015
Si Si7 0.731827 0.557247 0.482126
Si Si8 0.044753 0.153172 0.369822
O O1 0.655094 0.140087 0.516011
O O2 0.736511 0.184894 0.400702
O O3 0.263489 0.315106 0.599298
O O4 0.727267 0.005430 0.002864
O O5 0.428529 0.160634 0.737182
O O6 0.000000 0.000000 0.500000
O O7 0.850353 0.909362 0.128565
O O8 0.914078 0.837831 0.442663
O O9 0.000002 0.749999 0.999997
O O10 0.149646 0.590638 0.871435
O O11 0.655093 0.640089 0.516014
O O12 0.225775 0.697326 0.449759
O O13 0.727267 0.505430 0.002864
O O14 0.085923 0.662168 0.557335
O O15 0.774224 0.802674 0.550241
O O16 0.571471 0.339366 0.262818
O O17 0.000000 0.500000 0.500000
#
# Coordination Sequence:
#
# PCOD9069765 Si02
#       8
#     2   2   2   2   2   2   2   2
#     4  12  26  46  76 109 144 193 246 305 369 433
#     4  12  26  49  73 107 154 193 240 306 373 438
#     4  12  27  48  75 110 145 197 247 302 368 437
#     4  12  26  46  76 109 144 193 246 305 369 433
#     4  12  23  48  78 101 145 192 254 304 355 433
#     4  12  27  48  75 110 145 197 247 302 368 437
#     4  12  26  49  73 107 154 193 240 306 373 438
#     4  12  23  48  78 101 145 192 254 304 355 433
#
# _framework density 26.222936000000001
#
# number of rings (size 3 to 8) (size 9 to 14) (size 15 to 20)
#    0.000    0.000    5.000    4.500    3.500    0.000 
#    0.000    0.000    0.000    0.000    0.000    0.000 
#    0.000    0.000    0.000    0.000    0.000    0.000 
#
# Total GULP energy -89618.444092 kJ/mol
# GULP energy per Si atom -5601.152756 kJ/mol
# Density = 2.616325 g / cm^3
# Si number density = 26.222936 Si / 1000 Ang^3
#
#
#
# Elastic Constant Matrix: (Units=GPa)
#
#
# Indices 1 2 3 4 5 6 
#
# 1 224.5482 107.0528 71.9733 -1.6437 -31.3125 13.0194
# 2 107.0528 217.4795 86.9667 -26.3631 -21.5681 9.7327
# 3 71.9733 86.9667 146.4979 -16.3901 -43.6820 10.5189
# 4 -1.6437 -26.3631 -16.3901 51.6519 -5.2604 -6.1617
# 5 -31.3125 -21.5681 -43.6820 -5.2604 71.1271 4.4532
# 6 13.0194 9.7327 10.5189 -6.1617 4.4532 44.1999
#
#
#
# Elastic Compliance Matrix: (Units=1/GPa)
#
#
# Indices 1 2 3 4 5 6 
#
# 1 0.006347 -0.002624 -0.001295 -0.001587 0.001169 -0.001323
# 2 -0.002624 0.007326 -0.002947 0.002699 -0.000562 0.000294
# 3 -0.001295 -0.002947 0.011351 0.002419 0.005807 -0.001919
# 4 -0.001587 0.002699 0.002419 0.022016 0.003105 0.002054
# 5 0.001169 -0.000562 0.005807 0.003105 0.018389 -0.003022
# 6 -0.001323 0.000294 -0.001919 0.002054 -0.003022 0.023997
#
#
# Mechanical properties :
#
#
# Convention : Reuss Voigt Hill
#
# Bulk Modulus (GPa) = 88.54253 124.50125 106.52189
# Shear Modulus (GPa) = 46.76268 54.89796 50.83032
#
# Velocity S-wave (km/s) = 4.22746 4.58045 4.40749
# Velocity P-wave (km/s) = 7.59389 8.69225 8.16157
#
# Compressibility (1/GPa) = 0.01129401
#
# Stress axis : x y z
#
# Youngs Moduli (GPa) = 157.54363 136.49242 88.09455
#
# Poissons Ratio (x) = 0.35815 0.11406
# Poissons Ratio (y) = 0.41339 0.25961
# Poissons Ratio (z) = 0.20398 0.40223
#
# Static dielectric constant tensor:
#      x y z
#    x 2.601960 -0.015460 0.063930 
#    y -0.015460 1.962350 -0.031320 
#    z 0.063930 -0.031320 2.114590 
# 
# From -- ./inp_files/227758.got.cif
#   From: 2010.05.17/outbox.cif.g08.bks.cpg/sg2_114_cif.got.tgz:227758.got - 2010.06.03 11:33:40.
