data_PCOD9069672
_publ_section_title
;
Structure prediction by ZEFSAII (Michael W. Deem and Ramdas Pophale) SiO2 
 PCOD9069672
Probable space group: P -1
;
_chemical_formula_sum "Si O2"
_cell_formula_units_Z 16
_cell_length_a 8.480675
_cell_length_b 9.352405
_cell_length_c 15.861176
_cell_angle_alpha 116.332170
_cell_angle_beta 132.297833
_cell_angle_gamma 90.010629
_cell_volume 744.494098
_symmetry_space_group_name_H-M "P -1"
_symmetry_group_IT_number 2
_symmetry_cell_setting 'triclinic'
loop_
_space_group_symop_operation_xyz
x,y,z
-x,-y,-z
loop_
_atom_site_type_symbol
_atom_site_label
_atom_site_fract_x
_atom_site_fract_y
_atom_site_fract_z
Si Si1 0.606174 0.188943 0.133318
Si Si2 0.889744 0.483480 0.863829
Si Si3 0.914455 0.617623 0.557393
Si Si4 0.425418 0.719729 0.561862
Si Si5 0.406368 0.209777 0.551481
Si Si6 0.769592 0.810020 0.864776
Si Si7 0.915229 0.122569 0.554592
Si Si8 0.733105 0.516865 0.137024
O O1 0.421628 0.193370 0.136690
O O2 0.663657 0.349749 0.130602
O O3 0.853017 0.226446 0.277692
O O4 0.500000 0.000000 0.000000
O O5 0.640961 0.304356 0.717679
O O6 0.836276 0.650307 0.867611
O O7 0.074871 0.480633 0.860860
O O8 0.000000 0.500000 0.000000
O O9 0.747569 0.487850 0.536487
O O10 0.757596 0.689341 0.468012
O O11 0.000000 0.500000 0.500000
O O12 0.511622 0.756751 0.506986
O O13 0.641541 0.779652 0.720300
O O14 0.260564 0.819299 0.544395
O O15 0.246313 0.003684 0.461212
O O16 0.000000 0.000000 0.000000
O O17 0.134948 0.299502 0.714961
O O18 0.000000 0.000000 0.500000
O O19 0.500000 0.500000 0.000000
#
# Coordination Sequence:
#
# PCOD9069672 Si02
#       8
#     2   2   2   2   2   2   2   2
#     4  12  27  48  75 109 153 194 247 308 377 444
#     4  12  27  50  76 108 154 198 247 309 379 448
#     4  12  23  46  77 108 145 190 248 306 368 439
#     4  12  25  48  75 108 149 192 254 310 363 447
#     4  12  27  45  78 109 145 196 251 304 377 438
#     4  12  29  46  76 112 148 199 247 309 379 442
#     4  12  29  47  76 109 150 200 253 308 373 445
#     4  12  29  49  74 109 152 199 250 306 376 451
#
# _framework density 21.491102999999999
#
# number of rings (size 3 to 8) (size 9 to 14) (size 15 to 20)
#    0.000    0.000    5.000    3.000   10.500    0.000 
#    0.000    0.000    0.000    0.000    0.000    0.000 
#    0.000    0.000    0.000    0.000    0.000    0.000 
#
# Total GULP energy -89702.108885 kJ/mol
# GULP energy per Si atom -5606.381805 kJ/mol
# Density = 2.144219 g / cm^3
# Si number density = 21.491103 Si / 1000 Ang^3
#
#
#
# Elastic Constant Matrix: (Units=GPa)
#
#
# Indices 1 2 3 4 5 6 
#
# 1 96.7574 29.6568 60.0463 0.7226 3.4183 -3.4270
# 2 29.6568 113.6908 66.0364 5.6183 5.8642 1.4963
# 3 60.0463 66.0364 205.8576 1.5906 8.3194 -0.9320
# 4 0.7226 5.6183 1.5906 49.3094 -0.9946 7.6983
# 5 3.4183 5.8642 8.3194 -0.9946 41.4347 -0.1726
# 6 -3.4270 1.4963 -0.9320 7.6983 -0.1726 46.1907
#
#
#
# Elastic Compliance Matrix: (Units=1/GPa)
#
#
# Indices 1 2 3 4 5 6 
#
# 1 0.012850 -0.001452 -0.003270 -0.000069 -0.000196 0.000945
# 2 -0.001452 0.011070 -0.003086 -0.001103 -0.000855 -0.000348
# 3 -0.003270 -0.003086 0.006827 0.000172 -0.000660 -0.000036
# 4 -0.000069 -0.001103 0.000172 0.020953 0.000616 -0.003456
# 5 -0.000196 -0.000855 -0.000660 0.000616 0.024419 -0.000012
# 6 0.000945 -0.000348 -0.000036 -0.003456 -0.000012 0.022306
#
#
# Mechanical properties :
#
#
# Convention : Reuss Voigt Hill
#
# Bulk Modulus (GPa) = 66.08665 80.86500 73.47582
# Shear Modulus (GPa) = 41.98687 44.75804 43.37246
#
# Velocity S-wave (km/s) = 4.42485 4.56854 4.49727
# Velocity P-wave (km/s) = 7.54474 8.09553 7.82498
#
# Compressibility (1/GPa) = 0.01513165
#
# Stress axis : x y z
#
# Youngs Moduli (GPa) = 77.81963 90.33161 146.48321
#
# Poissons Ratio (x) = 0.13114 0.47898
# Poissons Ratio (y) = 0.11297 0.45208
# Poissons Ratio (z) = 0.25446 0.27879
#
# Static dielectric constant tensor:
#      x y z
#    x 1.766260 -0.007560 0.037310 
#    y -0.007560 1.773230 0.005580 
#    z 0.037310 0.005580 1.710450 
# 
# From -- ./inp_files/495516.got.cif
#   From: 2010.05.17/outbox.cif.g08.bks.cpg/sg2_248_cif.got.tgz:495516.got - 2010.06.03 11:33:40.
