data_PCOD9069468
_publ_section_title
;
Structure prediction by ZEFSAII (Michael W. Deem and Ramdas Pophale) SiO2 
 PCOD9069468
Probable space group: P -1
;
_chemical_formula_sum "Si O2"
_cell_formula_units_Z 14
_cell_length_a 17.432282
_cell_length_b 12.463823
_cell_length_c 8.574148
_cell_angle_alpha 36.664528
_cell_angle_beta 141.629467
_cell_angle_gamma 151.033681
_cell_volume 516.505803
_symmetry_space_group_name_H-M "P -1"
_symmetry_group_IT_number 2
_symmetry_cell_setting 'triclinic'
loop_
_space_group_symop_operation_xyz
x,y,z
-x,-y,-z
loop_
_atom_site_type_symbol
_atom_site_label
_atom_site_fract_x
_atom_site_fract_y
_atom_site_fract_z
Si Si1 0.145208 0.107109 0.300814
Si Si2 0.771066 0.061710 0.622735
Si Si3 0.549412 0.780905 0.170294
Si Si4 0.474505 0.537796 0.739931
Si Si5 0.317699 0.856684 0.305097
Si Si6 0.863713 0.620044 0.595195
Si Si7 0.805189 0.452138 0.029239
O O1 0.143156 0.027397 0.214687
O O2 0.011802 0.876675 0.463399
O O3 0.319153 0.203063 0.539175
O O4 0.132327 0.307715 0.065484
O O5 0.776406 0.110866 0.756545
O O6 0.579356 0.821773 0.565632
O O7 0.826947 0.290568 0.348927
O O8 0.476519 0.579709 0.154934
O O9 0.394955 0.712209 0.098063
O O10 0.650735 0.024281 0.950467
O O11 0.282788 0.386622 0.581427
O O12 0.500000 0.500000 0.000000
O O13 0.214742 0.578535 0.433445
O O14 0.500000 0.000000 0.500000
O O15 0.887488 0.531163 0.896965
#
# Coordination Sequence:
#
# PCOD9069468 Si02
#       7
#     2   2   2   2   2   2   2
#     4  12  28  48  70 108 147 191 238 299 369 421
#     4  12  26  46  76 107 143 187 246 294 357 427
#     4  12  23  43  78 105 142 189 245 297 355 431
#     4  12  23  45  78 108 140 189 244 297 353 432
#     4  12  24  45  74 105 140 188 245 298 355 425
#     4  12  27  48  71 104 149 188 239 302 362 427
#     4  12  25  46  75 109 141 189 247 298 351 428
#
# _framework density 27.105212999999999
#
# number of rings (size 3 to 8) (size 9 to 14) (size 15 to 20)
#    0.000    0.000    7.143    2.571    0.000    4.571 
#    0.000    2.857    0.000    0.000    0.000    0.000 
#    0.000    0.000    0.000    0.000    0.000    0.000 
#
# Total GULP energy -78582.723449 kJ/mol
# GULP energy per Si atom -5613.051675 kJ/mol
# Density = 2.704352 g / cm^3
# Si number density = 27.105213 Si / 1000 Ang^3
#
#
#
# Elastic Constant Matrix: (Units=GPa)
#
#
# Indices 1 2 3 4 5 6 
#
# 1 158.0075 39.8340 10.6984 -14.3436 -8.6667 -11.5354
# 2 39.8340 109.6921 34.3583 -29.6229 0.1930 -15.6623
# 3 10.6984 34.3583 75.3699 -32.7115 -4.1929 1.6537
# 4 -14.3436 -29.6229 -32.7115 55.5549 5.2022 1.2674
# 5 -8.6667 0.1930 -4.1929 5.2022 47.8735 -8.7611
# 6 -11.5354 -15.6623 1.6537 1.2674 -8.7611 50.1535
#
#
#
# Elastic Compliance Matrix: (Units=1/GPa)
#
#
# Indices 1 2 3 4 5 6 
#
# 1 0.007123 -0.002384 0.000414 0.000649 0.001470 0.001121
# 2 -0.002384 0.012723 -0.003896 0.003857 -0.000631 0.003346
# 3 0.000414 -0.003896 0.019070 0.009264 0.000404 -0.001914
# 4 0.000649 0.003857 0.009264 0.025854 -0.001884 0.000066
# 5 0.001470 -0.000631 0.000404 -0.001884 0.022137 0.004042
# 6 0.001121 0.003346 -0.001914 0.000066 0.004042 0.022009
#
#
# Mechanical properties :
#
#
# Convention : Reuss Voigt Hill
#
# Bulk Modulus (GPa) = 36.78411 56.98343 46.88377
# Shear Modulus (GPa) = 38.54774 47.92830 43.23802
#
# Velocity S-wave (km/s) = 3.77523 4.20960 3.99832
# Velocity P-wave (km/s) = 5.70995 6.68553 6.21691
#
# Compressibility (1/GPa) = 0.02718565
#
# Stress axis : x y z
#
# Youngs Moduli (GPa) = 140.38901 78.59819 52.43737
#
# Poissons Ratio (x) = 0.18737 -0.02173
# Poissons Ratio (y) = 0.33467 0.20429
# Poissons Ratio (z) = -0.05817 0.30621
#
# Static dielectric constant tensor:
#      x y z
#    x 2.137980 0.026100 -0.013220 
#    y 0.026100 2.137200 0.033700 
#    z -0.013220 0.033700 2.099580 
# 
# From -- ./inp_files/332764.got.cif
#   From: 2010.05.17/outbox.cif.g08.bks.cpg/sg2_167_cif.got.tgz:332764.got - 2010.06.03 11:33:40.
