data_PCOD9069708
_publ_section_title
;
Structure prediction by ZEFSAII (Michael W. Deem and Ramdas Pophale) SiO2 
 PCOD9069708
Probable space group: P -1
;
_chemical_formula_sum "Si O2"
_cell_formula_units_Z 16
_cell_length_a 18.003301
_cell_length_b 11.169159
_cell_length_c 8.669515
_cell_angle_alpha 122.001510
_cell_angle_beta 69.205999
_cell_angle_gamma 150.830757
_cell_volume 695.636230
_symmetry_space_group_name_H-M "P -1"
_symmetry_group_IT_number 2
_symmetry_cell_setting 'triclinic'
loop_
_space_group_symop_operation_xyz
x,y,z
-x,-y,-z
loop_
_atom_site_type_symbol
_atom_site_label
_atom_site_fract_x
_atom_site_fract_y
_atom_site_fract_z
Si Si1 0.353550 0.840773 0.595830
Si Si2 0.939392 0.529201 0.953475
Si Si3 0.367236 0.902820 0.977213
Si Si4 0.168529 0.775142 0.486617
Si Si5 0.905855 0.803620 0.590888
Si Si6 0.748759 0.812052 0.882043
Si Si7 0.790503 0.832156 0.218288
Si Si8 0.517859 0.628837 0.722099
O O1 0.395931 0.965671 0.817540
O O2 0.290840 0.872206 0.560144
O O3 0.210970 0.512097 0.521029
O O4 0.500000 0.000000 0.500000
O O5 0.858450 0.338140 0.734138
O O6 0.808908 0.419287 0.067442
O O7 0.000000 0.500000 0.000000
O O8 0.095371 0.851024 0.007057
O O9 0.500000 0.000000 0.000000
O O10 0.377356 0.071011 0.165599
O O11 0.000000 0.500000 0.500000
O O12 0.204758 0.996116 0.615899
O O13 0.791508 0.753557 0.693158
O O14 0.000000 0.000000 0.500000
O O15 0.044659 0.986827 0.738195
O O16 0.596985 0.660463 0.824125
O O17 0.740906 0.746734 0.018355
O O18 0.649382 0.559526 0.240160
O O19 0.500000 0.500000 0.500000
#
# Coordination Sequence:
#
# PCOD9069708 Si02
#       8
#     2   2   2   2   2   2   2   2
#     4  12  28  49  77 108 147 192 250 304 368 432
#     4  12  24  45  74 105 141 185 242 296 363 435
#     4  12  28  46  74 108 146 191 245 304 362 434
#     4  12  23  47  75 104 141 191 242 302 362 437
#     4  12  28  47  74 109 148 192 239 303 370 439
#     4  12  26  46  73 103 144 190 241 299 365 438
#     4  12  27  46  75 104 145 189 244 296 369 439
#     4  12  28  47  72 107 149 192 238 302 367 433
#
# _framework density 23.000527000000002
#
# number of rings (size 3 to 8) (size 9 to 14) (size 15 to 20)
#    0.000    0.000    3.750    5.250   10.500    0.000 
#    0.000    0.000    0.000    0.000    0.000    0.000 
#    0.000    0.000    0.000    0.000    0.000    0.000 
#
# Total GULP energy -89501.833261 kJ/mol
# GULP energy per Si atom -5593.864579 kJ/mol
# Density = 2.294818 g / cm^3
# Si number density = 23.000527 Si / 1000 Ang^3
#
#
#
# Elastic Constant Matrix: (Units=GPa)
#
#
# Indices 1 2 3 4 5 6 
#
# 1 104.0364 -12.2305 6.6374 -3.6911 21.1375 24.3826
# 2 -12.2305 99.0109 3.8259 -17.6994 7.0003 11.5215
# 3 6.6374 3.8259 89.3726 -11.5542 21.2618 -6.3985
# 4 -3.6911 -17.6994 -11.5542 34.3903 -3.0151 -4.8861
# 5 21.1375 7.0003 21.2618 -3.0151 38.7818 0.8600
# 6 24.3826 11.5215 -6.3985 -4.8861 0.8600 45.4350
#
#
#
# Elastic Compliance Matrix: (Units=1/GPa)
#
#
# Indices 1 2 3 4 5 6 
#
# 1 0.013437 0.003368 0.000369 0.001517 -0.007845 -0.007701
# 2 0.003368 0.012313 0.000614 0.005982 -0.003838 -0.004127
# 3 0.000369 0.000614 0.013673 0.004606 -0.007499 0.002209
# 4 0.001517 0.005982 0.004606 0.033991 -0.001834 0.002008
# 5 -0.007845 -0.003838 -0.007499 -0.001834 0.034650 0.003274
# 6 -0.007701 -0.004127 0.002209 0.002008 0.003274 0.027654
#
#
# Mechanical properties :
#
#
# Convention : Reuss Voigt Hill
#
# Bulk Modulus (GPa) = 20.77957 32.09839 26.43898
# Shear Modulus (GPa) = 34.95062 43.33390 39.14226
#
# Velocity S-wave (km/s) = 3.90238 4.34526 4.12976
# Velocity P-wave (km/s) = 5.41837 6.25786 5.85319
#
# Compressibility (1/GPa) = 0.04812418
#
# Stress axis : x y z
#
# Youngs Moduli (GPa) = 74.42096 81.21406 73.13676
#
# Poissons Ratio (x) = -0.27350 -0.02699
# Poissons Ratio (y) = -0.25063 -0.04488
# Poissons Ratio (z) = -0.02747 -0.04984
#
# Static dielectric constant tensor:
#      x y z
#    x 2.210520 -0.719500 -0.627790 
#    y -0.719500 3.208520 1.152630 
#    z -0.627790 1.152630 2.817220 
# 
# From -- ./inp_files/333732.got.cif
#   From: 2010.05.17/outbox.cif.g08.bks.cpg/sg2_167_cif.got.tgz:333732.got - 2010.06.03 11:33:40.
