data_PCOD9069956
_publ_section_title
;
Structure prediction by ZEFSAII (Michael W. Deem and Ramdas Pophale) SiO2 
 PCOD9069956
Probable space group: P -1
;
_chemical_formula_sum "Si O2"
_cell_formula_units_Z 12
_cell_length_a 9.141779
_cell_length_b 18.277996
_cell_length_c 12.669381
_cell_angle_alpha 151.094574
_cell_angle_beta 34.307530
_cell_angle_gamma 136.039061
_cell_volume 576.707861
_symmetry_space_group_name_H-M "P -1"
_symmetry_group_IT_number 2
_symmetry_cell_setting 'triclinic'
loop_
_space_group_symop_operation_xyz
x,y,z
-x,-y,-z
loop_
_atom_site_type_symbol
_atom_site_label
_atom_site_fract_x
_atom_site_fract_y
_atom_site_fract_z
Si Si1 0.592652 0.332824 0.762183
Si Si2 0.120279 0.659325 0.165319
Si Si3 0.244179 0.106451 0.777033
Si Si4 0.745852 0.902720 0.769450
Si Si5 0.019085 0.351240 0.373585
Si Si6 0.439242 0.351345 0.282052
O O1 0.746924 0.334472 0.786928
O O2 0.343008 0.226657 0.784291
O O3 0.765906 0.286733 0.499974
O O4 0.500000 0.500000 0.000000
O O5 0.886680 0.781616 0.455422
O O6 0.339320 0.689536 0.986031
O O7 0.000000 0.500000 0.000000
O O8 0.500000 0.000000 0.500000
O O9 0.171893 0.214607 0.054225
O O10 0.986450 0.011404 0.790900
O O11 0.639380 0.795287 0.789954
O O12 0.500000 0.000000 0.000000
O O13 0.187115 0.405559 0.438775
O O14 0.000000 0.500000 0.500000
O O15 0.500000 0.500000 0.500000
#
# Coordination Sequence:
#
# PCOD9069956 Si02
#       6
#     2   2   2   2   2   2
#     4  12  24  45  75 110 139 192 249 297 361 436
#     4  12  24  48  75 104 146 193 245 299 362 442
#     4  12  25  47  72 104 151 184 245 304 366 423
#     4  12  29  46  71 114 149 190 244 304 378 423
#     4  12  24  43  77 110 137 192 251 298 359 436
#     4  12  24  46  77 102 145 194 246 299 362 440
#
# _framework density 20.807762
#
# number of rings (size 3 to 8) (size 9 to 14) (size 15 to 20)
#    0.000    0.000    8.333    0.000    2.333    7.333 
#    0.000    0.000    0.000    0.000    0.000    0.000 
#    0.000    0.000    0.000    0.000    0.000    0.000 
#
# Total GULP energy -66949.429994 kJ/mol
# GULP energy per Si atom -5579.119166 kJ/mol
# Density = 2.076040 g / cm^3
# Si number density = 20.807762 Si / 1000 Ang^3
#
#
#
# Elastic Constant Matrix: (Units=GPa)
#
#
# Indices 1 2 3 4 5 6 
#
# 1 97.9380 68.3918 39.6671 19.9120 -17.8268 1.5200
# 2 68.3918 217.6429 62.5374 -13.3032 -1.8608 5.0453
# 3 39.6671 62.5374 140.0022 -8.9844 -9.0942 -2.3177
# 4 19.9120 -13.3032 -8.9844 57.1585 -0.9835 6.3429
# 5 -17.8268 -1.8608 -9.0942 -0.9835 35.6017 4.7248
# 6 1.5200 5.0453 -2.3177 6.3429 4.7248 40.4051
#
#
#
# Elastic Compliance Matrix: (Units=1/GPa)
#
#
# Indices 1 2 3 4 5 6 
#
# 1 0.018025 -0.005293 -0.002735 -0.007822 0.007816 0.000140
# 2 -0.005293 0.006905 -0.001551 0.003273 -0.002465 -0.000978
# 3 -0.002735 -0.001551 0.008794 0.001943 0.000796 0.000403
# 4 -0.007822 0.003273 0.001943 0.021596 -0.002237 -0.003132
# 5 0.007816 -0.002465 0.000796 -0.002237 0.032464 -0.003386
# 6 0.000140 -0.000978 0.000403 -0.003132 -0.003386 0.025777
#
#
# Mechanical properties :
#
#
# Convention : Reuss Voigt Hill
#
# Bulk Modulus (GPa) = 68.65166 88.53062 78.59114
# Shear Modulus (GPa) = 36.34401 45.63218 40.98810
#
# Velocity S-wave (km/s) = 4.18384 4.68807 4.44311
# Velocity P-wave (km/s) = 7.51027 8.48194 8.01085
#
# Compressibility (1/GPa) = 0.01456629
#
# Stress axis : x y z
#
# Youngs Moduli (GPa) = 55.47814 144.81661 113.72010
#
# Poissons Ratio (x) = 0.76650 0.31100
# Poissons Ratio (y) = 0.29364 0.17640
# Poissons Ratio (z) = 0.15172 0.22463
#
# Static dielectric constant tensor:
#      x y z
#    x 1.777490 0.006470 -0.001200 
#    y 0.006470 1.745560 -0.045940 
#    z -0.001200 -0.045940 1.776190 
# 
# From -- ./inp_files/403453.got.cif
#   From: 2010.05.17/outbox.cif.g08.bks.cpg/sg2_202_cif.got.tgz:403453.got - 2010.06.03 11:33:40.
