data_PCOD9069360
_publ_section_title
;
Structure prediction by ZEFSAII (Michael W. Deem and Ramdas Pophale) SiO2 
 PCOD9069360
Probable space group: P -1
;
_chemical_formula_sum "Si O2"
_cell_formula_units_Z 12
_cell_length_a 4.899778
_cell_length_b 13.577607
_cell_length_c 10.158438
_cell_angle_alpha 102.934680
_cell_angle_beta 113.029721
_cell_angle_gamma 105.919115
_cell_volume 554.655016
_symmetry_space_group_name_H-M "P -1"
_symmetry_group_IT_number 2
_symmetry_cell_setting 'triclinic'
loop_
_space_group_symop_operation_xyz
x,y,z
-x,-y,-z
loop_
_atom_site_type_symbol
_atom_site_label
_atom_site_fract_x
_atom_site_fract_y
_atom_site_fract_z
Si Si1 0.647366 0.590475 0.940862
Si Si2 0.390413 0.026455 0.845720
Si Si3 0.639018 0.946908 0.626828
Si Si4 0.497222 0.708036 0.414801
Si Si5 0.853562 0.563311 0.397472
Si Si6 0.386419 0.726026 0.096379
O O1 0.452106 0.529665 0.758560
O O2 0.973870 0.368137 0.998668
O O3 0.500000 0.500000 0.000000
O O4 0.582608 0.694635 0.011475
O O5 0.606333 0.153937 0.890894
O O6 0.447206 0.949574 0.722850
O O7 0.500000 0.000000 0.000000
O O8 0.018463 0.011457 0.753227
O O9 0.588066 0.825057 0.535661
O O10 0.525494 0.724844 0.267709
O O11 0.500000 0.000000 0.500000
O O12 0.729997 0.646364 0.473449
O O13 0.130251 0.631393 0.364651
O O14 0.000000 0.500000 0.500000
#
# Coordination Sequence:
#
# PCOD9069360 Si02
#       6
#     2   2   2   2   2   2
#     4  12  23  42  70  98 133 179 234 282 341 413
#     4  12  28  48  71 110 150 182 237 307 358 415
#     4  12  26  46  78 105 141 192 244 289 355 436
#     4  12  24  44  73  99 136 184 238 280 347 425
#     4  12  27  44  66 103 141 177 229 296 348 409
#     4  12  24  42  74 100 133 185 235 280 346 421
#
# _framework density 21.635068
#
# number of rings (size 3 to 8) (size 9 to 14) (size 15 to 20)
#    0.000    0.000    5.000    5.000    2.333    4.000 
#    0.000    0.000    0.000    0.000    0.000    0.000 
#    0.000    0.000    0.000    0.000    0.000    0.000 
#
# Total GULP energy -67203.384795 kJ/mol
# GULP energy per Si atom -5600.282066 kJ/mol
# Density = 2.158583 g / cm^3
# Si number density = 21.635068 Si / 1000 Ang^3
#
#
#
# Elastic Constant Matrix: (Units=GPa)
#
#
# Indices 1 2 3 4 5 6 
#
# 1 104.5249 21.7310 19.2420 -7.2858 2.6845 -20.5384
# 2 21.7310 121.0243 52.5935 6.8931 7.8665 -26.2019
# 3 19.2420 52.5935 111.9027 -10.2004 9.2266 -20.7973
# 4 -7.2858 6.8931 -10.2004 32.5221 -12.5474 -6.1600
# 5 2.6845 7.8665 9.2266 -12.5474 39.9540 11.4182
# 6 -20.5384 -26.2019 -20.7973 -6.1600 11.4182 43.0513
#
#
#
# Elastic Compliance Matrix: (Units=1/GPa)
#
#
# Indices 1 2 3 4 5 6 
#
# 1 0.011097 -0.000885 -0.000089 0.003261 -0.001089 0.005468
# 2 -0.000885 0.012124 -0.004693 -0.004910 -0.004247 0.005113
# 3 -0.000089 -0.004693 0.012559 0.005116 -0.001600 0.004325
# 4 0.003261 -0.004910 0.005116 0.038978 0.010730 0.003770
# 5 -0.001089 -0.004247 -0.001600 0.010730 0.032835 -0.011051
# 6 0.005468 0.005113 0.004325 0.003770 -0.011051 0.034508
#
#
# Mechanical properties :
#
#
# Convention : Reuss Voigt Hill
#
# Bulk Modulus (GPa) = 40.90562 58.28719 49.59640
# Shear Modulus (GPa) = 30.94349 39.36453 35.15401
#
# Velocity S-wave (km/s) = 3.78596 4.27016 4.03533
# Velocity P-wave (km/s) = 6.16924 7.16323 6.68474
#
# Compressibility (1/GPa) = 0.02444652
#
# Stress axis : x y z
#
# Youngs Moduli (GPa) = 90.11285 82.48144 79.62220
#
# Poissons Ratio (x) = 0.07300 0.00708
# Poissons Ratio (y) = 0.07976 0.37367
# Poissons Ratio (z) = 0.00801 0.38709
#
# Static dielectric constant tensor:
#      x y z
#    x 1.830060 -0.097770 -0.066590 
#    y -0.097770 2.049680 0.235850 
#    z -0.066590 0.235850 1.980450 
# 
# From -- ./inp_files/131058.got.cif
#   From: 2010.05.17/outbox.cif.g08.bks.cpg/sg2_66_cif.got.tgz:131058.got - 2010.06.03 11:33:40.
