data_PCOD9069743
_publ_section_title
;
Structure prediction by ZEFSAII (Michael W. Deem and Ramdas Pophale) SiO2 
 PCOD9069743
Probable space group: P -1
;
_chemical_formula_sum "Si O2"
_cell_formula_units_Z 14
_cell_length_a 6.026235
_cell_length_b 14.936465
_cell_length_c 16.051805
_cell_angle_alpha 153.587179
_cell_angle_beta 72.483029
_cell_angle_gamma 111.593461
_cell_volume 596.175025
_symmetry_space_group_name_H-M "P -1"
_symmetry_group_IT_number 2
_symmetry_cell_setting 'triclinic'
loop_
_space_group_symop_operation_xyz
x,y,z
-x,-y,-z
loop_
_atom_site_type_symbol
_atom_site_label
_atom_site_fract_x
_atom_site_fract_y
_atom_site_fract_z
Si Si1 0.160209 0.489862 0.392685
Si Si2 0.842126 0.805203 0.492710
Si Si3 0.926348 0.547105 0.815865
Si Si4 0.300253 0.090811 0.044801
Si Si5 0.556617 0.048697 0.264191
Si Si6 0.451904 0.217129 0.656094
Si Si7 0.757142 0.826551 0.192569
O O1 0.061994 0.397483 0.236684
O O2 0.327893 0.333004 0.266234
O O3 0.255531 0.731898 0.562053
O O4 0.000000 0.500000 0.500000
O O5 0.681732 0.867880 0.635546
O O6 0.734790 0.837239 0.442628
O O7 0.864780 0.571328 0.294682
O O8 0.091062 0.961110 0.609883
O O9 0.677189 0.384715 0.733663
O O10 0.925569 0.728223 0.031843
O O11 0.500000 0.000000 0.000000
O O12 0.383265 0.055542 0.912870
O O13 0.000000 0.000000 0.000000
O O14 0.564507 0.890177 0.206158
O O15 0.346793 0.301966 0.821341
O O16 0.500000 0.000000 0.500000
#
# Coordination Sequence:
#
# PCOD9069743 Si02
#       7
#     2   2   2   2   2   2   2
#     4  12  25  49  78 107 151 196 251 314 389 460
#     4  12  25  44  76 103 148 195 250 306 385 446
#     4  12  27  46  72 110 147 191 256 308 378 456
#     4  12  30  51  79 115 152 203 261 324 393 464
#     4  12  26  48  74 108 149 197 247 312 384 459
#     4  12  23  48  72 104 151 197 245 311 378 456
#     4  12  26  46  75 106 152 192 252 309 379 457
#
# _framework density 23.483038000000001
#
# number of rings (size 3 to 8) (size 9 to 14) (size 15 to 20)
#    0.000    0.000    8.571    0.857    4.000    4.571 
#    0.000    0.000    0.000    0.000    0.000    0.000 
#    0.000    0.000    0.000    0.000    0.000    0.000 
#
# Total GULP energy -78112.674031 kJ/mol
# GULP energy per Si atom -5579.476716 kJ/mol
# Density = 2.342959 g / cm^3
# Si number density = 23.483038 Si / 1000 Ang^3
#
#
#
# Elastic Constant Matrix: (Units=GPa)
#
#
# Indices 1 2 3 4 5 6 
#
# 1 69.4840 31.5290 25.0039 -13.9654 -22.0204 -18.5230
# 2 31.5290 111.0893 38.6466 -34.2123 -10.3338 -9.2780
# 3 25.0039 38.6466 161.5801 -27.8617 -33.1641 -10.2999
# 4 -13.9654 -34.2123 -27.8617 49.8076 5.3986 -10.0720
# 5 -22.0204 -10.3338 -33.1641 5.3986 49.6353 2.3543
# 6 -18.5230 -9.2780 -10.2999 -10.0720 2.3543 40.4712
#
#
#
# Elastic Compliance Matrix: (Units=1/GPa)
#
#
# Indices 1 2 3 4 5 6 
#
# 1 0.022226 -0.003127 0.000723 0.005695 0.008572 0.010558
# 2 -0.003127 0.013028 -0.001103 0.008180 -0.000460 0.003337
# 3 0.000723 -0.001103 0.008268 0.004114 0.005030 0.002913
# 4 0.005695 0.008180 0.004114 0.031976 0.002868 0.013320
# 5 0.008572 -0.000460 0.005030 0.002868 0.026701 0.004259
# 6 0.010558 0.003337 0.002913 0.013320 0.004259 0.034115
#
#
# Mechanical properties :
#
#
# Convention : Reuss Voigt Hill
#
# Bulk Modulus (GPa) = 27.39104 59.16803 43.27954
# Shear Modulus (GPa) = 32.15459 44.44777 38.30118
#
# Velocity S-wave (km/s) = 3.70438 4.35531 4.04296
# Velocity P-wave (km/s) = 5.47595 7.10932 6.34541
#
# Compressibility (1/GPa) = 0.03650828
#
# Stress axis : x y z
#
# Youngs Moduli (GPa) = 44.99175 76.75750 120.94219
#
# Poissons Ratio (x) = 0.23999 -0.08742
# Poissons Ratio (y) = 0.14067 0.13345
# Poissons Ratio (z) = -0.03252 0.08470
#
# Static dielectric constant tensor:
#      x y z
#    x 1.976810 0.065410 -0.012600 
#    y 0.065410 1.992350 0.000450 
#    z -0.012600 0.000450 1.887100 
# 
# From -- ./inp_files/52147.got.cif
#   From: 2010.05.17/outbox.cif.g08.bks.cpg/sg2_27_cif.got.tgz:52147.got - 2010.06.03 11:33:40.
