data_PCOD9069145
_publ_section_title
;
Structure prediction by ZEFSAII (Michael W. Deem and Ramdas Pophale) SiO2 
 PCOD9069145
Probable space group: P -1
;
_chemical_formula_sum "Si O2"
_cell_formula_units_Z 14
_cell_length_a 14.088081
_cell_length_b 11.761616
_cell_length_c 9.894073
_cell_angle_alpha 50.643709
_cell_angle_beta 118.414793
_cell_angle_gamma 150.765713
_cell_volume 605.907455
_symmetry_space_group_name_H-M "P -1"
_symmetry_group_IT_number 2
_symmetry_cell_setting 'triclinic'
loop_
_space_group_symop_operation_xyz
x,y,z
-x,-y,-z
loop_
_atom_site_type_symbol
_atom_site_label
_atom_site_fract_x
_atom_site_fract_y
_atom_site_fract_z
Si Si1 0.257200 0.438130 0.158721
Si Si2 0.416475 0.152009 0.142392
Si Si3 0.150591 0.592457 0.431251
Si Si4 0.637075 0.462930 0.327933
Si Si5 0.081429 0.977276 0.964132
Si Si6 0.019443 0.382420 0.200208
Si Si7 0.663872 0.772825 0.493805
O O1 0.236854 0.246695 0.338700
O O2 0.206391 0.494596 0.199110
O O3 0.467117 0.701115 0.029984
O O4 0.094347 0.282917 0.050011
O O5 0.547210 0.369105 0.187348
O O6 0.355569 0.917857 0.314275
O O7 0.208974 0.999125 0.105770
O O8 0.215509 0.504960 0.586504
O O9 0.000000 0.500000 0.500000
O O10 0.052517 0.471839 0.308181
O O11 0.763584 0.753198 0.223684
O O12 0.455186 0.255149 0.465218
O O13 0.000000 0.000000 0.000000
O O14 0.827619 0.055702 0.313720
O O15 0.000000 0.500000 0.000000
O O16 0.500000 0.500000 0.500000
#
# Coordination Sequence:
#
# PCOD9069145 Si02
#       7
#     2   2   2   2   2   2   2
#     4  12  26  47  76 109 154 192 251 307 376 446
#     4  12  26  44  75 112 145 197 246 308 371 440
#     4  12  28  49  73 105 154 197 249 310 375 441
#     4  12  24  45  74 108 147 193 250 303 373 443
#     4  12  22  43  73 110 149 189 246 306 367 440
#     4  12  29  48  77 109 149 202 248 306 379 443
#     4  12  26  48  75 108 149 195 250 309 375 445
#
# _framework density 23.105837999999999
#
# number of rings (size 3 to 8) (size 9 to 14) (size 15 to 20)
#    0.000    0.000    2.857    7.286    6.000    0.571 
#    0.000    0.000    0.000    0.000    0.000    0.000 
#    0.000    0.000    0.000    0.000    0.000    0.000 
#
# Total GULP energy -78464.297502 kJ/mol
# GULP energy per Si atom -5604.592679 kJ/mol
# Density = 2.305325 g / cm^3
# Si number density = 23.105838 Si / 1000 Ang^3
#
#
#
# Elastic Constant Matrix: (Units=GPa)
#
#
# Indices 1 2 3 4 5 6 
#
# 1 149.0660 21.0722 54.6247 13.4022 -19.0707 0.7249
# 2 21.0722 75.7787 20.2755 5.8854 -9.1271 -0.1951
# 3 54.6247 20.2755 108.1689 -7.1137 0.5199 9.9378
# 4 13.4022 5.8854 -7.1137 53.9694 4.5892 0.5860
# 5 -19.0707 -9.1271 0.5199 4.5892 44.7574 5.3705
# 6 0.7249 -0.1951 9.9378 0.5860 5.3705 30.6579
#
#
#
# Elastic Compliance Matrix: (Units=1/GPa)
#
#
# Indices 1 2 3 4 5 6 
#
# 1 0.009439 -0.000527 -0.004971 -0.003309 0.004227 0.000708
# 2 -0.000527 0.014569 -0.002660 -0.002063 0.002930 0.000494
# 3 -0.004971 -0.002660 0.012831 0.003487 -0.002730 -0.003647
# 4 -0.003309 -0.002063 0.003487 0.020373 -0.003867 -0.000777
# 5 0.004227 0.002930 -0.002730 -0.003867 0.025602 -0.003607
# 6 0.000708 0.000494 -0.003647 -0.000777 -0.003607 0.034433
#
#
# Mechanical properties :
#
#
# Convention : Reuss Voigt Hill
#
# Bulk Modulus (GPa) = 48.72356 58.32872 53.52614
# Shear Modulus (GPa) = 35.61144 41.67969 38.64557
#
# Velocity S-wave (km/s) = 3.93011 4.25179 4.09411
# Velocity P-wave (km/s) = 6.45966 7.02870 6.75018
#
# Compressibility (1/GPa) = 0.02052395
#
# Stress axis : x y z
#
# Youngs Moduli (GPa) = 105.93985 68.63949 77.93476
#
# Poissons Ratio (x) = 0.03617 0.38741
# Poissons Ratio (y) = 0.05582 0.20729
# Poissons Ratio (z) = 0.52663 0.18257
#
# Static dielectric constant tensor:
#      x y z
#    x 1.848300 0.003010 -0.032700 
#    y 0.003010 1.868400 -0.013810 
#    z -0.032700 -0.013810 1.889450 
# 
# From -- ./inp_files/84886.got.cif
#   From: 2010.05.17/outbox.cif.g08.bks.cpg/sg2_43_cif.got.tgz:84886.got - 2010.06.03 11:33:40.
