data_PCOD9069222
_publ_section_title
;
Structure prediction by ZEFSAII (Michael W. Deem and Ramdas Pophale) SiO2 
 PCOD9069222
Probable space group: P -1
;
_chemical_formula_sum "Si O2"
_cell_formula_units_Z 16
_cell_length_a 9.714097
_cell_length_b 8.473348
_cell_length_c 13.432712
_cell_angle_alpha 125.543563
_cell_angle_beta 53.185878
_cell_angle_gamma 120.174560
_cell_volume 699.745762
_symmetry_space_group_name_H-M "P -1"
_symmetry_group_IT_number 2
_symmetry_cell_setting 'triclinic'
loop_
_space_group_symop_operation_xyz
x,y,z
-x,-y,-z
loop_
_atom_site_type_symbol
_atom_site_label
_atom_site_fract_x
_atom_site_fract_y
_atom_site_fract_z
Si Si1 0.681052 0.157946 0.957237
Si Si2 0.002097 0.339557 0.526279
Si Si3 0.021953 0.974465 0.739566
Si Si4 0.690029 0.454893 0.396076
Si Si5 0.667379 0.328725 0.805728
Si Si6 0.112526 0.581693 0.884230
Si Si7 0.324062 0.022497 0.768777
Si Si8 0.843531 0.747234 0.921448
O O1 0.665556 0.254875 0.892824
O O2 0.865003 0.087543 0.844718
O O3 0.713164 0.289009 0.090839
O O4 0.500000 0.000000 0.000000
O O5 0.970170 0.129484 0.406804
O O6 0.192104 0.422714 0.523246
O O7 0.000000 0.500000 0.500000
O O8 0.850334 0.328464 0.669877
O O9 0.948240 0.813844 0.799806
O O10 0.213893 0.072372 0.739209
O O11 0.500000 0.500000 0.500000
O O12 0.803250 0.535953 0.277479
O O13 0.671868 0.212218 0.320865
O O14 0.511552 0.181255 0.758291
O O15 0.679438 0.565602 0.897182
O O16 0.974710 0.673675 0.913756
O O17 0.000000 0.500000 0.000000
O O18 0.220429 0.075898 0.930923
#
# Coordination Sequence:
#
# PCOD9069222 Si02
#       8
#     2   2   2   2   2   2   2   2
#     4  12  27  44  73 112 143 187 246 303 367 433
#     4  12  24  51  73  99 149 197 246 292 370 445
#     4  12  25  45  76 103 145 201 239 298 363 444
#     4  12  27  50  74 104 153 198 244 307 369 443
#     4  12  26  47  72 111 150 183 243 311 365 440
#     4  12  22  46  74 107 144 193 245 301 375 432
#     4  12  25  46  74 109 140 190 250 304 367 430
#     4  12  22  47  77 104 147 190 242 310 362 433
#
# _framework density 22.865448000000001
#
# number of rings (size 3 to 8) (size 9 to 14) (size 15 to 20)
#    0.000    0.000    7.500    3.000    3.500    1.000 
#    4.500    0.000    0.000    0.000    0.000    0.000 
#    0.000    0.000    0.000    0.000    0.000    0.000 
#
# Total GULP energy -89426.327371 kJ/mol
# GULP energy per Si atom -5589.145461 kJ/mol
# Density = 2.281341 g / cm^3
# Si number density = 22.865448 Si / 1000 Ang^3
#
#
#
# Elastic Constant Matrix: (Units=GPa)
#
#
# Indices 1 2 3 4 5 6 
#
# 1 186.2591 45.6455 50.8419 5.0131 7.2636 29.9025
# 2 45.6455 66.9457 12.7529 -0.4582 2.2590 16.4887
# 3 50.8419 12.7529 115.8149 11.5409 1.4907 -5.3664
# 4 5.0131 -0.4582 11.5409 39.9769 6.7662 9.0363
# 5 7.2636 2.2590 1.4907 6.7662 47.2391 5.0434
# 6 29.9025 16.4887 -5.3664 9.0363 5.0434 44.8273
#
#
#
# Elastic Compliance Matrix: (Units=1/GPa)
#
#
# Indices 1 2 3 4 5 6 
#
# 1 0.007887 -0.003603 -0.003371 0.001059 -0.000607 -0.004485
# 2 -0.003603 0.018832 -0.000933 0.002091 -0.000078 -0.005048
# 3 -0.003371 -0.000933 0.010806 -0.003798 0.000273 0.004621
# 4 0.001059 0.002091 -0.003798 0.028215 -0.003412 -0.007234
# 5 -0.000607 -0.000078 0.000273 -0.003412 0.021886 -0.001308
# 6 -0.004485 -0.005048 0.004621 -0.007234 -0.001308 0.029315
#
#
# Mechanical properties :
#
#
# Convention : Reuss Voigt Hill
#
# Bulk Modulus (GPa) = 46.06075 65.27781 55.66928
# Shear Modulus (GPa) = 35.71597 43.72727 39.72162
#
# Velocity S-wave (km/s) = 3.95651 4.37781 4.17248
# Velocity P-wave (km/s) = 6.40780 7.35964 6.90015
#
# Compressibility (1/GPa) = 0.02171046
#
# Stress axis : x y z
#
# Youngs Moduli (GPa) = 126.78654 53.10024 92.53896
#
# Poissons Ratio (x) = 0.19133 0.31197
# Poissons Ratio (y) = 0.45684 0.08636
# Poissons Ratio (z) = 0.42743 0.04955
#
# Static dielectric constant tensor:
#      x y z
#    x 1.912910 0.022360 0.068170 
#    y 0.022360 1.967800 0.059680 
#    z 0.068170 0.059680 1.915100 
# 
# From -- ./inp_files/383131.got.cif
#   From: 2010.05.17/outbox.cif.g08.bks.cpg/sg2_192_cif.got.tgz:383131.got - 2010.06.03 11:33:40.
