data_PCOD9069337
_publ_section_title
;
Structure prediction by ZEFSAII (Michael W. Deem and Ramdas Pophale) SiO2 
 PCOD9069337
Probable space group: P -1
;
_chemical_formula_sum "Si O2"
_cell_formula_units_Z 14
_cell_length_a 7.278103
_cell_length_b 19.436851
_cell_length_c 7.787176
_cell_angle_alpha 59.073843
_cell_angle_beta 39.183554
_cell_angle_gamma 52.307120
_cell_volume 548.977963
_symmetry_space_group_name_H-M "P -1"
_symmetry_group_IT_number 2
_symmetry_cell_setting 'triclinic'
loop_
_space_group_symop_operation_xyz
x,y,z
-x,-y,-z
loop_
_atom_site_type_symbol
_atom_site_label
_atom_site_fract_x
_atom_site_fract_y
_atom_site_fract_z
Si Si1 0.705530 0.056811 0.755899
Si Si2 0.272957 0.864757 0.992240
Si Si3 0.226822 0.649187 0.787779
Si Si4 0.593117 0.550876 0.127150
Si Si5 0.135340 0.367928 0.458171
Si Si6 0.661349 0.836658 0.417332
Si Si7 0.539231 0.696161 0.231964
O O1 0.767234 0.082040 0.870530
O O2 0.526566 0.139949 0.655865
O O3 0.000000 0.000000 0.500000
O O4 0.500000 0.000000 0.000000
O O5 0.458462 0.765402 0.049792
O O6 0.939447 0.870336 0.158705
O O7 0.454820 0.881559 0.676869
O O8 0.274137 0.552191 0.823552
O O9 0.557599 0.634818 0.656896
O O10 0.238508 0.716241 0.546640
O O11 0.878031 0.687337 0.074180
O O12 0.573805 0.603449 0.247693
O O13 0.228766 0.583674 0.278732
O O14 0.818500 0.580960 0.806806
O O15 0.197104 0.266898 0.519137
#
# Coordination Sequence:
#
# PCOD9069337 Si02
#       7
#     2   2   2   2   2   2   2
#     4  12  29  50  77 116 146 178 235 292 360 450
#     4  12  26  48  78 105 148 194 236 294 359 432
#     4  12  25  38  65  97 137 188 234 308 356 395
#     4  12  23  42  63  95 139 182 239 298 352 415
#     4  12  23  43  65  96 136 182 245 286 352 428
#     4  12  25  48  76 106 146 195 235 294 360 430
#     4  12  23  43  64  97 136 181 245 283 355 426
#
# _framework density 25.501937000000002
#
# number of rings (size 3 to 8) (size 9 to 14) (size 15 to 20)
#    0.000    0.000    2.857    7.714    0.000    5.714 
#    0.000    0.000    0.000    0.000    0.000    0.000 
#    0.000    0.000    0.000    0.000    0.000    0.000 
#
# Total GULP energy -78393.398470 kJ/mol
# GULP energy per Si atom -5599.528462 kJ/mol
# Density = 2.544389 g / cm^3
# Si number density = 25.501937 Si / 1000 Ang^3
#
#
#
# Elastic Constant Matrix: (Units=GPa)
#
#
# Indices 1 2 3 4 5 6 
#
# 1 76.1598 12.4424 -2.7037 0.7349 -29.3445 -5.0953
# 2 12.4424 82.7598 30.3598 3.3710 -6.5036 -1.0328
# 3 -2.7037 30.3598 128.5986 8.4671 -18.4299 -19.5016
# 4 0.7349 3.3710 8.4671 32.4419 -9.0195 2.3304
# 5 -29.3445 -6.5036 -18.4299 -9.0195 39.2369 -2.0448
# 6 -5.0953 -1.0328 -19.5016 2.3304 -2.0448 36.2553
#
#
#
# Elastic Compliance Matrix: (Units=1/GPa)
#
#
# Indices 1 2 3 4 5 6 
#
# 1 0.021529 -0.003549 0.004722 0.003436 0.018850 0.006307
# 2 -0.003549 0.013897 -0.004023 -0.000856 -0.002560 -0.002356
# 3 0.004722 -0.004023 0.011134 -0.000800 0.008278 0.007057
# 4 0.003436 -0.000856 -0.000800 0.033871 0.009755 -0.001599
# 5 0.018850 -0.002560 0.008278 0.009755 0.045758 0.008983
# 6 0.006307 -0.002356 0.007057 -0.001599 0.008983 0.032807
#
#
# Mechanical properties :
#
#
# Convention : Reuss Voigt Hill
#
# Bulk Modulus (GPa) = 24.47365 40.85722 32.66543
# Shear Modulus (GPa) = 28.03992 38.08146 33.06069
#
# Velocity S-wave (km/s) = 3.31950 3.86849 3.60446
# Velocity P-wave (km/s) = 4.93049 6.00080 5.49178
#
# Compressibility (1/GPa) = 0.04086028
#
# Stress axis : x y z
#
# Youngs Moduli (GPa) = 46.44815 71.95829 89.81133
#
# Poissons Ratio (x) = 0.25538 -0.42410
# Poissons Ratio (y) = 0.16485 0.36134
# Poissons Ratio (z) = -0.21933 0.28951
#
# Static dielectric constant tensor:
#      x y z
#    x 2.108110 -0.021820 0.058330 
#    y -0.021820 1.986950 0.034490 
#    z 0.058330 0.034490 1.947890 
# 
# From -- ./inp_files/223116.got.cif
#   From: 2010.05.17/outbox.cif.g08.bks.cpg/sg2_112_cif.got.tgz:223116.got - 2010.06.03 11:33:40.
