data_PCOD9069769
_publ_section_title
;
Structure prediction by ZEFSAII (Michael W. Deem and Ramdas Pophale) SiO2 
 PCOD9069769
Probable space group: P -1
;
_chemical_formula_sum "Si O2"
_cell_formula_units_Z 14
_cell_length_a 9.122281
_cell_length_b 7.695223
_cell_length_c 15.019549
_cell_angle_alpha 75.244888
_cell_angle_beta 69.284723
_cell_angle_gamma 33.717776
_cell_volume 545.841100
_symmetry_space_group_name_H-M "P -1"
_symmetry_group_IT_number 2
_symmetry_cell_setting 'triclinic'
loop_
_space_group_symop_operation_xyz
x,y,z
-x,-y,-z
loop_
_atom_site_type_symbol
_atom_site_label
_atom_site_fract_x
_atom_site_fract_y
_atom_site_fract_z
Si Si1 0.958704 0.121738 0.741716
Si Si2 0.510305 0.771527 0.696347
Si Si3 0.439494 0.935568 0.238269
Si Si4 0.247087 0.372262 0.505999
Si Si5 0.348998 0.536243 0.609358
Si Si6 0.195959 0.734567 0.063676
Si Si7 0.952685 0.543222 0.895728
O O1 0.648586 0.487832 0.761528
O O2 0.536532 0.271182 0.681622
O O3 0.186775 0.065405 0.714621
O O4 0.107419 0.874716 0.663878
O O5 0.616729 0.856149 0.703362
O O6 0.657717 0.581562 0.596918
O O7 0.248885 0.141507 0.164722
O O8 0.065178 0.953907 0.150240
O O9 0.746057 0.694333 0.173180
O O10 0.211580 0.498853 0.590683
O O11 0.000000 0.500000 0.500000
O O12 0.500000 0.000000 0.500000
O O13 0.500000 0.500000 0.500000
O O14 0.151493 0.560190 0.093859
O O15 0.500000 0.500000 0.000000
O O16 0.000000 0.000000 0.000000
O O17 0.000000 0.500000 0.000000
#
# Coordination Sequence:
#
# PCOD9069769 Si02
#       7
#     2   2   2   2   2   2   2
#     4  12  27  50  80 115 166 211 274 343 415 489
#     4  12  23  48  79 107 155 221 273 324 403 499
#     4  12  26  51  83 115 164 227 271 336 418 504
#     4  12  27  47  77 111 158 216 273 327 405 489
#     4  12  30  54  80 128 171 219 284 352 407 489
#     4  12  26  50  84 118 160 209 269 347 428 489
#     4  12  28  54  82 122 161 212 283 344 418 507
#
# _framework density 25.648489999999999
#
# number of rings (size 3 to 8) (size 9 to 14) (size 15 to 20)
#    0.000    0.000    5.714    3.000    4.000    2.857 
#    0.000    0.000    0.000    0.000    0.000    0.000 
#    0.000    0.000    0.000    0.000    0.000    0.000 
#
# Total GULP energy -78186.495220 kJ/mol
# GULP energy per Si atom -5584.749659 kJ/mol
# Density = 2.559011 g / cm^3
# Si number density = 25.648490 Si / 1000 Ang^3
#
#
#
# Elastic Constant Matrix: (Units=GPa)
#
#
# Indices 1 2 3 4 5 6 
#
# 1 134.7209 57.4504 60.0910 2.8073 10.9179 -9.1568
# 2 57.4504 136.5107 32.1463 -9.2324 -7.6228 -20.0139
# 3 60.0910 32.1463 150.5563 12.8601 -9.6089 -5.0246
# 4 2.8073 -9.2324 12.8601 53.5175 3.0732 -4.4025
# 5 10.9179 -7.6228 -9.6089 3.0732 47.5221 0.1645
# 6 -9.1568 -20.0139 -5.0246 -4.4025 0.1645 48.4481
#
#
#
# Elastic Compliance Matrix: (Units=1/GPa)
#
#
# Indices 1 2 3 4 5 6 
#
# 1 0.011183 -0.004024 -0.003846 -0.000123 -0.003985 0.000055
# 2 -0.004024 0.009905 -0.000434 0.002180 0.002272 0.003477
# 3 -0.003846 -0.000434 0.008615 -0.002116 0.002694 -0.000214
# 4 -0.000123 0.002180 -0.002116 0.019856 -0.001343 0.002467
# 5 -0.003985 0.002272 0.002694 -0.001343 0.022953 0.000265
# 6 0.000055 0.003477 -0.000214 0.002467 0.000265 0.022288
#
#
# Mechanical properties :
#
#
# Convention : Reuss Voigt Hill
#
# Bulk Modulus (GPa) = 76.36128 80.12925 78.24527
# Shear Modulus (GPa) = 43.18715 48.03757 45.61236
#
# Velocity S-wave (km/s) = 4.10788 4.33242 4.22164
# Velocity P-wave (km/s) = 7.23439 7.50571 7.37130
#
# Compressibility (1/GPa) = 0.01309564
#
# Stress axis : x y z
#
# Youngs Moduli (GPa) = 89.41780 100.95958 116.07074
#
# Poissons Ratio (x) = 0.40621 0.44646
# Poissons Ratio (y) = 0.35977 0.05039
# Poissons Ratio (z) = 0.34394 0.04383
#
# Static dielectric constant tensor:
#      x y z
#    x 1.904230 -0.375420 -0.031850 
#    y -0.375420 1.750280 -0.419840 
#    z -0.031850 -0.419840 2.301260 
# 
# From -- ./inp_files/556285.got.cif
#   From: 2010.05.17/outbox.cif.g08.bks.cpg/sg2_279_cif.got.tgz:556285.got - 2010.06.03 11:33:40.
