data_PCOD9069644
_publ_section_title
;
Structure prediction by ZEFSAII (Michael W. Deem and Ramdas Pophale) SiO2 
 PCOD9069644
Probable space group: P -1
;
_chemical_formula_sum "Si O2"
_cell_formula_units_Z 15
_cell_length_a 8.715062
_cell_length_b 15.120510
_cell_length_c 9.089079
_cell_angle_alpha 114.036615
_cell_angle_beta 92.172874
_cell_angle_gamma 39.744247
_cell_volume 616.781655
_symmetry_space_group_name_H-M "P -1"
_symmetry_group_IT_number 2
_symmetry_cell_setting 'triclinic'
loop_
_space_group_symop_operation_xyz
x,y,z
-x,-y,-z
loop_
_atom_site_type_symbol
_atom_site_label
_atom_site_fract_x
_atom_site_fract_y
_atom_site_fract_z
Si Si1 0.593608 0.134346 0.199273
Si Si2 0.182445 0.661954 0.550089
Si Si3 0.701133 0.650709 0.374636
Si Si4 0.128334 0.269306 0.157242
Si Si5 0.000000 0.500000 0.000000
Si Si6 0.397127 0.403770 0.169136
Si Si7 0.833902 0.183466 0.584554
Si Si8 0.896128 0.243510 0.933498
O O1 0.430783 0.223999 0.409643
O O2 0.439682 0.133704 0.096445
O O3 0.560357 0.250234 0.185806
O O4 0.894377 0.944378 0.119931
O O5 0.500000 0.500000 0.500000
O O6 0.179867 0.574782 0.375927
O O7 0.094613 0.803446 0.557199
O O8 0.992583 0.739433 0.732651
O O9 0.478816 0.684156 0.351588
O O10 0.969546 0.452854 0.300010
O O11 0.787607 0.651294 0.224210
O O12 0.025718 0.280068 0.005378
O O13 0.256564 0.414086 0.044678
O O14 0.605972 0.371826 0.082787
O O15 0.878816 0.233415 0.753661
O O16 0.000000 0.000000 0.500000
#
# Coordination Sequence:
#
# PCOD9069644 Si02
#       8
#     2   2   2   2   1   2   2   2
#     4  12  25  47  72 103 148 196 234 292 367 429
#     4  12  24  44  75 106 139 191 246 294 355 427
#     4  12  23  46  73  99 143 190 239 295 353 426
#     4  12  25  46  72 106 142 191 249 297 345 431
#     4  12  26  40  70 112 136 176 246 300 350 414
#     4  12  24  44  73 107 140 189 242 296 351 434
#     4  12  26  46  72 104 149 189 237 298 370 428
#     4  12  27  43  70 106 147 187 239 300 358 425
#
# _framework density 24.319787000000002
#
# number of rings (size 3 to 8) (size 9 to 14) (size 15 to 20)
#    0.000    0.000    8.000    2.000    1.867    2.133 
#    0.000    0.667    0.000    0.000    0.000    0.000 
#    0.000    0.000    0.000    0.000    0.000    0.000 
#
# Total GULP energy -83774.901847 kJ/mol
# GULP energy per Si atom -5584.993456 kJ/mol
# Density = 2.426443 g / cm^3
# Si number density = 24.319787 Si / 1000 Ang^3
#
#
#
# Elastic Constant Matrix: (Units=GPa)
#
#
# Indices 1 2 3 4 5 6 
#
# 1 59.3637 12.6999 12.5395 -14.2450 -0.9284 -16.9965
# 2 12.6999 103.1798 7.6657 -1.8970 4.6143 3.7469
# 3 12.5395 7.6657 106.8835 -14.2687 14.8375 -6.9002
# 4 -14.2450 -1.8970 -14.2687 33.3099 -1.8797 12.6101
# 5 -0.9284 4.6143 14.8375 -1.8797 39.6348 -14.0264
# 6 -16.9965 3.7469 -6.9002 12.6101 -14.0264 46.0618
#
#
#
# Elastic Compliance Matrix: (Units=1/GPa)
#
#
# Indices 1 2 3 4 5 6 
#
# 1 0.021447 -0.002892 -0.001681 0.005617 0.004466 0.007720
# 2 -0.002892 0.010257 -0.000262 0.000103 -0.002080 -0.002602
# 3 -0.001681 -0.000262 0.010626 0.004123 -0.004303 -0.001446
# 4 0.005617 0.000103 0.004123 0.037186 -0.002593 -0.008288
# 5 0.004466 -0.002080 -0.004303 -0.002593 0.031081 0.011347
# 6 0.007720 -0.002602 -0.001446 -0.008288 0.011347 0.030278
#
#
# Mechanical properties :
#
#
# Convention : Reuss Voigt Hill
#
# Bulk Modulus (GPa) = 30.61718 37.24856 33.93287
# Shear Modulus (GPa) = 30.97318 39.56944 35.27131
#
# Velocity S-wave (km/s) = 3.57260 4.03804 3.81243
# Velocity P-wave (km/s) = 5.44377 6.09019 5.77603
#
# Compressibility (1/GPa) = 0.03266140
#
# Stress axis : x y z
#
# Youngs Moduli (GPa) = 46.62695 97.49819 94.10594
#
# Poissons Ratio (x) = 0.28194 0.15815
# Poissons Ratio (y) = 0.13483 0.02464
# Poissons Ratio (z) = 0.07836 0.02553
#
# Static dielectric constant tensor:
#      x y z
#    x 1.920070 0.069570 0.096750 
#    y 0.069570 1.969480 -0.017940 
#    z 0.096750 -0.017940 1.898800 
# 
# From -- ./inp_files/183984.got.cif
#   From: 2010.05.17/outbox.cif.g08.bks.cpg/sg2_92_cif.got.tgz:183984.got - 2010.06.03 11:33:40.
