data_PCOD9069052
_publ_section_title
;
Structure prediction by ZEFSAII (Michael W. Deem and Ramdas Pophale) SiO2 
 PCOD9069052
Probable space group: P -1
;
_chemical_formula_sum "Si O2"
_cell_formula_units_Z 14
_cell_length_a 11.585326
_cell_length_b 27.867366
_cell_length_c 28.452675
_cell_angle_alpha 169.772764
_cell_angle_beta 22.998056
_cell_angle_gamma 157.393178
_cell_volume 617.163495
_symmetry_space_group_name_H-M "P -1"
_symmetry_group_IT_number 2
_symmetry_cell_setting 'triclinic'
loop_
_space_group_symop_operation_xyz
x,y,z
-x,-y,-z
loop_
_atom_site_type_symbol
_atom_site_label
_atom_site_fract_x
_atom_site_fract_y
_atom_site_fract_z
Si Si1 0.607897 0.997034 0.860428
Si Si2 0.283147 0.779831 0.472515
Si Si3 0.886566 0.758207 0.271485
Si Si4 0.243304 0.399582 0.433579
Si Si5 0.221613 0.530226 0.401606
Si Si6 0.396984 0.929288 0.177106
Si Si7 0.717986 0.664236 0.035836
O O1 0.577329 0.971764 0.790955
O O2 0.953893 0.163906 0.902074
O O3 0.497149 0.686583 0.624073
O O4 0.393337 0.183371 0.141544
O O5 0.530493 0.710949 0.349195
O O6 0.961963 0.747209 0.587842
O O7 0.406999 0.094671 0.710505
O O8 0.241504 0.561707 0.235357
O O9 0.051956 0.826263 0.224596
O O10 0.000000 0.000000 0.500000
O O11 0.000000 0.500000 0.000000
O O12 0.997747 0.493736 0.583290
O O13 0.000000 0.500000 0.500000
O O14 0.448632 0.829948 0.612471
O O15 0.419541 0.306282 0.113525
O O16 0.500000 0.500000 0.000000
#
# Coordination Sequence:
#
# PCOD9069052 Si02
#       7
#     2   2   2   2   2   2   2
#     4  12  25  43  69 102 132 182 236 285 341 414
#     4  12  27  48  72 103 142 184 226 295 352 408
#     4  12  26  46  70 104 141 185 232 280 348 421
#     4  12  25  42  69 104 142 176 229 281 355 423
#     4  12  22  41  65 103 142 180 220 278 350 412
#     4  12  23  41  68  98 138 180 233 285 338 409
#     4  12  28  50  74  98 135 184 242 293 347 406
#
# _framework density 22.684426999999999
#
# number of rings (size 3 to 8) (size 9 to 14) (size 15 to 20)
#    0.000    0.000    2.857    7.714    0.000    5.714 
#    0.000    0.000    0.000    0.000    0.000    0.000 
#    0.000    0.000    0.000    0.000    0.000    0.000 
#
# Total GULP energy -78445.591786 kJ/mol
# GULP energy per Si atom -5603.256556 kJ/mol
# Density = 2.263280 g / cm^3
# Si number density = 22.684427 Si / 1000 Ang^3
#
#
#
# Elastic Constant Matrix: (Units=GPa)
#
#
# Indices 1 2 3 4 5 6 
#
# 1 87.1222 47.7792 5.4949 -7.1003 0.0960 -3.2315
# 2 47.7792 148.7621 38.4702 -4.1749 13.1514 -17.1550
# 3 5.4949 38.4702 119.6250 -1.0004 10.0425 -18.2684
# 4 -7.1003 -4.1749 -1.0004 40.8722 -5.1551 -4.0086
# 5 0.0960 13.1514 10.0425 -5.1551 41.4732 0.8696
# 6 -3.2315 -17.1550 -18.2684 -4.0086 0.8696 39.1585
#
#
#
# Elastic Compliance Matrix: (Units=1/GPa)
#
#
# Indices 1 2 3 4 5 6 
#
# 1 0.014283 -0.004912 0.000738 0.002159 0.001624 -0.000444
# 2 -0.004912 0.009400 -0.002166 0.000009 -0.002502 0.002758
# 3 0.000738 -0.002166 0.009737 0.000294 -0.001714 0.003723
# 4 0.002159 0.000009 0.000294 0.025513 0.003032 0.002864
# 5 0.001624 -0.002502 -0.001714 0.003032 0.025736 -0.002023
# 6 -0.000444 0.002758 0.003723 0.002864 -0.002023 0.028784
#
#
# Mechanical properties :
#
#
# Convention : Reuss Voigt Hill
#
# Bulk Modulus (GPa) = 48.21956 59.88864 54.05410
# Shear Modulus (GPa) = 37.58081 41.88510 39.73296
#
# Velocity S-wave (km/s) = 4.07465 4.30167 4.18970
# Velocity P-wave (km/s) = 6.59089 7.15056 6.87642
#
# Compressibility (1/GPa) = 0.02073847
#
# Stress axis : x y z
#
# Youngs Moduli (GPa) = 70.01160 106.38862 102.70150
#
# Poissons Ratio (x) = 0.52263 -0.07575
# Poissons Ratio (y) = 0.34393 0.22243
# Poissons Ratio (z) = -0.05164 0.23042
#
# Static dielectric constant tensor:
#      x y z
#    x 1.836770 -0.007150 -0.018960 
#    y -0.007150 1.876820 0.027120 
#    z -0.018960 0.027120 1.765650 
# 
# From -- ./inp_files/623251.got.cif
#   From: 2010.05.17/outbox.cif.g08.bks.cpg/sg2_312_cif.got.tgz:623251.got - 2010.06.03 11:33:40.
