data_PCOD9069394
_publ_section_title
;
Structure prediction by ZEFSAII (Michael W. Deem and Ramdas Pophale) SiO2 
 PCOD9069394
Probable space group: P -1
;
_chemical_formula_sum "Si O2"
_cell_formula_units_Z 16
_cell_length_a 11.063497
_cell_length_b 11.226101
_cell_length_c 17.431724
_cell_angle_alpha 51.933102
_cell_angle_beta 149.307523
_cell_angle_gamma 106.838615
_cell_volume 696.964643
_symmetry_space_group_name_H-M "P -1"
_symmetry_group_IT_number 2
_symmetry_cell_setting 'triclinic'
loop_
_space_group_symop_operation_xyz
x,y,z
-x,-y,-z
loop_
_atom_site_type_symbol
_atom_site_label
_atom_site_fract_x
_atom_site_fract_y
_atom_site_fract_z
Si Si1 0.946933 0.712773 0.711037
Si Si2 0.470232 0.415084 0.206233
Si Si3 0.247918 0.775977 0.718272
Si Si4 0.789778 0.717014 0.118435
Si Si5 0.337434 0.330088 0.763811
Si Si6 0.580916 0.626825 0.454014
Si Si7 0.729792 0.034704 0.582617
Si Si8 0.236356 0.929017 0.020653
O O1 0.151167 0.685876 0.761912
O O2 0.667475 0.726319 0.521983
O O3 0.871399 0.896922 0.640844
O O4 0.141985 0.533085 0.944967
O O5 0.703628 0.311544 0.304509
O O6 0.494748 0.574249 0.188814
O O7 0.561684 0.251171 0.380101
O O8 0.556072 0.735669 0.925205
O O9 0.000000 0.000000 0.500000
O O10 0.648789 0.743571 0.114635
O O11 0.111672 0.518833 0.366111
O O12 0.826730 0.880244 0.058602
O O13 0.478314 0.170058 0.840351
O O14 0.000000 0.500000 0.500000
O O15 0.500000 0.500000 0.500000
O O16 0.328429 0.781727 0.197454
O O17 0.500000 0.000000 0.500000
O O18 0.969728 0.979074 0.800681
#
# Coordination Sequence:
#
# PCOD9069394 Si02
#       8
#     2   2   2   2   2   2   2   2
#     4  12  25  50  74 109 143 191 245 298 365 425
#     4  12  25  45  73 106 147 185 245 298 363 427
#     4  12  23  42  76 109 146 182 234 306 365 427
#     4  12  25  46  72 110 147 189 236 295 373 427
#     4  12  24  43  73 105 145 186 230 300 369 429
#     4  12  30  49  75 105 146 198 245 296 355 434
#     4  12  30  48  74 104 143 201 245 295 352 431
#     4  12  28  48  71 109 148 187 244 298 366 429
#
# _framework density 22.956689000000001
#
# number of rings (size 3 to 8) (size 9 to 14) (size 15 to 20)
#    0.000    0.000    6.250    3.000    5.250    1.000 
#    0.000    0.000    0.000    0.000    0.000    0.000 
#    0.000    0.000    0.000    0.000    0.000    0.000 
#
# Total GULP energy -89648.230207 kJ/mol
# GULP energy per Si atom -5603.014388 kJ/mol
# Density = 2.290444 g / cm^3
# Si number density = 22.956689 Si / 1000 Ang^3
#
#
#
# Elastic Constant Matrix: (Units=GPa)
#
#
# Indices 1 2 3 4 5 6 
#
# 1 50.0041 17.4175 21.7415 1.7340 -15.2423 21.4020
# 2 17.4175 108.5522 32.1437 -3.6272 -21.3909 15.1639
# 3 21.7415 32.1437 114.9109 -8.1570 -34.1941 16.5048
# 4 1.7340 -3.6272 -8.1570 45.7054 4.0868 3.4878
# 5 -15.2423 -21.3909 -34.1941 4.0868 36.1593 -9.7053
# 6 21.4020 15.1639 16.5048 3.4878 -9.7053 34.3793
#
#
#
# Elastic Compliance Matrix: (Units=1/GPa)
#
#
# Indices 1 2 3 4 5 6 
#
# 1 0.029511 -0.000937 -0.001159 -0.000828 0.006746 -0.015413
# 2 -0.000937 0.010917 -0.001243 0.000500 0.004157 -0.002512
# 3 -0.001159 -0.001243 0.012658 0.001472 0.010008 -0.002131
# 4 -0.000828 0.000500 0.001472 0.022654 -0.002109 -0.003305
# 5 0.006746 0.004157 0.010008 -0.002109 0.043072 0.001536
# 6 -0.015413 -0.002512 -0.002131 -0.003305 0.001536 0.041583
#
#
# Mechanical properties :
#
#
# Convention : Reuss Voigt Hill
#
# Bulk Modulus (GPa) = 21.54826 46.23029 33.88928
# Shear Modulus (GPa) = 27.39084 36.72643 32.05863
#
# Velocity S-wave (km/s) = 3.45795 4.00411 3.74101
# Velocity P-wave (km/s) = 5.03489 6.44662 5.78399
#
# Compressibility (1/GPa) = 0.04640746
#
# Stress axis : x y z
#
# Youngs Moduli (GPa) = 33.88618 91.59613 79.00116
#
# Poissons Ratio (x) = 0.08584 0.09155
# Poissons Ratio (y) = 0.03176 0.09822
# Poissons Ratio (z) = 0.03927 0.11388
#
# Static dielectric constant tensor:
#      x y z
#    x 2.060290 -0.147920 0.060010 
#    y -0.147920 1.918870 -0.030240 
#    z 0.060010 -0.030240 1.869410 
# 
# From -- ./inp_files/568681.got.cif
#   From: 2010.05.17/outbox.cif.g08.bks.cpg/sg2_285_cif.got.tgz:568681.got - 2010.06.03 11:33:40.
