data_PCOD9069881
_publ_section_title
;
Structure prediction by ZEFSAII (Michael W. Deem and Ramdas Pophale) SiO2 
 PCOD9069881
Probable space group: P -1
;
_chemical_formula_sum "Si O2"
_cell_formula_units_Z 10
_cell_length_a 13.763911
_cell_length_b 12.896096
_cell_length_c 5.589351
_cell_angle_alpha 49.053116
_cell_angle_beta 60.497053
_cell_angle_gamma 32.882012
_cell_volume 402.760924
_symmetry_space_group_name_H-M "P -1"
_symmetry_group_IT_number 2
_symmetry_cell_setting 'triclinic'
loop_
_space_group_symop_operation_xyz
x,y,z
-x,-y,-z
loop_
_atom_site_type_symbol
_atom_site_label
_atom_site_fract_x
_atom_site_fract_y
_atom_site_fract_z
Si Si1 0.539539 0.307714 0.300650
Si Si2 0.856455 0.850414 0.397589
Si Si3 0.768330 0.432638 0.433490
Si Si4 0.392084 0.142422 0.173673
Si Si5 0.169582 0.920075 0.304830
O O1 0.345175 0.430098 0.393851
O O2 0.672861 0.180097 0.561134
O O3 0.665826 0.113504 0.252967
O O4 0.500000 0.500000 0.000000
O O5 0.794234 0.762927 0.701229
O O6 0.022347 0.737840 0.529019
O O7 0.907917 0.868394 0.052138
O O8 0.747127 0.291995 0.618015
O O9 0.667706 0.640773 0.077157
O O10 0.500000 0.000000 0.500000
O O11 0.500000 0.000000 0.000000
O O12 0.000000 0.000000 0.500000
#
# Coordination Sequence:
#
# PCOD9069881 Si02
#       5
#     2   2   2   2   2
#     4  12  24  42  73 105 148 189 246 305 378 437
#     4  12  26  48  71 108 148 192 250 311 370 452
#     4  12  25  47  73 107 147 197 245 312 372 444
#     4  12  29  51  79 109 151 202 254 308 380 448
#     4  12  25  44  75 110 145 192 249 307 375 449
#
# _framework density 24.828624000000001
#
# number of rings (size 3 to 8) (size 9 to 14) (size 15 to 20)
#    0.000    0.000    6.000    4.200    2.800    1.600 
#    0.000    3.000    0.000    0.000    0.000    0.000 
#    0.000    0.000    0.000    0.000    0.000    0.000 
#
# Total GULP energy -55687.499257 kJ/mol
# GULP energy per Si atom -5568.749926 kJ/mol
# Density = 2.477211 g / cm^3
# Si number density = 24.828624 Si / 1000 Ang^3
#
#
#
# Elastic Constant Matrix: (Units=GPa)
#
#
# Indices 1 2 3 4 5 6 
#
# 1 80.0159 7.2035 16.2567 11.3020 2.5136 -24.8209
# 2 7.2035 99.5835 17.3289 10.6429 -1.8878 -14.7505
# 3 16.2567 17.3289 130.3551 1.5159 -1.8423 -1.1432
# 4 11.3020 10.6429 1.5159 48.4274 -7.0919 -10.7484
# 5 2.5136 -1.8878 -1.8423 -7.0919 45.7102 4.3262
# 6 -24.8209 -14.7505 -1.1432 -10.7484 4.3262 31.1179
#
#
#
# Elastic Compliance Matrix: (Units=1/GPa)
#
#
# Indices 1 2 3 4 5 6 
#
# 1 0.017616 0.001375 -0.002272 -0.001515 -0.002607 0.014459
# 2 0.001375 0.011249 -0.001604 -0.001498 -0.000468 0.005918
# 3 -0.002272 -0.001604 0.008154 0.000213 0.000637 -0.002288
# 4 -0.001515 -0.001498 0.000213 0.023021 0.003070 0.005614
# 5 -0.002607 -0.000468 0.000637 0.003070 0.022920 -0.004404
# 6 0.014459 0.005918 -0.002288 0.005614 -0.004404 0.048942
#
#
# Mechanical properties :
#
#
# Convention : Reuss Voigt Hill
#
# Bulk Modulus (GPa) = 31.23252 43.50363 37.36807
# Shear Modulus (GPa) = 33.88036 42.99546 38.43791
#
# Velocity S-wave (km/s) = 3.69801 4.16587 3.93890
# Velocity P-wave (km/s) = 5.55340 6.37957 5.98077
#
# Compressibility (1/GPa) = 0.03201791
#
# Stress axis : x y z
#
# Youngs Moduli (GPa) = 56.76509 88.89411 122.63255
#
# Poissons Ratio (x) = -0.12226 0.27865
# Poissons Ratio (y) = -0.07807 0.19673
# Poissons Ratio (z) = 0.12898 0.14261
#
# Static dielectric constant tensor:
#      x y z
#    x 2.060520 -0.022870 -0.130000 
#    y -0.022870 2.264340 0.393940 
#    z -0.130000 0.393940 2.508590 
# 
# From -- ./inp_files/17952.got.cif
#   From: 2010.05.17/outbox.cif.g08.bks.cpg/sg2_9_cif.got.tgz:17952.got - 2010.06.03 11:33:40.
