data_PCOD9069004
_publ_section_title
;
Structure prediction by ZEFSAII (Michael W. Deem and Ramdas Pophale) SiO2 
 PCOD9069004
Probable space group: P -1
;
_chemical_formula_sum "Si O2"
_cell_formula_units_Z 12
_cell_length_a 10.041939
_cell_length_b 12.241664
_cell_length_c 8.918672
_cell_angle_alpha 145.425285
_cell_angle_beta 124.266750
_cell_angle_gamma 71.276643
_cell_volume 489.829437
_symmetry_space_group_name_H-M "P -1"
_symmetry_group_IT_number 2
_symmetry_cell_setting 'triclinic'
loop_
_space_group_symop_operation_xyz
x,y,z
-x,-y,-z
loop_
_atom_site_type_symbol
_atom_site_label
_atom_site_fract_x
_atom_site_fract_y
_atom_site_fract_z
Si Si1 0.171137 0.196269 0.569208
Si Si2 0.364143 0.045277 0.074209
Si Si3 0.889787 0.423637 0.085101
Si Si4 0.388815 0.538772 0.243237
Si Si5 0.833079 0.778571 0.062891
Si Si6 0.680534 0.113062 0.820275
O O1 0.125503 0.134215 0.643116
O O2 0.194674 0.021066 0.286964
O O3 0.061013 0.334402 0.596763
O O4 0.358859 0.363261 0.900361
O O5 0.447739 0.273145 0.448077
O O6 0.338260 0.889866 0.017728
O O7 0.209945 0.066950 0.903051
O O8 0.500000 0.000000 0.000000
O O9 0.769859 0.380104 0.811114
O O10 0.771598 0.322515 0.034182
O O11 0.036360 0.325893 0.039934
O O12 0.335232 0.410427 0.216019
O O13 0.500000 0.000000 0.500000
#
# Coordination Sequence:
#
# PCOD9069004 Si02
#       6
#     2   2   2   2   2   2
#     4   8  20  39  65  89 113 159 203 240 293 350
#     4  12  24  39  57  92 122 159 199 248 302 353
#     4   9  20  40  64  91 118 155 202 247 288 361
#     4   8  19  39  63  83 119 156 201 238 292 357
#     4   9  20  40  61  89 122 152 201 242 305 347
#     4  12  22  39  62  90 122 158 203 244 295 358
#
# _framework density 24.498324
#
# number of rings (size 3 to 8) (size 9 to 14) (size 15 to 20)
#    2.000    0.000    1.667    3.500    0.000    4.000 
#    6.000    0.833    0.000    0.000    0.000    0.000 
#    0.000    0.000    0.000    0.000    0.000    0.000 
#
# Total GULP energy -66966.427561 kJ/mol
# GULP energy per Si atom -5580.535630 kJ/mol
# Density = 2.444256 g / cm^3
# Si number density = 24.498324 Si / 1000 Ang^3
#
#
#
# Elastic Constant Matrix: (Units=GPa)
#
#
# Indices 1 2 3 4 5 6 
#
# 1 82.1732 51.5879 4.1915 -6.3521 -19.7123 4.9337
# 2 51.5879 156.7526 7.1665 -2.8377 -11.0671 11.9709
# 3 4.1915 7.1665 43.8148 3.4125 6.1752 1.1612
# 4 -6.3521 -2.8377 3.4125 27.0165 -6.0495 4.8569
# 5 -19.7123 -11.0671 6.1752 -6.0495 33.3831 3.0166
# 6 4.9337 11.9709 1.1612 4.8569 3.0166 52.9038
#
#
#
# Elastic Compliance Matrix: (Units=1/GPa)
#
#
# Indices 1 2 3 4 5 6 
#
# 1 0.018913 -0.004987 -0.003140 0.007253 0.011581 -0.001893
# 2 -0.004987 0.008168 -0.000833 0.000048 0.000050 -0.001372
# 3 -0.003140 -0.000833 0.024803 -0.005887 -0.007869 0.000926
# 4 0.007253 0.000048 -0.005887 0.043508 0.013754 -0.005337
# 5 0.011581 0.000050 -0.007869 0.013754 0.041167 -0.004529
# 6 -0.001893 -0.001372 0.000926 -0.005337 -0.004529 0.020117
#
#
# Mechanical properties :
#
#
# Convention : Reuss Voigt Hill
#
# Bulk Modulus (GPa) = 29.44463 45.40359 37.42411
# Shear Modulus (GPa) = 26.89338 37.31368 32.10353
#
# Velocity S-wave (km/s) = 3.31685 3.90694 3.62392
# Velocity P-wave (km/s) = 5.16854 6.23906 5.72886
#
# Compressibility (1/GPa) = 0.03396205
#
# Stress axis : x y z
#
# Youngs Moduli (GPa) = 52.87377 122.42749 40.31745
#
# Poissons Ratio (x) = 0.61058 0.12662
# Poissons Ratio (y) = 0.26370 0.03360
# Poissons Ratio (z) = 0.16605 0.10202
#
# Static dielectric constant tensor:
#      x y z
#    x 1.949390 -0.022160 0.069010 
#    y -0.022160 1.982170 0.017910 
#    z 0.069010 0.017910 2.035590 
# 
# From -- ./inp_files/183623.got.cif
#   From: 2010.05.17/outbox.cif.g08.bks.cpg/sg2_92_cif.got.tgz:183623.got - 2010.06.03 11:33:40.
