data_PCOD9069936
_publ_section_title
;
Structure prediction by ZEFSAII (Michael W. Deem and Ramdas Pophale) SiO2 
 PCOD9069936
Probable space group: P -1
;
_chemical_formula_sum "Si O2"
_cell_formula_units_Z 15
_cell_length_a 9.694217
_cell_length_b 14.079352
_cell_length_c 8.361906
_cell_angle_alpha 77.024741
_cell_angle_beta 115.255851
_cell_angle_gamma 134.859293
_cell_volume 726.453416
_symmetry_space_group_name_H-M "P -1"
_symmetry_group_IT_number 2
_symmetry_cell_setting 'triclinic'
loop_
_space_group_symop_operation_xyz
x,y,z
-x,-y,-z
loop_
_atom_site_type_symbol
_atom_site_label
_atom_site_fract_x
_atom_site_fract_y
_atom_site_fract_z
Si Si1 0.802411 0.888979 0.564192
Si Si2 0.294761 0.373125 0.853827
Si Si3 0.468853 0.874388 0.571683
Si Si4 0.026541 0.595577 0.343962
Si Si5 0.000000 0.500000 0.000000
Si Si6 0.981045 0.883595 0.960756
Si Si7 0.500488 0.294415 0.789863
Si Si8 0.552936 0.928203 0.949123
O O1 0.688227 0.921517 0.603478
O O2 0.890912 0.852521 0.749849
O O3 0.605011 0.766130 0.410671
O O4 0.000000 0.000000 0.500000
O O5 0.146624 0.395825 0.714696
O O6 0.379401 0.334696 0.780906
O O7 0.500000 0.500000 0.000000
O O8 0.159908 0.247598 0.954239
O O9 0.428758 0.850145 0.752946
O O10 0.263307 0.742503 0.429200
O O11 0.500000 0.000000 0.500000
O O12 0.000000 0.500000 0.500000
O O13 0.990346 0.540373 0.167080
O O14 0.249940 0.583059 0.121456
O O15 0.000000 0.000000 0.000000
O O16 0.214090 0.946042 0.043713
O O17 0.450428 0.171907 0.909522
O O18 0.500000 0.000000 0.000000
#
# Coordination Sequence:
#
# PCOD9069936 Si02
#       8
#     2   2   2   2   1   2   2   2
#     4  12  24  43  73 109 148 191 246 320 381 458
#     4  12  27  48  76 108 146 205 252 312 384 461
#     4  12  26  44  73 109 148 189 254 319 391 455
#     4  12  29  52  77 108 158 203 262 321 387 467
#     4  12  26  50  76 108 148 210 254 314 388 464
#     4  12  24  46  74 103 149 190 247 314 383 453
#     4  12  25  47  72 108 152 193 258 311 378 477
#     4  12  26  43  73 108 148 198 250 313 398 455
#
# _framework density 20.648261000000002
#
# number of rings (size 3 to 8) (size 9 to 14) (size 15 to 20)
#    0.000    0.000    6.667    2.400    5.600    0.000 
#    2.400    1.333    0.000    0.000    0.000    0.000 
#    0.000    0.000    0.000    0.000    0.000    0.000 
#
# Total GULP energy -83549.358950 kJ/mol
# GULP energy per Si atom -5569.957263 kJ/mol
# Density = 2.060126 g / cm^3
# Si number density = 20.648261 Si / 1000 Ang^3
#
#
#
# Elastic Constant Matrix: (Units=GPa)
#
#
# Indices 1 2 3 4 5 6 
#
# 1 179.2721 46.5143 41.9207 9.6190 1.8683 -5.2835
# 2 46.5143 90.7993 41.4741 4.7462 15.4986 -4.8593
# 3 41.9207 41.4741 155.0185 28.2738 -2.8352 -9.5955
# 4 9.6190 4.7462 28.2738 35.6859 -1.0070 10.2675
# 5 1.8683 15.4986 -2.8352 -1.0070 35.6481 16.9491
# 6 -5.2835 -4.8593 -9.5955 10.2675 16.9491 33.2599
#
#
#
# Elastic Compliance Matrix: (Units=1/GPa)
#
#
# Indices 1 2 3 4 5 6 
#
# 1 0.006609 -0.003121 -0.000785 -0.000771 0.000843 0.000176
# 2 -0.003121 0.016168 -0.003077 -0.001035 -0.010237 0.006515
# 3 -0.000785 -0.003077 0.009254 -0.008103 -0.000396 0.004798
# 4 -0.000771 -0.001035 -0.008103 0.041100 0.010929 -0.020868
# 5 0.000843 -0.010237 -0.000396 0.010929 0.046247 -0.028417
# 6 0.000176 0.006515 0.004798 -0.020868 -0.028417 0.053354
#
#
# Mechanical properties :
#
#
# Convention : Reuss Voigt Hill
#
# Bulk Modulus (GPa) = 55.35747 76.10088 65.72918
# Shear Modulus (GPa) = 25.94441 40.59750 33.27096
#
# Velocity S-wave (km/s) = 3.54855 4.43894 4.01848
# Velocity P-wave (km/s) = 6.60739 7.95035 7.30977
#
# Compressibility (1/GPa) = 0.01806441
#
# Stress axis : x y z
#
# Youngs Moduli (GPa) = 151.30034 61.85180 108.06087
#
# Poissons Ratio (x) = 0.19305 0.08486
# Poissons Ratio (y) = 0.47224 0.33248
# Poissons Ratio (z) = 0.11882 0.19030
#
# Static dielectric constant tensor:
#      x y z
#    x 1.538510 0.053990 0.031340 
#    y 0.053990 1.708350 0.000910 
#    z 0.031340 0.000910 1.746510 
# 
# From -- ./inp_files/187003.got.cif
#   From: 2010.05.17/outbox.cif.g08.bks.cpg/sg2_94_cif.got.tgz:187003.got - 2010.06.03 11:33:40.
