data_PCOD9069471
_publ_section_title
;
Structure prediction by ZEFSAII (Michael W. Deem and Ramdas Pophale) SiO2 
 PCOD9069471
Probable space group: P -1
;
_chemical_formula_sum "Si O2"
_cell_formula_units_Z 14
_cell_length_a 31.777917
_cell_length_b 31.544417
_cell_length_c 12.753093
_cell_angle_alpha 161.809089
_cell_angle_beta 161.318752
_cell_angle_gamma 8.917561
_cell_volume 608.386709
_symmetry_space_group_name_H-M "P -1"
_symmetry_group_IT_number 2
_symmetry_cell_setting 'triclinic'
loop_
_space_group_symop_operation_xyz
x,y,z
-x,-y,-z
loop_
_atom_site_type_symbol
_atom_site_label
_atom_site_fract_x
_atom_site_fract_y
_atom_site_fract_z
Si Si1 0.951698 0.608500 0.889999
Si Si2 0.976023 0.006676 0.206237
Si Si3 0.279692 0.809394 0.751349
Si Si4 0.973146 0.739137 0.036824
Si Si5 0.460682 0.187487 0.752179
Si Si6 0.540248 0.544382 0.091057
Si Si7 0.525298 0.881550 0.885158
O O1 0.748196 0.697450 0.550483
O O2 0.029349 0.643293 0.063356
O O3 0.221352 0.309974 0.887331
O O4 0.757743 0.847022 0.081345
O O5 0.801378 0.094434 0.092820
O O6 0.099655 0.035929 0.607919
O O7 0.732820 0.259749 0.148941
O O8 0.206689 0.720937 0.012540
O O9 0.500000 0.500000 0.500000
O O10 0.366823 0.871054 0.053240
O O11 0.000000 0.000000 0.500000
O O12 0.250765 0.458742 0.969458
O O13 0.712311 0.898938 0.741387
O O14 0.552729 0.696131 0.490131
O O15 0.500000 0.500000 0.000000
O O16 0.500000 0.000000 0.000000
#
# Coordination Sequence:
#
# PCOD9069471 Si02
#       7
#     2   2   2   2   2   2   2
#     4  12  26  47  75 103 144 195 240 299 364 427
#     4  12  24  42  75 103 144 189 233 300 373 422
#     4  12  23  44  65 105 149 189 233 290 358 442
#     4  12  23  44  72 113 147 183 236 296 363 447
#     4  12  24  43  71 106 149 190 235 287 364 451
#     4  12  26  48  75 106 138 187 252 310 361 421
#     4  12  28  52  71 104 146 192 253 308 355 426
#
# _framework density 23.011680999999999
#
# number of rings (size 3 to 8) (size 9 to 14) (size 15 to 20)
#    0.000    0.000    2.857    7.714    2.000    0.000 
#    0.000    0.000    0.000    0.000    0.000    0.000 
#    0.000    0.000    0.000    0.000    0.000    0.000 
#
# Total GULP energy -78185.977047 kJ/mol
# GULP energy per Si atom -5584.712646 kJ/mol
# Density = 2.295930 g / cm^3
# Si number density = 23.011681 Si / 1000 Ang^3
#
#
#
# Elastic Constant Matrix: (Units=GPa)
#
#
# Indices 1 2 3 4 5 6 
#
# 1 224.1631 56.8159 40.4862 12.2254 4.2883 -18.2894
# 2 56.8159 147.4201 16.9788 -5.5563 -3.3164 -15.8550
# 3 40.4862 16.9788 93.9848 -4.1559 7.6459 0.2744
# 4 12.2254 -5.5563 -4.1559 47.5486 -5.7685 -19.9227
# 5 4.2883 -3.3164 7.6459 -5.7685 25.4429 3.0561
# 6 -18.2894 -15.8550 0.2744 -19.9227 3.0561 59.7522
#
#
#
# Elastic Compliance Matrix: (Units=1/GPa)
#
#
# Indices 1 2 3 4 5 6 
#
# 1 0.005466 -0.001886 -0.002005 -0.001636 -0.001018 0.000688
# 2 -0.001886 0.007972 -0.000673 0.002545 0.001861 0.002295
# 3 -0.002005 -0.000673 0.011918 0.000950 -0.003071 -0.000374
# 4 -0.001636 0.002545 0.000950 0.026064 0.005199 0.008594
# 5 -0.001018 0.001861 -0.003071 0.005199 0.041845 -0.000211
# 6 0.000688 0.002295 -0.000374 0.008594 -0.000211 0.020433
#
#
# Mechanical properties :
#
#
# Convention : Reuss Voigt Hill
#
# Bulk Modulus (GPa) = 61.62515 77.12552 69.37534
# Shear Modulus (GPa) = 38.98994 49.96789 44.47891
#
# Velocity S-wave (km/s) = 4.12072 4.66490 4.40123
# Velocity P-wave (km/s) = 7.03410 7.91224 7.48606
#
# Compressibility (1/GPa) = 0.01622714
#
# Stress axis : x y z
#
# Youngs Moduli (GPa) = 182.94217 125.43288 83.90331
#
# Poissons Ratio (x) = 0.23660 0.16827
# Poissons Ratio (y) = 0.34507 0.05649
# Poissons Ratio (z) = 0.36689 0.08445
#
# Static dielectric constant tensor:
#      x y z
#    x 2.309850 0.066280 -0.180460 
#    y 0.066280 1.843280 0.005640 
#    z -0.180460 0.005640 1.992740 
# 
# From -- ./inp_files/477848.got.cif
#   From: 2010.05.17/outbox.cif.g08.bks.cpg/sg2_239_cif.got.tgz:477848.got - 2010.06.03 11:33:40.
