data_PCOD9069751
_publ_section_title
;
Structure prediction by ZEFSAII (Michael W. Deem and Ramdas Pophale) SiO2 
 PCOD9069751
Probable space group: P -1
;
_chemical_formula_sum "Si O2"
_cell_formula_units_Z 16
_cell_length_a 18.913926
_cell_length_b 9.475307
_cell_length_c 13.030553
_cell_angle_alpha 42.010621
_cell_angle_beta 154.385492
_cell_angle_gamma 128.083249
_cell_volume 664.157504
_symmetry_space_group_name_H-M "P -1"
_symmetry_group_IT_number 2
_symmetry_cell_setting 'triclinic'
loop_
_space_group_symop_operation_xyz
x,y,z
-x,-y,-z
loop_
_atom_site_type_symbol
_atom_site_label
_atom_site_fract_x
_atom_site_fract_y
_atom_site_fract_z
Si Si1 0.618119 0.864236 0.927559
Si Si2 0.730169 0.872392 0.853850
Si Si3 0.691314 0.284620 0.440563
Si Si4 0.881197 0.729107 0.711270
Si Si5 0.889986 0.643192 0.545625
Si Si6 0.907236 0.182106 0.577197
Si Si7 0.755276 0.434177 0.041202
Si Si8 0.509314 0.854638 0.195576
O O1 0.640830 0.962472 0.793273
O O2 0.507014 0.685957 0.850614
O O3 0.523922 0.003429 0.821502
O O4 0.799010 0.772504 0.260394
O O5 0.734727 0.062855 0.679069
O O6 0.666446 0.673110 0.826385
O O7 0.916977 0.765107 0.189088
O O8 0.774210 0.464565 0.507427
O O9 0.781985 0.248588 0.470132
O O10 0.875196 0.784096 0.552413
O O11 0.696274 0.723064 0.511119
O O12 0.936241 0.926383 0.734979
O O13 0.000000 0.500000 0.000000
O O14 0.083174 0.556753 0.822682
O O15 0.827981 0.304421 0.307694
O O16 0.625084 0.299213 0.898477
O O17 0.500000 0.000000 0.000000
#
# Coordination Sequence:
#
# PCOD9069751 Si02
#       8
#     2   2   2   2   2   2   2   2
#     4  12  25  46  76 106 146 199 254 305 364 443
#     4  12  27  45  72 110 152 197 245 310 376 430
#     4  12  26  47  71 105 154 199 243 310 372 436
#     4  12  28  48  79 110 146 194 246 307 375 442
#     4  12  26  46  76 111 148 199 251 301 373 445
#     4  12  23  48  76 100 153 195 251 298 374 443
#     4  12  26  46  76 114 147 191 255 308 361 449
#     4  12  25  51  76 110 147 195 247 305 371 448
#
# _framework density 24.090669999999999
#
# number of rings (size 3 to 8) (size 9 to 14) (size 15 to 20)
#    0.000    0.000    6.250    3.000    5.250    1.000 
#    2.250    1.250    0.000    0.000    0.000    0.000 
#    0.000    0.000    0.000    0.000    0.000    0.000 
#
# Total GULP energy -89650.862388 kJ/mol
# GULP energy per Si atom -5603.178899 kJ/mol
# Density = 2.403584 g / cm^3
# Si number density = 24.090670 Si / 1000 Ang^3
#
#
#
# Elastic Constant Matrix: (Units=GPa)
#
#
# Indices 1 2 3 4 5 6 
#
# 1 114.4807 10.9655 15.6276 5.7895 17.0664 -13.1256
# 2 10.9655 93.8671 23.4795 14.8957 14.5471 -7.2876
# 3 15.6276 23.4795 80.1110 -4.3226 22.1661 1.5147
# 4 5.7895 14.8957 -4.3226 37.8115 3.1372 10.2044
# 5 17.0664 14.5471 22.1661 3.1372 34.6409 -1.0600
# 6 -13.1256 -7.2876 1.5147 10.2044 -1.0600 24.9357
#
#
#
# Elastic Compliance Matrix: (Units=1/GPa)
#
#
# Indices 1 2 3 4 5 6 
#
# 1 0.010478 0.000950 -0.001558 -0.003786 -0.003999 0.007267
# 2 0.000950 0.013872 -0.004083 -0.008000 -0.002713 0.007961
# 3 -0.001558 -0.004083 0.016944 0.006143 -0.009099 -0.005943
# 4 -0.003786 -0.008000 0.006143 0.036418 -0.002607 -0.019718
# 5 -0.003999 -0.002713 -0.009099 -0.002607 0.038046 0.000339
# 6 0.007267 0.007961 -0.005943 -0.019718 0.000339 0.054700
#
#
# Mechanical properties :
#
#
# Convention : Reuss Voigt Hill
#
# Bulk Modulus (GPa) = 31.33417 43.17820 37.25619
# Shear Modulus (GPa) = 26.25017 35.37002 30.81009
#
# Velocity S-wave (km/s) = 3.30455 3.83587 3.58008
# Velocity P-wave (km/s) = 5.25310 6.13031 5.70858
#
# Compressibility (1/GPa) = 0.03191404
#
# Stress axis : x y z
#
# Youngs Moduli (GPa) = 95.44257 72.08977 59.01641
#
# Poissons Ratio (x) = -0.06851 0.09193
# Poissons Ratio (y) = -0.09071 0.24094
# Poissons Ratio (z) = 0.14866 0.29431
#
# Static dielectric constant tensor:
#      x y z
#    x 1.890520 0.026460 -0.010870 
#    y 0.026460 1.893370 -0.000110 
#    z -0.010870 -0.000110 1.955700 
# 
# From -- ./inp_files/298056.got.cif
#   From: 2010.05.17/outbox.cif.g08.bks.cpg/sg2_150_cif.got.tgz:298056.got - 2010.06.03 11:33:40.
