data_PCOD9069076
_publ_section_title
;
Structure prediction by ZEFSAII (Michael W. Deem and Ramdas Pophale) SiO2 
 PCOD9069076
Probable space group: P -1
;
_chemical_formula_sum "Si O2"
_cell_formula_units_Z 11
_cell_length_a 8.099793
_cell_length_b 11.889608
_cell_length_c 5.901765
_cell_angle_alpha 131.815521
_cell_angle_beta 72.407422
_cell_angle_gamma 112.992473
_cell_volume 389.219041
_symmetry_space_group_name_H-M "P -1"
_symmetry_group_IT_number 2
_symmetry_cell_setting 'triclinic'
loop_
_space_group_symop_operation_xyz
x,y,z
-x,-y,-z
loop_
_atom_site_type_symbol
_atom_site_label
_atom_site_fract_x
_atom_site_fract_y
_atom_site_fract_z
Si Si1 0.493265 0.369148 0.642058
Si Si2 0.075131 0.872586 0.424406
Si Si3 0.169230 0.308546 0.358731
Si Si4 0.500000 0.000000 0.000000
Si Si5 0.614125 0.864334 0.230752
Si Si6 0.171201 0.705929 0.767624
O O1 0.333926 0.380308 0.556161
O O2 0.464335 0.205280 0.580307
O O3 0.682699 0.391645 0.465751
O O4 0.500000 0.500000 0.000000
O O5 0.942206 0.834394 0.635764
O O6 0.276818 0.960017 0.526110
O O7 0.088044 0.722379 0.071282
O O8 0.000000 0.000000 0.500000
O O9 0.995441 0.360896 0.420892
O O10 0.254823 0.244440 0.023365
O O11 0.712871 0.112878 0.082831
O O12 0.529367 0.881162 0.042112
#
# Coordination Sequence:
#
# PCOD9069076 Si02
#       6
#     2   2   2   1   2   2
#     4  12  30  53  74 103 152 209 261 305 354 443
#     4  12  22  41  76 114 156 183 234 318 389 453
#     4  12  24  47  74 112 151 195 248 307 378 444
#     4  12  24  42  76 118 150 184 238 312 390 444
#     4  12  25  47  75 114 158 190 238 314 383 450
#     4  12  26  43  75 116 147 196 247 302 388 445
#
# _framework density 28.261721000000001
#
# number of rings (size 3 to 8) (size 9 to 14) (size 15 to 20)
#    0.000    0.000    7.273    2.727    2.545    2.909 
#    0.000    3.636    0.000    0.000    0.000    0.000 
#    0.000    0.000    0.000    0.000    0.000    0.000 
#
# Total GULP energy -61309.237574 kJ/mol
# GULP energy per Si atom -5573.567052 kJ/mol
# Density = 2.819740 g / cm^3
# Si number density = 28.261721 Si / 1000 Ang^3
#
#
#
# Elastic Constant Matrix: (Units=GPa)
#
#
# Indices 1 2 3 4 5 6 
#
# 1 214.1994 72.7145 74.8539 -6.4775 32.8012 -16.8687
# 2 72.7145 105.5987 -14.2707 -32.8432 9.5136 -19.1415
# 3 74.8539 -14.2707 117.8916 -4.6438 9.0454 -2.3975
# 4 -6.4775 -32.8432 -4.6438 47.8063 3.2794 -2.3870
# 5 32.8012 9.5136 9.0454 3.2794 63.4720 -6.9314
# 6 -16.8687 -19.1415 -2.3975 -2.3870 -6.9314 55.6651
#
#
#
# Elastic Compliance Matrix: (Units=1/GPa)
#
#
# Indices 1 2 3 4 5 6 
#
# 1 0.011894 -0.011633 -0.009048 -0.007133 -0.002904 -0.001453
# 2 -0.011633 0.025558 0.011267 0.017377 0.000392 0.006543
# 3 -0.009048 0.011267 0.015915 0.008135 0.000543 0.002235
# 4 -0.007133 0.017377 0.008135 0.033032 -0.001191 0.005432
# 5 -0.002904 0.000392 0.000543 -0.001191 0.017332 0.001385
# 6 -0.001453 0.006543 0.002235 0.005432 0.001385 0.020276
#
#
# Mechanical properties :
#
#
# Convention : Reuss Voigt Hill
#
# Bulk Modulus (GPa) = 28.95143 78.25391 53.60267
# Shear Modulus (GPa) = 32.39432 53.68149 43.03790
#
# Velocity S-wave (km/s) = 3.38927 4.36299 3.90658
# Velocity P-wave (km/s) = 5.05791 7.28903 6.27345
#
# Compressibility (1/GPa) = 0.03454061
#
# Stress axis : x y z
#
# Youngs Moduli (GPa) = 84.07594 39.12669 62.83235
#
# Poissons Ratio (x) = 0.45516 0.56850
# Poissons Ratio (y) = 0.97806 -0.70796
# Poissons Ratio (z) = 0.76071 -0.44086
#
# Static dielectric constant tensor:
#      x y z
#    x 2.248520 -0.054670 -0.045950 
#    y -0.054670 2.244090 -0.093710 
#    z -0.045950 -0.093710 1.790220 
# 
# From -- ./inp_files/22685.got.cif
#   From: 2010.05.17/outbox.cif.g08.bks.cpg/sg2_12_cif.got.tgz:22685.got - 2010.06.03 11:33:40.
