data_PCOD9069719
_publ_section_title
;
Structure prediction by ZEFSAII (Michael W. Deem and Ramdas Pophale) SiO2 
 PCOD9069719
Probable space group: P -1
;
_chemical_formula_sum "Si O2"
_cell_formula_units_Z 14
_cell_length_a 13.046910
_cell_length_b 13.127938
_cell_length_c 13.819432
_cell_angle_alpha 157.903442
_cell_angle_beta 65.466937
_cell_angle_gamma 116.954521
_cell_volume 793.577408
_symmetry_space_group_name_H-M "P -1"
_symmetry_group_IT_number 2
_symmetry_cell_setting 'triclinic'
loop_
_space_group_symop_operation_xyz
x,y,z
-x,-y,-z
loop_
_atom_site_type_symbol
_atom_site_label
_atom_site_fract_x
_atom_site_fract_y
_atom_site_fract_z
Si Si1 0.933931 0.738180 0.043646
Si Si2 0.906608 0.218691 0.166344
Si Si3 0.859049 0.631040 0.677077
Si Si4 0.077657 0.872864 0.431664
Si Si5 0.280074 0.542761 0.243480
Si Si6 0.516443 0.429286 0.043339
Si Si7 0.659011 0.013503 0.555975
O O1 0.949952 0.459133 0.846029
O O2 0.809229 0.653896 0.965989
O O3 0.029214 0.786324 0.964775
O O4 0.937208 0.992589 0.338608
O O5 0.850524 0.478425 0.443669
O O6 0.008632 0.267430 0.250002
O O7 0.821361 0.925423 0.952423
O O8 0.793426 0.429463 0.607624
O O9 0.212761 0.956122 0.427522
O O10 0.000000 0.000000 0.500000
O O11 0.387951 0.411285 0.116305
O O12 0.324505 0.822691 0.410514
O O13 0.600213 0.696790 0.288352
O O14 0.500000 0.500000 0.000000
O O15 0.577939 0.169689 0.788876
#
# Coordination Sequence:
#
# PCOD9069719 Si02
#       7
#     2   2   2   2   2   2   2
#     4  10  20  32  48  67  95 124 151 184 230 273
#     4   9  17  29  41  62  91 122 148 181 218 258
#     4   9  17  26  42  63  91 122 153 177 207 261
#     4  11  21  34  50  68  89 117 156 196 230 267
#     4   9  18  29  46  69  96 129 154 176 216 268
#     4  10  18  29  44  64  93 125 154 177 214 270
#     4  10  20  31  44  64  93 124 152 185 223 265
#
# _framework density 17.641631
#
# number of rings (size 3 to 8) (size 9 to 14) (size 15 to 20)
#    0.000    2.286    0.000    5.571    0.000   11.429 
#    0.000    0.000    0.000    0.000    0.000    0.000 
#    0.000   22.857    0.000    0.000    0.000    0.000 
#
# Total GULP energy -77990.172579 kJ/mol
# GULP energy per Si atom -5570.726613 kJ/mol
# Density = 1.760148 g / cm^3
# Si number density = 17.641631 Si / 1000 Ang^3
#
#
#
# Elastic Constant Matrix: (Units=GPa)
#
#
# Indices 1 2 3 4 5 6 
#
# 1 59.3009 4.4487 -1.3731 -1.6165 -17.9079 -0.0763
# 2 4.4487 35.2937 0.2838 0.6891 1.1688 8.3201
# 3 -1.3731 0.2838 77.8844 -5.9376 -8.2568 3.1479
# 4 -1.6165 0.6891 -5.9376 21.3007 -0.7871 -1.1361
# 5 -17.9079 1.1688 -8.2568 -0.7871 15.9778 -1.9991
# 6 -0.0763 8.3201 3.1479 -1.1361 -1.9991 8.1910
#
#
#
# Elastic Compliance Matrix: (Units=1/GPa)
#
#
# Indices 1 2 3 4 5 6 
#
# 1 0.029575 -0.009555 0.004384 0.006200 0.038747 0.018613
# 2 -0.009555 0.041591 -0.000996 -0.005653 -0.020519 -0.047745
# 3 0.004384 -0.000996 0.014672 0.004881 0.012708 -0.000807
# 4 0.006200 -0.005653 0.004881 0.050249 0.014156 0.014348
# 5 0.038747 -0.020519 0.012708 0.014156 0.120754 0.047754
# 6 0.018613 -0.047745 -0.000807 0.014348 0.047754 0.184712
#
#
# Mechanical properties :
#
#
# Convention : Reuss Voigt Hill
#
# Bulk Modulus (GPa) = 13.60458 19.91085 16.75772
# Shear Modulus (GPa) = 10.45171 20.36854 15.41012
#
# Velocity S-wave (km/s) = 2.43666 3.40159 2.95872
# Velocity P-wave (km/s) = 3.95535 5.17093 4.60344
#
# Compressibility (1/GPa) = 0.07350463
#
# Stress axis : x y z
#
# Youngs Moduli (GPa) = 33.81193 24.04346 68.15475
#
# Poissons Ratio (x) = 0.22974 -0.29881
# Poissons Ratio (y) = 0.32308 0.06791
# Poissons Ratio (z) = -0.14824 0.02396
#
# Static dielectric constant tensor:
#      x y z
#    x 1.617620 0.028430 -0.051840 
#    y 0.028430 1.632250 0.004590 
#    z -0.051840 0.004590 1.688800 
# 
# From -- ./inp_files/453994.got.cif
#   From: 2010.05.17/outbox.cif.g08.bks.cpg/sg2_227_cif.got.tgz:453994.got - 2010.06.03 11:33:40.
