data_PCOD9069288
_publ_section_title
;
Structure prediction by ZEFSAII (Michael W. Deem and Ramdas Pophale) SiO2 
 PCOD9069288
Probable space group: P -1
;
_chemical_formula_sum "Si O2"
_cell_formula_units_Z 12
_cell_length_a 12.010345
_cell_length_b 11.464343
_cell_length_c 11.505812
_cell_angle_alpha 23.935960
_cell_angle_beta 47.100200
_cell_angle_gamma 46.784754
_cell_volume 460.293898
_symmetry_space_group_name_H-M "P -1"
_symmetry_group_IT_number 2
_symmetry_cell_setting 'triclinic'
loop_
_space_group_symop_operation_xyz
x,y,z
-x,-y,-z
loop_
_atom_site_type_symbol
_atom_site_label
_atom_site_fract_x
_atom_site_fract_y
_atom_site_fract_z
Si Si1 0.326923 0.932889 0.180440
Si Si2 0.125692 0.575569 0.750019
Si Si3 0.099093 0.709018 0.136983
Si Si4 0.615446 0.318335 0.874043
Si Si5 0.445620 0.927856 0.475641
Si Si6 0.903116 0.863815 0.447816
O O1 0.263981 0.765751 0.486776
O O2 0.324924 0.721561 0.262786
O O3 0.500000 0.000000 0.000000
O O4 0.216443 0.249769 0.948010
O O5 0.017097 0.785114 0.544668
O O6 0.000000 0.500000 0.000000
O O7 0.108531 0.829035 0.889535
O O8 0.257584 0.634498 0.165002
O O9 0.044225 0.406949 0.432777
O O10 0.000000 0.000000 0.000000
O O11 0.468131 0.581326 0.758721
O O12 0.565562 0.019931 0.217125
O O13 0.500000 0.000000 0.500000
O O14 0.274335 0.116084 0.408375
#
# Coordination Sequence:
#
# PCOD9069288 Si02
#       6
#     2   2   2   2   2   2
#     4  12  29  55  80 115 150 207 269 323 389 461
#     4  12  28  54  81 112 153 204 266 328 391 456
#     4  12  23  40  69 105 147 196 239 311 390 462
#     4  12  24  44  73 107 156 195 251 314 377 464
#     4  12  23  43  70 111 153 202 248 298 389 464
#     4  12  25  43  71 108 153 189 253 315 379 465
#
# _framework density 26.0703
#
# number of rings (size 3 to 8) (size 9 to 14) (size 15 to 20)
#    0.000    0.000    3.333    7.000    2.333    0.000 
#    0.000    0.000    0.000    0.000    0.000    0.000 
#    0.000    0.000    0.000    0.000    0.000    0.000 
#
# Total GULP energy -67180.821683 kJ/mol
# GULP energy per Si atom -5598.401807 kJ/mol
# Density = 2.601096 g / cm^3
# Si number density = 26.070300 Si / 1000 Ang^3
#
#
#
# Elastic Constant Matrix: (Units=GPa)
#
#
# Indices 1 2 3 4 5 6 
#
# 1 116.5217 39.8663 33.0348 4.1078 9.2433 -19.2024
# 2 39.8663 129.5018 37.1438 -6.6918 12.8725 -17.6808
# 3 33.0348 37.1438 170.0775 8.8759 -5.0616 -1.6377
# 4 4.1078 -6.6918 8.8759 57.4363 -7.4709 0.7902
# 5 9.2433 12.8725 -5.0616 -7.4709 32.4151 1.9623
# 6 -19.2024 -17.6808 -1.6377 0.7902 1.9623 35.4392
#
#
#
# Elastic Compliance Matrix: (Units=1/GPa)
#
#
# Indices 1 2 3 4 5 6 
#
# 1 0.010837 -0.001917 -0.001668 -0.001223 -0.003177 0.005042
# 2 -0.001917 0.009811 -0.001895 0.001045 -0.003643 0.003947
# 3 -0.001668 -0.001895 0.006710 -0.000832 0.002184 -0.001642
# 4 -0.001223 0.001045 -0.000832 0.018289 0.004068 -0.000813
# 5 -0.003177 -0.003643 0.002184 0.004068 0.034812 -0.005456
# 6 0.005042 0.003947 -0.001642 -0.000813 -0.005456 0.033163
#
#
# Mechanical properties :
#
#
# Convention : Reuss Voigt Hill
#
# Bulk Modulus (GPa) = 60.98679 70.68787 65.83733
# Shear Modulus (GPa) = 38.44773 45.46185 41.95479
#
# Velocity S-wave (km/s) = 3.84444 4.18043 4.01595
# Velocity P-wave (km/s) = 6.56889 7.10455 6.84196
#
# Compressibility (1/GPa) = 0.01639699
#
# Stress axis : x y z
#
# Youngs Moduli (GPa) = 92.27793 101.93143 149.02578
#
# Poissons Ratio (x) = 0.19536 0.24865
# Poissons Ratio (y) = 0.17686 0.28244
# Poissons Ratio (z) = 0.15396 0.19318
#
# Static dielectric constant tensor:
#      x y z
#    x 2.083320 0.028850 -0.057420 
#    y 0.028850 2.173200 0.103800 
#    z -0.057420 0.103800 2.080710 
# 
# From -- ./inp_files/424737.got.cif
#   From: 2010.05.17/outbox.cif.g08.bks.cpg/sg2_213_cif.got.tgz:424737.got - 2010.06.03 11:33:40.
