data_PCOD9069686
_publ_section_title
;
Structure prediction by ZEFSAII (Michael W. Deem and Ramdas Pophale) SiO2 
 PCOD9069686
Probable space group: P -1
;
_chemical_formula_sum "Si O2"
_cell_formula_units_Z 11
_cell_length_a 10.037576
_cell_length_b 8.648234
_cell_length_c 5.938613
_cell_angle_alpha 101.075202
_cell_angle_beta 64.191825
_cell_angle_gamma 107.969080
_cell_volume 440.452389
_symmetry_space_group_name_H-M "P -1"
_symmetry_group_IT_number 2
_symmetry_cell_setting 'triclinic'
loop_
_space_group_symop_operation_xyz
x,y,z
-x,-y,-z
loop_
_atom_site_type_symbol
_atom_site_label
_atom_site_fract_x
_atom_site_fract_y
_atom_site_fract_z
Si Si1 0.207484 0.204579 0.061407
Si Si2 0.932254 0.348094 0.349705
Si Si3 0.225685 0.922061 0.241303
Si Si4 0.679126 0.346170 0.196474
Si Si5 0.500000 0.500000 0.000000
Si Si6 0.585420 0.870926 0.488918
O O1 0.353952 0.333071 0.102485
O O2 0.072552 0.288601 0.128192
O O3 0.138072 0.040382 0.213356
O O4 0.275603 0.144732 0.770290
O O5 0.843730 0.201142 0.538549
O O6 0.827921 0.407539 0.258457
O O7 0.000000 0.500000 0.500000
O O8 0.361230 0.058647 0.289169
O O9 0.285573 0.813890 0.985278
O O10 0.615505 0.436677 0.071095
O O11 0.539836 0.300710 0.465289
O O12 0.500000 0.000000 0.500000
#
# Coordination Sequence:
#
# PCOD9069686 Si02
#       6
#     2   2   2   2   1   2
#     4  12  28  47  78 119 154 208 269 316 397 473
#     4  12  30  52  78 117 165 211 255 329 398 470
#     4  12  24  49  82 112 158 204 266 321 393 469
#     4  12  27  51  81 114 162 207 266 325 395 467
#     4  12  28  48  78 112 158 208 264 324 382 466
#     4  12  23  46  83 116 152 206 264 331 388 465
#
# _framework density 24.974322999999998
#
# number of rings (size 3 to 8) (size 9 to 14) (size 15 to 20)
#    0.000    0.000    5.455    3.273    2.545    9.455 
#    0.000    0.000    0.000    0.000    0.000    0.000 
#    0.000    0.000    0.000    0.000    0.000    0.000 
#
# Total GULP energy -61287.992839 kJ/mol
# GULP energy per Si atom -5571.635713 kJ/mol
# Density = 2.491748 g / cm^3
# Si number density = 24.974323 Si / 1000 Ang^3
#
#
#
# Elastic Constant Matrix: (Units=GPa)
#
#
# Indices 1 2 3 4 5 6 
#
# 1 179.0681 72.6077 47.8219 1.3169 32.7935 -18.1983
# 2 72.6077 130.7291 22.6328 -28.5651 13.2862 -24.5944
# 3 47.8219 22.6328 61.8445 -0.5299 -6.9463 -9.3656
# 4 1.3169 -28.5651 -0.5299 48.7565 -2.4785 4.6981
# 5 32.7935 13.2862 -6.9463 -2.4785 38.4834 -7.4457
# 6 -18.1983 -24.5944 -9.3656 4.6981 -7.4457 47.5505
#
#
#
# Elastic Compliance Matrix: (Units=1/GPa)
#
#
# Indices 1 2 3 4 5 6 
#
# 1 0.011680 -0.004980 -0.008542 -0.003747 -0.010214 -0.001017
# 2 -0.004980 0.012639 0.000038 0.007202 0.001146 0.004106
# 3 -0.008542 0.000038 0.024694 0.000819 0.012450 0.003483
# 4 -0.003747 0.007202 0.000819 0.024931 0.002535 0.000386
# 5 -0.010214 0.001146 0.012450 0.002535 0.037628 0.004777
# 6 -0.001017 0.004106 0.003483 0.000386 0.004777 0.024161
#
#
# Mechanical properties :
#
#
# Convention : Reuss Voigt Hill
#
# Bulk Modulus (GPa) = 45.36534 73.08516 59.22525
# Shear Modulus (GPa) = 29.40326 42.19670 35.79998
#
# Velocity S-wave (km/s) = 3.43496 4.11494 3.79023
# Velocity P-wave (km/s) = 5.82548 7.20448 6.55136
#
# Compressibility (1/GPa) = 0.02204326
#
# Stress axis : x y z
#
# Youngs Moduli (GPa) = 85.61820 79.12179 40.49598
#
# Poissons Ratio (x) = 0.39405 0.34593
# Poissons Ratio (y) = 0.42641 -0.00154
# Poissons Ratio (z) = 0.73137 -0.00301
#
# Static dielectric constant tensor:
#      x y z
#    x 2.014790 0.046020 0.032350 
#    y 0.046020 2.006690 -0.031610 
#    z 0.032350 -0.031610 2.007230 
# 
# From -- ./inp_files/17133.got.cif
#   From: 2010.05.17/outbox.cif.g08.bks.cpg/sg2_9_cif.got.tgz:17133.got - 2010.06.03 11:33:40.
