data_PCOD9069331
_publ_section_title
;
Structure prediction by ZEFSAII (Michael W. Deem and Ramdas Pophale) SiO2 
 PCOD9069331
Probable space group: P -1
;
_chemical_formula_sum "Si O2"
_cell_formula_units_Z 15
_cell_length_a 22.431395
_cell_length_b 12.923764
_cell_length_c 6.429914
_cell_angle_alpha 99.066908
_cell_angle_beta 102.698540
_cell_angle_gamma 19.887122
_cell_volume 611.755504
_symmetry_space_group_name_H-M "P -1"
_symmetry_group_IT_number 2
_symmetry_cell_setting 'triclinic'
loop_
_space_group_symop_operation_xyz
x,y,z
-x,-y,-z
loop_
_atom_site_type_symbol
_atom_site_label
_atom_site_fract_x
_atom_site_fract_y
_atom_site_fract_z
Si Si1 0.371570 0.495855 0.590994
Si Si2 0.503610 0.849298 0.059394
Si Si3 0.864506 0.955094 0.807364
Si Si4 0.208535 0.347760 0.644744
Si Si5 0.269379 0.031005 0.531359
Si Si6 0.810218 0.282193 0.838773
Si Si7 0.500000 0.000000 0.500000
Si Si8 0.698836 0.176729 0.155867
O O1 0.450141 0.322332 0.808121
O O2 0.537242 0.238917 0.480271
O O3 0.231530 0.641920 0.417233
O O4 0.294569 0.733652 0.658064
O O5 0.491918 0.962335 0.247518
O O6 0.671146 0.579466 0.945279
O O7 0.333157 0.119958 0.866890
O O8 0.044528 0.675154 0.722205
O O9 0.768590 0.007990 0.654139
O O10 0.776235 0.212449 0.821019
O O11 0.859621 0.933351 0.039334
O O12 0.147703 0.330558 0.514330
O O13 0.319683 0.223852 0.509360
O O14 0.280903 0.962286 0.745819
O O15 0.000000 0.000000 0.000000
O O16 0.500000 0.500000 0.000000
#
# Coordination Sequence:
#
# PCOD9069331 Si02
#       8
#     2   2   2   2   2   2   1   2
#     4  12  23  46  75 111 147 203 257 309 383 460
#     4  12  25  49  78 106 147 202 258 312 381 465
#     4  12  27  46  73 118 158 196 258 323 381 456
#     4  12  28  48  75 114 154 205 259 317 385 466
#     4  12  24  45  76 110 157 203 255 311 388 463
#     4  12  26  48  75 109 152 199 265 326 377 455
#     4  12  26  50  78 102 150 206 256 308 386 452
#     4  12  23  41  76 112 155 202 247 314 389 456
#
# _framework density 24.519600000000001
#
# number of rings (size 3 to 8) (size 9 to 14) (size 15 to 20)
#    0.000    0.000    6.667    3.600    0.000    3.200 
#    2.400    1.333    0.000    0.000    0.000    0.000 
#    0.000    0.000    0.000    0.000    0.000    0.000 
#
# Total GULP energy -83654.847610 kJ/mol
# GULP energy per Si atom -5576.989841 kJ/mol
# Density = 2.446379 g / cm^3
# Si number density = 24.519600 Si / 1000 Ang^3
#
#
#
# Elastic Constant Matrix: (Units=GPa)
#
#
# Indices 1 2 3 4 5 6 
#
# 1 83.3275 16.9098 21.5941 20.2406 3.2780 2.4891
# 2 16.9098 86.0548 34.3706 16.8186 4.0730 -0.4192
# 3 21.5941 34.3706 108.4668 18.3208 30.0006 3.7346
# 4 20.2406 16.8186 18.3208 44.7793 -1.2461 8.0639
# 5 3.2780 4.0730 30.0006 -1.2461 48.6033 -9.0830
# 6 2.4891 -0.4192 3.7346 8.0639 -9.0830 28.9432
#
#
#
# Elastic Compliance Matrix: (Units=1/GPa)
#
#
# Indices 1 2 3 4 5 6 
#
# 1 0.013900 -0.001065 -0.001568 -0.005329 0.000077 0.000500
# 2 -0.001065 0.014142 -0.004294 -0.003454 0.001899 0.002409
# 3 -0.001568 -0.004294 0.013998 -0.002987 -0.008945 -0.003708
# 4 -0.005329 -0.003454 -0.002987 0.028489 0.002006 -0.006514
# 5 0.000077 0.001899 -0.008945 0.002006 0.027724 0.009317
# 6 0.000500 0.002409 -0.003708 -0.006514 0.009317 0.039760
#
#
# Mechanical properties :
#
#
# Convention : Reuss Voigt Hill
#
# Bulk Modulus (GPa) = 35.47775 47.06646 41.27210
# Shear Modulus (GPa) = 31.00561 38.13013 34.56787
#
# Velocity S-wave (km/s) = 3.55987 3.94774 3.75881
# Velocity P-wave (km/s) = 5.60334 6.32587 5.97554
#
# Compressibility (1/GPa) = 0.02818668
#
# Stress axis : x y z
#
# Youngs Moduli (GPa) = 71.94332 70.71302 71.43709
#
# Poissons Ratio (x) = 0.07528 0.11202
# Poissons Ratio (y) = 0.07659 0.30674
# Poissons Ratio (z) = 0.11282 0.30363
#
# Static dielectric constant tensor:
#      x y z
#    x 1.976100 0.021120 0.031770 
#    y 0.021120 1.980820 -0.046620 
#    z 0.031770 -0.046620 1.910730 
# 
# From -- ./inp_files/67999.got.cif
#   From: 2010.05.17/outbox.cif.g08.bks.cpg/sg2_34_cif.got.tgz:67999.got - 2010.06.03 11:33:40.
