data_PCOD9069317
_publ_section_title
;
Structure prediction by ZEFSAII (Michael W. Deem and Ramdas Pophale) SiO2 
 PCOD9069317
Probable space group: P -1
;
_chemical_formula_sum "Si O2"
_cell_formula_units_Z 16
_cell_length_a 9.728868
_cell_length_b 24.095068
_cell_length_c 9.774384
_cell_angle_alpha 129.332433
_cell_angle_beta 149.001038
_cell_angle_gamma 41.468256
_cell_volume 781.203483
_symmetry_space_group_name_H-M "P -1"
_symmetry_group_IT_number 2
_symmetry_cell_setting 'triclinic'
loop_
_space_group_symop_operation_xyz
x,y,z
-x,-y,-z
loop_
_atom_site_type_symbol
_atom_site_label
_atom_site_fract_x
_atom_site_fract_y
_atom_site_fract_z
Si Si1 0.150806 0.590137 0.614860
Si Si2 0.197238 0.751802 0.296547
Si Si3 0.806813 0.041393 0.039913
Si Si4 0.910444 0.846426 0.469420
Si Si5 0.901593 0.130076 0.838298
Si Si6 0.170878 0.212378 0.399749
Si Si7 0.883076 0.503643 0.060251
Si Si8 0.069878 0.361092 0.207532
O O1 0.996812 0.689416 0.619365
O O2 0.975377 0.558414 0.318763
O O3 0.106554 0.578674 0.719862
O O4 0.512521 0.543023 0.810269
O O5 0.086245 0.836440 0.248280
O O6 0.570119 0.697373 0.535855
O O7 0.060283 0.778569 0.372172
O O8 0.075011 0.696600 0.035270
O O9 0.889362 0.109715 0.266326
O O10 0.442652 0.084015 0.763561
O O11 0.917573 0.968493 0.132730
O O12 0.000000 0.000000 0.000000
O O13 0.895783 0.804067 0.529980
O O14 0.539762 0.168748 0.625573
O O15 0.041795 0.169596 0.122062
O O16 0.037224 0.414039 0.127478
O O17 0.000000 0.500000 0.000000
#
# Coordination Sequence:
#
# PCOD9069317 Si02
#       8
#     2   2   2   2   2   2   2   2
#     4  12  24  46  71  97 133 179 219 259 324 397
#     4  12  26  45  66 101 133 172 219 276 329 378
#     4  12  23  42  67  96 132 174 222 273 325 393
#     4  12  26  41  67 100 132 173 218 276 337 377
#     4  12  23  43  68  95 132 171 225 270 319 391
#     4  12  23  41  70  98 126 175 226 268 315 392
#     4  12  28  44  69 105 135 168 215 273 329 381
#     4  12  25  47  70  94 136 177 216 266 323 400
#
# _framework density 20.481221000000001
#
# number of rings (size 3 to 8) (size 9 to 14) (size 15 to 20)
#    0.000    0.000    5.000    5.250    3.500    1.000 
#    0.000    0.000    0.000    0.000    0.000    0.000 
#    0.000    0.000    0.000    0.000    0.000    0.000 
#
# Total GULP energy -89624.705927 kJ/mol
# GULP energy per Si atom -5601.544120 kJ/mol
# Density = 2.043460 g / cm^3
# Si number density = 20.481221 Si / 1000 Ang^3
#
#
#
# Elastic Constant Matrix: (Units=GPa)
#
#
# Indices 1 2 3 4 5 6 
#
# 1 75.5818 9.3967 5.7748 -6.0265 -13.8180 16.3532
# 2 9.3967 46.4576 0.8432 -1.2406 -7.2980 24.5063
# 3 5.7748 0.8432 88.6348 1.5867 4.1331 7.3359
# 4 -6.0265 -1.2406 1.5867 51.0115 0.8989 -4.8229
# 5 -13.8180 -7.2980 4.1331 0.8989 28.4277 -3.9357
# 6 16.3532 24.5063 7.3359 -4.8229 -3.9357 45.0629
#
#
#
# Elastic Compliance Matrix: (Units=1/GPa)
#
#
# Indices 1 2 3 4 5 6 
#
# 1 0.015762 0.000741 -0.000964 0.001291 0.007231 -0.005196
# 2 0.000741 0.031209 0.000796 -0.000885 0.005938 -0.016947
# 3 -0.000964 0.000796 0.011639 -0.000629 -0.002247 -0.002241
# 4 0.001291 -0.000885 -0.000629 0.019965 0.000174 0.002267
# 5 0.007231 0.005938 -0.002247 0.000174 0.040267 -0.001952
# 6 -0.005196 -0.016947 -0.002241 0.002267 -0.001952 0.033730
#
#
# Mechanical properties :
#
#
# Convention : Reuss Voigt Hill
#
# Bulk Modulus (GPa) = 16.73474 26.96706 21.85090
# Shear Modulus (GPa) = 29.18083 37.87771 33.52927
#
# Velocity S-wave (km/s) = 3.77869 4.30512 4.05047
# Velocity P-wave (km/s) = 5.21791 6.15689 5.70675
#
# Compressibility (1/GPa) = 0.05975594
#
# Stress axis : x y z
#
# Youngs Moduli (GPa) = 63.44561 32.04162 85.91773
#
# Poissons Ratio (x) = -0.02374 0.08285
# Poissons Ratio (y) = -0.04700 -0.06842
# Poissons Ratio (z) = 0.06118 -0.02552
#
# Static dielectric constant tensor:
#      x y z
#    x 1.714670 0.014540 -0.008050 
#    y 0.014540 1.701890 -0.006690 
#    z -0.008050 -0.006690 1.686690 
# 
# From -- ./inp_files/111631.got.cif
#   From: 2010.05.17/outbox.cif.g08.bks.cpg/sg2_56_cif.got.tgz:111631.got - 2010.06.03 11:33:40.
