data_PCOD9069150
_publ_section_title
;
Structure prediction by ZEFSAII (Michael W. Deem and Ramdas Pophale) SiO2 
 PCOD9069150
Probable space group: P -1
;
_chemical_formula_sum "Si O2"
_cell_formula_units_Z 16
_cell_length_a 15.027582
_cell_length_b 11.354071
_cell_length_c 9.009789
_cell_angle_alpha 110.844725
_cell_angle_beta 46.651027
_cell_angle_gamma 139.990807
_cell_volume 669.546165
_symmetry_space_group_name_H-M "P -1"
_symmetry_group_IT_number 2
_symmetry_cell_setting 'triclinic'
loop_
_space_group_symop_operation_xyz
x,y,z
-x,-y,-z
loop_
_atom_site_type_symbol
_atom_site_label
_atom_site_fract_x
_atom_site_fract_y
_atom_site_fract_z
Si Si1 0.985983 0.744608 0.817062
Si Si2 0.447953 0.606487 0.845427
Si Si3 0.959487 0.699115 0.472012
Si Si4 0.675378 0.831729 0.412913
Si Si5 0.517618 0.402478 0.772766
Si Si6 0.898320 0.416911 0.235113
Si Si7 0.446955 0.887954 0.660495
Si Si8 0.350446 0.061180 0.029594
O O1 0.975778 0.716366 0.638393
O O2 0.092903 0.716827 0.770224
O O3 0.767873 0.567939 0.045770
O O4 0.106549 0.968693 0.791600
O O5 0.613168 0.715651 0.583387
O O6 0.460347 0.503819 0.903651
O O7 0.495576 0.776040 0.948734
O O8 0.746268 0.573446 0.612900
O O9 0.974099 0.566372 0.342110
O O10 0.138787 0.906045 0.274369
O O11 0.561133 0.681243 0.341765
O O12 0.597486 0.912897 0.567179
O O13 0.400643 0.202838 0.908183
O O14 0.704867 0.319870 0.344048
O O15 0.000000 0.500000 0.000000
O O16 0.500000 0.000000 0.500000
O O17 0.379316 0.943642 0.875911
#
# Coordination Sequence:
#
# PCOD9069150 Si02
#       8
#     2   2   2   2   2   2   2   2
#     4  12  27  45  71 108 151 184 238 304 356 428
#     4  12  29  48  70 108 147 194 245 294 359 428
#     4  12  26  45  74 108 143 193 236 296 366 427
#     4  12  26  48  75 108 143 190 241 301 367 426
#     4  12  27  50  75 101 150 193 245 298 350 438
#     4  12  23  43  71 107 142 185 237 293 362 432
#     4  12  22  43  74 105 146 179 235 299 365 427
#     4  12  25  45  74 108 142 193 237 295 363 422
#
# _framework density 23.896782999999999
#
# number of rings (size 3 to 8) (size 9 to 14) (size 15 to 20)
#    0.000    0.000    7.500    1.875    0.000    3.500 
#    0.000    0.000    0.000    0.000    0.000    0.000 
#    0.000    0.000    0.000    0.000    0.000    0.000 
#
# Total GULP energy -89223.520814 kJ/mol
# GULP energy per Si atom -5576.470051 kJ/mol
# Density = 2.384239 g / cm^3
# Si number density = 23.896783 Si / 1000 Ang^3
#
#
#
# Elastic Constant Matrix: (Units=GPa)
#
#
# Indices 1 2 3 4 5 6 
#
# 1 69.8772 33.3896 21.4377 -1.6885 8.2516 -1.4571
# 2 33.3896 116.2084 41.3303 -13.2363 -7.9756 9.1067
# 3 21.4377 41.3303 74.8069 -6.1282 5.4933 0.5156
# 4 -1.6885 -13.2363 -6.1282 43.7439 2.2106 0.0832
# 5 8.2516 -7.9756 5.4933 2.2106 37.0515 -1.9062
# 6 -1.4571 9.1067 0.5156 0.0832 -1.9062 36.6691
#
#
#
# Elastic Compliance Matrix: (Units=1/GPa)
#
#
# Indices 1 2 3 4 5 6 
#
# 1 0.017878 -0.004921 -0.002152 -0.000872 -0.004581 0.001727
# 2 -0.004921 0.012944 -0.005825 0.002693 0.004425 -0.003104
# 3 -0.002152 -0.005825 0.017507 0.000776 -0.003368 0.000938
# 4 -0.000872 0.002693 0.000776 0.023792 -0.000802 -0.000810
# 5 -0.004581 0.004425 -0.003368 -0.000802 0.029525 0.000303
# 6 0.001727 -0.003104 0.000938 -0.000810 0.000303 0.028115
#
#
# Mechanical properties :
#
#
# Convention : Reuss Voigt Hill
#
# Bulk Modulus (GPa) = 44.37436 50.35641 47.36539
# Shear Modulus (GPa) = 30.66230 34.47524 32.56877
#
# Velocity S-wave (km/s) = 3.58594 3.80237 3.69574
# Velocity P-wave (km/s) = 5.97953 6.35575 6.17051
#
# Compressibility (1/GPa) = 0.02253554
#
# Stress axis : x y z
#
# Youngs Moduli (GPa) = 55.93460 77.25411 57.12070
#
# Poissons Ratio (x) = 0.38013 0.12291
# Poissons Ratio (y) = 0.27523 0.33270
# Poissons Ratio (z) = 0.12036 0.44997
#
# Static dielectric constant tensor:
#      x y z
#    x 1.866400 -0.003930 -0.002400 
#    y -0.003930 1.962730 -0.003480 
#    z -0.002400 -0.003480 1.883490 
# 
# From -- ./inp_files/307925.got.cif
#   From: 2010.05.17/outbox.cif.g08.bks.cpg/sg2_154_cif.got.tgz:307925.got - 2010.06.03 11:33:40.
