data_PCOD9069932
_publ_section_title
;
Structure prediction by ZEFSAII (Michael W. Deem and Ramdas Pophale) SiO2 
 PCOD9069932
Probable space group: P -1
;
_chemical_formula_sum "Si O2"
_cell_formula_units_Z 16
_cell_length_a 5.468252
_cell_length_b 11.244484
_cell_length_c 11.351158
_cell_angle_alpha 109.503097
_cell_angle_beta 75.107080
_cell_angle_gamma 94.005507
_cell_volume 635.711833
_symmetry_space_group_name_H-M "P -1"
_symmetry_group_IT_number 2
_symmetry_cell_setting 'triclinic'
loop_
_space_group_symop_operation_xyz
x,y,z
-x,-y,-z
loop_
_atom_site_type_symbol
_atom_site_label
_atom_site_fract_x
_atom_site_fract_y
_atom_site_fract_z
Si Si1 0.650408 0.033354 0.110198
Si Si2 0.855577 0.252636 0.017049
Si Si3 0.452449 0.285198 0.601622
Si Si4 0.212114 0.163130 0.784976
Si Si5 0.768919 0.518638 0.627533
Si Si6 0.347373 0.415122 0.084921
Si Si7 0.155950 0.933510 0.562054
Si Si8 0.273897 0.203501 0.352713
O O1 0.494154 0.113324 0.251965
O O2 0.703560 0.901385 0.125351
O O3 0.848862 0.136421 0.072344
O O4 0.500000 0.000000 0.000000
O O5 0.919348 0.195036 0.860182
O O6 0.100559 0.341075 0.040818
O O7 0.583162 0.324503 0.071648
O O8 0.329070 0.282542 0.744609
O O9 0.554078 0.419173 0.591621
O O10 0.683470 0.184974 0.541339
O O11 0.276875 0.235877 0.501754
O O12 0.279646 0.052134 0.647723
O O13 0.780938 0.505517 0.764076
O O14 0.705320 0.664939 0.669615
O O15 0.000000 0.500000 0.500000
O O16 0.500000 0.500000 0.000000
O O17 0.977743 0.873071 0.663254
O O18 0.000000 0.000000 0.500000
#
# Coordination Sequence:
#
# PCOD9069932 Si02
#       8
#     2   2   2   2   2   2   2   2
#     4  12  26  48  79 117 159 208 267 329 403 486
#     4  12  28  50  80 115 158 210 269 327 405 482
#     4  12  26  49  71 113 149 205 257 323 397 471
#     4  12  26  46  79 112 157 202 259 327 405 486
#     4  12  28  48  80 112 152 208 269 330 393 478
#     4  12  29  54  81 116 161 214 271 338 401 483
#     4  12  24  43  72 113 153 195 248 324 400 473
#     4  12  25  47  77 108 155 199 260 322 400 471
#
# _framework density 25.168634999999998
#
# number of rings (size 3 to 8) (size 9 to 14) (size 15 to 20)
#    0.000    0.000    5.000    4.500    3.500    4.000 
#    0.000    0.000    0.000    0.000    0.000    0.000 
#    0.000    0.000    0.000    0.000    0.000    0.000 
#
# Total GULP energy -89357.577275 kJ/mol
# GULP energy per Si atom -5584.848580 kJ/mol
# Density = 2.511135 g / cm^3
# Si number density = 25.168635 Si / 1000 Ang^3
#
#
#
# Elastic Constant Matrix: (Units=GPa)
#
#
# Indices 1 2 3 4 5 6 
#
# 1 50.6461 41.9632 -1.6621 -32.4396 -13.0221 21.8308
# 2 41.9632 138.6610 35.2971 -33.6658 -6.7016 33.7846
# 3 -1.6621 35.2971 105.5263 -40.0090 -27.9641 11.4353
# 4 -32.4396 -33.6658 -40.0090 45.3519 1.9450 -0.9170
# 5 -13.0221 -6.7016 -27.9641 1.9450 47.5837 -4.5405
# 6 21.8308 33.7846 11.4353 -0.9170 -4.5405 43.1623
#
#
#
# Elastic Compliance Matrix: (Units=1/GPa)
#
#
# Indices 1 2 3 4 5 6 
#
# 1 -0.065866 -0.001018 -0.049344 -0.088870 -0.039610 0.041129
# 2 -0.001018 0.011352 -0.000024 0.007502 0.000218 -0.008181
# 3 -0.049344 -0.000024 -0.018460 -0.050211 -0.019754 0.026722
# 4 -0.088870 0.007502 -0.050211 -0.077375 -0.045222 0.045978
# 5 -0.039610 0.000218 -0.019754 -0.045222 0.002777 0.024428
# 6 0.041129 -0.008181 0.026722 0.045978 0.024428 0.005237
#
#
# Mechanical properties :
#
#
# Convention : Reuss Voigt Hill
#
# Bulk Modulus (GPa) = -5.75544 49.55886 21.90171
# Shear Modulus (GPa) = -50.26164 41.83526 -4.21319
#
# Velocity S-wave (km/s) = -4.47362 4.08143 -1.29523
# Velocity P-wave (km/s) = 5.38295 6.47644 2.54638
#
# Compressibility (1/GPa) = -0.17374854
#
# Stress axis : x y z
#
# Youngs Moduli (GPa) = -15.18225 88.09358 -54.17083
#
# Poissons Ratio (x) = 0.08971 -2.67302
# Poissons Ratio (y) = -0.01546 -0.00131
# Poissons Ratio (z) = -0.74916 0.00213
#
# Static dielectric constant tensor:
#      x y z
#    x 3.189470 0.511070 -3.445420 
#    y 0.511070 2.174580 -1.478580 
#    z -3.445420 -1.478580 12.756500 
# 
# From -- ./inp_files/364970.got.cif
#   From: 2010.05.17/outbox.cif.g08.bks.cpg/sg2_183_cif.got.tgz:364970.got - 2010.06.03 11:33:40.
