data_PCOD9069013
_publ_section_title
;
Structure prediction by ZEFSAII (Michael W. Deem and Ramdas Pophale) SiO2 
 PCOD9069013
Probable space group: P -1
;
_chemical_formula_sum "Si O2"
_cell_formula_units_Z 16
_cell_length_a 11.412435
_cell_length_b 15.202358
_cell_length_c 8.020131
_cell_angle_alpha 136.624426
_cell_angle_beta 48.243376
_cell_angle_gamma 132.917792
_cell_volume 658.138012
_symmetry_space_group_name_H-M "P -1"
_symmetry_group_IT_number 2
_symmetry_cell_setting 'triclinic'
loop_
_space_group_symop_operation_xyz
x,y,z
-x,-y,-z
loop_
_atom_site_type_symbol
_atom_site_label
_atom_site_fract_x
_atom_site_fract_y
_atom_site_fract_z
Si Si1 0.068441 0.813030 0.516049
Si Si2 0.594397 0.919340 0.401197
Si Si3 0.295150 0.313342 0.156303
Si Si4 0.179508 0.577687 0.034217
Si Si5 0.375523 0.972863 0.929981
Si Si6 0.697058 0.615005 0.113029
Si Si7 0.011570 0.854498 0.251685
Si Si8 0.534727 0.699153 0.697696
O O1 0.157501 0.706644 0.323975
O O2 0.008159 0.789544 0.347938
O O3 0.214623 0.966980 0.594492
O O4 0.903407 0.773824 0.734511
O O5 0.612818 0.787434 0.126662
O O6 0.500000 0.000000 0.500000
O O7 0.459008 0.882273 0.624458
O O8 0.333380 0.415009 0.098953
O O9 0.378054 0.364095 0.329735
O O10 0.237772 0.489551 0.991984
O O11 0.334281 0.641886 0.845559
O O12 0.000000 0.500000 0.000000
O O13 0.389598 0.132506 0.103518
O O14 0.500000 0.000000 0.000000
O O15 0.184425 0.882811 0.031380
O O16 0.578857 0.656941 0.415153
O O17 0.857744 0.760924 0.157257
O O18 0.000000 0.000000 0.500000
#
# Coordination Sequence:
#
# PCOD9069013 Si02
#       8
#     2   2   2   2   2   2   2   2
#     4  12  24  45  69  99 151 189 231 306 352 421
#     4  12  24  41  65 106 142 188 237 286 366 430
#     4  12  26  46  71 107 147 189 239 294 370 425
#     4  12  25  49  76 105 141 194 249 292 359 425
#     4  12  22  39  69 100 141 183 227 290 356 420
#     4  12  27  45  75 108 139 199 243 287 357 434
#     4  12  22  41  68 104 140 177 233 288 356 419
#     4  12  24  50  72 103 150 185 239 304 354 426
#
# _framework density 24.311011000000001
#
# number of rings (size 3 to 8) (size 9 to 14) (size 15 to 20)
#    0.000    0.000    7.500    2.250    1.750    1.000 
#    0.000    0.000    0.000    0.000    0.000    0.000 
#    0.000    0.000    0.000    0.000    0.000    0.000 
#
# Total GULP energy -89359.960981 kJ/mol
# GULP energy per Si atom -5584.997561 kJ/mol
# Density = 2.425568 g / cm^3
# Si number density = 24.311011 Si / 1000 Ang^3
#
#
#
# Elastic Constant Matrix: (Units=GPa)
#
#
# Indices 1 2 3 4 5 6 
#
# 1 81.1307 19.0100 31.1688 -21.2102 4.9182 -18.3620
# 2 19.0100 94.2498 55.1659 -27.2705 -8.6897 -6.0752
# 3 31.1688 55.1659 171.5323 -38.0725 -17.9792 -2.9807
# 4 -21.2102 -27.2705 -38.0725 64.6725 3.9566 -19.8861
# 5 4.9182 -8.6897 -17.9792 3.9566 37.0205 -1.5728
# 6 -18.3620 -6.0752 -2.9807 -19.8861 -1.5728 49.1182
#
#
#
# Elastic Compliance Matrix: (Units=1/GPa)
#
#
# Indices 1 2 3 4 5 6 
#
# 1 0.017359 0.000006 -0.001614 0.007872 -0.003528 0.009466
# 2 0.000006 0.014398 -0.003262 0.005218 0.001396 0.003743
# 3 -0.001614 -0.003262 0.008170 0.002955 0.003134 0.000785
# 4 0.007872 0.005218 0.002955 0.026468 -0.000600 0.014464
# 5 -0.003528 0.001396 0.003134 -0.000600 0.029384 -0.000258
# 6 0.009466 0.003743 0.000785 0.014464 -0.000258 0.030256
#
#
# Mechanical properties :
#
#
# Convention : Reuss Voigt Hill
#
# Bulk Modulus (GPa) = 33.12716 61.95582 47.54149
# Shear Modulus (GPa) = 34.28472 46.26679 40.27575
#
# Velocity S-wave (km/s) = 3.75941 4.36721 4.07466
# Velocity P-wave (km/s) = 5.70089 7.13933 6.46027
#
# Compressibility (1/GPa) = 0.03018671
#
# Stress axis : x y z
#
# Youngs Moduli (GPa) = 57.60773 69.45422 122.39624
#
# Poissons Ratio (x) = -0.00043 0.19758
# Poissons Ratio (y) = -0.00036 0.39926
# Poissons Ratio (z) = 0.09300 0.22656
#
# Static dielectric constant tensor:
#      x y z
#    x 1.619240 -0.208600 -0.124160 
#    y -0.208600 1.959750 -0.039760 
#    z -0.124160 -0.039760 1.780590 
# 
# From -- ./inp_files/274246.got.cif
#   From: 2010.05.17/outbox.cif.g08.bks.cpg/sg2_138_cif.got.tgz:274246.got - 2010.06.03 11:33:40.
