data_PCOD9069292
_publ_section_title
;
Structure prediction by ZEFSAII (Michael W. Deem and Ramdas Pophale) SiO2 
 PCOD9069292
Probable space group: P -1
;
_chemical_formula_sum "Si O2"
_cell_formula_units_Z 13
_cell_length_a 11.898962
_cell_length_b 9.197079
_cell_length_c 9.197069
_cell_angle_alpha 133.808329
_cell_angle_beta 123.281973
_cell_angle_gamma 50.875082
_cell_volume 552.096348
_symmetry_space_group_name_H-M "P -1"
_symmetry_group_IT_number 2
_symmetry_cell_setting 'triclinic'
loop_
_space_group_symop_operation_xyz
x,y,z
-x,-y,-z
loop_
_atom_site_type_symbol
_atom_site_label
_atom_site_fract_x
_atom_site_fract_y
_atom_site_fract_z
Si Si1 0.248984 0.311161 0.672169
Si Si2 0.500000 0.500000 0.500000
Si Si3 0.617949 0.985554 0.194529
Si Si4 0.052911 0.783151 0.983210
Si Si5 0.721712 0.495152 0.467967
Si Si6 0.848732 0.657661 0.921853
Si Si7 0.024126 0.082529 0.416803
O O1 0.177526 0.561587 0.856044
O O2 0.280571 0.337278 0.544287
O O3 0.127754 0.211230 0.548579
O O4 0.382643 0.156368 0.762220
O O5 0.593867 0.227868 0.393334
O O6 0.566699 0.482101 0.366907
O O7 0.500000 0.000000 0.000000
O O8 0.765886 0.841118 0.109078
O O9 0.908538 0.740459 0.883323
O O10 0.092629 0.860788 0.217165
O O11 0.000000 0.000000 0.000000
O O12 0.743390 0.558996 0.698535
O O13 0.861590 0.263246 0.379361
O O14 0.000000 0.500000 0.000000
O O15 0.000000 0.000000 0.500000
#
# Coordination Sequence:
#
# PCOD9069292 Si02
#       7
#     2   1   2   2   2   2   2
#     4  12  26  46  73 113 152 193 252 323 378 437
#     4  12  28  50  74 100 152 206 262 288 376 466
#     4  12  27  50  74 103 148 200 250 307 378 452
#     4  12  23  40  71 111 152 186 235 309 384 437
#     4  12  24  46  73 105 153 197 250 308 370 446
#     4  12  23  46  77 108 146 193 244 314 377 442
#     4  12  24  41  74 115 148 192 246 310 382 447
#
# _framework density 23.546614999999999
#
# number of rings (size 3 to 8) (size 9 to 14) (size 15 to 20)
#    0.000    0.000    6.154    5.077    0.000    1.846 
#    0.000    0.769    0.000    0.000    0.000    0.000 
#    0.000    0.000    0.000    0.000    0.000    0.000 
#
# Total GULP energy -72397.208026 kJ/mol
# GULP energy per Si atom -5569.016002 kJ/mol
# Density = 2.349302 g / cm^3
# Si number density = 23.546615 Si / 1000 Ang^3
#
#
#
# Elastic Constant Matrix: (Units=GPa)
#
#
# Indices 1 2 3 4 5 6 
#
# 1 75.0086 41.3738 -4.6838 -17.0610 -26.8848 20.8713
# 2 41.3738 159.6543 38.9517 -0.5903 -19.0896 26.1740
# 3 -4.6838 38.9517 90.2287 4.9322 -20.8835 3.8740
# 4 -17.0610 -0.5903 4.9322 41.9899 3.9247 -14.1618
# 5 -26.8848 -19.0896 -20.8835 3.9247 23.3422 -1.3174
# 6 20.8713 26.1740 3.8740 -14.1618 -1.3174 54.6224
#
#
#
# Elastic Compliance Matrix: (Units=1/GPa)
#
#
# Indices 1 2 3 4 5 6 
#
# 1 0.046874 -0.007372 0.020833 0.006151 0.064846 -0.012697
# 2 -0.007372 0.009133 -0.005402 -0.002361 -0.005567 -0.001923
# 3 0.020833 -0.005402 0.024276 -0.000389 0.041012 -0.006205
# 4 0.006151 -0.002361 -0.000389 0.028373 0.000384 0.006174
# 5 0.064846 -0.005567 0.041012 0.000384 0.148399 -0.021340
# 6 -0.012697 -0.001923 -0.006205 0.006174 -0.021340 0.025606
#
#
# Mechanical properties :
#
#
# Convention : Reuss Voigt Hill
#
# Bulk Modulus (GPa) = 10.37334 52.90832 31.64083
# Shear Modulus (GPa) = 16.74051 40.60755 28.67403
#
# Velocity S-wave (km/s) = 2.66926 4.15729 3.49342
# Velocity P-wave (km/s) = 3.73027 6.75000 5.45332
#
# Compressibility (1/GPa) = 0.09640094
#
# Stress axis : x y z
#
# Youngs Moduli (GPa) = 21.33401 109.49503 41.19229
#
# Poissons Ratio (x) = 0.80721 -0.85818
# Poissons Ratio (y) = 0.15728 0.22253
# Poissons Ratio (z) = -0.44446 0.59151
#
# Static dielectric constant tensor:
#      x y z
#    x 1.693960 0.095520 -0.177050 
#    y 0.095520 1.898090 0.019780 
#    z -0.177050 0.019780 1.792730 
# 
# From -- ./inp_files/181002.got.cif
#   From: 2010.05.17/outbox.cif.g08.bks.cpg/sg2_91_cif.got.tgz:181002.got - 2010.06.03 11:33:40.
