data_PCOD9069902
_publ_section_title
;
Structure prediction by ZEFSAII (Michael W. Deem and Ramdas Pophale) SiO2 
 PCOD9069902
Probable space group: P -1
;
_chemical_formula_sum "Si O2"
_cell_formula_units_Z 12
_cell_length_a 7.960578
_cell_length_b 19.320200
_cell_length_c 8.524585
_cell_angle_alpha 45.130495
_cell_angle_beta 145.624491
_cell_angle_gamma 134.050148
_cell_volume 503.275247
_symmetry_space_group_name_H-M "P -1"
_symmetry_group_IT_number 2
_symmetry_cell_setting 'triclinic'
loop_
_space_group_symop_operation_xyz
x,y,z
-x,-y,-z
loop_
_atom_site_type_symbol
_atom_site_label
_atom_site_fract_x
_atom_site_fract_y
_atom_site_fract_z
Si Si1 0.954891 0.262768 0.365647
Si Si2 0.791630 0.573333 0.197444
Si Si3 0.686809 0.906289 0.417125
Si Si4 0.494353 0.392857 0.747753
Si Si5 0.255514 0.939935 0.285024
Si Si6 0.124694 0.786174 0.971726
O O1 0.840355 0.177669 0.547182
O O2 0.309447 0.312597 0.605013
O O3 0.793481 0.354883 0.083559
O O4 0.893817 0.206292 0.242420
O O5 0.687860 0.610267 0.223908
O O6 0.000000 0.500000 0.500000
O O7 0.003038 0.668578 0.112364
O O8 0.500000 0.500000 0.000000
O O9 0.433378 0.945716 0.250593
O O10 0.465633 0.844986 0.204947
O O11 0.000000 0.000000 0.500000
O O12 0.841075 0.828178 0.748833
O O13 0.500000 0.500000 0.500000
O O14 0.500000 0.000000 0.500000
O O15 0.000000 0.000000 0.000000
#
# Coordination Sequence:
#
# PCOD9069902 Si02
#       6
#     2   2   2   2   2   2
#     4  12  25  44  69 100 137 182 231 289 352 419
#     4  12  24  43  69 101 139 184 232 290 354 424
#     4  12  26  46  71 102 140 186 237 295 358 426
#     4  12  24  43  68 101 138 181 230 286 348 422
#     4  12  26  47  71 101 138 184 235 293 356 423
#     4  12  25  45  69 103 141 185 236 295 356 426
#
# _framework density 23.843812
#
# number of rings (size 3 to 8) (size 9 to 14) (size 15 to 20)
#    0.000    0.000    0.000   11.000    0.000    2.667 
#    0.000    0.000    0.000    0.000    0.000    0.000 
#    0.000    0.000    0.000    0.000    0.000    0.000 
#
# Total GULP energy -67093.251083 kJ/mol
# GULP energy per Si atom -5591.104257 kJ/mol
# Density = 2.378954 g / cm^3
# Si number density = 23.843812 Si / 1000 Ang^3
#
#
#
# Elastic Constant Matrix: (Units=GPa)
#
#
# Indices 1 2 3 4 5 6 
#
# 1 102.9266 24.7547 28.4321 11.6216 9.3622 -2.3263
# 2 24.7547 159.1949 60.8642 16.7126 -14.5209 13.7079
# 3 28.4321 60.8642 173.9095 13.0988 30.2979 8.4793
# 4 11.6216 16.7126 13.0988 68.5697 -10.9768 -9.0702
# 5 9.3622 -14.5209 30.2979 -10.9768 41.7548 -6.1661
# 6 -2.3263 13.7079 8.4793 -9.0702 -6.1661 39.5687
#
#
#
# Elastic Compliance Matrix: (Units=1/GPa)
#
#
# Indices 1 2 3 4 5 6 
#
# 1 0.010725 -0.001564 -0.000591 -0.001730 -0.002908 0.000449
# 2 -0.001564 0.008604 -0.003631 -0.000436 0.005639 -0.001516
# 3 -0.000591 -0.003631 0.008934 -0.002448 -0.008640 -0.002599
# 4 -0.001730 -0.000436 -0.002448 0.017397 0.007431 0.005720
# 5 -0.002908 0.005639 -0.008640 0.007431 0.035821 0.007012
# 6 0.000449 -0.001516 -0.002599 0.005720 0.007012 0.028785
#
#
# Mechanical properties :
#
#
# Convention : Reuss Voigt Hill
#
# Bulk Modulus (GPa) = 59.91475 73.79254 66.85364
# Shear Modulus (GPa) = 39.24593 51.44398 45.34496
#
# Velocity S-wave (km/s) = 4.06144 4.64997 4.36564
# Velocity P-wave (km/s) = 6.86850 7.73596 7.31510
#
# Compressibility (1/GPa) = 0.01669038
#
# Stress axis : x y z
#
# Youngs Moduli (GPa) = 93.23917 116.22854 111.93260
#
# Poissons Ratio (x) = 0.18180 0.06615
# Poissons Ratio (y) = 0.14584 0.40644
# Poissons Ratio (z) = 0.05510 0.42203
#
# Static dielectric constant tensor:
#      x y z
#    x 1.422010 -0.400360 0.623300 
#    y -0.400360 1.636460 0.379330 
#    z 0.623300 0.379330 1.085690 
# 
# From -- ./inp_files/131075.got.cif
#   From: 2010.05.17/outbox.cif.g08.bks.cpg/sg2_66_cif.got.tgz:131075.got - 2010.06.03 11:33:40.
