data_PCOD9069166
_publ_section_title
;
Structure prediction by ZEFSAII (Michael W. Deem and Ramdas Pophale) SiO2 
 PCOD9069166
Probable space group: P -1
;
_chemical_formula_sum "Si O2"
_cell_formula_units_Z 16
_cell_length_a 15.767391
_cell_length_b 8.420715
_cell_length_c 10.778415
_cell_angle_alpha 98.926062
_cell_angle_beta 132.443452
_cell_angle_gamma 47.500474
_cell_volume 648.825766
_symmetry_space_group_name_H-M "P -1"
_symmetry_group_IT_number 2
_symmetry_cell_setting 'triclinic'
loop_
_space_group_symop_operation_xyz
x,y,z
-x,-y,-z
loop_
_atom_site_type_symbol
_atom_site_label
_atom_site_fract_x
_atom_site_fract_y
_atom_site_fract_z
Si Si1 0.825580 0.536953 0.235062
Si Si2 0.028829 0.158399 0.038735
Si Si3 0.337346 0.947624 0.913510
Si Si4 0.941106 0.222778 0.544208
Si Si5 0.798720 0.830658 0.571769
Si Si6 0.541247 0.640848 0.836873
Si Si7 0.394750 0.793260 0.218592
Si Si8 0.741475 0.554773 0.617648
O O1 0.827417 0.452251 0.360409
O O2 0.036080 0.355129 0.389052
O O3 0.696530 0.833695 0.136336
O O4 0.736494 0.512094 0.043513
O O5 0.118392 0.129539 0.247249
O O6 0.182178 0.038945 0.074180
O O7 0.840303 0.438934 0.833569
O O8 0.000000 0.000000 0.000000
O O9 0.447389 0.731606 0.891154
O O10 0.429859 0.833289 0.124518
O O11 0.134955 0.094888 0.747628
O O12 0.832467 0.329057 0.579969
O O13 0.000000 0.000000 0.500000
O O14 0.775492 0.688879 0.603654
O O15 0.605351 0.096428 0.354777
O O16 0.564384 0.440816 0.777112
O O17 0.528954 0.736921 0.438857
#
# Coordination Sequence:
#
# PCOD9069166 Si02
#       8
#     2   2   2   2   2   2   2   2
#     4  12  24  43  70 103 145 180 225 281 346 410
#     4  12  28  48  73  98 136 183 239 288 341 401
#     4  12  22  44  68 102 143 180 224 280 346 416
#     4  12  23  40  72 102 141 181 220 277 349 413
#     4  12  26  46  71 102 138 187 233 282 341 404
#     4  12  25  41  70 104 142 179 227 279 345 413
#     4  12  26  46  70 102 139 179 231 287 343 407
#     4  12  26  47  72 101 138 180 232 287 345 410
#
# _framework density 24.659934
#
# number of rings (size 3 to 8) (size 9 to 14) (size 15 to 20)
#    0.000    0.000    3.750    6.750    1.750    3.500 
#    0.000    0.000    0.000    0.000    0.000    0.000 
#    0.000    0.000    0.000    0.000    0.000    0.000 
#
# Total GULP energy -89748.467007 kJ/mol
# GULP energy per Si atom -5609.279188 kJ/mol
# Density = 2.460381 g / cm^3
# Si number density = 24.659934 Si / 1000 Ang^3
#
#
#
# Elastic Constant Matrix: (Units=GPa)
#
#
# Indices 1 2 3 4 5 6 
#
# 1 52.9606 -5.8561 25.5660 1.0447 5.8388 2.3440
# 2 -5.8561 43.7908 0.6372 11.2315 1.7862 11.1965
# 3 25.5660 0.6372 130.7501 -5.0934 18.1358 10.9081
# 4 1.0447 11.2315 -5.0934 35.1177 4.2603 -4.0544
# 5 5.8388 1.7862 18.1358 4.2603 43.4955 5.7554
# 6 2.3440 11.1965 10.9081 -4.0544 5.7554 27.0819
#
#
#
# Elastic Compliance Matrix: (Units=1/GPa)
#
#
# Indices 1 2 3 4 5 6 
#
# 1 0.021545 0.004247 -0.004041 -0.002744 -0.000818 -0.002230
# 2 0.004247 0.030110 -0.000407 -0.011690 0.001455 -0.014711
# 3 -0.004041 -0.000407 0.009125 0.001693 -0.003115 -0.002242
# 4 -0.002744 -0.011690 0.001693 0.034314 -0.004609 0.010505
# 5 -0.000818 0.001455 -0.003115 -0.004609 0.025504 -0.005386
# 6 -0.002230 -0.014711 -0.002242 0.010505 -0.005386 0.046821
#
#
# Mechanical properties :
#
#
# Convention : Reuss Voigt Hill
#
# Bulk Modulus (GPa) = 16.56192 29.79952 23.18072
# Shear Modulus (GPa) = 26.60329 34.94932 30.77630
#
# Velocity S-wave (km/s) = 3.28808 3.76872 3.53658
# Velocity P-wave (km/s) = 4.59848 5.57208 5.10853
#
# Compressibility (1/GPa) = 0.06037946
#
# Stress axis : x y z
#
# Youngs Moduli (GPa) = 46.41383 33.21131 109.58502
#
# Poissons Ratio (x) = -0.14106 0.44282
# Poissons Ratio (y) = -0.19713 0.04461
# Poissons Ratio (z) = 0.18755 0.01352
#
# Static dielectric constant tensor:
#      x y z
#    x 1.942620 -0.049450 -0.004010 
#    y -0.049450 2.001600 0.024060 
#    z -0.004010 0.024060 1.918190 
# 
# From -- ./inp_files/306274.got.cif
#   From: 2010.05.17/outbox.cif.g08.bks.cpg/sg2_154_cif.got.tgz:306274.got - 2010.06.03 11:33:40.
