data_PCOD9069124
_publ_section_title
;
Structure prediction by ZEFSAII (Michael W. Deem and Ramdas Pophale) SiO2 
 PCOD9069124
Probable space group: P -1
;
_chemical_formula_sum "Si O2"
_cell_formula_units_Z 12
_cell_length_a 7.192540
_cell_length_b 9.329683
_cell_length_c 9.415914
_cell_angle_alpha 102.221606
_cell_angle_beta 69.882259
_cell_angle_gamma 117.637506
_cell_volume 524.567609
_symmetry_space_group_name_H-M "P -1"
_symmetry_group_IT_number 2
_symmetry_cell_setting 'triclinic'
loop_
_space_group_symop_operation_xyz
x,y,z
-x,-y,-z
loop_
_atom_site_type_symbol
_atom_site_label
_atom_site_fract_x
_atom_site_fract_y
_atom_site_fract_z
Si Si1 0.068069 0.104148 0.643636
Si Si2 0.066556 0.624888 0.875063
Si Si3 0.256242 0.973949 0.032309
Si Si4 0.795325 0.472360 0.647154
Si Si5 0.604246 0.783909 0.196251
Si Si6 0.651371 0.542949 0.303947
O O1 0.271274 0.101496 0.679710
O O2 0.163637 0.298462 0.635242
O O3 0.000000 0.000000 0.500000
O O4 0.870022 0.039129 0.792373
O O5 0.136067 0.804566 0.947944
O O6 0.276142 0.600394 0.751381
O O7 0.892805 0.580701 0.783740
O O8 0.000000 0.500000 0.000000
O O9 0.291641 0.122739 0.952361
O O10 0.500000 0.000000 0.000000
O O11 0.653490 0.293498 0.717253
O O12 0.603999 0.496768 0.611715
O O13 0.000000 0.500000 0.500000
O O14 0.659927 0.628015 0.164200
#
# Coordination Sequence:
#
# PCOD9069124 Si02
#       6
#     2   2   2   2   2   2
#     4   9  20  42  68  97 137 180 228 282 342 407
#     4  12  22  43  69  98 140 180 226 285 340 419
#     4  12  24  41  68 105 136 181 230 284 344 410
#     4   9  22  45  69  98 139 180 229 288 341 407
#     4   8  21  43  66 101 135 175 238 276 339 411
#     4   8  22  42  71  99 131 179 237 272 343 409
#
# _framework density 22.875985
#
# number of rings (size 3 to 8) (size 9 to 14) (size 15 to 20)
#    2.000    0.000    1.667    1.500    0.000    4.000 
#    9.000    1.667    0.000    0.000    0.000    0.000 
#    0.000    0.000    0.000    0.000    0.000    0.000 
#
# Total GULP energy -66845.709902 kJ/mol
# GULP energy per Si atom -5570.475825 kJ/mol
# Density = 2.282392 g / cm^3
# Si number density = 22.875985 Si / 1000 Ang^3
#
#
#
# Elastic Constant Matrix: (Units=GPa)
#
#
# Indices 1 2 3 4 5 6 
#
# 1 102.0562 46.1294 42.6540 4.5829 -13.8408 35.1220
# 2 46.1294 92.0139 82.4712 -31.1401 -13.8976 23.8574
# 3 42.6540 82.4712 159.4355 0.8386 -12.2428 34.8614
# 4 4.5829 -31.1401 0.8386 39.0642 9.2951 4.9570
# 5 -13.8408 -13.8976 -12.2428 9.2951 31.8510 -3.0318
# 6 35.1220 23.8574 34.8614 4.9570 -3.0318 47.7524
#
#
#
# Elastic Compliance Matrix: (Units=1/GPa)
#
#
# Indices 1 2 3 4 5 6 
#
# 1 0.020649 -0.020730 0.007623 -0.020012 0.007954 -0.007813
# 2 -0.020730 0.067419 -0.029514 0.059307 -0.008585 -0.003591
# 3 0.007623 -0.029514 0.020713 -0.025839 0.005657 -0.002941
# 4 -0.020012 0.059307 -0.025839 0.080457 -0.016751 -0.005463
# 5 0.007954 -0.008585 0.005657 -0.016751 0.038023 -0.001538
# 6 -0.007813 -0.003591 -0.002941 -0.005463 -0.001538 0.031099
#
#
# Mechanical properties :
#
#
# Convention : Reuss Voigt Hill
#
# Bulk Modulus (GPa) = 42.48191 77.33499 59.90845
# Shear Modulus (GPa) = 14.22686 35.88358 25.05522
#
# Velocity S-wave (km/s) = 2.49652 3.96487 3.31307
# Velocity P-wave (km/s) = 5.18855 7.40539 6.39378
#
# Compressibility (1/GPa) = 0.02353943
#
# Stress axis : x y z
#
# Youngs Moduli (GPa) = 48.42936 14.83255 48.27923
#
# Poissons Ratio (x) = 0.30748 -0.36805
# Poissons Ratio (y) = 1.00394 1.42491
# Poissons Ratio (z) = -0.36919 0.43777
#
# Static dielectric constant tensor:
#      x y z
#    x 2.070490 -0.104440 0.011480 
#    y -0.104440 1.946920 -0.088600 
#    z 0.011480 -0.088600 1.925250 
# 
# From -- ./inp_files/181361.got.cif
#   From: 2010.05.17/outbox.cif.g08.bks.cpg/sg2_91_cif.got.tgz:181361.got - 2010.06.03 11:33:40.
