data_PCOD9069111
_publ_section_title
;
Structure prediction by ZEFSAII (Michael W. Deem and Ramdas Pophale) SiO2 
 PCOD9069111
Probable space group: P -1
;
_chemical_formula_sum "Si O2"
_cell_formula_units_Z 10
_cell_length_a 16.320097
_cell_length_b 6.725525
_cell_length_c 9.347236
_cell_angle_alpha 95.547173
_cell_angle_beta 28.473799
_cell_angle_gamma 106.803776
_cell_volume 439.499674
_symmetry_space_group_name_H-M "P -1"
_symmetry_group_IT_number 2
_symmetry_cell_setting 'triclinic'
loop_
_space_group_symop_operation_xyz
x,y,z
-x,-y,-z
loop_
_atom_site_type_symbol
_atom_site_label
_atom_site_fract_x
_atom_site_fract_y
_atom_site_fract_z
Si Si1 0.820016 0.965728 0.676908
Si Si2 0.179985 0.645713 0.136957
Si Si3 0.535781 0.517892 0.196328
Si Si4 0.659943 0.969371 0.652137
Si Si5 0.340057 0.809433 0.631967
O O1 0.841395 0.038224 0.484440
O O2 0.736465 0.118233 0.895302
O O3 0.674945 0.709979 0.891278
O O4 0.000000 0.000000 0.500000
O O5 0.000000 0.500000 0.500000
O O6 0.325057 0.535035 0.916109
O O7 0.158605 0.696834 0.008628
O O8 0.414349 0.287568 0.290558
O O9 0.414347 0.626784 0.466396
O O10 0.697205 0.098598 0.454192
O O11 0.500000 0.000000 0.000000
O O12 0.500000 0.000000 0.500000
#
# Coordination Sequence:
#
# PCOD9069111 Si02
#       5
#     2   2   2   2   2
#     4  12  25  44  72 101 144 188 231 289 365 414
#     4  12  25  44  72 101 144 188 231 289 365 414
#     4  12  22  42  78 102 142 178 242 292 348 408
#     4  12  24  43  73 109 137 183 246 290 344 427
#     4  12  24  43  73 109 137 183 246 290 344 427
#
# _framework density 22.753147999999999
#
# number of rings (size 3 to 8) (size 9 to 14) (size 15 to 20)
#    0.000    0.000   10.000    1.200    0.000    0.000 
#    0.000    2.000    0.000    0.000    0.000    0.000 
#    0.000    0.000    0.000    0.000    0.000    0.000 
#
# Total GULP energy -55859.431060 kJ/mol
# GULP energy per Si atom -5585.943106 kJ/mol
# Density = 2.270136 g / cm^3
# Si number density = 22.753148 Si / 1000 Ang^3
#
#
#
# Elastic Constant Matrix: (Units=GPa)
#
#
# Indices 1 2 3 4 5 6 
#
# 1 196.3349 49.4566 80.5110 -2.5626 53.1806 -15.2072
# 2 49.4566 165.0697 38.6754 15.6633 20.4843 -8.8990
# 3 80.5110 38.6754 106.2861 -11.1131 43.9892 -1.0545
# 4 -2.5626 15.6633 -11.1131 22.3312 -6.4194 10.7555
# 5 53.1806 20.4843 43.9892 -6.4194 44.8943 -5.0779
# 6 -15.2072 -8.8990 -1.0545 10.7555 -5.0779 27.1340
#
#
#
# Elastic Compliance Matrix: (Units=1/GPa)
#
#
# Indices 1 2 3 4 5 6 
#
# 1 0.009244 0.000159 -0.005096 -0.006477 -0.006227 0.006437
# 2 0.000159 0.008571 -0.003937 -0.011735 -0.001106 0.007192
# 3 -0.005096 -0.003937 0.021109 0.014719 -0.012037 -0.011414
# 4 -0.006477 -0.011735 0.014719 0.079160 0.005714 -0.037215
# 5 -0.006227 -0.001106 -0.012037 0.005714 0.042931 0.001449
# 6 0.006437 0.007192 -0.011414 -0.037215 0.001449 0.057399
#
#
# Mechanical properties :
#
#
# Convention : Reuss Voigt Hill
#
# Bulk Modulus (GPa) = 47.22502 89.44184 68.33343
# Shear Modulus (GPa) = 20.55747 38.80840 29.68293
#
# Velocity S-wave (km/s) = 3.00909 4.13441 3.61579
# Velocity P-wave (km/s) = 5.73352 7.88581 6.89418
#
# Compressibility (1/GPa) = 0.02117522
#
# Stress axis : x y z
#
# Youngs Moduli (GPa) = 108.18054 116.66725 47.37365
#
# Poissons Ratio (x) = -0.01852 0.24141
# Poissons Ratio (y) = -0.01718 0.18652
# Poissons Ratio (z) = 0.55128 0.45935
#
# Static dielectric constant tensor:
#      x y z
#    x 1.953570 -0.049880 -0.024520 
#    y -0.049880 1.868420 -0.052850 
#    z -0.024520 -0.052850 1.950930 
# 
# From -- ./inp_files/20734.got.cif
#   From: 2010.05.17/outbox.cif.g08.bks.cpg/sg2_11_cif.got.tgz:20734.got - 2010.06.03 11:33:40.
