data_PCOD9069833
_publ_section_title
;
Structure prediction by ZEFSAII (Michael W. Deem and Ramdas Pophale) SiO2 
 PCOD9069833
Probable space group: P -1
;
_chemical_formula_sum "Si O2"
_cell_formula_units_Z 14
_cell_length_a 12.105154
_cell_length_b 11.345224
_cell_length_c 9.429319
_cell_angle_alpha 120.929374
_cell_angle_beta 35.739400
_cell_angle_gamma 128.549661
_cell_volume 591.461079
_symmetry_space_group_name_H-M "P -1"
_symmetry_group_IT_number 2
_symmetry_cell_setting 'triclinic'
loop_
_space_group_symop_operation_xyz
x,y,z
-x,-y,-z
loop_
_atom_site_type_symbol
_atom_site_label
_atom_site_fract_x
_atom_site_fract_y
_atom_site_fract_z
Si Si1 0.345934 0.220141 0.526072
Si Si2 0.273108 0.920033 0.262099
Si Si3 0.190684 0.271236 0.438882
Si Si4 0.958268 0.823120 0.939741
Si Si5 0.392062 0.822773 0.541035
Si Si6 0.169317 0.432232 0.300796
Si Si7 0.468215 0.732051 0.104410
O O1 0.324110 0.310648 0.468204
O O2 0.549313 0.226286 0.399757
O O3 0.247823 0.048527 0.462469
O O4 0.213856 0.244773 0.803985
O O5 0.313538 0.799419 0.243200
O O6 0.055149 0.836304 0.353583
O O7 0.500000 0.000000 0.000000
O O8 0.197781 0.410934 0.424138
O O9 0.317589 0.200228 0.163525
O O10 0.893982 0.730971 0.804051
O O11 0.154407 0.792758 0.764398
O O12 0.000000 0.000000 0.000000
O O13 0.470155 0.756848 0.285781
O O14 0.500000 0.000000 0.500000
O O15 0.365689 0.552044 0.086853
O O16 0.000000 0.500000 0.500000
#
# Coordination Sequence:
#
# PCOD9069833 Si02
#       7
#     2   2   2   2   2   2   2
#     4  12  27  41  69 114 145 193 244 319 376 434
#     4  12  25  44  75 112 154 192 254 316 380 439
#     4  12  27  45  74 108 152 197 256 310 377 451
#     4  12  25  47  78 111 148 195 258 314 370 446
#     4  12  24  41  72 106 154 190 248 305 376 438
#     4  12  25  52  78 107 148 207 257 301 377 456
#     4  12  25  48  78 107 145 209 255 305 367 464
#
# _framework density 23.670197000000002
#
# number of rings (size 3 to 8) (size 9 to 14) (size 15 to 20)
#    0.000    0.000    7.143    2.571    4.000    0.000 
#    0.000    3.571    0.000    0.000    0.000    0.000 
#    0.000    0.000    0.000    0.000    0.000    0.000 
#
# Total GULP energy -78210.219071 kJ/mol
# GULP energy per Si atom -5586.444219 kJ/mol
# Density = 2.361632 g / cm^3
# Si number density = 23.670197 Si / 1000 Ang^3
#
#
#
# Elastic Constant Matrix: (Units=GPa)
#
#
# Indices 1 2 3 4 5 6 
#
# 1 206.4828 20.7623 43.2884 -2.1170 3.4578 -29.0564
# 2 20.7623 71.2692 17.7587 -2.9052 9.5890 -7.9889
# 3 43.2884 17.7587 112.2905 -1.4752 -16.0925 -0.2429
# 4 -2.1170 -2.9052 -1.4752 34.7207 1.6754 -1.6187
# 5 3.4578 9.5890 -16.0925 1.6754 40.0593 -0.5449
# 6 -29.0564 -7.9889 -0.2429 -1.6187 -0.5449 37.1434
#
#
#
# Elastic Compliance Matrix: (Units=1/GPa)
#
#
# Indices 1 2 3 4 5 6 
#
# 1 0.006084 -0.000434 -0.002456 0.000513 -0.001366 0.004653
# 2 -0.000434 0.016009 -0.003060 0.001570 -0.005048 0.003078
# 3 -0.002456 -0.003060 0.011098 -0.000308 0.005383 -0.002441
# 4 0.000513 0.001570 -0.000308 0.029127 -0.001735 0.001981
# 5 -0.001366 -0.005048 0.005383 -0.001735 0.028500 -0.001777
# 6 0.004653 0.003078 -0.002441 0.001981 -0.001777 0.031269
#
#
# Mechanical properties :
#
#
# Convention : Reuss Voigt Hill
#
# Bulk Modulus (GPa) = 46.97031 61.51795 54.24413
# Shear Modulus (GPa) = 35.43979 42.93355 39.18667
#
# Velocity S-wave (km/s) = 3.87361 4.26352 4.07323
# Velocity P-wave (km/s) = 6.31610 7.09104 6.71476
#
# Compressibility (1/GPa) = 0.02129004
#
# Stress axis : x y z
#
# Youngs Moduli (GPa) = 164.35513 62.46652 90.10426
#
# Poissons Ratio (x) = 0.02713 0.22128
# Poissons Ratio (y) = 0.07139 0.27576
# Poissons Ratio (z) = 0.40362 0.19117
#
# Static dielectric constant tensor:
#      x y z
#    x 0.869840 0.281500 0.479880 
#    y 0.281500 1.936090 -0.159670 
#    z 0.479880 -0.159670 1.662020 
# 
# From -- ./inp_files/262852.got.cif
#   From: 2010.05.17/outbox.cif.g08.bks.cpg/sg2_132_cif.got.tgz:262852.got - 2010.06.03 11:33:40.
