data_PCOD9069528
_publ_section_title
;
Structure prediction by ZEFSAII (Michael W. Deem and Ramdas Pophale) SiO2 
 PCOD9069528
Probable space group: P -1
;
_chemical_formula_sum "Si O2"
_cell_formula_units_Z 15
_cell_length_a 8.240609
_cell_length_b 11.107610
_cell_length_c 7.801068
_cell_angle_alpha 53.163020
_cell_angle_beta 71.094860
_cell_angle_gamma 77.020236
_cell_volume 540.230020
_symmetry_space_group_name_H-M "P -1"
_symmetry_group_IT_number 2
_symmetry_cell_setting 'triclinic'
loop_
_space_group_symop_operation_xyz
x,y,z
-x,-y,-z
loop_
_atom_site_type_symbol
_atom_site_label
_atom_site_fract_x
_atom_site_fract_y
_atom_site_fract_z
Si Si1 0.168346 0.197288 0.498269
Si Si2 0.500000 0.000000 0.500000
Si Si3 0.794424 0.511321 0.588704
Si Si4 0.521087 0.143305 0.076508
Si Si5 0.924703 0.733819 0.895487
Si Si6 0.344091 0.451585 0.743722
Si Si7 0.309359 0.667464 0.879157
Si Si8 0.865839 0.036913 0.861991
O O1 0.233082 0.312224 0.516586
O O2 0.165768 0.274370 0.249124
O O3 0.970028 0.161012 0.621716
O O4 0.299287 0.057585 0.571058
O O5 0.558934 0.004379 0.692217
O O6 0.667163 0.478321 0.502421
O O7 0.000000 0.500000 0.500000
O O8 0.739355 0.415962 0.855102
O O9 0.562560 0.203459 0.212261
O O10 0.428058 0.284864 0.894923
O O11 0.687772 0.096923 0.950236
O O12 0.128547 0.733777 0.818613
O O13 0.863587 0.885386 0.883497
O O14 0.859609 0.586283 0.136331
O O15 0.385297 0.560979 0.794536
O O16 0.000000 0.000000 0.000000
#
# Coordination Sequence:
#
# PCOD9069528 Si02
#       8
#     2   1   2   2   2   2   2   2
#     4  12  25  45  71 111 142 196 242 295 366 434
#     4  12  24  46  72 102 146 190 234 298 372 412
#     4  12  24  43  75 103 149 193 241 296 362 431
#     4  12  27  47  75 106 151 189 237 309 363 429
#     4  12  23  44  76 105 141 194 245 297 356 438
#     4  12  26  45  73 111 143 191 246 298 363 429
#     4  12  24  48  72 105 148 190 242 300 360 433
#     4  12  24  45  71 105 146 187 245 292 360 435
#
# _framework density 27.76595
#
# number of rings (size 3 to 8) (size 9 to 14) (size 15 to 20)
#    0.000    0.000    6.667    3.600    0.000    2.133 
#    0.000    1.333    0.000    0.000    0.000    0.000 
#    0.000    0.000    0.000    0.000    0.000    0.000 
#
# Total GULP energy -83909.473802 kJ/mol
# GULP energy per Si atom -5593.964920 kJ/mol
# Density = 2.770275 g / cm^3
# Si number density = 27.765950 Si / 1000 Ang^3
#
#
#
# Elastic Constant Matrix: (Units=GPa)
#
#
# Indices 1 2 3 4 5 6 
#
# 1 128.3601 33.5160 25.6992 11.1704 20.5947 -21.4130
# 2 33.5160 104.7857 30.6879 20.8773 -7.6500 -19.3273
# 3 25.6992 30.6879 147.7994 14.1216 20.2587 -15.4643
# 4 11.1704 20.8773 14.1216 35.0738 2.9212 -12.5060
# 5 20.5947 -7.6500 20.2587 2.9212 59.4976 -3.7808
# 6 -21.4130 -19.3273 -15.4643 -12.5060 -3.7808 50.7687
#
#
#
# Elastic Compliance Matrix: (Units=1/GPa)
#
#
# Indices 1 2 3 4 5 6 
#
# 1 0.009550 -0.002695 -0.000358 -0.000077 -0.003360 0.002623
# 2 -0.002695 0.012705 -0.001928 -0.005507 0.003622 0.002026
# 3 -0.000358 -0.001928 0.007821 -0.001318 -0.002660 0.000974
# 4 -0.000077 -0.005507 -0.001318 0.034567 -0.001557 0.005868
# 5 -0.003360 0.003622 -0.002660 -0.001557 0.019432 0.000215
# 6 0.002623 0.002026 0.000974 0.005868 0.000215 0.023333
#
#
# Mechanical properties :
#
#
# Convention : Reuss Voigt Hill
#
# Bulk Modulus (GPa) = 49.71955 62.30571 56.01263
# Shear Modulus (GPa) = 40.29804 48.47080 44.38442
#
# Velocity S-wave (km/s) = 3.81379 4.18268 4.00249
# Velocity P-wave (km/s) = 6.11055 6.76866 6.44801
#
# Compressibility (1/GPa) = 0.02011281
#
# Stress axis : x y z
#
# Youngs Moduli (GPa) = 104.71740 78.70684 127.86017
#
# Poissons Ratio (x) = 0.21215 0.04583
# Poissons Ratio (y) = 0.28226 0.24647
# Poissons Ratio (z) = 0.03754 0.15172
#
# Static dielectric constant tensor:
#      x y z
#    x 2.236450 -0.166340 -0.075210 
#    y -0.166340 0.458860 -0.462440 
#    z -0.075210 -0.462440 3.033010 
# 
# From -- ./inp_files/174743.got.cif
#   From: 2010.05.17/outbox.cif.g08.bks.cpg/sg2_88_cif.got.tgz:174743.got - 2010.06.03 11:33:40.
