data_PCOD9069467
_publ_section_title
;
Structure prediction by ZEFSAII (Michael W. Deem and Ramdas Pophale) SiO2 
 PCOD9069467
Probable space group: P -1
;
_chemical_formula_sum "Si O2"
_cell_formula_units_Z 15
_cell_length_a 10.477690
_cell_length_b 12.368543
_cell_length_c 9.709920
_cell_angle_alpha 124.050801
_cell_angle_beta 137.696578
_cell_angle_gamma 59.667336
_cell_volume 692.337128
_symmetry_space_group_name_H-M "P -1"
_symmetry_group_IT_number 2
_symmetry_cell_setting 'triclinic'
loop_
_space_group_symop_operation_xyz
x,y,z
-x,-y,-z
loop_
_atom_site_type_symbol
_atom_site_label
_atom_site_fract_x
_atom_site_fract_y
_atom_site_fract_z
Si Si1 0.500000 0.500000 0.500000
Si Si2 0.745661 0.932622 0.869321
Si Si3 0.415673 0.778401 0.150782
Si Si4 0.953754 0.009076 0.630442
Si Si5 0.585388 0.228602 0.533135
Si Si6 0.059117 0.511416 0.213135
Si Si7 0.983965 0.301523 0.226105
Si Si8 0.166404 0.273245 0.630969
O O1 0.592581 0.362327 0.554139
O O2 0.287860 0.490432 0.391559
O O3 0.580701 0.847093 0.713208
O O4 0.902077 0.840198 0.835010
O O5 0.646855 0.064140 0.806001
O O6 0.858407 0.975619 0.121104
O O7 0.459808 0.749276 0.325538
O O8 0.605975 0.730114 0.180286
O O9 0.232732 0.712409 0.918511
O O10 0.876119 0.875690 0.515487
O O11 0.788512 0.132480 0.616678
O O12 0.000000 0.000000 0.500000
O O13 0.987219 0.400857 0.173124
O O14 0.952450 0.650079 0.286380
O O15 0.000000 0.500000 0.000000
O O16 0.090703 0.340510 0.474653
#
# Coordination Sequence:
#
# PCOD9069467 Si02
#       8
#     1   2   2   2   2   2   2   2
#     4  12  26  48  72 104 146 200 242 284 368 448
#     4  12  23  44  74 108 145 188 238 297 369 424
#     4  12  23  43  77 112 144 186 243 308 365 432
#     4  12  27  45  70 108 152 192 244 304 364 437
#     4  12  24  43  75 108 147 194 243 298 366 434
#     4  12  29  49  73 102 148 198 245 303 371 442
#     4  12  24  44  75 108 145 195 245 301 362 437
#     4  12  26  46  72 109 146 189 248 310 361 437
#
# _framework density 21.665745999999999
#
# number of rings (size 3 to 8) (size 9 to 14) (size 15 to 20)
#    0.000    0.000    6.667    3.600    1.867    2.133 
#    2.400    0.000    0.000    0.000    0.000    0.000 
#    0.000    0.000    0.000    0.000    0.000    0.000 
#
# Total GULP energy -83786.581710 kJ/mol
# GULP energy per Si atom -5585.772114 kJ/mol
# Density = 2.161643 g / cm^3
# Si number density = 21.665746 Si / 1000 Ang^3
#
#
#
# Elastic Constant Matrix: (Units=GPa)
#
#
# Indices 1 2 3 4 5 6 
#
# 1 36.4539 -2.5212 19.3725 -8.9442 0.2997 -3.3017
# 2 -2.5212 116.8744 11.0373 -7.5417 -7.4816 10.0629
# 3 19.3725 11.0373 67.2036 -14.4883 5.9167 -3.4705
# 4 -8.9442 -7.5417 -14.4883 13.5240 -1.9998 -0.5860
# 5 0.2997 -7.4816 5.9167 -1.9998 44.6224 -5.2842
# 6 -3.3017 10.0629 -3.4705 -0.5860 -5.2842 42.5150
#
#
#
# Elastic Compliance Matrix: (Units=1/GPa)
#
#
# Indices 1 2 3 4 5 6 
#
# 1 0.035931 0.002558 -0.006942 0.018167 0.002176 0.002139
# 2 0.002558 0.009373 -0.001295 0.005713 0.001766 -0.001827
# 3 -0.006942 -0.001295 0.021002 0.016950 -0.002022 0.001464
# 4 0.018167 0.005713 0.016950 0.108017 0.003833 0.003407
# 5 0.002176 0.001766 -0.002022 0.003833 0.023434 0.002551
# 6 0.002139 -0.001827 0.001464 0.003407 0.002551 0.024603
#
#
# Mechanical properties :
#
#
# Convention : Reuss Voigt Hill
#
# Bulk Modulus (GPa) = 18.19910 30.70102 24.45006
# Shear Modulus (GPa) = 19.83855 32.97516 26.40685
#
# Velocity S-wave (km/s) = 3.02928 3.90551 3.49496
# Velocity P-wave (km/s) = 4.54462 5.87694 5.25319
#
# Compressibility (1/GPa) = 0.05494776
#
# Stress axis : x y z
#
# Youngs Moduli (GPa) = 27.83081 106.69308 47.61436
#
# Poissons Ratio (x) = -0.27293 0.33056
# Poissons Ratio (y) = -0.07119 0.06165
# Poissons Ratio (z) = 0.19321 0.13815
#
# Static dielectric constant tensor:
#      x y z
#    x 1.753700 0.005930 0.009530 
#    y 0.005930 1.781310 0.011980 
#    z 0.009530 0.011980 1.796890 
# 
# From -- ./inp_files/190495.got.cif
#   From: 2010.05.17/outbox.cif.g08.bks.cpg/sg2_96_cif.got.tgz:190495.got - 2010.06.03 11:33:40.
