data_PCOD9069365
_publ_section_title
;
Structure prediction by ZEFSAII (Michael W. Deem and Ramdas Pophale) SiO2 
 PCOD9069365
Probable space group: P -1
;
_chemical_formula_sum "Si O2"
_cell_formula_units_Z 14
_cell_length_a 10.066954
_cell_length_b 26.034912
_cell_length_c 12.787960
_cell_angle_alpha 23.851759
_cell_angle_beta 37.246778
_cell_angle_gamma 24.687235
_cell_volume 553.797768
_symmetry_space_group_name_H-M "P -1"
_symmetry_group_IT_number 2
_symmetry_cell_setting 'triclinic'
loop_
_space_group_symop_operation_xyz
x,y,z
-x,-y,-z
loop_
_atom_site_type_symbol
_atom_site_label
_atom_site_fract_x
_atom_site_fract_y
_atom_site_fract_z
Si Si1 0.813531 0.414613 0.402552
Si Si2 0.186094 0.098714 0.078728
Si Si3 0.200576 0.822962 0.282029
Si Si4 0.221024 0.074641 0.457343
Si Si5 0.375551 0.301803 0.382638
Si Si6 0.467805 0.713504 0.905385
Si Si7 0.892207 0.665601 0.127031
O O1 0.500000 0.500000 0.500000
O O2 0.866167 0.286727 0.519999
O O3 0.105885 0.318921 0.475060
O O4 0.715180 0.581909 0.088445
O O5 0.117026 0.235751 0.952805
O O6 0.862443 0.220639 0.987489
O O7 0.295560 0.914336 0.397602
O O8 0.500000 0.000000 0.000000
O O9 0.057338 0.873962 0.393691
O O10 0.573017 0.711770 0.249279
O O11 0.000000 0.000000 0.000000
O O12 0.125352 0.234002 0.149339
O O13 0.500000 0.000000 0.500000
O O14 0.382074 0.897825 0.614150
O O15 0.432007 0.366990 0.124813
O O16 0.211589 0.444172 0.317471
#
# Coordination Sequence:
#
# PCOD9069365 Si02
#       7
#     2   2   2   2   2   2   2
#     4  12  23  44  72 108 146 187 247 308 369 437
#     4  12  28  52  74 104 153 200 248 307 371 448
#     4  12  23  42  71 108 151 194 244 305 374 441
#     4  12  23  44  74 108 150 192 244 308 373 440
#     4  12  25  48  75 109 147 190 253 307 370 446
#     4  12  26  48  74 105 152 198 243 309 375 436
#     4  12  26  47  75 108 147 198 252 303 372 448
#
# _framework density 25.279987999999999
#
# number of rings (size 3 to 8) (size 9 to 14) (size 15 to 20)
#    0.000    0.000    4.286    6.857    0.000    1.143 
#    2.571    0.000    0.000    0.000    0.000    0.000 
#    0.000    0.000    0.000    0.000    0.000    0.000 
#
# Total GULP energy -78478.892249 kJ/mol
# GULP energy per Si atom -5605.635161 kJ/mol
# Density = 2.522245 g / cm^3
# Si number density = 25.279988 Si / 1000 Ang^3
#
#
#
# Elastic Constant Matrix: (Units=GPa)
#
#
# Indices 1 2 3 4 5 6 
#
# 1 90.6611 27.5693 18.4167 -20.0737 -13.1707 5.9261
# 2 27.5693 139.6068 28.7593 17.3225 -10.7205 19.3994
# 3 18.4167 28.7593 86.6260 -0.2112 3.0419 4.4294
# 4 -20.0737 17.3225 -0.2112 50.1791 14.7199 -8.9305
# 5 -13.1707 -10.7205 3.0419 14.7199 39.9911 -3.7402
# 6 5.9261 19.3994 4.4294 -8.9305 -3.7402 48.8720
#
#
#
# Elastic Compliance Matrix: (Units=1/GPa)
#
#
# Indices 1 2 3 4 5 6 
#
# 1 0.013983 -0.003150 -0.002023 0.006367 0.001668 0.001029
# 2 -0.003150 0.010038 -0.002597 -0.006641 0.003895 -0.004283
# 3 -0.002023 -0.002597 0.012929 0.000942 -0.002686 0.000071
# 4 0.006367 -0.006641 0.000942 0.028751 -0.009750 0.006286
# 5 0.001668 0.003895 -0.002686 -0.009750 0.030302 -0.000968
# 6 0.001029 -0.004283 0.000071 0.006286 -0.000968 0.023105
#
#
# Mechanical properties :
#
#
# Convention : Reuss Voigt Hill
#
# Bulk Modulus (GPa) = 46.70322 51.82049 49.26185
# Shear Modulus (GPa) = 35.26477 43.95167 39.60822
#
# Velocity S-wave (km/s) = 3.73898 4.17417 3.96255
# Velocity P-wave (km/s) = 6.09544 6.61625 6.36118
#
# Compressibility (1/GPa) = 0.02141180
#
# Stress axis : x y z
#
# Youngs Moduli (GPa) = 71.51305 99.61959 77.34483
#
# Poissons Ratio (x) = 0.31376 0.15646
# Poissons Ratio (y) = 0.22524 0.20086
# Poissons Ratio (z) = 0.14466 0.25871
#
# Static dielectric constant tensor:
#      x y z
#    x 1.889490 0.037880 -0.077400 
#    y 0.037880 2.033930 -0.011340 
#    z -0.077400 -0.011340 2.044140 
# 
# From -- ./inp_files/333897.got.cif
#   From: 2010.05.17/outbox.cif.g08.bks.cpg/sg2_167_cif.got.tgz:333897.got - 2010.06.03 11:33:40.
