data_PCOD9069172
_publ_section_title
;
Structure prediction by ZEFSAII (Michael W. Deem and Ramdas Pophale) SiO2 
 PCOD9069172
Probable space group: P -1
;
_chemical_formula_sum "Si O2"
_cell_formula_units_Z 16
_cell_length_a 8.324711
_cell_length_b 26.165296
_cell_length_c 25.895929
_cell_angle_alpha 10.606049
_cell_angle_beta 42.520680
_cell_angle_gamma 42.052715
_cell_volume 694.206419
_symmetry_space_group_name_H-M "P -1"
_symmetry_group_IT_number 2
_symmetry_cell_setting 'triclinic'
loop_
_space_group_symop_operation_xyz
x,y,z
-x,-y,-z
loop_
_atom_site_type_symbol
_atom_site_label
_atom_site_fract_x
_atom_site_fract_y
_atom_site_fract_z
Si Si1 0.222367 0.589407 0.888372
Si Si2 0.175416 0.906767 0.003021
Si Si3 0.518329 0.659229 0.484533
Si Si4 0.357013 0.852932 0.223109
Si Si5 0.972119 0.625268 0.232010
Si Si6 0.235603 0.102813 0.439225
Si Si7 0.004564 0.021397 0.679734
Si Si8 0.743275 0.518472 0.790508
O O1 0.471327 0.496559 0.891587
O O2 0.198167 0.915187 0.584799
O O3 0.228862 0.422400 0.106755
O O4 0.000000 0.500000 0.000000
O O5 0.397291 0.669637 0.201797
O O6 0.044786 0.774167 0.118746
O O7 0.290265 0.182535 0.687826
O O8 0.000000 0.000000 0.000000
O O9 0.526720 0.726025 0.355146
O O10 0.254560 0.803695 0.419599
O O11 0.200663 0.611571 0.482779
O O12 0.500000 0.000000 0.000000
O O13 0.173376 0.120614 0.019210
O O14 0.192783 0.513508 0.253426
O O15 0.049741 0.052514 0.577488
O O16 0.500000 0.000000 0.500000
O O17 0.198593 0.180134 0.505317
O O18 0.074490 0.703183 0.998618
#
# Coordination Sequence:
#
# PCOD9069172 Si02
#       8
#     2   2   2   2   2   2   2   2
#     4  12  26  43  69 109 149 187 239 290 351 422
#     4  12  28  48  71 102 147 183 224 296 365 425
#     4  12  25  47  71 105 135 181 239 291 345 420
#     4  12  25  45  73 104 133 178 240 292 338 425
#     4  12  25  46  70 102 139 188 231 283 373 418
#     4  12  23  44  71 104 141 197 240 283 351 419
#     4  12  24  42  76 102 140 183 244 300 341 407
#     4  12  22  44  71 101 143 186 229 305 351 408
#
# _framework density 23.047898
#
# number of rings (size 3 to 8) (size 9 to 14) (size 15 to 20)
#    0.000    0.000    5.000    5.250    0.000    4.000 
#    0.000    0.000    0.000    0.000    0.000    0.000 
#    0.000    0.000    0.000    0.000    0.000    0.000 
#
# Total GULP energy -89568.208143 kJ/mol
# GULP energy per Si atom -5598.013009 kJ/mol
# Density = 2.299544 g / cm^3
# Si number density = 23.047898 Si / 1000 Ang^3
#
#
#
# Elastic Constant Matrix: (Units=GPa)
#
#
# Indices 1 2 3 4 5 6 
#
# 1 78.4542 32.5688 10.9830 5.9594 -21.4796 0.9678
# 2 32.5688 138.7326 8.6396 2.5048 -15.2517 8.4948
# 3 10.9830 8.6396 102.1171 -3.2808 -12.9613 5.1649
# 4 5.9594 2.5048 -3.2808 32.4309 -3.8009 1.1058
# 5 -21.4796 -15.2517 -12.9613 -3.8009 46.8225 0.9434
# 6 0.9678 8.4948 5.1649 1.1058 0.9434 33.8965
#
#
#
# Elastic Compliance Matrix: (Units=1/GPa)
#
#
# Indices 1 2 3 4 5 6 
#
# 1 0.015879 -0.003011 -0.000786 -0.002083 0.005910 0.000325
# 2 -0.003011 0.008184 -0.000098 0.000133 0.001308 -0.001991
# 3 -0.000786 -0.000098 0.010354 0.001565 0.002634 -0.001655
# 4 -0.002083 0.000133 0.001565 0.031658 0.002117 -0.001304
# 5 0.005910 0.001308 0.002634 0.002117 0.025429 -0.001675
# 6 0.000325 -0.001991 -0.001655 -0.001304 -0.001675 0.030333
#
#
# Mechanical properties :
#
#
# Convention : Reuss Voigt Hill
#
# Bulk Modulus (GPa) = 37.55588 47.07630 42.31609
# Shear Modulus (GPa) = 36.10028 40.43746 38.26887
#
# Velocity S-wave (km/s) = 3.96196 4.19322 4.07923
# Velocity P-wave (km/s) = 6.10407 6.62675 6.37077
#
# Compressibility (1/GPa) = 0.02662699
#
# Stress axis : x y z
#
# Youngs Moduli (GPa) = 62.97714 122.18264 96.58287
#
# Poissons Ratio (x) = 0.36792 0.07594
# Poissons Ratio (y) = 0.18964 0.00942
# Poissons Ratio (z) = 0.04951 0.01192
#
# Static dielectric constant tensor:
#      x y z
#    x 1.887240 0.020760 0.035420 
#    y 0.020760 1.900690 0.011340 
#    z 0.035420 0.011340 1.841560 
# 
# From -- ./inp_files/617658.got.cif
#   From: 2010.05.17/outbox.cif.g08.bks.cpg/sg2_309_cif.got.tgz:617658.got - 2010.06.03 11:33:40.
