data_PCOD9069933
_publ_section_title
;
Structure prediction by ZEFSAII (Michael W. Deem and Ramdas Pophale) SiO2 
 PCOD9069933
Probable space group: P -1
;
_chemical_formula_sum "Si O2"
_cell_formula_units_Z 15
_cell_length_a 8.714239
_cell_length_b 17.759674
_cell_length_c 5.831111
_cell_angle_alpha 115.169149
_cell_angle_beta 120.220420
_cell_angle_gamma 54.692015
_cell_volume 624.690440
_symmetry_space_group_name_H-M "P -1"
_symmetry_group_IT_number 2
_symmetry_cell_setting 'triclinic'
loop_
_space_group_symop_operation_xyz
x,y,z
-x,-y,-z
loop_
_atom_site_type_symbol
_atom_site_label
_atom_site_fract_x
_atom_site_fract_y
_atom_site_fract_z
Si Si1 0.747777 0.328994 0.787877
Si Si2 0.450828 0.789381 0.493150
Si Si3 0.502853 0.083526 0.959819
Si Si4 0.807777 0.031922 0.742387
Si Si5 0.934376 0.472881 0.669392
Si Si6 0.080411 0.157237 0.560982
Si Si7 0.500000 0.500000 0.500000
Si Si8 0.087032 0.275588 0.346740
O O1 0.572356 0.303411 0.690462
O O2 0.653549 0.424628 0.703084
O O3 0.878745 0.237657 0.612898
O O4 0.906198 0.322219 0.089612
O O5 0.406289 0.853353 0.772790
O O6 0.291576 0.864879 0.298647
O O7 0.683931 0.760899 0.597478
O O8 0.631344 0.034009 0.769728
O O9 0.276522 0.156197 0.815315
O O10 0.500000 0.000000 0.000000
O O11 0.878013 0.948323 0.504127
O O12 0.000000 0.000000 0.000000
O O13 0.694538 0.510817 0.548770
O O14 0.037677 0.359184 0.597349
O O15 0.000000 0.500000 0.500000
O O16 0.000000 0.500000 0.000000
O O17 0.075882 0.186144 0.331047
#
# Coordination Sequence:
#
# PCOD9069933 Si02
#       8
#     2   2   2   2   2   2   1   2
#     4  12  28  48  77 112 153 206 270 336 416 490
#     4  12  26  46  77 112 151 210 265 323 399 496
#     4  12  24  43  73 104 155 209 257 323 405 474
#     4  12  26  42  66 109 153 197 259 318 387 482
#     4  12  29  54  88 122 165 220 282 350 434 515
#     4  12  24  45  71 104 152 203 255 320 398 480
#     4  12  28  56  82 122 166 210 278 358 430 500
#     4  12  26  50  76 110 157 203 261 335 405 494
#
# _framework density 24.011890999999999
#
# number of rings (size 3 to 8) (size 9 to 14) (size 15 to 20)
#    0.000    0.000    5.333    4.400    1.867    5.333 
#    2.400    0.000    0.000    0.000    0.000    0.000 
#    0.000    0.000    0.000    0.000    0.000    0.000 
#
# Total GULP energy -83510.292369 kJ/mol
# GULP energy per Si atom -5567.352825 kJ/mol
# Density = 2.395724 g / cm^3
# Si number density = 24.011891 Si / 1000 Ang^3
#
#
#
# Elastic Constant Matrix: (Units=GPa)
#
#
# Indices 1 2 3 4 5 6 
#
# 1 87.2035 0.3685 27.5502 -10.8644 11.5364 -2.2844
# 2 0.3685 104.8939 51.8642 -29.1608 4.1422 14.2781
# 3 27.5502 51.8642 118.7177 -21.9217 23.8099 -1.6601
# 4 -10.8644 -29.1608 -21.9217 52.0075 -0.9632 -3.6930
# 5 11.5364 4.1422 23.8099 -0.9632 28.6570 -8.1771
# 6 -2.2844 14.2781 -1.6601 -3.6930 -8.1771 46.6867
#
#
#
# Elastic Compliance Matrix: (Units=1/GPa)
#
#
# Indices 1 2 3 4 5 6 
#
# 1 0.013142 0.002367 -0.002932 0.002738 -0.003258 -0.000539
# 2 0.002367 0.014700 -0.006165 0.005879 0.001118 -0.003938
# 3 -0.002932 -0.006165 0.013983 0.001706 -0.009275 0.000750
# 4 0.002738 0.005879 0.001706 0.023754 -0.002624 -0.000184
# 5 -0.003258 0.001118 -0.009275 -0.002624 0.045648 0.006956
# 6 -0.000539 -0.003938 0.000750 -0.000184 0.006956 0.023828
#
#
# Mechanical properties :
#
#
# Convention : Reuss Voigt Hill
#
# Bulk Modulus (GPa) = 35.25657 52.26454 43.76055
# Shear Modulus (GPa) = 31.65170 40.87237 36.26204
#
# Velocity S-wave (km/s) = 3.63460 4.13021 3.89031
# Velocity P-wave (km/s) = 5.68582 6.67520 6.20028
#
# Compressibility (1/GPa) = 0.02836351
#
# Stress axis : x y z
#
# Youngs Moduli (GPa) = 76.09292 68.02920 71.51660
#
# Poissons Ratio (x) = -0.16102 0.20971
# Poissons Ratio (y) = -0.18010 0.44089
# Poissons Ratio (z) = 0.22313 0.41939
#
# Static dielectric constant tensor:
#      x y z
#    x 2.226290 -0.068140 -0.036300 
#    y -0.068140 1.918410 0.023380 
#    z -0.036300 0.023380 1.998960 
# 
# From -- ./inp_files/48718.got.cif
#   From: 2010.05.17/outbox.cif.g08.bks.cpg/sg2_25_cif.got.tgz:48718.got - 2010.06.03 11:33:40.
