data_PCOD9069911
_publ_section_title
;
Structure prediction by ZEFSAII (Michael W. Deem and Ramdas Pophale) SiO2 
 PCOD9069911
Probable space group: P -1
;
_chemical_formula_sum "Si O2"
_cell_formula_units_Z 10
_cell_length_a 16.764891
_cell_length_b 12.509584
_cell_length_c 16.060946
_cell_angle_alpha 25.406805
_cell_angle_beta 163.529374
_cell_angle_gamma 154.341862
_cell_volume 392.231764
_symmetry_space_group_name_H-M "P -1"
_symmetry_group_IT_number 2
_symmetry_cell_setting 'triclinic'
loop_
_space_group_symop_operation_xyz
x,y,z
-x,-y,-z
loop_
_atom_site_type_symbol
_atom_site_label
_atom_site_fract_x
_atom_site_fract_y
_atom_site_fract_z
Si Si1 0.654212 0.537492 0.938217
Si Si2 0.369979 0.692675 0.289816
Si Si3 0.867928 0.592090 0.384606
Si Si4 0.051183 0.162781 0.128043
Si Si5 0.272293 0.057949 0.793224
O O1 0.846061 0.773245 0.908734
O O2 0.443988 0.583759 0.768722
O O3 0.423547 0.341934 0.783186
O O4 0.885757 0.400201 0.304144
O O5 0.500000 0.500000 0.500000
O O6 0.655906 0.830309 0.532864
O O7 0.244964 0.862769 0.980198
O O8 0.103523 0.628652 0.135668
O O9 0.000000 0.500000 0.500000
O O10 0.838093 0.875375 0.132764
O O11 0.000000 0.000000 0.500000
O O12 0.500000 0.000000 0.000000
#
# Coordination Sequence:
#
# PCOD9069911 Si02
#       5
#     2   2   2   2   2
#     4  12  26  47  74 106 150 191 247 307 367 440
#     4  12  25  45  70 105 151 199 246 299 362 443
#     4  12  26  49  78 107 146 195 247 313 373 429
#     4  12  25  48  73 106 152 191 246 311 363 441
#     4  12  24  43  70 104 147 195 242 295 363 438
#
# _framework density 25.495131000000001
#
# number of rings (size 3 to 8) (size 9 to 14) (size 15 to 20)
#    0.000    0.000    4.000    6.000    0.000    4.800 
#    0.000    0.000    0.000    0.000    0.000    0.000 
#    0.000    0.000    0.000    0.000    0.000    0.000 
#
# Total GULP energy -55962.215487 kJ/mol
# GULP energy per Si atom -5596.221549 kJ/mol
# Density = 2.543710 g / cm^3
# Si number density = 25.495131 Si / 1000 Ang^3
#
#
#
# Elastic Constant Matrix: (Units=GPa)
#
#
# Indices 1 2 3 4 5 6 
#
# 1 174.4357 34.7779 46.7968 -6.6119 29.5251 33.6725
# 2 34.7779 16.1490 30.0386 -4.5182 -12.1404 14.6592
# 3 46.7968 30.0386 157.6481 19.1177 7.5393 16.9819
# 4 -6.6119 -4.5182 19.1177 40.1215 6.8767 0.4524
# 5 29.5251 -12.1404 7.5393 6.8767 66.7064 2.1527
# 6 33.6725 14.6592 16.9819 0.4524 2.1527 45.3132
#
#
#
# Elastic Compliance Matrix: (Units=1/GPa)
#
#
# Indices 1 2 3 4 5 6 
#
# 1 -0.089798 0.573160 -0.087763 0.066893 0.150103 -0.093601
# 2 0.573160 -3.361673 0.503004 -0.375318 -0.900432 0.519628
# 3 -0.087763 0.503004 -0.067723 0.052167 0.135219 -0.079073
# 4 0.066893 -0.375318 0.052167 -0.013957 -0.104219 0.057250
# 5 0.150103 -0.900432 0.135219 -0.104219 -0.224405 0.140781
# 6 -0.093601 0.519628 -0.079073 0.057250 0.140781 -0.054106
#
#
# Mechanical properties :
#
#
# Convention : Reuss Voigt Hill
#
# Bulk Modulus (GPa) = -0.64834 63.49550 31.42358
# Shear Modulus (GPa) = -0.79332 46.20284 22.70476
#
# Velocity S-wave (km/s) = -0.55843 4.26164 2.98745
# Velocity P-wave (km/s) = 0.81893 7.01245 4.92462
#
# Compressibility (1/GPa) = -1.54239336
#
# Stress axis : x y z
#
# Youngs Moduli (GPa) = -11.13609 -0.29747 -14.76592
#
# Poissons Ratio (x) = 0.17050 -1.29590
# Poissons Ratio (y) = 6.38276 7.42732
# Poissons Ratio (z) = -0.97734 0.14963
#
# Static dielectric constant tensor:
#      x y z
#    x 2.049880 0.019220 0.016330 
#    y 0.019220 2.079740 -0.049850 
#    z 0.016330 -0.049850 1.939470 
# 
# From -- ./inp_files/194269.got.cif
#   From: 2010.05.17/outbox.cif.g08.bks.cpg/sg2_98_cif.got.tgz:194269.got - 2010.06.03 11:33:40.
