data_PCOD9069203
_publ_section_title
;
Structure prediction by ZEFSAII (Michael W. Deem and Ramdas Pophale) SiO2 
 PCOD9069203
Probable space group: P -1
;
_chemical_formula_sum "Si O2"
_cell_formula_units_Z 14
_cell_length_a 8.419167
_cell_length_b 14.053203
_cell_length_c 13.638175
_cell_angle_alpha 148.248535
_cell_angle_beta 134.817630
_cell_angle_gamma 39.591707
_cell_volume 535.224118
_symmetry_space_group_name_H-M "P -1"
_symmetry_group_IT_number 2
_symmetry_cell_setting 'triclinic'
loop_
_space_group_symop_operation_xyz
x,y,z
-x,-y,-z
loop_
_atom_site_type_symbol
_atom_site_label
_atom_site_fract_x
_atom_site_fract_y
_atom_site_fract_z
Si Si1 0.746360 0.719057 0.135763
Si Si2 0.554703 0.060539 0.971093
Si Si3 0.188702 0.785071 0.443301
Si Si4 0.651686 0.082235 0.704158
Si Si5 0.477080 0.581297 0.212102
Si Si6 0.794715 0.272618 0.376070
Si Si7 0.941766 0.609427 0.677620
O O1 0.496761 0.866328 0.215284
O O2 0.998985 0.683443 0.268354
O O3 0.696719 0.829466 0.106673
O O4 0.703728 0.522618 0.944613
O O5 0.764913 0.851790 0.828906
O O6 0.500000 0.000000 0.000000
O O7 0.635099 0.238254 0.189357
O O8 0.422436 0.701515 0.397196
O O9 0.269543 0.767069 0.575737
O O10 0.000000 0.000000 0.500000
O O11 0.624065 0.275557 0.800700
O O12 0.500000 0.000000 0.500000
O O13 0.932056 0.912751 0.687009
O O14 0.775577 0.443336 0.209125
O O15 0.823451 0.478554 0.566881
O O16 0.000000 0.500000 0.500000
#
# Coordination Sequence:
#
# PCOD9069203 Si02
#       7
#     2   2   2   2   2   2   2
#     4  12  26  48  74 108 150 194 254 314 376 443
#     4  12  31  51  76 113 157 201 256 314 376 453
#     4  12  25  46  77 107 150 197 248 311 386 444
#     4  12  22  45  75 109 144 190 245 313 375 447
#     4  12  26  45  76 114 146 191 257 317 376 449
#     4  12  26  48  79 110 152 198 253 310 382 449
#     4  12  28  49  79 109 153 207 255 305 381 456
#
# _framework density 26.157267999999998
#
# number of rings (size 3 to 8) (size 9 to 14) (size 15 to 20)
#    0.000    0.000    4.286    4.286    6.000    3.429 
#    0.000    0.000    0.000    0.000    0.000    0.000 
#    0.000    0.000    0.000    0.000    0.000    0.000 
#
# Total GULP energy -78422.708723 kJ/mol
# GULP energy per Si atom -5601.622052 kJ/mol
# Density = 2.609773 g / cm^3
# Si number density = 26.157268 Si / 1000 Ang^3
#
#
#
# Elastic Constant Matrix: (Units=GPa)
#
#
# Indices 1 2 3 4 5 6 
#
# 1 97.8015 38.5917 25.0398 7.2451 -13.8590 1.5880
# 2 38.5917 109.3691 28.5943 -1.6666 -8.9431 -7.3333
# 3 25.0398 28.5943 104.9055 2.4831 -3.2628 7.1469
# 4 7.2451 -1.6666 2.4831 39.7023 9.4925 1.9955
# 5 -13.8590 -8.9431 -3.2628 9.4925 39.0881 6.7215
# 6 1.5880 -7.3333 7.1469 1.9955 6.7215 60.0349
#
#
#
# Elastic Compliance Matrix: (Units=1/GPa)
#
#
# Indices 1 2 3 4 5 6 
#
# 1 0.013163 -0.003922 -0.001775 -0.003516 0.004651 -0.001020
# 2 -0.003922 0.011285 -0.002267 0.001143 0.000438 0.001665
# 3 -0.001775 -0.002267 0.010688 -0.000387 0.000096 -0.001500
# 4 -0.003516 0.001143 -0.000387 0.027754 -0.007797 0.000229
# 5 0.004651 0.000438 0.000096 -0.007797 0.029777 -0.003156
# 6 -0.001020 0.001665 -0.001500 0.000229 -0.003156 0.017412
#
#
# Mechanical properties :
#
#
# Convention : Reuss Voigt Hill
#
# Bulk Modulus (GPa) = 52.06215 55.16971 53.61593
# Shear Modulus (GPa) = 37.76164 42.42176 40.09170
#
# Velocity S-wave (km/s) = 3.80365 4.03152 3.91924
# Velocity P-wave (km/s) = 6.26395 6.54280 6.40489
#
# Compressibility (1/GPa) = 0.01920781
#
# Stress axis : x y z
#
# Youngs Moduli (GPa) = 75.96986 88.61478 93.55992
#
# Poissons Ratio (x) = 0.34756 0.16611
# Poissons Ratio (y) = 0.29797 0.21206
# Poissons Ratio (z) = 0.13488 0.20085
#
# Static dielectric constant tensor:
#      x y z
#    x 1.810570 -0.052290 0.120230 
#    y -0.052290 1.943690 0.087140 
#    z 0.120230 0.087140 2.167690 
# 
# From -- ./inp_files/446863.got.cif
#   From: 2010.05.17/outbox.cif.g08.bks.cpg/sg2_224_cif.got.tgz:446863.got - 2010.06.03 11:33:40.
