data_PCOD9069522
_publ_section_title
;
Structure prediction by ZEFSAII (Michael W. Deem and Ramdas Pophale) SiO2 
 PCOD9069522
Probable space group: P -1
;
_chemical_formula_sum "Si O2"
_cell_formula_units_Z 16
_cell_length_a 11.204630
_cell_length_b 12.066771
_cell_length_c 10.518534
_cell_angle_alpha 108.919517
_cell_angle_beta 93.646252
_cell_angle_gamma 144.564295
_cell_volume 625.384587
_symmetry_space_group_name_H-M "P -1"
_symmetry_group_IT_number 2
_symmetry_cell_setting 'triclinic'
loop_
_space_group_symop_operation_xyz
x,y,z
-x,-y,-z
loop_
_atom_site_type_symbol
_atom_site_label
_atom_site_fract_x
_atom_site_fract_y
_atom_site_fract_z
Si Si1 0.068130 0.989715 0.184530
Si Si2 0.399043 0.838390 0.816118
Si Si3 0.897996 0.539023 0.702920
Si Si4 0.335026 0.544745 0.144472
Si Si5 0.489091 0.487736 0.655537
Si Si6 0.888893 0.641060 0.361370
Si Si7 0.152019 0.958069 0.744225
Si Si8 0.345349 0.022405 0.346273
O O1 0.943038 0.991210 0.247968
O O2 0.849187 0.711679 0.022320
O O3 0.257615 0.216575 0.182063
O O4 0.257075 0.073103 0.310752
O O5 0.600548 0.016469 0.781666
O O6 0.114798 0.642992 0.702775
O O7 0.340029 0.650674 0.764968
O O8 0.500000 0.000000 0.000000
O O9 0.823008 0.481505 0.823841
O O10 0.627383 0.278153 0.521339
O O11 0.022584 0.777112 0.783305
O O12 0.482930 0.609250 0.299176
O O13 0.544582 0.771587 0.143964
O O14 0.500000 0.500000 0.500000
O O15 0.248838 0.350868 0.646270
O O16 0.041457 0.785085 0.557151
O O17 0.106647 0.787358 0.333018
#
# Coordination Sequence:
#
# PCOD9069522 Si02
#       8
#     2   2   2   2   2   2   2   2
#     4  12  24  43  71 106 149 184 227 289 357 412
#     4  12  29  50  73 102 139 181 237 305 359 408
#     4  12  26  46  75 100 137 189 239 288 349 420
#     4  12  26  43  69 109 147 182 228 293 352 416
#     4  12  23  44  75 103 147 190 234 282 350 427
#     4  12  26  44  76 103 137 191 239 288 351 418
#     4  12  25  43  72 106 144 186 234 281 352 428
#     4  12  26  48  74 104 139 183 241 291 348 429
#
# _framework density 25.584258999999999
#
# number of rings (size 3 to 8) (size 9 to 14) (size 15 to 20)
#    0.000    0.000    6.250    3.375    0.000    4.000 
#    0.000    0.000    0.000    0.000    0.000    0.000 
#    0.000    0.000    0.000    0.000    0.000    0.000 
#
# Total GULP energy -89450.038151 kJ/mol
# GULP energy per Si atom -5590.627384 kJ/mol
# Density = 2.552603 g / cm^3
# Si number density = 25.584259 Si / 1000 Ang^3
#
#
#
# Elastic Constant Matrix: (Units=GPa)
#
#
# Indices 1 2 3 4 5 6 
#
# 1 74.0952 16.2512 7.3556 -20.8585 -8.3921 34.2471
# 2 16.2512 137.3502 27.2151 6.8671 1.2387 48.4129
# 3 7.3556 27.2151 103.7535 6.1081 -18.3273 12.8661
# 4 -20.8585 6.8671 6.1081 21.8618 12.6382 -7.9631
# 5 -8.3921 1.2387 -18.3273 12.6382 33.1281 -0.5631
# 6 34.2471 48.4129 12.8661 -7.9631 -0.5631 54.1183
#
#
#
# Elastic Compliance Matrix: (Units=1/GPa)
#
#
# Indices 1 2 3 4 5 6 
#
# 1 0.025330 0.001118 -0.002287 0.021513 -0.003324 -0.013355
# 2 0.001118 0.012161 -0.000763 -0.008566 0.002459 -0.012640
# 3 -0.002287 -0.000763 0.013269 -0.013603 0.011930 -0.002902
# 4 0.021513 -0.008566 -0.013603 0.099909 -0.039674 0.011571
# 5 -0.003324 0.002459 0.011930 -0.039674 0.050847 -0.008242
# 6 -0.013355 -0.012640 -0.002902 0.011571 -0.008242 0.040543
#
#
# Mechanical properties :
#
#
# Convention : Reuss Voigt Hill
#
# Bulk Modulus (GPa) = 21.32377 46.31585 33.81981
# Shear Modulus (GPa) = 19.11651 39.44676 29.28163
#
# Velocity S-wave (km/s) = 2.73646 3.93088 3.38674
# Velocity P-wave (km/s) = 4.28218 6.22455 5.34238
#
# Compressibility (1/GPa) = 0.04689603
#
# Stress axis : x y z
#
# Youngs Moduli (GPa) = 39.47855 82.23112 75.36615
#
# Poissons Ratio (x) = -0.09191 0.17233
# Poissons Ratio (y) = -0.04413 0.05750
# Poissons Ratio (z) = 0.09027 0.06274
#
# Static dielectric constant tensor:
#      x y z
#    x 2.067200 -0.049430 0.050820 
#    y -0.049430 2.046690 -0.053880 
#    z 0.050820 -0.053880 2.089530 
# 
# From -- ./inp_files/434202.got.cif
#   From: 2010.05.17/outbox.cif.g08.bks.cpg/sg2_218_cif.got.tgz:434202.got - 2010.06.03 11:33:40.
