data_PCOD9069171
_publ_section_title
;
Structure prediction by ZEFSAII (Michael W. Deem and Ramdas Pophale) SiO2 
 PCOD9069171
Probable space group: P -1
;
_chemical_formula_sum "Si O2"
_cell_formula_units_Z 16
_cell_length_a 9.933165
_cell_length_b 10.947180
_cell_length_c 14.199446
_cell_angle_alpha 147.287395
_cell_angle_beta 92.363651
_cell_angle_gamma 67.069464
_cell_volume 628.332877
_symmetry_space_group_name_H-M "P -1"
_symmetry_group_IT_number 2
_symmetry_cell_setting 'triclinic'
loop_
_space_group_symop_operation_xyz
x,y,z
-x,-y,-z
loop_
_atom_site_type_symbol
_atom_site_label
_atom_site_fract_x
_atom_site_fract_y
_atom_site_fract_z
Si Si1 0.228953 0.649715 0.304807
Si Si2 0.161209 0.492599 0.474973
Si Si3 0.239225 0.572642 0.842445
Si Si4 0.883600 0.718122 0.939632
Si Si5 0.194972 0.926948 0.659801
Si Si6 0.646432 0.529896 0.009339
Si Si7 0.360926 0.902732 0.982088
Si Si8 0.456705 0.211449 0.447872
O O1 0.163702 0.926995 0.547832
O O2 0.432103 0.368030 0.163298
O O3 0.116583 0.546909 0.250523
O O4 0.240981 0.672296 0.208494
O O5 0.126733 0.770804 0.604560
O O6 0.270718 0.432296 0.532184
O O7 0.000000 0.500000 0.500000
O O8 0.294958 0.204652 0.225092
O O9 0.258299 0.540873 0.934471
O O10 0.249971 0.820802 0.972720
O O11 0.406721 0.281177 0.601783
O O12 0.057370 0.648816 0.859013
O O13 0.878868 0.786576 0.094255
O O14 0.706628 0.006896 0.068790
O O15 0.408150 0.741106 0.548282
O O16 0.549272 0.872929 0.206581
O O17 0.500000 0.500000 0.000000
#
# Coordination Sequence:
#
# PCOD9069171 Si02
#       8
#     2   2   2   2   2   2   2   2
#     4  12  25  44  71 102 140 188 240 283 354 420
#     4  12  24  39  69 110 150 182 229 296 366 420
#     4  12  26  45  72 103 145 187 240 295 357 414
#     4  12  26  45  70 107 149 177 230 308 363 414
#     4  12  25  44  72 106 143 189 237 288 355 431
#     4  12  24  49  74  99 142 192 247 292 340 429
#     4  12  22  44  70 103 143 188 228 293 356 427
#     4  12  24  44  72 105 137 191 244 288 349 430
#
# _framework density 25.464207999999999
#
# number of rings (size 3 to 8) (size 9 to 14) (size 15 to 20)
#    0.000    0.000    6.250    3.750    1.750    0.500 
#    0.000    0.625    0.000    0.000    0.000    0.000 
#    0.000    0.000    0.000    0.000    0.000    0.000 
#
# Total GULP energy -89662.583028 kJ/mol
# GULP energy per Si atom -5603.911439 kJ/mol
# Density = 2.540625 g / cm^3
# Si number density = 25.464208 Si / 1000 Ang^3
#
#
#
# Elastic Constant Matrix: (Units=GPa)
#
#
# Indices 1 2 3 4 5 6 
#
# 1 184.2152 25.5319 2.2306 1.5541 3.6372 -5.4526
# 2 25.5319 100.5992 15.2865 -32.0665 -10.4610 0.4661
# 3 2.2306 15.2865 87.5331 -39.5954 3.1711 -11.7038
# 4 1.5541 -32.0665 -39.5954 45.5486 0.2805 -2.7048
# 5 3.6372 -10.4610 3.1711 0.2805 37.0912 2.4380
# 6 -5.4526 0.4661 -11.7038 -2.7048 2.4380 27.5322
#
#
#
# Elastic Compliance Matrix: (Units=1/GPa)
#
#
# Indices 1 2 3 4 5 6 
#
# 1 0.005811 -0.002225 -0.000631 -0.002258 -0.001179 0.000803
# 2 -0.002225 0.014748 0.003935 0.013976 0.003803 0.002019
# 3 -0.000631 0.003935 0.023124 0.023624 -0.001780 0.012117
# 4 -0.002258 0.013976 0.023624 0.053265 0.000786 0.014522
# 5 -0.001179 0.003803 -0.001780 0.000786 0.028525 -0.003503
# 6 0.000803 0.002019 0.012117 0.014522 -0.003503 0.043334
#
#
# Mechanical properties :
#
#
# Convention : Reuss Voigt Hill
#
# Bulk Modulus (GPa) = 21.81405 50.93839 36.37622
# Shear Modulus (GPa) = 27.48329 43.98763 35.73546
#
# Velocity S-wave (km/s) = 3.28882 4.16074 3.75021
# Velocity P-wave (km/s) = 4.79655 6.56732 5.75051
#
# Compressibility (1/GPa) = 0.04584202
#
# Stress axis : x y z
#
# Youngs Moduli (GPa) = 172.10100 67.80456 43.24493
#
# Poissons Ratio (x) = 0.15086 0.02729
# Poissons Ratio (y) = 0.38292 -0.17019
# Poissons Ratio (z) = 0.10859 -0.26684
#
# Static dielectric constant tensor:
#      x y z
#    x 1.958410 -0.020590 -0.032160 
#    y -0.020590 2.033710 -0.016920 
#    z -0.032160 -0.016920 2.016030 
# 
# From -- ./inp_files/306931.got.cif
#   From: 2010.05.17/outbox.cif.g08.bks.cpg/sg2_154_cif.got.tgz:306931.got - 2010.06.03 11:33:40.
