data_PCOD9069576
_publ_section_title
;
Structure prediction by ZEFSAII (Michael W. Deem and Ramdas Pophale) SiO2 
 PCOD9069576
Probable space group: P -1
;
_chemical_formula_sum "Si O2"
_cell_formula_units_Z 14
_cell_length_a 8.705917
_cell_length_b 8.337039
_cell_length_c 11.537995
_cell_angle_alpha 121.185305
_cell_angle_beta 112.461182
_cell_angle_gamma 56.437909
_cell_volume 591.579583
_symmetry_space_group_name_H-M "P -1"
_symmetry_group_IT_number 2
_symmetry_cell_setting 'triclinic'
loop_
_space_group_symop_operation_xyz
x,y,z
-x,-y,-z
loop_
_atom_site_type_symbol
_atom_site_label
_atom_site_fract_x
_atom_site_fract_y
_atom_site_fract_z
Si Si1 0.623019 0.621545 0.609658
Si Si2 0.346835 0.224714 0.574178
Si Si3 0.984695 0.966317 0.346300
Si Si4 0.643394 0.307374 0.781616
Si Si5 0.957984 0.592045 0.275808
Si Si6 0.622788 0.248496 0.227735
Si Si7 0.170344 0.769802 0.947795
O O1 0.500000 0.500000 0.500000
O O2 0.673540 0.663537 0.511531
O O3 0.486818 0.813462 0.726175
O O4 0.822773 0.504632 0.680977
O O5 0.459915 0.273835 0.726409
O O6 0.149306 0.286408 0.594375
O O7 0.500000 0.000000 0.500000
O O8 0.918941 0.779998 0.243022
O O9 0.186438 0.873618 0.308306
O O10 0.824260 0.173944 0.320016
O O11 0.000000 0.000000 0.500000
O O12 0.549257 0.521377 0.760677
O O13 0.723005 0.311823 0.931160
O O14 0.903675 0.401782 0.170148
O O15 0.697231 0.198394 0.098374
O O16 0.000000 0.000000 0.000000
#
# Coordination Sequence:
#
# PCOD9069576 Si02
#       7
#     2   2   2   2   2   2   2
#     4  12  23  45  74 107 150 196 239 314 390 441
#     4  12  26  43  75 113 149 195 255 312 388 455
#     4  12  26  46  78 114 151 196 251 316 391 459
#     4  12  25  50  75 105 160 199 249 320 379 446
#     4  12  26  47  74 115 153 196 260 314 370 465
#     4  12  24  49  75 105 148 205 249 310 383 442
#     4  12  28  52  78 107 151 210 262 311 376 450
#
# _framework density 23.665457
#
# number of rings (size 3 to 8) (size 9 to 14) (size 15 to 20)
#    0.000    0.000    5.714    4.286    2.000    1.714 
#    0.000    1.429    0.000    0.000    0.000    0.000 
#    0.000    0.000    0.000    0.000    0.000    0.000 
#
# Total GULP energy -77959.123416 kJ/mol
# GULP energy per Si atom -5568.508815 kJ/mol
# Density = 2.361159 g / cm^3
# Si number density = 23.665457 Si / 1000 Ang^3
#
#
#
# Elastic Constant Matrix: (Units=GPa)
#
#
# Indices 1 2 3 4 5 6 
#
# 1 152.4514 31.8099 36.8863 11.9359 -31.4497 -45.3148
# 2 31.8099 126.2312 43.0713 -12.7001 1.9148 -36.0285
# 3 36.8863 43.0713 100.5893 -17.7152 -18.9069 -12.1311
# 4 11.9359 -12.7001 -17.7152 44.2933 0.8927 1.5992
# 5 -31.4497 1.9148 -18.9069 0.8927 29.9095 10.9450
# 6 -45.3148 -36.0285 -12.1311 1.5992 10.9450 55.2743
#
#
#
# Elastic Compliance Matrix: (Units=1/GPa)
#
#
# Indices 1 2 3 4 5 6 
#
# 1 0.011340 -0.000697 -0.002313 -0.004592 0.008135 0.006857
# 2 -0.000697 0.012428 -0.005323 0.001496 -0.007816 0.007866
# 3 -0.002313 -0.005323 0.015145 0.005119 0.008766 -0.003926
# 4 -0.004592 0.001496 0.005119 0.026401 -0.001711 -0.002091
# 5 0.008135 -0.007816 0.008766 -0.001711 0.050437 -0.006440
# 6 0.006857 0.007866 -0.003926 -0.002091 -0.006440 0.029314
#
#
# Mechanical properties :
#
#
# Convention : Reuss Voigt Hill
#
# Bulk Modulus (GPa) = 44.94935 66.97853 55.96394
# Shear Modulus (GPa) = 29.56018 43.72906 36.64462
#
# Velocity S-wave (km/s) = 3.53807 4.30327 3.93930
# Velocity P-wave (km/s) = 5.97708 7.28385 6.66258
#
# Compressibility (1/GPa) = 0.02224726
#
# Stress axis : x y z
#
# Youngs Moduli (GPa) = 88.17970 80.46436 66.02974
#
# Poissons Ratio (x) = 0.05606 0.15273
# Poissons Ratio (y) = 0.06144 0.35148
# Poissons Ratio (z) = 0.20396 0.42832
#
# Static dielectric constant tensor:
#      x y z
#    x 1.893760 0.114110 -0.003170 
#    y 0.114110 2.183900 0.072130 
#    z -0.003170 0.072130 1.938980 
# 
# From -- ./inp_files/383343.got.cif
#   From: 2010.05.17/outbox.cif.g08.bks.cpg/sg2_192_cif.got.tgz:383343.got - 2010.06.03 11:33:40.
