data_PCOD9069720
_publ_section_title
;
Structure prediction by ZEFSAII (Michael W. Deem and Ramdas Pophale) SiO2 
 PCOD9069720
Probable space group: P -1
;
_chemical_formula_sum "Si O2"
_cell_formula_units_Z 14
_cell_length_a 9.120651
_cell_length_b 23.587339
_cell_length_c 12.678404
_cell_angle_alpha 23.739545
_cell_angle_beta 127.872504
_cell_angle_gamma 140.274306
_cell_volume 657.312079
_symmetry_space_group_name_H-M "P -1"
_symmetry_group_IT_number 2
_symmetry_cell_setting 'triclinic'
loop_
_space_group_symop_operation_xyz
x,y,z
-x,-y,-z
loop_
_atom_site_type_symbol
_atom_site_label
_atom_site_fract_x
_atom_site_fract_y
_atom_site_fract_z
Si Si1 0.013693 0.944866 0.716702
Si Si2 0.811307 0.012894 0.838415
Si Si3 0.519308 0.064205 0.780367
Si Si4 0.336990 0.471941 0.744473
Si Si5 0.594947 0.395270 0.683542
Si Si6 0.126353 0.271127 0.354936
Si Si7 0.904816 0.499297 0.219844
O O1 0.245918 0.956589 0.804540
O O2 0.065951 0.096300 0.563963
O O3 0.000000 0.000000 0.500000
O O4 0.771891 0.732599 0.990076
O O5 0.666723 0.027769 0.836924
O O6 0.611684 0.821778 0.013977
O O7 0.957590 0.185619 0.529575
O O8 0.000000 0.000000 0.000000
O O9 0.670957 0.283773 0.467789
O O10 0.500000 0.000000 0.000000
O O11 0.374574 0.581009 0.470183
O O12 0.921353 0.623471 0.924239
O O13 0.145149 0.446743 0.783439
O O14 0.500000 0.500000 0.500000
O O15 0.853048 0.476360 0.707902
O O16 0.407237 0.413493 0.275430
#
# Coordination Sequence:
#
# PCOD9069720 Si02
#       7
#     2   2   2   2   2   2   2
#     4  12  24  45  73 106 142 182 234 292 354 419
#     4  12  25  47  71 100 144 188 235 291 356 419
#     4  12  25  46  74 105 140 186 242 291 348 428
#     4  12  23  47  76 101 144 186 238 291 348 427
#     4  12  26  47  71 103 140 188 242 292 354 427
#     4  12  26  48  71 108 146 185 234 298 358 422
#     4  12  25  45  72 107 142 183 241 295 353 418
#
# _framework density 21.298863999999998
#
# number of rings (size 3 to 8) (size 9 to 14) (size 15 to 20)
#    0.000    0.000    4.286    6.857    0.000    1.143 
#    2.571    0.000    0.000    0.000    0.000    0.000 
#    0.000    0.000    0.000    0.000    0.000    0.000 
#
# Total GULP energy -78438.038954 kJ/mol
# GULP energy per Si atom -5602.717068 kJ/mol
# Density = 2.125039 g / cm^3
# Si number density = 21.298864 Si / 1000 Ang^3
#
#
#
# Elastic Constant Matrix: (Units=GPa)
#
#
# Indices 1 2 3 4 5 6 
#
# 1 143.5008 48.0986 53.7130 16.7088 -2.9530 -0.0954
# 2 48.0986 121.0295 40.2360 -5.2485 -2.0566 8.5485
# 3 53.7130 40.2360 125.4182 -9.3098 -4.7929 2.5110
# 4 16.7088 -5.2485 -9.3098 54.2491 -8.2881 3.4462
# 5 -2.9530 -2.0566 -4.7929 -8.2881 32.5151 -5.5027
# 6 -0.0954 8.5485 2.5110 3.4462 -5.5027 19.6035
#
#
#
# Elastic Compliance Matrix: (Units=1/GPa)
#
#
# Indices 1 2 3 4 5 6 
#
# 1 0.009821 -0.003068 -0.003598 -0.004168 -0.000481 0.002444
# 2 -0.003068 0.010505 -0.001826 0.001920 -0.000199 -0.004755
# 3 -0.003598 -0.001826 0.010404 0.003024 0.001762 -0.000591
# 4 -0.004168 0.001920 0.003024 0.021420 0.005040 -0.003596
# 5 -0.000481 -0.000199 0.001762 0.005040 0.033669 0.008423
# 6 0.002444 -0.004755 -0.000591 -0.003596 0.008423 0.056169
#
#
# Mechanical properties :
#
#
# Convention : Reuss Voigt Hill
#
# Bulk Modulus (GPa) = 72.75777 74.89374 73.82575
# Shear Modulus (GPa) = 30.57098 37.80026 34.18562
#
# Velocity S-wave (km/s) = 3.79269 4.21735 4.01065
# Velocity P-wave (km/s) = 7.30848 7.67817 7.49561
#
# Compressibility (1/GPa) = 0.01374424
#
# Stress axis : x y z
#
# Youngs Moduli (GPa) = 101.82297 95.19696 96.11855
#
# Poissons Ratio (x) = 0.29209 0.34588
# Poissons Ratio (y) = 0.31242 0.17550
# Poissons Ratio (z) = 0.36640 0.17382
#
# Static dielectric constant tensor:
#      x y z
#    x 1.784120 -0.001290 0.023320 
#    y -0.001290 1.749160 -0.026990 
#    z 0.023320 -0.026990 1.775470 
# 
# From -- ./inp_files/508976.got.cif
#   From: 2010.05.17/outbox.cif.g08.bks.cpg/sg2_255_cif.got.tgz:508976.got - 2010.06.03 11:33:40.
