data_PCOD9069967
_publ_section_title
;
Structure prediction by ZEFSAII (Michael W. Deem and Ramdas Pophale) SiO2 
 PCOD9069967
Probable space group: P -1
;
_chemical_formula_sum "Si O2"
_cell_formula_units_Z 16
_cell_length_a 16.213106
_cell_length_b 8.889864
_cell_length_c 8.860675
_cell_angle_alpha 131.321747
_cell_angle_beta 104.120887
_cell_angle_gamma 104.881020
_cell_volume 761.791812
_symmetry_space_group_name_H-M "P -1"
_symmetry_group_IT_number 2
_symmetry_cell_setting 'triclinic'
loop_
_space_group_symop_operation_xyz
x,y,z
-x,-y,-z
loop_
_atom_site_type_symbol
_atom_site_label
_atom_site_fract_x
_atom_site_fract_y
_atom_site_fract_z
Si Si1 0.992424 0.836482 0.031864
Si Si2 0.638874 0.652528 0.395208
Si Si3 0.910795 0.364598 0.244501
Si Si4 0.294338 0.154506 0.110182
Si Si5 0.843860 0.729323 0.397492
Si Si6 0.552234 0.896533 0.049732
Si Si7 0.606124 0.049921 0.512913
Si Si8 0.215833 0.403903 0.047041
O O1 0.063179 0.026688 0.319690
O O2 0.037492 0.682217 0.902908
O O3 0.875531 0.658111 0.920773
O O4 0.000000 0.000000 0.000000
O O5 0.656627 0.714487 0.622050
O O6 0.737706 0.664899 0.383556
O O7 0.536042 0.386218 0.142719
O O8 0.624716 0.849467 0.443518
O O9 0.865598 0.522767 0.295625
O O10 0.000000 0.500000 0.500000
O O11 0.817931 0.094551 0.076473
O O12 0.362505 0.086741 0.007638
O O13 0.282860 0.329364 0.113659
O O14 0.834577 0.752373 0.230430
O O15 0.500000 0.000000 0.000000
O O16 0.597539 0.037383 0.319869
O O17 0.706111 0.314848 0.778835
O O18 0.500000 0.000000 0.500000
#
# Coordination Sequence:
#
# PCOD9069967 Si02
#       8
#     2   2   2   2   2   2   2   2
#     4  12  24  48  70 104 141 185 233 291 351 414
#     4  12  24  47  71  98 145 185 231 294 351 416
#     4  12  25  43  74 100 142 187 230 287 355 415
#     4  12  24  44  69 102 137 184 235 288 351 416
#     4  12  25  46  69 104 140 186 232 285 353 416
#     4  12  25  42  70 105 137 182 238 289 349 422
#     4  12  26  47  70 104 142 187 234 288 356 415
#     4  12  26  44  71 102 140 182 236 291 346 422
#
# _framework density 21.003112999999999
#
# number of rings (size 3 to 8) (size 9 to 14) (size 15 to 20)
#    0.000    0.000    3.750    6.375    1.750    0.500 
#    2.250    0.000    0.000    0.000    0.000    0.000 
#    0.000    0.000    0.000    0.000    0.000    0.000 
#
# Total GULP energy -89639.420815 kJ/mol
# GULP energy per Si atom -5602.463801 kJ/mol
# Density = 2.095531 g / cm^3
# Si number density = 21.003113 Si / 1000 Ang^3
#
#
#
# Elastic Constant Matrix: (Units=GPa)
#
#
# Indices 1 2 3 4 5 6 
#
# 1 158.6054 19.4500 20.7526 -15.1142 -22.9070 10.1560
# 2 19.4500 55.4024 9.8041 -24.3317 -13.4080 -14.9781
# 3 20.7526 9.8041 95.5782 -6.2284 -3.7458 -3.2022
# 4 -15.1142 -24.3317 -6.2284 38.7770 2.5123 9.0410
# 5 -22.9070 -13.4080 -3.7458 2.5123 35.4496 7.3476
# 6 10.1560 -14.9781 -3.2022 9.0410 7.3476 42.7534
#
#
#
# Elastic Compliance Matrix: (Units=1/GPa)
#
#
# Indices 1 2 3 4 5 6 
#
# 1 0.007858 -0.001132 -0.001342 0.002694 0.005106 -0.003811
# 2 -0.001132 0.028993 -0.001207 0.015730 0.007817 0.005666
# 3 -0.001342 -0.001207 0.010910 0.000330 -0.000340 0.000702
# 4 0.002694 0.015730 0.000330 0.037314 0.005912 -0.004012
# 5 0.005106 0.007817 -0.000340 0.005912 0.035213 -0.005802
# 6 -0.003811 0.005666 0.000702 -0.004012 -0.005802 0.028178
#
#
# Mechanical properties :
#
#
# Convention : Reuss Voigt Hill
#
# Bulk Modulus (GPa) = 24.75395 45.51105 35.13250
# Shear Modulus (GPa) = 29.53450 40.70129 35.11789
#
# Velocity S-wave (km/s) = 3.75400 4.40690 4.09349
# Velocity P-wave (km/s) = 5.53186 6.90001 6.25346
#
# Compressibility (1/GPa) = 0.04039759
#
# Stress axis : x y z
#
# Youngs Moduli (GPa) = 127.26336 34.49144 91.66298
#
# Poissons Ratio (x) = 0.03906 0.12301
# Poissons Ratio (y) = 0.14410 0.11063
# Poissons Ratio (z) = 0.17078 0.04163
#
# Static dielectric constant tensor:
#      x y z
#    x 1.664090 0.023250 -0.023910 
#    y 0.023250 1.735360 0.001970 
#    z -0.023910 0.001970 1.723640 
# 
# From -- ./inp_files/208132.got.cif
#   From: 2010.05.17/outbox.cif.g08.bks.cpg/sg2_105_cif.got.tgz:208132.got - 2010.06.03 11:33:40.
