data_PCOD9069826
_publ_section_title
;
Structure prediction by ZEFSAII (Michael W. Deem and Ramdas Pophale) SiO2 
 PCOD9069826
Probable space group: P -1
;
_chemical_formula_sum "Si O2"
_cell_formula_units_Z 16
_cell_length_a 15.638546
_cell_length_b 12.074724
_cell_length_c 16.156419
_cell_angle_alpha 60.883719
_cell_angle_beta 37.383613
_cell_angle_gamma 31.683909
_cell_volume 782.309836
_symmetry_space_group_name_H-M "P -1"
_symmetry_group_IT_number 2
_symmetry_cell_setting 'triclinic'
loop_
_space_group_symop_operation_xyz
x,y,z
-x,-y,-z
loop_
_atom_site_type_symbol
_atom_site_label
_atom_site_fract_x
_atom_site_fract_y
_atom_site_fract_z
Si Si1 0.224969 0.500754 0.029094
Si Si2 0.207947 0.781708 0.668844
Si Si3 0.749337 0.969292 0.513958
Si Si4 0.170500 0.102879 0.188409
Si Si5 0.930809 0.536977 0.134333
Si Si6 0.886762 0.385080 0.476429
Si Si7 0.818307 0.739417 0.392775
Si Si8 0.724210 0.268171 0.167120
O O1 0.995258 0.617612 0.100936
O O2 0.048693 0.640205 0.199338
O O3 0.333828 0.548386 0.894008
O O4 0.501259 0.192200 0.937236
O O5 0.500000 0.500000 0.500000
O O6 0.221207 0.759712 0.766082
O O7 0.954106 0.898438 0.781339
O O8 0.161680 0.965308 0.615400
O O9 0.820510 0.797080 0.460969
O O10 0.897446 0.830597 0.538902
O O11 0.400277 0.246466 0.683789
O O12 0.128447 0.273678 0.119253
O O13 0.984580 0.248720 0.363199
O O14 0.000000 0.500000 0.000000
O O15 0.899602 0.527188 0.406619
O O16 0.558299 0.599310 0.671433
O O17 0.500000 0.000000 0.500000
O O18 0.000000 0.000000 0.000000
#
# Coordination Sequence:
#
# PCOD9069826 Si02
#       8
#     2   2   2   2   2   2   2   2
#     4  12  26  42  73 105 139 181 233 298 351 416
#     4  12  24  46  72 101 142 189 235 286 360 423
#     4  12  26  44  72 102 139 191 239 285 352 435
#     4  12  25  45  71 106 143 181 237 299 357 421
#     4  12  24  41  67 101 140 181 228 290 355 416
#     4  12  26  46  73 105 142 188 238 292 355 427
#     4  12  24  49  71  99 145 190 232 287 361 425
#     4  12  27  48  73 104 143 192 241 291 357 427
#
# _framework density 20.452254
#
# number of rings (size 3 to 8) (size 9 to 14) (size 15 to 20)
#    0.000    0.000    5.000    5.250    3.500    2.000 
#    0.000    2.500    0.000    0.000    0.000    0.000 
#    0.000    0.000    0.000    0.000    0.000    0.000 
#
# Total GULP energy -89542.129583 kJ/mol
# GULP energy per Si atom -5596.383099 kJ/mol
# Density = 2.040570 g / cm^3
# Si number density = 20.452254 Si / 1000 Ang^3
#
#
#
# Elastic Constant Matrix: (Units=GPa)
#
#
# Indices 1 2 3 4 5 6 
#
# 1 103.8793 22.9660 10.9366 -5.9438 6.7191 -5.2200
# 2 22.9660 93.5349 20.6287 -6.0412 14.6713 -15.4126
# 3 10.9366 20.6287 50.5175 -6.8470 19.8730 -5.7686
# 4 -5.9438 -6.0412 -6.8470 34.6222 1.4929 0.4013
# 5 6.7191 14.6713 19.8730 1.4929 38.1109 -5.6274
# 6 -5.2200 -15.4126 -5.7686 0.4013 -5.6274 27.2333
#
#
#
# Elastic Compliance Matrix: (Units=1/GPa)
#
#
# Indices 1 2 3 4 5 6 
#
# 1 0.010315 -0.002085 -0.000968 0.001231 -0.000489 0.000473
# 2 -0.002085 0.013345 -0.003248 0.001356 -0.002246 0.005981
# 3 -0.000968 -0.003248 0.027189 0.005185 -0.012810 0.001012
# 4 0.001231 0.001356 0.005185 0.030544 -0.004533 0.000715
# 5 -0.000489 -0.002246 -0.012810 -0.004533 0.034508 0.003119
# 6 0.000473 0.005981 0.001012 0.000715 0.003119 0.041043
#
#
# Mechanical properties :
#
#
# Convention : Reuss Voigt Hill
#
# Bulk Modulus (GPa) = 26.14600 39.66603 32.90601
# Shear Modulus (GPa) = 27.42808 32.88665 30.15737
#
# Velocity S-wave (km/s) = 3.66605 4.01430 3.84412
# Velocity P-wave (km/s) = 5.54360 6.39709 5.98558
#
# Compressibility (1/GPa) = 0.03824677
#
# Stress axis : x y z
#
# Youngs Moduli (GPa) = 96.94310 74.93573 36.78014
#
# Poissons Ratio (x) = 0.15624 0.03562
# Poissons Ratio (y) = 0.20213 0.11945
# Poissons Ratio (z) = 0.09388 0.24336
#
# Static dielectric constant tensor:
#      x y z
#    x 1.709820 -0.000930 0.045500 
#    y -0.000930 1.721250 -0.016600 
#    z 0.045500 -0.016600 1.773940 
# 
# From -- ./inp_files/522264.got.cif
#   From: 2010.05.17/outbox.cif.g08.bks.cpg/sg2_262_cif.got.tgz:522264.got - 2010.06.03 11:33:40.
