data_PCOD9069092
_publ_section_title
;
Structure prediction by ZEFSAII (Michael W. Deem and Ramdas Pophale) SiO2 
 PCOD9069092
Probable space group: P -1
;
_chemical_formula_sum "Si O2"
_cell_formula_units_Z 16
_cell_length_a 18.308254
_cell_length_b 12.116920
_cell_length_c 8.885975
_cell_angle_alpha 128.679455
_cell_angle_beta 132.375245
_cell_angle_gamma 33.043742
_cell_volume 785.213839
_symmetry_space_group_name_H-M "P -1"
_symmetry_group_IT_number 2
_symmetry_cell_setting 'triclinic'
loop_
_space_group_symop_operation_xyz
x,y,z
-x,-y,-z
loop_
_atom_site_type_symbol
_atom_site_label
_atom_site_fract_x
_atom_site_fract_y
_atom_site_fract_z
Si Si1 0.621582 0.260110 0.503466
Si Si2 0.843514 0.431295 0.355326
Si Si3 0.655321 0.820814 0.631899
Si Si4 0.161913 0.855312 0.036861
Si Si5 0.859951 0.869700 0.326738
Si Si6 0.125865 0.156248 0.032402
Si Si7 0.848187 0.562718 0.159845
Si Si8 0.574426 0.805315 0.833541
O O1 0.500000 0.500000 0.500000
O O2 0.727276 0.201749 0.733264
O O3 0.534814 0.205559 0.369830
O O4 0.729230 0.108375 0.387702
O O5 0.740477 0.608476 0.484914
O O6 0.865466 0.519295 0.324054
O O7 0.995162 0.238993 0.478222
O O8 0.786922 0.346650 0.130529
O O9 0.745215 0.870153 0.778048
O O10 0.636352 0.807919 0.769893
O O11 0.500000 0.000000 0.500000
O O12 0.151867 0.979847 0.996144
O O13 0.000000 0.000000 0.000000
O O14 0.824647 0.749968 0.240944
O O15 0.889389 0.834868 0.160768
O O16 0.986069 0.367068 0.095314
O O17 0.711481 0.614800 0.957777
O O18 0.500000 0.000000 0.000000
#
# Coordination Sequence:
#
# PCOD9069092 Si02
#       8
#     2   2   2   2   2   2   2   2
#     4  12  27  47  72 104 147 191 239 293 361 428
#     4  12  26  43  74 102 144 190 238 294 351 432
#     4  12  26  43  68 108 138 185 239 296 359 416
#     4  12  26  49  69 105 141 195 240 284 359 434
#     4  12  24  44  73 110 137 183 243 297 359 419
#     4  12  25  44  75 104 145 177 241 307 348 431
#     4  12  22  42  73 106 139 181 239 295 360 419
#     4  12  24  44  71 101 143 185 232 294 358 423
#
# _framework density 20.376614
#
# number of rings (size 3 to 8) (size 9 to 14) (size 15 to 20)
#    0.000    0.000    6.250    3.750    1.750    2.500 
#    0.000    1.875    0.000    0.000    0.000    0.000 
#    0.000    0.000    0.000    0.000    0.000    0.000 
#
# Total GULP energy -89544.667892 kJ/mol
# GULP energy per Si atom -5596.541743 kJ/mol
# Density = 2.033024 g / cm^3
# Si number density = 20.376614 Si / 1000 Ang^3
#
#
#
# Elastic Constant Matrix: (Units=GPa)
#
#
# Indices 1 2 3 4 5 6 
#
# 1 116.9226 62.0424 62.6852 15.8722 -3.0512 -6.0232
# 2 62.0424 120.8335 42.4016 -0.2851 -15.2442 -8.1644
# 3 62.6852 42.4016 124.4880 -1.8422 4.9396 -3.4869
# 4 15.8722 -0.2851 -1.8422 47.7924 -11.3537 6.3331
# 5 -3.0512 -15.2442 4.9396 -11.3537 44.8004 1.5507
# 6 -6.0232 -8.1644 -3.4869 6.3331 1.5507 37.9694
#
#
#
# Elastic Compliance Matrix: (Units=1/GPa)
#
#
# Indices 1 2 3 4 5 6 
#
# 1 0.015891 -0.006269 -0.005828 -0.006262 -0.002056 0.001766
# 2 -0.006269 0.012602 -0.001254 0.003122 0.004760 0.000885
# 3 -0.005828 -0.001254 0.011475 0.002057 -0.001553 -0.000420
# 4 -0.006262 0.003122 0.002057 0.025382 0.007003 -0.004653
# 5 -0.002056 0.004760 -0.001553 0.007003 0.025805 -0.001667
# 6 0.001766 0.000885 -0.000420 -0.004653 -0.001667 0.027613
#
#
# Mechanical properties :
#
#
# Convention : Reuss Voigt Hill
#
# Bulk Modulus (GPa) = 75.37668 77.38917 76.38293
# Shear Modulus (GPa) = 33.35735 39.12009 36.23872
#
# Velocity S-wave (km/s) = 4.05043 4.38637 4.22174
# Velocity P-wave (km/s) = 7.67767 7.98220 7.83142
#
# Compressibility (1/GPa) = 0.01326670
#
# Stress axis : x y z
#
# Youngs Moduli (GPa) = 62.92728 79.35022 87.14638
#
# Poissons Ratio (x) = 0.49746 0.50791
# Poissons Ratio (y) = 0.39450 0.10924
# Poissons Ratio (z) = 0.36676 0.09947
#
# Static dielectric constant tensor:
#      x y z
#    x 1.713910 0.015110 0.013230 
#    y 0.015110 1.725340 -0.025890 
#    z 0.013230 -0.025890 1.758810 
# 
# From -- ./inp_files/333810.got.cif
#   From: 2010.05.17/outbox.cif.g08.bks.cpg/sg2_167_cif.got.tgz:333810.got - 2010.06.03 11:33:40.
