data_PCOD9069983
_publ_section_title
;
Structure prediction by ZEFSAII (Michael W. Deem and Ramdas Pophale) SiO2 
 PCOD9069983
Probable space group: P -1
;
_chemical_formula_sum "Si O2"
_cell_formula_units_Z 10
_cell_length_a 12.493912
_cell_length_b 11.406380
_cell_length_c 12.225146
_cell_angle_alpha 38.581701
_cell_angle_beta 157.699801
_cell_angle_gamma 139.394485
_cell_volume 407.493719
_symmetry_space_group_name_H-M "P -1"
_symmetry_group_IT_number 2
_symmetry_cell_setting 'triclinic'
loop_
_space_group_symop_operation_xyz
x,y,z
-x,-y,-z
loop_
_atom_site_type_symbol
_atom_site_label
_atom_site_fract_x
_atom_site_fract_y
_atom_site_fract_z
Si Si1 0.741302 0.880285 0.280601
Si Si2 0.133444 0.519298 0.232871
Si Si3 0.932178 0.897694 0.199994
Si Si4 0.570256 0.302388 0.257091
Si Si5 0.364111 0.290015 0.310612
O O1 0.737140 0.666827 0.474407
O O2 0.790781 0.876862 0.200395
O O3 0.000000 0.000000 0.500000
O O4 0.500000 0.000000 0.000000
O O5 0.406309 0.681730 0.393882
O O6 0.000000 0.500000 0.000000
O O7 0.856471 0.556533 0.012718
O O8 0.132222 0.740292 0.477374
O O9 0.146385 0.094822 0.253918
O O10 0.678150 0.865425 0.895728
O O11 0.552372 0.306216 0.367811
O O12 0.500000 0.500000 0.000000
#
# Coordination Sequence:
#
# PCOD9069983 Si02
#       5
#     2   2   2   2   2
#     4  12  26  47  71 102 140 186 237 292 351 419
#     4  12  26  46  71 103 142 189 238 293 353 421
#     4  12  25  44  70 103 140 185 234 292 353 419
#     4  12  24  44  71 103 140 186 234 289 352 423
#     4  12  25  45  70 105 144 186 235 294 354 422
#
# _framework density 24.540254999999998
#
# number of rings (size 3 to 8) (size 9 to 14) (size 15 to 20)
#    0.000    0.000    0.000   10.800    0.000    3.200 
#    0.000    0.000    0.000    0.000    0.000    0.000 
#    0.000    0.000    0.000    0.000    0.000    0.000 
#
# Total GULP energy -56081.888911 kJ/mol
# GULP energy per Si atom -5608.188891 kJ/mol
# Density = 2.448440 g / cm^3
# Si number density = 24.540255 Si / 1000 Ang^3
#
#
#
# Elastic Constant Matrix: (Units=GPa)
#
#
# Indices 1 2 3 4 5 6 
#
# 1 174.7151 23.6800 62.5815 -24.3846 21.7116 -14.5749
# 2 23.6800 94.6712 32.0507 1.0458 -5.6319 -4.8595
# 3 62.5815 32.0507 175.4819 1.4357 34.2577 -18.4688
# 4 -24.3846 1.0458 1.4357 64.9582 -16.5291 -5.7252
# 5 21.7116 -5.6319 34.2577 -16.5291 55.5652 -5.2727
# 6 -14.5749 -4.8595 -18.4688 -5.7252 -5.2727 29.5626
#
#
#
# Elastic Compliance Matrix: (Units=1/GPa)
#
#
# Indices 1 2 3 4 5 6 
#
# 1 0.007291 -0.001068 -0.002039 0.002876 -0.000598 0.002596
# 2 -0.001068 0.011845 -0.002352 0.000333 0.003223 0.000590
# 3 -0.002039 -0.002352 0.008051 -0.001898 -0.004740 0.002425
# 4 0.002876 0.000333 -0.001898 0.018485 0.006048 0.004946
# 5 -0.000598 0.003223 -0.004740 0.006048 0.023530 0.002641
# 6 0.002596 0.000590 0.002425 0.004946 0.002641 0.038147
#
#
# Mechanical properties :
#
#
# Convention : Reuss Voigt Hill
#
# Bulk Modulus (GPa) = 61.46425 75.72138 68.59282
# Shear Modulus (GPa) = 40.42369 51.78761 46.10565
#
# Velocity S-wave (km/s) = 4.06302 4.59880 4.33919
# Velocity P-wave (km/s) = 6.86379 7.68905 7.28811
#
# Compressibility (1/GPa) = 0.01626962
#
# Stress axis : x y z
#
# Youngs Moduli (GPa) = 137.16019 84.42615 124.20137
#
# Poissons Ratio (x) = 0.09013 0.25320
# Poissons Ratio (y) = 0.14643 0.29217
# Poissons Ratio (z) = 0.27962 0.19861
#
# Static dielectric constant tensor:
#      x y z
#    x 1.913880 -0.068410 0.026730 
#    y -0.068410 1.970650 0.003850 
#    z 0.026730 0.003850 1.879140 
# 
# From -- ./inp_files/76522.got.cif
#   From: 2010.05.17/outbox.cif.g08.bks.cpg/sg2_39_cif.got.tgz:76522.got - 2010.06.03 11:33:40.
