data_PCOD9069625
_publ_section_title
;
Structure prediction by ZEFSAII (Michael W. Deem and Ramdas Pophale) SiO2 
 PCOD9069625
Probable space group: P -1
;
_chemical_formula_sum "Si O2"
_cell_formula_units_Z 16
_cell_length_a 8.940041
_cell_length_b 9.847477
_cell_length_c 16.293884
_cell_angle_alpha 85.347670
_cell_angle_beta 89.014523
_cell_angle_gamma 149.195149
_cell_volume 721.509507
_symmetry_space_group_name_H-M "P -1"
_symmetry_group_IT_number 2
_symmetry_cell_setting 'triclinic'
loop_
_space_group_symop_operation_xyz
x,y,z
-x,-y,-z
loop_
_atom_site_type_symbol
_atom_site_label
_atom_site_fract_x
_atom_site_fract_y
_atom_site_fract_z
Si Si1 0.333566 0.343378 0.697375
Si Si2 0.828524 0.009382 0.994609
Si Si3 0.105084 0.663243 0.775653
Si Si4 0.800069 0.473505 0.359427
Si Si5 0.200405 0.559988 0.936155
Si Si6 0.736650 0.081351 0.527447
Si Si7 0.023602 0.105938 0.411262
Si Si8 0.405333 0.154283 0.816103
O O1 0.191038 0.380625 0.700732
O O2 0.339143 0.255406 0.782125
O O3 0.661826 0.621278 0.645768
O O4 0.167084 0.124267 0.641490
O O5 0.755267 0.997036 0.088975
O O6 0.513043 0.763871 0.963492
O O7 0.000000 0.000000 0.000000
O O8 0.025233 0.281746 0.938873
O O9 0.133786 0.603174 0.694202
O O10 0.237144 0.672538 0.846341
O O11 0.757594 0.414153 0.808142
O O12 0.277691 0.942076 0.764445
O O13 0.030187 0.674422 0.421965
O O14 0.469389 0.193138 0.412218
O O15 0.000000 0.500000 0.000000
O O16 0.900832 0.151744 0.443283
O O17 0.500000 0.000000 0.500000
O O18 0.000000 0.000000 0.500000
#
# Coordination Sequence:
#
# PCOD9069625 Si02
#       8
#     2   2   2   2   2   2   2   2
#     4  12  26  44  71  98 138 180 227 281 353 412
#     4  12  26  46  74 108 144 182 243 293 342 413
#     4  12  27  45  73 100 144 184 230 285 351 418
#     4  12  26  48  65 104 138 178 228 283 347 417
#     4  12  23  48  75 102 140 192 234 286 348 418
#     4  12  27  44  71 100 135 174 235 289 337 404
#     4  12  23  46  71  95 130 182 227 282 340 413
#     4  12  26  47  68 105 140 183 231 283 348 422
#
# _framework density 22.175730000000001
#
# number of rings (size 3 to 8) (size 9 to 14) (size 15 to 20)
#    0.000    0.000    5.000    4.500    7.000    0.000 
#    2.250    0.000    0.000    0.000    0.000    0.000 
#    0.000    0.000    0.000    0.000    0.000    0.000 
#
# Total GULP energy -89594.435841 kJ/mol
# GULP energy per Si atom -5599.652240 kJ/mol
# Density = 2.212526 g / cm^3
# Si number density = 22.175730 Si / 1000 Ang^3
#
#
#
# Elastic Constant Matrix: (Units=GPa)
#
#
# Indices 1 2 3 4 5 6 
#
# 1 109.2885 21.4581 3.1654 9.1146 7.1896 -4.8086
# 2 21.4581 136.6908 13.3779 14.5269 4.6047 10.7185
# 3 3.1654 13.3779 43.2623 3.6998 8.5547 -6.1083
# 4 9.1146 14.5269 3.6998 33.8485 -11.3013 9.6983
# 5 7.1896 4.6047 8.5547 -11.3013 26.4123 -6.4336
# 6 -4.8086 10.7185 -6.1083 9.6983 -6.4336 35.3112
#
#
#
# Elastic Compliance Matrix: (Units=1/GPa)
#
#
# Indices 1 2 3 4 5 6 
#
# 1 0.010119 -0.001286 0.001210 -0.004407 -0.004218 0.002419
# 2 -0.001286 0.008337 -0.002138 -0.003017 -0.002353 -0.002676
# 3 0.001210 -0.002138 0.027236 -0.007558 -0.010632 0.005664
# 4 -0.004407 -0.003017 -0.007558 0.042083 0.020011 -0.008904
# 5 -0.004218 -0.002353 -0.010632 0.020011 0.051980 0.002275
# 6 0.002419 -0.002676 0.005664 -0.008904 0.002275 0.033301
#
#
# Mechanical properties :
#
#
# Convention : Reuss Voigt Hill
#
# Bulk Modulus (GPa) = 24.23497 40.58270 32.40883
# Shear Modulus (GPa) = 26.14521 35.86374 31.00448
#
# Velocity S-wave (km/s) = 3.43738 4.02587 3.74321
# Velocity P-wave (km/s) = 5.16783 6.32063 5.77308
#
# Compressibility (1/GPa) = 0.04126269
#
# Stress axis : x y z
#
# Youngs Moduli (GPa) = 98.82331 119.95172 36.71613
#
# Poissons Ratio (x) = 0.15429 -0.04443
# Poissons Ratio (y) = 0.12711 0.07851
# Poissons Ratio (z) = -0.11957 0.25649
#
# Static dielectric constant tensor:
#      x y z
#    x 1.870630 -0.056350 0.118660 
#    y -0.056350 1.960450 -0.560300 
#    z 0.118660 -0.560300 3.431150 
# 
# From -- ./inp_files/358485.got.cif
#   From: 2010.05.17/outbox.cif.g08.bks.cpg/sg2_180_cif.got.tgz:358485.got - 2010.06.03 11:33:40.
