data_PCOD9069590
_publ_section_title
;
Structure prediction by ZEFSAII (Michael W. Deem and Ramdas Pophale) SiO2 
 PCOD9069590
Probable space group: P -1
;
_chemical_formula_sum "Si O2"
_cell_formula_units_Z 10
_cell_length_a 13.206577
_cell_length_b 14.237299
_cell_length_c 9.299857
_cell_angle_alpha 134.305985
_cell_angle_beta 130.757081
_cell_angle_gamma 20.104332
_cell_volume 430.091466
_symmetry_space_group_name_H-M "P -1"
_symmetry_group_IT_number 2
_symmetry_cell_setting 'triclinic'
loop_
_space_group_symop_operation_xyz
x,y,z
-x,-y,-z
loop_
_atom_site_type_symbol
_atom_site_label
_atom_site_fract_x
_atom_site_fract_y
_atom_site_fract_z
Si Si1 0.208706 0.194964 0.863877
Si Si2 0.051386 0.233596 0.451322
Si Si3 0.648721 0.724896 0.368680
Si Si4 0.811024 0.169965 0.154867
Si Si5 0.853125 0.349876 0.926227
O O1 0.210063 0.152028 0.652811
O O2 0.000000 0.500000 0.000000
O O3 0.040113 0.229739 0.833070
O O4 0.500000 0.000000 0.000000
O O5 0.862179 0.502548 0.465316
O O6 0.841022 0.296814 0.362670
O O7 0.336648 0.923160 0.303414
O O8 0.823180 0.507926 0.165751
O O9 0.500000 0.000000 0.500000
O O10 0.473747 0.422931 0.133598
O O11 0.000000 0.000000 0.000000
O O12 0.970126 0.922116 0.131003
#
# Coordination Sequence:
#
# PCOD9069590 Si02
#       5
#     2   2   2   2   2
#     4  12  28  50  69 103 152 193 241 300 358 433
#     4  12  26  44  74 104 147 192 236 303 365 419
#     4  12  24  43  70 108 142 190 246 296 354 436
#     4  12  23  45  75 110 145 179 244 306 355 430
#     4  12  25  45  75 104 145 192 237 299 363 423
#
# _framework density 23.250868000000001
#
# number of rings (size 3 to 8) (size 9 to 14) (size 15 to 20)
#    0.000    0.000    4.000    6.000    0.000    4.800 
#    0.000    0.000    0.000    0.000    0.000    0.000 
#    0.000    0.000    0.000    0.000    0.000    0.000 
#
# Total GULP energy -55757.438993 kJ/mol
# GULP energy per Si atom -5575.743899 kJ/mol
# Density = 2.319795 g / cm^3
# Si number density = 23.250868 Si / 1000 Ang^3
#
#
#
# Elastic Constant Matrix: (Units=GPa)
#
#
# Indices 1 2 3 4 5 6 
#
# 1 141.7131 55.8522 27.4440 -26.3377 -12.7280 4.6674
# 2 55.8522 226.0035 30.2224 -26.2802 -1.6033 0.3924
# 3 27.4440 30.2224 82.4336 -17.5697 5.5689 2.8578
# 4 -26.3377 -26.2802 -17.5697 35.0874 -5.1097 13.0653
# 5 -12.7280 -1.6033 5.5689 -5.1097 35.2599 -4.6413
# 6 4.6674 0.3924 2.8578 13.0653 -4.6413 55.4316
#
#
#
# Elastic Compliance Matrix: (Units=1/GPa)
#
#
# Indices 1 2 3 4 5 6 
#
# 1 0.009598 -0.001347 -0.001474 0.006826 0.004367 -0.001966
# 2 -0.001347 0.005185 -0.000888 0.002638 0.000209 -0.000482
# 3 -0.001474 -0.000888 0.014447 0.005953 -0.002282 -0.002209
# 4 0.006826 0.002638 0.005953 0.043482 0.006550 -0.010601
# 5 0.004367 0.000209 -0.002282 0.006550 0.031366 0.000831
# 6 -0.001966 -0.000482 -0.002209 -0.010601 0.000831 0.020891
#
#
# Mechanical properties :
#
#
# Convention : Reuss Voigt Hill
#
# Bulk Modulus (GPa) = 45.84286 75.24305 60.54295
# Shear Modulus (GPa) = 35.80203 47.59787 41.69995
#
# Velocity S-wave (km/s) = 3.92830 4.52945 4.23954
# Velocity P-wave (km/s) = 6.35097 7.73215 7.07534
#
# Compressibility (1/GPa) = 0.02181365
#
# Stress axis : x y z
#
# Youngs Moduli (GPa) = 104.18533 192.85088 69.22031
#
# Poissons Ratio (x) = 0.25973 0.10201
# Poissons Ratio (y) = 0.14032 0.06146
# Poissons Ratio (z) = 0.15353 0.17122
#
# Static dielectric constant tensor:
#      x y z
#    x 1.851620 0.003650 0.029550 
#    y 0.003650 1.772660 -0.064690 
#    z 0.029550 -0.064690 2.022210 
# 
# From -- ./inp_files/162770.got.cif
#   From: 2010.05.17/outbox.cif.g08.bks.cpg/sg2_82_cif.got.tgz:162770.got - 2010.06.03 11:33:40.
