data_PCOD9069289
_publ_section_title
;
Structure prediction by ZEFSAII (Michael W. Deem and Ramdas Pophale) SiO2 
 PCOD9069289
Probable space group: P -1
;
_chemical_formula_sum "Si O2"
_cell_formula_units_Z 14
_cell_length_a 5.106991
_cell_length_b 17.094074
_cell_length_c 19.669875
_cell_angle_alpha 20.993582
_cell_angle_beta 117.272101
_cell_angle_gamma 109.984659
_cell_volume 526.478326
_symmetry_space_group_name_H-M "P -1"
_symmetry_group_IT_number 2
_symmetry_cell_setting 'triclinic'
loop_
_space_group_symop_operation_xyz
x,y,z
-x,-y,-z
loop_
_atom_site_type_symbol
_atom_site_label
_atom_site_fract_x
_atom_site_fract_y
_atom_site_fract_z
Si Si1 0.554672 0.824442 0.439589
Si Si2 0.476231 0.457571 0.229770
Si Si3 0.213373 0.013982 0.906358
Si Si4 0.011306 0.321241 0.932610
Si Si5 0.537234 0.277336 0.640332
Si Si6 0.922739 0.952489 0.723452
Si Si7 0.656906 0.643550 0.853257
O O1 0.776903 0.589696 0.700813
O O2 0.515549 0.705322 0.460235
O O3 0.809290 0.965810 0.349125
O O4 0.241432 0.071103 0.196224
O O5 0.690080 0.222337 0.489993
O O6 0.482879 0.344370 0.247654
O O7 0.724473 0.603142 0.138629
O O8 0.286223 0.158020 0.734950
O O9 0.889990 0.130859 0.807874
O O10 0.191952 0.779523 0.062598
O O11 0.500000 0.000000 0.000000
O O12 0.846127 0.301018 0.011175
O O13 0.500000 0.500000 0.500000
O O14 0.693332 0.863605 0.717701
O O15 0.500000 0.500000 0.000000
O O16 0.000000 0.500000 0.000000
#
# Coordination Sequence:
#
# PCOD9069289 Si02
#       7
#     2   2   2   2   2   2   2
#     4  12  26  46  69 102 144 187 234 286 369 429
#     4  12  26  43  71 107 139 186 237 294 350 425
#     4  12  27  48  74 109 138 185 250 301 355 434
#     4  12  23  46  74  98 140 189 237 285 356 426
#     4  12  26  49  73 103 147 191 234 301 372 430
#     4  12  23  44  74  96 141 195 228 288 357 427
#     4  12  23  40  69 106 139 178 240 293 345 411
#
# _framework density 26.591788999999999
#
# number of rings (size 3 to 8) (size 9 to 14) (size 15 to 20)
#    0.000    0.000    5.714    4.286    2.000    1.143 
#    0.000    0.000    0.000    0.000    0.000    0.000 
#    0.000    0.000    0.000    0.000    0.000    0.000 
#
# Total GULP energy -78314.595238 kJ/mol
# GULP energy per Si atom -5593.899660 kJ/mol
# Density = 2.653127 g / cm^3
# Si number density = 26.591789 Si / 1000 Ang^3
#
#
#
# Elastic Constant Matrix: (Units=GPa)
#
#
# Indices 1 2 3 4 5 6 
#
# 1 217.2673 46.7472 86.6380 -15.5353 -7.8710 -1.3644
# 2 46.7472 187.0857 52.6635 -11.7581 -57.8602 -6.5932
# 3 86.6380 52.6635 262.8052 1.5072 -49.5783 -10.7408
# 4 -15.5353 -11.7581 1.5072 56.6627 0.2833 -3.5725
# 5 -7.8710 -57.8602 -49.5783 0.2833 53.5347 -10.6470
# 6 -1.3644 -6.5932 -10.7408 -3.5725 -10.6470 50.2381
#
#
#
# Elastic Compliance Matrix: (Units=1/GPa)
#
#
# Indices 1 2 3 4 5 6 
#
# 1 0.005870 -0.001888 -0.002283 0.001218 -0.003545 -0.001241
# 2 -0.001888 0.009341 0.001096 0.001585 0.011617 0.003984
# 3 -0.002283 0.001096 0.005709 -0.000415 0.006672 0.002687
# 4 0.001218 0.001585 -0.000415 0.018429 0.001776 0.001839
# 5 -0.003545 0.011617 0.006672 0.001776 0.039126 0.011273
# 6 -0.001241 0.003984 0.002687 0.001839 0.011273 0.023489
#
#
# Mechanical properties :
#
#
# Convention : Reuss Voigt Hill
#
# Bulk Modulus (GPa) = 67.70534 115.47283 91.58908
# Shear Modulus (GPa) = 44.23295 64.16108 54.19701
#
# Velocity S-wave (km/s) = 4.08291 4.91737 4.51944
# Velocity P-wave (km/s) = 6.90964 8.70398 7.85819
#
# Compressibility (1/GPa) = 0.01476988
#
# Stress axis : x y z
#
# Youngs Moduli (GPa) = 170.35317 107.05345 175.15464
#
# Poissons Ratio (x) = 0.20207 0.39995
# Poissons Ratio (y) = 0.32155 -0.19191
# Poissons Ratio (z) = 0.38899 -0.11729
#
# Static dielectric constant tensor:
#      x y z
#    x 2.016220 -0.051250 0.144310 
#    y -0.051250 2.019790 0.079620 
#    z 0.144310 0.079620 2.248250 
# 
# From -- ./inp_files/583939.got.cif
#   From: 2010.05.17/outbox.cif.g08.bks.cpg/sg2_292_cif.got.tgz:583939.got - 2010.06.03 11:33:40.
