data_PCOD9069804
_publ_section_title
;
Structure prediction by ZEFSAII (Michael W. Deem and Ramdas Pophale) SiO2 
 PCOD9069804
Probable space group: P -1
;
_chemical_formula_sum "Si O2"
_cell_formula_units_Z 14
_cell_length_a 16.385231
_cell_length_b 11.337063
_cell_length_c 8.041988
_cell_angle_alpha 142.423401
_cell_angle_beta 108.383286
_cell_angle_gamma 49.016723
_cell_volume 616.206434
_symmetry_space_group_name_H-M "P -1"
_symmetry_group_IT_number 2
_symmetry_cell_setting 'triclinic'
loop_
_space_group_symop_operation_xyz
x,y,z
-x,-y,-z
loop_
_atom_site_type_symbol
_atom_site_label
_atom_site_fract_x
_atom_site_fract_y
_atom_site_fract_z
Si Si1 0.509512 0.718192 0.725152
Si Si2 0.471541 0.730336 0.065677
Si Si3 0.867613 0.296013 0.035242
Si Si4 0.368112 0.894505 0.515498
Si Si5 0.283978 0.685662 0.819510
Si Si6 0.030661 0.208478 0.305845
Si Si7 0.902688 0.591050 0.173817
O O1 0.500000 0.500000 0.500000
O O2 0.410614 0.918049 0.743942
O O3 0.639889 0.540804 0.526633
O O4 0.487587 0.829561 0.020308
O O5 0.438422 0.876139 0.382803
O O6 0.583534 0.404002 0.785500
O O7 0.358890 0.759305 0.995763
O O8 0.739878 0.411608 0.143208
O O9 0.880281 0.403778 0.001402
O O10 0.913140 0.348901 0.282814
O O11 0.954440 0.971817 0.736578
O O12 0.227032 0.126471 0.651606
O O13 0.149262 0.969051 0.004199
O O14 0.050200 0.380744 0.595913
O O15 0.000000 0.500000 0.000000
#
# Coordination Sequence:
#
# PCOD9069804 Si02
#       7
#     2   2   2   2   2   2   2
#     4   8  16  28  55  88 106 145 199 230 283 356
#     4   9  16  31  59  85 110 153 194 232 290 351
#     4   9  20  37  60  81 113 156 194 241 286 347
#     4   9  17  33  50  84 117 142 194 236 286 345
#     4   8  14  32  57  78 110 139 191 239 278 337
#     4   9  19  39  59  81 109 159 199 229 291 344
#     4  12  24  36  56  87 121 153 191 239 297 349
#
# _framework density 22.719659
#
# number of rings (size 3 to 8) (size 9 to 14) (size 15 to 20)
#    0.857    2.286    1.429    0.429    0.000    4.000 
#    2.571    2.857    6.286    0.857    0.000    0.000 
#    0.000    0.000    0.000    0.000    0.000    0.000 
#
# Total GULP energy -77957.436601 kJ/mol
# GULP energy per Si atom -5568.388329 kJ/mol
# Density = 2.266795 g / cm^3
# Si number density = 22.719659 Si / 1000 Ang^3
#
#
#
# Elastic Constant Matrix: (Units=GPa)
#
#
# Indices 1 2 3 4 5 6 
#
# 1 112.6221 26.4084 29.7307 3.5829 -18.4104 24.9264
# 2 26.4084 47.0582 22.3176 -21.8522 -14.0092 6.7311
# 3 29.7307 22.3176 43.8736 -13.6257 -15.9376 13.1445
# 4 3.5829 -21.8522 -13.6257 27.1056 4.8567 -9.5512
# 5 -18.4104 -14.0092 -15.9376 4.8567 34.7308 -2.2522
# 6 24.9264 6.7311 13.1445 -9.5512 -2.2522 38.0014
#
#
#
# Elastic Compliance Matrix: (Units=1/GPa)
#
#
# Indices 1 2 3 4 5 6 
#
# 1 0.018135 -0.014759 -0.007133 -0.022734 0.002763 -0.012363
# 2 -0.014759 0.052885 -0.004606 0.046101 0.005846 0.013840
# 3 -0.007133 -0.004606 0.039086 0.013657 0.010128 -0.003992
# 4 -0.022734 0.046101 0.013657 0.092604 0.001508 0.025387
# 5 0.002763 0.005846 0.010128 0.001508 0.036807 -0.003791
# 6 -0.012363 0.013840 -0.003992 0.025387 -0.003791 0.039510
#
#
# Mechanical properties :
#
#
# Convention : Reuss Voigt Hill
#
# Bulk Modulus (GPa) = 17.51030 40.05192 28.78111
# Shear Modulus (GPa) = 14.24258 28.30737 21.27498
#
# Velocity S-wave (km/s) = 2.50648 3.53362 3.06341
# Velocity P-wave (km/s) = 4.01254 5.85796 5.02076
#
# Compressibility (1/GPa) = 0.05710924
#
# Stress axis : x y z
#
# Youngs Moduli (GPa) = 55.14316 18.90879 25.58458
#
# Poissons Ratio (x) = 0.27908 0.18251
# Poissons Ratio (y) = 0.81388 0.11783
# Poissons Ratio (z) = 0.39336 0.08709
#
# Static dielectric constant tensor:
#      x y z
#    x 1.918070 0.046410 0.049100 
#    y 0.046410 1.900470 -0.022600 
#    z 0.049100 -0.022600 1.914290 
# 
# From -- ./inp_files/306004.got.cif
#   From: 2010.05.17/outbox.cif.g08.bks.cpg/sg2_154_cif.got.tgz:306004.got - 2010.06.03 11:33:40.
