data_PCOD9069357
_publ_section_title
;
Structure prediction by ZEFSAII (Michael W. Deem and Ramdas Pophale) SiO2 
 PCOD9069357
Probable space group: P -1
;
_chemical_formula_sum "Si O2"
_cell_formula_units_Z 16
_cell_length_a 9.119957
_cell_length_b 27.101718
_cell_length_c 26.359340
_cell_angle_alpha 169.465783
_cell_angle_beta 38.027443
_cell_angle_gamma 140.894412
_cell_volume 733.704955
_symmetry_space_group_name_H-M "P -1"
_symmetry_group_IT_number 2
_symmetry_cell_setting 'triclinic'
loop_
_space_group_symop_operation_xyz
x,y,z
-x,-y,-z
loop_
_atom_site_type_symbol
_atom_site_label
_atom_site_fract_x
_atom_site_fract_y
_atom_site_fract_z
Si Si1 0.997086 0.146139 0.245284
Si Si2 0.576958 0.988438 0.408740
Si Si3 0.116437 0.511965 0.190146
Si Si4 0.662714 0.643127 0.816920
Si Si5 0.857218 0.395046 0.039745
Si Si6 0.059882 0.876550 0.412292
Si Si7 0.252075 0.279943 0.417328
Si Si8 0.450041 0.219854 0.130711
O O1 0.137867 0.218421 0.331670
O O2 0.196865 0.126212 0.127388
O O3 0.806337 0.367569 0.504011
O O4 0.847320 0.872728 0.016408
O O5 0.343148 0.862235 0.320069
O O6 0.500000 0.000000 0.500000
O O7 0.657562 0.286129 0.671143
O O8 0.792686 0.791852 0.139314
O O9 0.967921 0.528124 0.194850
O O10 0.951328 0.598300 0.368357
O O11 0.424644 0.631441 0.903527
O O12 0.579339 0.710629 0.850395
O O13 0.935521 0.595201 0.175788
O O14 0.971968 0.103150 0.705186
O O15 0.000000 0.000000 0.500000
O O16 0.458693 0.509158 0.591887
O O17 0.362960 0.014441 0.144553
#
# Coordination Sequence:
#
# PCOD9069357 Si02
#       8
#     2   2   2   2   2   2   2   2
#     4  12  26  46  68 108 146 180 234 299 346 407
#     4  12  23  42  70  95 129 170 224 280 333 394
#     4  12  24  42  71  99 129 176 231 281 329 405
#     4  12  26  44  73 102 142 188 235 283 354 418
#     4  12  24  45  70  94 138 177 226 280 339 412
#     4  12  27  44  68 101 134 176 220 278 349 411
#     4  12  26  44  72 104 140 185 237 289 353 407
#     4  12  24  46  74 101 140 192 237 282 346 425
#
# _framework density 21.807129
#
# number of rings (size 3 to 8) (size 9 to 14) (size 15 to 20)
#    0.000    0.000    3.750    6.750    1.750    3.000 
#    0.000    0.000    0.000    0.000    0.000    0.000 
#    0.000    0.000    0.000    0.000    0.000    0.000 
#
# Total GULP energy -89615.965130 kJ/mol
# GULP energy per Si atom -5600.997821 kJ/mol
# Density = 2.175749 g / cm^3
# Si number density = 21.807129 Si / 1000 Ang^3
#
#
#
# Elastic Constant Matrix: (Units=GPa)
#
#
# Indices 1 2 3 4 5 6 
#
# 1 109.7013 22.6724 39.3283 3.4491 -2.5513 17.1667
# 2 22.6724 78.9377 11.9896 8.1439 10.4821 30.1518
# 3 39.3283 11.9896 140.7032 2.0022 -4.4078 19.8293
# 4 3.4491 8.1439 2.0022 35.3023 13.6688 6.8117
# 5 -2.5513 10.4821 -4.4078 13.6688 33.3155 1.6978
# 6 17.1667 30.1518 19.8293 6.8117 1.6978 33.9690
#
#
#
# Elastic Compliance Matrix: (Units=1/GPa)
#
#
# Indices 1 2 3 4 5 6 
#
# 1 0.010822 -0.002044 -0.002492 -0.000611 0.001503 -0.002153
# 2 -0.002044 0.020573 0.001123 0.001172 -0.006054 -0.017816
# 3 -0.002492 0.001123 0.008392 0.000123 0.000755 -0.004699
# 4 -0.000611 0.001172 0.000123 0.035067 -0.014424 -0.007114
# 5 0.001503 -0.006054 0.000755 -0.014424 0.037790 0.005177
# 6 -0.002153 -0.017816 -0.004699 -0.007114 0.005177 0.050251
#
#
# Mechanical properties :
#
#
# Convention : Reuss Voigt Hill
#
# Bulk Modulus (GPa) = 30.33848 53.03587 41.68717
# Shear Modulus (GPa) = 27.66892 37.54081 32.60487
#
# Velocity S-wave (km/s) = 3.56589 4.15359 3.87091
# Velocity P-wave (km/s) = 5.55846 6.88304 6.25591
#
# Compressibility (1/GPa) = 0.03296144
#
# Stress axis : x y z
#
# Youngs Moduli (GPa) = 92.40048 48.60765 119.16087
#
# Poissons Ratio (x) = 0.09936 0.29691
# Poissons Ratio (y) = 0.18887 -0.13379
# Poissons Ratio (z) = 0.23023 -0.05458
#
# Static dielectric constant tensor:
#      x y z
#    x 1.858530 -0.012040 0.024290 
#    y -0.012040 1.750120 0.006410 
#    z 0.024290 0.006410 1.771750 
# 
# From -- ./inp_files/358018.got.cif
#   From: 2010.05.17/outbox.cif.g08.bks.cpg/sg2_180_cif.got.tgz:358018.got - 2010.06.03 11:33:40.
