data_PCOD9069884
_publ_section_title
;
Structure prediction by ZEFSAII (Michael W. Deem and Ramdas Pophale) SiO2 
 PCOD9069884
Probable space group: P -1
;
_chemical_formula_sum "Si O2"
_cell_formula_units_Z 16
_cell_length_a 11.690772
_cell_length_b 5.254660
_cell_length_c 11.907991
_cell_angle_alpha 109.856970
_cell_angle_beta 65.069846
_cell_angle_gamma 111.826155
_cell_volume 601.086866
_symmetry_space_group_name_H-M "P -1"
_symmetry_group_IT_number 2
_symmetry_cell_setting 'triclinic'
loop_
_space_group_symop_operation_xyz
x,y,z
-x,-y,-z
loop_
_atom_site_type_symbol
_atom_site_label
_atom_site_fract_x
_atom_site_fract_y
_atom_site_fract_z
Si Si1 0.474958 0.714319 0.397493
Si Si2 0.739431 0.436450 0.875663
Si Si3 0.506958 0.052254 0.821200
Si Si4 0.921259 0.620094 0.643748
Si Si5 0.741184 0.736572 0.351973
Si Si6 0.782626 0.091066 0.005363
Si Si7 0.265534 0.189097 0.392482
Si Si8 0.875346 0.234351 0.219958
O O1 0.496901 0.786724 0.268945
O O2 0.588155 0.580581 0.376088
O O3 0.328886 0.521325 0.443356
O O4 0.500000 0.000000 0.500000
O O5 0.585769 0.274887 0.913274
O O6 0.797537 0.403379 0.722750
O O7 0.810590 0.293592 0.917139
O O8 0.760397 0.765091 0.936154
O O9 0.360197 0.891492 0.889325
O O10 0.611077 0.872279 0.729944
O O11 0.859150 0.839715 0.638166
O O12 0.000000 0.500000 0.500000
O O13 0.008556 0.730294 0.733205
O O14 0.764522 0.917665 0.484665
O O15 0.826102 0.515005 0.286097
O O16 0.775276 0.952872 0.267249
O O17 0.887391 0.179799 0.074735
#
# Coordination Sequence:
#
# PCOD9069884 Si02
#       8
#     2   2   2   2   2   2   2   2
#     4  12  24  42  73 116 164 196 252 322 404 473
#     4  12  29  53  79 117 155 211 261 326 388 467
#     4  12  26  45  82 115 160 203 254 325 403 473
#     4  12  29  53  82 115 158 209 268 326 389 463
#     4  12  25  45  74 118 160 200 255 319 399 464
#     4  12  28  53  82 114 161 204 267 319 394 469
#     4  12  26  45  75 118 166 203 254 322 402 471
#     4  12  28  50  80 114 154 214 265 320 384 461
#
# _framework density 26.618447
#
# number of rings (size 3 to 8) (size 9 to 14) (size 15 to 20)
#    0.000    0.000    5.000    4.125    3.500    3.500 
#    0.000    0.000    0.000    0.000    0.000    0.000 
#    0.000    0.000    0.000    0.000    0.000    0.000 
#
# Total GULP energy -89724.122326 kJ/mol
# GULP energy per Si atom -5607.757645 kJ/mol
# Density = 2.655786 g / cm^3
# Si number density = 26.618447 Si / 1000 Ang^3
#
#
#
# Elastic Constant Matrix: (Units=GPa)
#
#
# Indices 1 2 3 4 5 6 
#
# 1 167.7621 14.4828 32.8285 18.8679 32.5278 -18.0446
# 2 14.4828 80.3589 14.4945 11.0639 2.8808 -22.3358
# 3 32.8285 14.4945 109.1121 -0.4575 26.0266 -21.7762
# 4 18.8679 11.0639 -0.4575 46.0696 -9.1566 0.3990
# 5 32.5278 2.8808 26.0266 -9.1566 58.5953 -2.9152
# 6 -18.0446 -22.3358 -21.7762 0.3990 -2.9152 52.4138
#
#
#
# Elastic Compliance Matrix: (Units=1/GPa)
#
#
# Indices 1 2 3 4 5 6 
#
# 1 0.007658 0.000074 -0.000863 -0.004056 -0.004401 0.002096
# 2 0.000074 0.014773 -0.000604 -0.003794 -0.000791 0.006055
# 3 -0.000863 -0.000604 0.011327 -0.000292 -0.004374 0.003911
# 4 -0.004056 -0.003794 -0.000292 0.025577 0.006417 -0.002972
# 5 -0.004401 -0.000791 -0.004374 0.006417 0.022371 -0.002474
# 6 0.002096 0.006055 0.003911 -0.002972 -0.002474 0.023891
#
#
# Mechanical properties :
#
#
# Convention : Reuss Voigt Hill
#
# Bulk Modulus (GPa) = 32.28499 53.42718 42.85609
# Shear Modulus (GPa) = 42.12078 51.11090 46.61584
#
# Velocity S-wave (km/s) = 3.98224 4.38668 4.18935
# Velocity P-wave (km/s) = 5.77057 6.76553 6.28776
#
# Compressibility (1/GPa) = 0.03097414
#
# Stress axis : x y z
#
# Youngs Moduli (GPa) = 130.57941 67.68894 88.28295
#
# Poissons Ratio (x) = -0.00502 0.07618
# Poissons Ratio (y) = -0.00968 0.05328
# Poissons Ratio (z) = 0.11268 0.04085
#
# Static dielectric constant tensor:
#      x y z
#    x 2.091460 0.033280 -0.044560 
#    y 0.033280 2.209300 0.044590 
#    z -0.044560 0.044590 2.125650 
# 
# From -- ./inp_files/410759.got.cif
#   From: 2010.05.17/outbox.cif.g08.bks.cpg/sg2_206_cif.got.tgz:410759.got - 2010.06.03 11:33:40.
