data_PCOD9069241
_publ_section_title
;
Structure prediction by ZEFSAII (Michael W. Deem and Ramdas Pophale) SiO2 
 PCOD9069241
Probable space group: P -1
;
_chemical_formula_sum "Si O2"
_cell_formula_units_Z 15
_cell_length_a 8.634708
_cell_length_b 11.979007
_cell_length_c 8.139711
_cell_angle_alpha 71.009566
_cell_angle_beta 53.424402
_cell_angle_gamma 88.227771
_cell_volume 624.433222
_symmetry_space_group_name_H-M "P -1"
_symmetry_group_IT_number 2
_symmetry_cell_setting 'triclinic'
loop_
_space_group_symop_operation_xyz
x,y,z
-x,-y,-z
loop_
_atom_site_type_symbol
_atom_site_label
_atom_site_fract_x
_atom_site_fract_y
_atom_site_fract_z
Si Si1 0.464431 0.059312 0.168476
Si Si2 0.366391 0.324639 0.377794
Si Si3 0.439382 0.326402 0.973937
Si Si4 0.082287 0.205360 0.069467
Si Si5 0.821711 0.487344 0.493084
Si Si6 0.000000 0.000000 0.500000
Si Si7 0.731635 0.317617 0.327878
Si Si8 0.647227 0.882015 0.307633
O O1 0.601640 0.012334 0.240377
O O2 0.236649 0.008137 0.373957
O O3 0.505512 0.201975 0.040831
O O4 0.500000 0.000000 0.000000
O O5 0.342741 0.357101 0.190056
O O6 0.225383 0.379995 0.560494
O O7 0.593045 0.372935 0.265316
O O8 0.324783 0.179618 0.505579
O O9 0.272752 0.306547 0.950808
O O10 0.628035 0.416768 0.744207
O O11 0.889999 0.261382 0.155891
O O12 0.161736 0.132653 0.908597
O O13 0.051875 0.115361 0.286167
O O14 0.832501 0.412469 0.356288
O O15 0.000000 0.500000 0.500000
O O16 0.559411 0.211597 0.569526
#
# Coordination Sequence:
#
# PCOD9069241 Si02
#       8
#     2   2   2   2   2   1   2   2
#     4  11  19  38  65  96 128 168 212 260 318 382
#     4  10  24  43  62  93 137 164 219 265 331 375
#     4  11  23  40  65  96 129 169 216 274 309 386
#     4  11  20  37  67  92 129 164 222 251 320 381
#     4  12  24  44  67  93 128 171 224 271 314 381
#     4  10  18  28  62  96 118 164 208 254 304 378
#     4  10  22  41  65  93 127 168 210 263 327 381
#     4  10  21  40  64  94 134 165 210 264 317 388
#
# _framework density 24.021782999999999
#
# number of rings (size 3 to 8) (size 9 to 14) (size 15 to 20)
#    0.800    0.533    5.333    1.600    0.000    1.600 
#    0.000    2.000    0.000    4.800    0.000    0.000 
#    0.000    0.000    0.000    0.000    0.000    0.000 
#
# Total GULP energy -83537.315826 kJ/mol
# GULP energy per Si atom -5569.154388 kJ/mol
# Density = 2.396711 g / cm^3
# Si number density = 24.021783 Si / 1000 Ang^3
#
#
#
# Elastic Constant Matrix: (Units=GPa)
#
#
# Indices 1 2 3 4 5 6 
#
# 1 72.1041 15.5943 26.2062 23.8495 -11.4386 -19.1984
# 2 15.5943 87.9433 19.9737 15.8939 -14.1642 -18.3255
# 3 26.2062 19.9737 48.0182 7.5468 -19.3280 -2.3429
# 4 23.8495 15.8939 7.5468 34.8183 -9.0004 -2.2703
# 5 -11.4386 -14.1642 -19.3280 -9.0004 33.7868 6.1995
# 6 -19.1984 -18.3255 -2.3429 -2.2703 6.1995 43.5169
#
#
#
# Elastic Compliance Matrix: (Units=1/GPa)
#
#
# Indices 1 2 3 4 5 6 
#
# 1 0.026516 0.003449 -0.014506 -0.016998 -0.004632 0.012143
# 2 0.003449 0.015100 -0.006445 -0.007247 0.000583 0.007073
# 3 -0.014506 -0.006445 0.036567 0.008838 0.017339 -0.009154
# 4 -0.016998 -0.007247 0.008838 0.043632 0.009567 -0.009162
# 5 -0.004632 0.000583 0.017339 0.009567 0.041904 -0.006335
# 6 0.012143 0.007073 -0.009154 -0.009162 -0.006335 0.031246
#
#
# Mechanical properties :
#
#
# Convention : Reuss Voigt Hill
#
# Bulk Modulus (GPa) = 23.15916 36.84601 30.00259
# Shear Modulus (GPa) = 20.46144 32.17716 26.31930
#
# Velocity S-wave (km/s) = 2.92171 3.66389 3.31364
# Velocity P-wave (km/s) = 4.58734 5.76807 5.21125
#
# Compressibility (1/GPa) = 0.04317945
#
# Stress axis : x y z
#
# Youngs Moduli (GPa) = 37.71319 66.22299 27.34732
#
# Poissons Ratio (x) = -0.22841 0.39670
# Poissons Ratio (y) = -0.13008 0.17625
# Poissons Ratio (z) = 0.54707 0.42680
#
# Static dielectric constant tensor:
#      x y z
#    x 1.910490 0.017100 0.039970 
#    y 0.017100 2.003560 0.003190 
#    z 0.039970 0.003190 1.889920 
# 
# From -- ./inp_files/195544.got.cif
#   From: 2010.05.17/outbox.cif.g08.bks.cpg/sg2_98_cif.got.tgz:195544.got - 2010.06.03 11:33:40.
