data_PCOD9069924
_publ_section_title
;
Structure prediction by ZEFSAII (Michael W. Deem and Ramdas Pophale) SiO2 
 PCOD9069924
Probable space group: P -1
;
_chemical_formula_sum "Si O2"
_cell_formula_units_Z 14
_cell_length_a 20.333925
_cell_length_b 12.091695
_cell_length_c 8.706815
_cell_angle_alpha 64.089683
_cell_angle_beta 138.841882
_cell_angle_gamma 148.466806
_cell_volume 592.294939
_symmetry_space_group_name_H-M "P -1"
_symmetry_group_IT_number 2
_symmetry_cell_setting 'triclinic'
loop_
_space_group_symop_operation_xyz
x,y,z
-x,-y,-z
loop_
_atom_site_type_symbol
_atom_site_label
_atom_site_fract_x
_atom_site_fract_y
_atom_site_fract_z
Si Si1 0.585655 0.294539 0.406239
Si Si2 0.647203 0.938357 0.375201
Si Si3 0.254514 0.584350 0.050926
Si Si4 0.163035 0.644739 0.335878
Si Si5 0.115149 0.012078 0.275710
Si Si6 0.763796 0.741656 0.339036
Si Si7 0.196009 0.813757 0.832802
O O1 0.631216 0.338525 0.639630
O O2 0.656524 0.241750 0.490776
O O3 0.721306 0.552529 0.416381
O O4 0.340127 0.034888 0.081924
O O5 0.757375 0.146392 0.567970
O O6 0.674805 0.823537 0.527333
O O7 0.731285 0.058306 0.280269
O O8 0.403954 0.715530 0.091772
O O9 0.219329 0.690933 0.940470
O O10 0.044544 0.276074 0.849022
O O11 0.045859 0.436135 0.386200
O O12 0.000000 0.500000 0.000000
O O13 0.170076 0.111505 0.482948
O O14 0.000000 0.000000 0.000000
O O15 0.500000 0.500000 0.000000
O O16 0.000000 0.000000 0.500000
#
# Coordination Sequence:
#
# PCOD9069924 Si02
#       7
#     2   2   2   2   2   2   2
#     4  12  26  47  75 111 154 207 261 324 399 478
#     4  12  27  43  74 111 152 196 258 333 401 467
#     4  12  25  47  74 110 152 200 261 320 401 481
#     4  12  24  43  72 106 150 198 255 326 402 475
#     4  12  28  52  75 108 153 211 268 318 391 483
#     4  12  32  56  81 118 162 217 272 331 400 477
#     4  12  25  43  72 113 151 193 255 329 410 462
#
# _framework density 23.636872
#
# number of rings (size 3 to 8) (size 9 to 14) (size 15 to 20)
#    0.000    0.000    5.714    3.000    8.000    1.714 
#    0.000    0.000    0.000    0.000    0.000    0.000 
#    0.000    0.000    0.000    0.000    0.000    0.000 
#
# Total GULP energy -78150.100384 kJ/mol
# GULP energy per Si atom -5582.150027 kJ/mol
# Density = 2.358307 g / cm^3
# Si number density = 23.636872 Si / 1000 Ang^3
#
#
#
# Elastic Constant Matrix: (Units=GPa)
#
#
# Indices 1 2 3 4 5 6 
#
# 1 110.9175 26.5627 37.2427 6.8881 -6.0165 -4.6343
# 2 26.5627 103.9681 34.4610 -0.0283 3.7550 -8.3615
# 3 37.2427 34.4610 114.7350 3.3062 -17.7736 -0.3396
# 4 6.8881 -0.0283 3.3062 29.5927 -1.7677 -2.0463
# 5 -6.0165 3.7550 -17.7736 -1.7677 33.5248 10.5899
# 6 -4.6343 -8.3615 -0.3396 -2.0463 10.5899 48.3657
#
#
#
# Elastic Compliance Matrix: (Units=1/GPa)
#
#
# Indices 1 2 3 4 5 6 
#
# 1 0.010537 -0.001739 -0.002785 -0.002087 0.000333 0.000528
# 2 -0.001739 0.011650 -0.003628 0.000754 -0.004390 0.002815
# 3 -0.002785 -0.003628 0.011778 -0.000422 0.006865 -0.002332
# 4 -0.002087 0.000754 -0.000422 0.034455 0.000748 0.001221
# 5 0.000333 -0.004390 0.006865 0.000748 0.036810 -0.008707
# 6 0.000528 0.002815 -0.002332 0.001221 -0.008707 0.023155
#
#
# Mechanical properties :
#
#
# Convention : Reuss Voigt Hill
#
# Bulk Modulus (GPa) = 56.62035 58.46149 57.54092
# Shear Modulus (GPa) = 33.20579 37.72026 35.46303
#
# Velocity S-wave (km/s) = 3.75217 3.99911 3.87761
# Velocity P-wave (km/s) = 6.54049 6.79049 6.66666
#
# Compressibility (1/GPa) = 0.01766150
#
# Stress axis : x y z
#
# Youngs Moduli (GPa) = 94.90437 85.83382 84.90284
#
# Poissons Ratio (x) = 0.14928 0.23643
# Poissons Ratio (y) = 0.16505 0.30804
# Poissons Ratio (z) = 0.26428 0.31142
#
# Static dielectric constant tensor:
#      x y z
#    x 1.927900 0.042200 0.102410 
#    y 0.042200 1.924950 0.035010 
#    z 0.102410 0.035010 2.093120 
# 
# From -- ./inp_files/346052.got.cif
#   From: 2010.05.17/outbox.cif.g08.bks.cpg/sg2_174_cif.got.tgz:346052.got - 2010.06.03 11:33:40.
