data_PCOD9069313
_publ_section_title
;
Structure prediction by ZEFSAII (Michael W. Deem and Ramdas Pophale) SiO2 
 PCOD9069313
Probable space group: P -1
;
_chemical_formula_sum "Si O2"
_cell_formula_units_Z 16
_cell_length_a 12.520609
_cell_length_b 10.918693
_cell_length_c 11.304154
_cell_angle_alpha 45.733894
_cell_angle_beta 111.030425
_cell_angle_gamma 76.451671
_cell_volume 711.182973
_symmetry_space_group_name_H-M "P -1"
_symmetry_group_IT_number 2
_symmetry_cell_setting 'triclinic'
loop_
_space_group_symop_operation_xyz
x,y,z
-x,-y,-z
loop_
_atom_site_type_symbol
_atom_site_label
_atom_site_fract_x
_atom_site_fract_y
_atom_site_fract_z
Si Si1 0.736781 0.023990 0.686984
Si Si2 0.272995 0.326143 0.676480
Si Si3 0.035956 0.160505 0.914104
Si Si4 0.698511 0.709120 0.004203
Si Si5 0.602800 0.208418 0.245000
Si Si6 0.032053 0.144166 0.480433
Si Si7 0.459378 0.461462 0.634138
Si Si8 0.777716 0.006033 0.131115
O O1 0.670888 0.093356 0.481387
O O2 0.680320 0.271282 0.543986
O O3 0.926148 0.821094 0.949284
O O4 0.669714 0.928746 0.791368
O O5 0.275033 0.321219 0.823198
O O6 0.409884 0.317049 0.699371
O O7 0.275410 0.128714 0.768567
O O8 0.109017 0.576238 0.381344
O O9 0.186385 0.030491 0.970156
O O10 0.000000 0.000000 0.000000
O O11 0.870375 0.440485 0.199802
O O12 0.536099 0.774691 0.864583
O O13 0.779675 0.009933 0.379745
O O14 0.500000 0.500000 0.000000
O O15 0.061956 0.103095 0.661347
O O16 0.000000 0.000000 0.500000
O O17 0.500000 0.500000 0.500000
O O18 0.620909 0.297152 0.891568
#
# Coordination Sequence:
#
# PCOD9069313 Si02
#       8
#     2   2   2   2   2   2   2   2
#     4  12  26  47  71 106 152 192 242 303 378 441
#     4  12  23  45  75 104 146 190 237 310 378 437
#     4  12  23  41  70 105 140 186 231 303 369 432
#     4  12  25  49  78 107 147 193 250 307 371 442
#     4  12  27  50  73 104 148 202 246 298 370 439
#     4  12  27  45  75 108 141 198 251 296 362 451
#     4  12  24  42  67 109 145 186 239 303 372 438
#     4  12  24  44  70 108 142 185 248 300 368 445
#
# _framework density 22.497727999999999
#
# number of rings (size 3 to 8) (size 9 to 14) (size 15 to 20)
#    0.000    0.000    6.250    4.125    1.750    1.500 
#    0.000    1.250    0.000    0.000    0.000    0.000 
#    0.000    0.000    0.000    0.000    0.000    0.000 
#
# Total GULP energy -89321.994062 kJ/mol
# GULP energy per Si atom -5582.624629 kJ/mol
# Density = 2.244652 g / cm^3
# Si number density = 22.497728 Si / 1000 Ang^3
#
#
#
# Elastic Constant Matrix: (Units=GPa)
#
#
# Indices 1 2 3 4 5 6 
#
# 1 112.7401 36.4253 44.4893 -0.1115 -5.5087 18.9671
# 2 36.4253 91.0412 54.5849 27.5521 0.7251 18.5712
# 3 44.4893 54.5849 170.7191 29.8314 4.5235 2.1229
# 4 -0.1115 27.5521 29.8314 43.0497 0.9358 5.6340
# 5 -5.5087 0.7251 4.5235 0.9358 47.3732 -0.8405
# 6 18.9671 18.5712 2.1229 5.6340 -0.8405 39.3371
#
#
#
# Elastic Compliance Matrix: (Units=1/GPa)
#
#
# Indices 1 2 3 4 5 6 
#
# 1 0.012012 -0.003697 -0.002787 0.004892 0.001542 -0.004564
# 2 -0.003697 0.018124 -0.003244 -0.008651 -0.000322 -0.005367
# 3 -0.002787 -0.003244 0.008320 -0.004067 -0.000936 0.002989
# 4 0.004892 -0.008651 -0.004067 0.031930 0.000412 -0.002620
# 5 0.001542 -0.000322 -0.000936 0.000412 0.021372 -0.000144
# 6 -0.004564 -0.005367 0.002989 -0.002620 -0.000144 0.030366
#
#
# Mechanical properties :
#
#
# Convention : Reuss Voigt Hill
#
# Bulk Modulus (GPa) = 52.63584 71.72217 62.17900
# Shear Modulus (GPa) = 33.80334 41.88540 37.84437
#
# Velocity S-wave (km/s) = 3.88044 4.31949 4.10584
# Velocity P-wave (km/s) = 6.59727 7.53832 7.08344
#
# Compressibility (1/GPa) = 0.01899846
#
# Stress axis : x y z
#
# Youngs Moduli (GPa) = 83.24770 55.17606 120.19849
#
# Poissons Ratio (x) = 0.20397 0.33505
# Poissons Ratio (y) = 0.30775 0.38998
# Poissons Ratio (z) = 0.23205 0.17902
#
# Static dielectric constant tensor:
#      x y z
#    x 1.878510 -0.045460 0.053220 
#    y -0.045460 1.871190 0.022020 
#    z 0.053220 0.022020 1.959020 
# 
# From -- ./inp_files/427437.got.cif
#   From: 2010.05.17/outbox.cif.g08.bks.cpg/sg2_214_cif.got.tgz:427437.got - 2010.06.03 11:33:40.
