data_PCOD9069342
_publ_section_title
;
Structure prediction by ZEFSAII (Michael W. Deem and Ramdas Pophale) SiO2 
 PCOD9069342
Probable space group: P -1
;
_chemical_formula_sum "Si O2"
_cell_formula_units_Z 14
_cell_length_a 9.695041
_cell_length_b 16.820013
_cell_length_c 9.744875
_cell_angle_alpha 115.375520
_cell_angle_beta 149.677278
_cell_angle_gamma 54.252967
_cell_volume 639.923362
_symmetry_space_group_name_H-M "P -1"
_symmetry_group_IT_number 2
_symmetry_cell_setting 'triclinic'
loop_
_space_group_symop_operation_xyz
x,y,z
-x,-y,-z
loop_
_atom_site_type_symbol
_atom_site_label
_atom_site_fract_x
_atom_site_fract_y
_atom_site_fract_z
Si Si1 0.926680 0.033579 0.620401
Si Si2 0.252341 0.160618 0.056444
Si Si3 0.808641 0.282365 0.994604
Si Si4 0.724545 0.745861 0.145316
Si Si5 0.028339 0.829235 0.679681
Si Si6 0.877020 0.590738 0.566943
Si Si7 0.171418 0.518607 0.288336
O O1 0.578111 0.123278 0.385268
O O2 0.000000 0.000000 0.500000
O O3 0.948849 0.941443 0.658196
O O4 0.165560 0.071090 0.903174
O O5 0.980391 0.247535 0.971862
O O6 0.273728 0.197502 0.950618
O O7 0.969056 0.192534 0.173693
O O8 0.872532 0.370768 0.169597
O O9 0.445366 0.320804 0.698433
O O10 0.813414 0.796288 0.384096
O O11 0.971686 0.630836 0.255477
O O12 0.381380 0.760206 0.881887
O O13 0.803723 0.554545 0.621043
O O14 0.000000 0.500000 0.500000
O O15 0.500000 0.500000 0.500000
O O16 0.000000 0.500000 0.000000
#
# Coordination Sequence:
#
# PCOD9069342 Si02
#       7
#     2   2   2   2   2   2   2
#     4  12  23  43  68 101 126 172 221 270 328 387
#     4  12  24  42  69  95 136 168 213 277 331 384
#     4  12  27  45  65 101 133 176 216 270 334 383
#     4  12  23  42  66  95 125 172 217 270 321 385
#     4  12  25  42  68  94 131 167 226 263 317 399
#     4  12  25  47  69  94 138 178 218 265 327 395
#     4  12  25  42  67  99 130 167 219 273 323 383
#
# _framework density 21.87762
#
# number of rings (size 3 to 8) (size 9 to 14) (size 15 to 20)
#    0.000    0.000    2.857    8.571    0.000    1.143 
#    0.000    0.000    0.000    0.000    0.000    0.000 
#    0.000    0.000    0.000    0.000    0.000    0.000 
#
# Total GULP energy -78485.073721 kJ/mol
# GULP energy per Si atom -5606.076694 kJ/mol
# Density = 2.182783 g / cm^3
# Si number density = 21.877620 Si / 1000 Ang^3
#
#
#
# Elastic Constant Matrix: (Units=GPa)
#
#
# Indices 1 2 3 4 5 6 
#
# 1 68.3630 -16.2235 21.2701 0.7455 -12.2117 13.8038
# 2 -16.2235 43.2759 -6.0499 1.9148 -4.2916 17.2548
# 3 21.2701 -6.0499 76.6143 -2.1464 -0.5746 10.3776
# 4 0.7455 1.9148 -2.1464 42.2514 0.4276 -0.5395
# 5 -12.2117 -4.2916 -0.5746 0.4276 39.2421 -11.7073
# 6 13.8038 17.2548 10.3776 -0.5395 -11.7073 48.4527
#
#
#
# Elastic Compliance Matrix: (Units=1/GPa)
#
#
# Indices 1 2 3 4 5 6 
#
# 1 0.021002 0.011020 -0.003900 -0.001222 0.005374 -0.007788
# 2 0.011020 0.033736 0.001585 -0.001860 0.002731 -0.014854
# 3 -0.003900 0.001585 0.014675 0.000722 -0.001730 -0.003006
# 4 -0.001222 -0.001860 0.000722 0.023828 -0.000537 0.000992
# 5 0.005374 0.002731 -0.001730 -0.000537 0.028878 0.004839
# 6 -0.007788 -0.014854 -0.003006 0.000992 0.004839 0.029971
#
#
# Mechanical properties :
#
#
# Convention : Reuss Voigt Hill
#
# Bulk Modulus (GPa) = 11.51752 20.69406 16.10579
# Shear Modulus (GPa) = 30.55855 38.60635 34.58245
#
# Velocity S-wave (km/s) = 3.74143 4.20533 3.98014
# Velocity P-wave (km/s) = 4.89288 5.74972 5.33852
#
# Compressibility (1/GPa) = 0.08682421
#
# Stress axis : x y z
#
# Youngs Moduli (GPa) = 47.61427 29.64179 68.14491
#
# Poissons Ratio (x) = -0.32666 0.26573
# Poissons Ratio (y) = -0.52473 -0.10800
# Poissons Ratio (z) = 0.18567 -0.04698
#
# Static dielectric constant tensor:
#      x y z
#    x 1.769740 0.005890 -0.006020 
#    y 0.005890 1.785330 -0.019540 
#    z -0.006020 -0.019540 1.754700 
# 
# From -- ./inp_files/38406.got.cif
#   From: 2010.05.17/outbox.cif.g08.bks.cpg/sg2_20_cif.got.tgz:38406.got - 2010.06.03 11:33:40.
