data_PCOD9069009
_publ_section_title
;
Structure prediction by ZEFSAII (Michael W. Deem and Ramdas Pophale) SiO2 
 PCOD9069009
Probable space group: P -1
;
_chemical_formula_sum "Si O2"
_cell_formula_units_Z 16
_cell_length_a 8.294077
_cell_length_b 14.634358
_cell_length_c 13.830719
_cell_angle_alpha 73.174601
_cell_angle_beta 102.056651
_cell_angle_gamma 40.890100
_cell_volume 768.725352
_symmetry_space_group_name_H-M "P -1"
_symmetry_group_IT_number 2
_symmetry_cell_setting 'triclinic'
loop_
_space_group_symop_operation_xyz
x,y,z
-x,-y,-z
loop_
_atom_site_type_symbol
_atom_site_label
_atom_site_fract_x
_atom_site_fract_y
_atom_site_fract_z
Si Si1 0.962652 0.878604 0.683234
Si Si2 0.602790 0.015093 0.095514
Si Si3 0.110504 0.626846 0.643944
Si Si4 0.629089 0.942288 0.338725
Si Si5 0.521084 0.807942 0.621203
Si Si6 0.165589 0.814331 0.102550
Si Si7 0.387954 0.658406 0.977872
Si Si8 0.079963 0.449861 0.913478
O O1 0.136755 0.709668 0.688520
O O2 0.203242 0.799613 0.819721
O O3 0.677596 0.965588 0.683231
O O4 0.787071 0.042869 0.538519
O O5 0.619215 0.955872 0.218887
O O6 0.326883 0.237569 0.995752
O O7 0.955003 0.879958 0.144926
O O8 0.500000 0.000000 0.000000
O O9 0.444742 0.394764 0.754776
O O10 0.975441 0.726211 0.491694
O O11 0.799340 0.726149 0.620080
O O12 0.586673 0.068199 0.342871
O O13 0.740587 0.613877 0.756776
O O14 0.158764 0.764432 0.012242
O O15 0.000000 0.000000 0.000000
O O16 0.500000 0.500000 0.000000
O O17 0.705909 0.562090 0.077579
O O18 0.000000 0.500000 0.000000
#
# Coordination Sequence:
#
# PCOD9069009 Si02
#       8
#     2   2   2   2   2   2   2   2
#     4   9  18  33  65  94 114 152 211 260 297 357
#     4  12  26  40  59  89 130 166 202 250 313 367
#     4   9  17  34  62  88 118 158 208 248 305 366
#     4   9  18  36  60  91 119 160 202 253 308 364
#     4   9  16  36  62  90 119 153 203 260 305 351
#     4  12  23  39  59  90 127 164 204 251 304 369
#     4  12  22  39  66  95 119 159 213 255 301 362
#     4  12  24  40  65  93 124 159 205 259 308 359
#
# _framework density 20.813675
#
# number of rings (size 3 to 8) (size 9 to 14) (size 15 to 20)
#    0.000    1.500    5.000    3.000    1.750    0.500 
#    0.000    1.875    2.750    4.500    0.000    0.000 
#    0.000    0.000    0.000    0.000    0.000    0.000 
#
# Total GULP energy -89288.796771 kJ/mol
# GULP energy per Si atom -5580.549798 kJ/mol
# Density = 2.076630 g / cm^3
# Si number density = 20.813675 Si / 1000 Ang^3
#
#
#
# Elastic Constant Matrix: (Units=GPa)
#
#
# Indices 1 2 3 4 5 6 
#
# 1 30.3361 23.3298 15.0649 0.5876 -13.5793 -9.0146
# 2 23.3298 129.6400 58.4837 -1.8171 -17.2256 -6.6376
# 3 15.0649 58.4837 170.6052 5.5576 -11.1356 -5.5120
# 4 0.5876 -1.8171 5.5576 41.3682 -7.0750 -6.0395
# 5 -13.5793 -17.2256 -11.1356 -7.0750 21.1104 6.7215
# 6 -9.0146 -6.6376 -5.5120 -6.0395 6.7215 26.0083
#
#
#
# Elastic Compliance Matrix: (Units=1/GPa)
#
#
# Indices 1 2 3 4 5 6 
#
# 1 0.052719 -0.004658 -0.001063 0.005563 0.027933 0.010931
# 2 -0.004658 0.010513 -0.002952 0.001674 0.004708 -0.000385
# 3 -0.001063 -0.002952 0.007019 -0.001005 0.000251 0.000067
# 4 0.005563 0.001674 -0.001005 0.027105 0.011781 0.005392
# 5 0.027933 0.004708 0.000251 0.011781 0.075086 -0.005733
# 6 0.010931 -0.000385 0.000067 0.005392 -0.005733 0.044887
#
#
# Mechanical properties :
#
#
# Convention : Reuss Voigt Hill
#
# Bulk Modulus (GPa) = 18.90242 58.25978 38.58110
# Shear Modulus (GPa) = 19.81683 33.27756 26.54720
#
# Velocity S-wave (km/s) = 3.08897 4.00288 3.57525
# Velocity P-wave (km/s) = 4.67159 7.02964 5.96824
#
# Compressibility (1/GPa) = 0.05290328
#
# Stress axis : x y z
#
# Youngs Moduli (GPa) = 18.96854 95.11915 142.47649
#
# Poissons Ratio (x) = 0.44310 0.15147
# Poissons Ratio (y) = 0.08836 0.42062
# Poissons Ratio (z) = 0.02017 0.28081
#
# Static dielectric constant tensor:
#      x y z
#    x 1.738690 -0.035220 0.024700 
#    y -0.035220 1.702670 -0.000950 
#    z 0.024700 -0.000950 1.785930 
# 
# From -- ./inp_files/492846.got.cif
#   From: 2010.05.17/outbox.cif.g08.bks.cpg/sg2_247_cif.got.tgz:492846.got - 2010.06.03 11:33:40.
