data_PCOD9069017
_publ_section_title
;
Structure prediction by ZEFSAII (Michael W. Deem and Ramdas Pophale) SiO2 
 PCOD9069017
Probable space group: P -1
;
_chemical_formula_sum "Si O2"
_cell_formula_units_Z 16
_cell_length_a 11.489170
_cell_length_b 8.827599
_cell_length_c 18.421754
_cell_angle_alpha 93.268560
_cell_angle_beta 51.778633
_cell_angle_gamma 137.385230
_cell_volume 658.706056
_symmetry_space_group_name_H-M "P -1"
_symmetry_group_IT_number 2
_symmetry_cell_setting 'triclinic'
loop_
_space_group_symop_operation_xyz
x,y,z
-x,-y,-z
loop_
_atom_site_type_symbol
_atom_site_label
_atom_site_fract_x
_atom_site_fract_y
_atom_site_fract_z
Si Si1 0.266337 0.634576 0.079890
Si Si2 0.817330 0.685835 0.593574
Si Si3 0.205235 0.642591 0.852114
Si Si4 0.114442 0.427303 0.299117
Si Si5 0.662832 0.739090 0.085713
Si Si6 0.190938 0.046923 0.212068
Si Si7 0.034036 0.669708 0.387785
Si Si8 0.154529 0.247812 0.803372
O O1 0.145961 0.457620 0.199395
O O2 0.945762 0.392894 0.153489
O O3 0.498015 0.740246 0.944754
O O4 0.500000 0.000000 0.000000
O O5 0.002200 0.794809 0.598048
O O6 0.441237 0.404040 0.729119
O O7 0.839370 0.566433 0.525736
O O8 0.000000 0.000000 0.500000
O O9 0.178160 0.439889 0.832392
O O10 0.590993 0.017402 0.723994
O O11 0.000000 0.500000 0.000000
O O12 0.509736 0.759007 0.170358
O O13 0.931544 0.414617 0.388901
O O14 0.361430 0.346934 0.191794
O O15 0.000000 0.000000 0.000000
O O16 0.793365 0.865257 0.957241
O O17 0.063801 0.817181 0.315875
O O18 0.886364 0.795717 0.268378
#
# Coordination Sequence:
#
# PCOD9069017 Si02
#       8
#     2   2   2   2   2   2   2   2
#     4  12  22  41  70 110 148 175 228 311 378 426
#     4  12  27  50  73  99 148 207 250 290 350 444
#     4  12  22  39  73 110 140 191 241 299 373 428
#     4  12  25  46  73 105 145 185 246 304 369 424
#     4  12  24  42  70 110 144 180 239 303 370 439
#     4  12  25  43  73 112 147 187 231 309 381 432
#     4  12  25  46  73 101 146 192 249 293 356 444
#     4  12  24  44  71 105 149 189 245 301 368 430
#
# _framework density 24.290044000000002
#
# number of rings (size 3 to 8) (size 9 to 14) (size 15 to 20)
#    0.000    0.000    7.500    3.000    1.750    0.500 
#    0.000    0.625    0.000    0.000    0.000    0.000 
#    0.000    0.000    0.000    0.000    0.000    0.000 
#
# Total GULP energy -89274.439098 kJ/mol
# GULP energy per Si atom -5579.652444 kJ/mol
# Density = 2.423476 g / cm^3
# Si number density = 24.290044 Si / 1000 Ang^3
#
#
#
# Elastic Constant Matrix: (Units=GPa)
#
#
# Indices 1 2 3 4 5 6 
#
# 1 145.2672 27.1796 21.7706 13.7831 24.4661 16.0149
# 2 27.1796 78.3609 14.1203 25.4560 -2.9999 -9.6462
# 3 21.7706 14.1203 62.8298 25.9571 -3.7462 -18.2024
# 4 13.7831 25.4560 25.9571 38.7883 -6.8698 -5.5498
# 5 24.4661 -2.9999 -3.7462 -6.8698 50.1706 3.1692
# 6 16.0149 -9.6462 -18.2024 -5.5498 3.1692 39.3733
#
#
#
# Elastic Compliance Matrix: (Units=1/GPa)
#
#
# Indices 1 2 3 4 5 6 
#
# 1 0.009859 -0.003677 -0.005025 0.000432 -0.004916 -0.006777
# 2 -0.003677 0.018048 0.004058 -0.012198 0.001127 0.005983
# 3 -0.005025 0.004058 0.027872 -0.017343 0.001556 0.013353
# 4 0.000432 -0.012198 -0.017343 0.045261 0.004288 -0.005147
# 5 -0.004916 0.001127 0.001556 0.004288 0.022989 0.001749
# 6 -0.006777 0.005983 0.013353 -0.005147 0.001749 0.034927
#
#
# Mechanical properties :
#
#
# Convention : Reuss Voigt Hill
#
# Bulk Modulus (GPa) = 21.50987 45.84431 33.67709
# Shear Modulus (GPa) = 27.21221 40.55894 33.88557
#
# Velocity S-wave (km/s) = 3.35072 4.09072 3.73907
# Velocity P-wave (km/s) = 4.88308 6.42080 5.70400
#
# Compressibility (1/GPa) = 0.04649029
#
# Stress axis : x y z
#
# Youngs Moduli (GPa) = 101.43089 55.40842 35.87891
#
# Poissons Ratio (x) = 0.20374 0.18029
# Poissons Ratio (y) = 0.37296 -0.14559
# Poissons Ratio (z) = 0.50968 -0.22484
#
# Static dielectric constant tensor:
#      x y z
#    x 2.987790 -1.340860 -1.066290 
#    y -1.340860 3.875240 1.721940 
#    z -1.066290 1.721940 3.570110 
# 
# From -- ./inp_files/566773.got.cif
#   From: 2010.05.17/outbox.cif.g08.bks.cpg/sg2_284_cif.got.tgz:566773.got - 2010.06.03 11:33:40.
