data_PCOD9069844
_publ_section_title
;
Structure prediction by ZEFSAII (Michael W. Deem and Ramdas Pophale) SiO2 
 PCOD9069844
Probable space group: P -1
;
_chemical_formula_sum "Si O2"
_cell_formula_units_Z 14
_cell_length_a 6.824100
_cell_length_b 23.830811
_cell_length_c 4.941359
_cell_angle_alpha 61.985686
_cell_angle_beta 97.649504
_cell_angle_gamma 117.752077
_cell_volume 624.042871
_symmetry_space_group_name_H-M "P -1"
_symmetry_group_IT_number 2
_symmetry_cell_setting 'triclinic'
loop_
_space_group_symop_operation_xyz
x,y,z
-x,-y,-z
loop_
_atom_site_type_symbol
_atom_site_label
_atom_site_fract_x
_atom_site_fract_y
_atom_site_fract_z
Si Si1 0.209969 0.070390 0.768190
Si Si2 0.100906 0.647526 0.196454
Si Si3 0.071399 0.786898 0.892395
Si Si4 0.526693 0.928670 0.693599
Si Si5 0.406743 0.446985 0.852906
Si Si6 0.625940 0.346280 0.285217
Si Si7 0.810783 0.789720 0.347437
O O1 0.174979 0.138477 0.682549
O O2 0.276960 0.066745 0.479638
O O3 0.415679 0.077637 0.972112
O O4 0.000000 0.000000 0.000000
O O5 0.191697 0.616695 0.527040
O O6 0.857299 0.595444 0.153667
O O7 0.264363 0.669068 0.921869
O O8 0.098399 0.718786 0.149499
O O9 0.953967 0.767145 0.625523
O O10 0.302635 0.857901 0.744135
O O11 0.915663 0.800787 0.045399
O O12 0.500000 0.000000 0.500000
O O13 0.500000 0.500000 0.500000
O O14 0.500000 0.500000 0.000000
O O15 0.506148 0.391593 0.047502
O O16 0.438895 0.273411 0.547646
#
# Coordination Sequence:
#
# PCOD9069844 Si02
#       7
#     2   2   2   2   2   2   2
#     4  12  24  42  64  97 137 182 235 288 352 413
#     4  12  26  46  74 105 142 186 238 289 356 423
#     4  12  24  43  70 100 138 183 232 294 352 411
#     4  12  24  42  64  97 137 182 235 288 352 413
#     4  12  28  48  74 106 146 182 234 294 356 426
#     4  12  26  46  74 105 142 186 238 289 356 423
#     4  12  24  43  70 100 138 183 232 294 352 411
#
# _framework density 22.434356000000001
#
# number of rings (size 3 to 8) (size 9 to 14) (size 15 to 20)
#    0.000    0.000    1.429    9.429    2.000    3.429 
#    0.000    0.000    0.000    0.000    0.000    0.000 
#    0.000    0.000    0.000    0.000    0.000    0.000 
#
# Total GULP energy -78415.549872 kJ/mol
# GULP energy per Si atom -5601.110705 kJ/mol
# Density = 2.238329 g / cm^3
# Si number density = 22.434356 Si / 1000 Ang^3
#
#
#
# Elastic Constant Matrix: (Units=GPa)
#
#
# Indices 1 2 3 4 5 6 
#
# 1 96.0918 53.5077 23.0693 -11.7431 -15.0205 6.8947
# 2 53.5077 113.1873 24.6112 -6.6823 -10.7132 11.7697
# 3 23.0693 24.6112 102.6961 12.7119 -1.3148 8.3519
# 4 -11.7431 -6.6823 12.7119 48.2936 6.6982 2.7891
# 5 -15.0205 -10.7132 -1.3148 6.6982 48.0843 13.7771
# 6 6.8947 11.7697 8.3519 2.7891 13.7771 37.3940
#
#
#
# Elastic Compliance Matrix: (Units=1/GPa)
#
#
# Indices 1 2 3 4 5 6 
#
# 1 0.015385 -0.006079 -0.002178 0.003098 0.003524 -0.001966
# 2 -0.006079 0.012544 -0.001434 0.000585 0.001684 -0.003171
# 3 -0.002178 -0.001434 0.011137 -0.003607 0.000222 -0.001448
# 4 0.003098 0.000585 -0.003607 0.022809 -0.001906 -0.000949
# 5 0.003524 0.001684 0.000222 -0.001906 0.025553 -0.010502
# 6 -0.001966 -0.003171 -0.001448 -0.000949 -0.010502 0.032366
#
#
# Mechanical properties :
#
#
# Convention : Reuss Voigt Hill
#
# Bulk Modulus (GPa) = 50.79682 57.15017 53.97350
# Shear Modulus (GPa) = 34.30851 40.80686 37.55768
#
# Velocity S-wave (km/s) = 3.91485 4.26954 4.09603
# Velocity P-wave (km/s) = 6.56706 7.05939 6.81767
#
# Compressibility (1/GPa) = 0.01968627
#
# Stress axis : x y z
#
# Youngs Moduli (GPa) = 64.99918 79.72049 89.78907
#
# Poissons Ratio (x) = 0.48458 0.19553
# Poissons Ratio (y) = 0.39510 0.12872
# Poissons Ratio (z) = 0.14155 0.11428
#
# Static dielectric constant tensor:
#      x y z
#    x 1.841420 0.008110 0.050810 
#    y 0.008110 1.900670 -0.070760 
#    z 0.050810 -0.070760 1.850880 
# 
# From -- ./inp_files/12846.got.cif
#   From: 2010.05.17/outbox.cif.g08.bks.cpg/sg2_7_cif.got.tgz:12846.got - 2010.06.03 11:33:40.
