data_PCOD9069175
_publ_section_title
;
Structure prediction by ZEFSAII (Michael W. Deem and Ramdas Pophale) SiO2 
 PCOD9069175
Probable space group: P -1
;
_chemical_formula_sum "Si O2"
_cell_formula_units_Z 16
_cell_length_a 19.819354
_cell_length_b 9.198041
_cell_length_c 9.285835
_cell_angle_alpha 30.269700
_cell_angle_beta 123.017906
_cell_angle_gamma 125.879024
_cell_volume 688.269370
_symmetry_space_group_name_H-M "P -1"
_symmetry_group_IT_number 2
_symmetry_cell_setting 'triclinic'
loop_
_space_group_symop_operation_xyz
x,y,z
-x,-y,-z
loop_
_atom_site_type_symbol
_atom_site_label
_atom_site_fract_x
_atom_site_fract_y
_atom_site_fract_z
Si Si1 0.481701 0.783678 0.802897
Si Si2 0.123790 0.109033 0.546944
Si Si3 0.862878 0.847029 0.979074
Si Si4 0.084400 0.473089 0.449544
Si Si5 0.545661 0.758905 0.217015
Si Si6 0.284194 0.213017 0.462343
Si Si7 0.073899 0.429827 0.984064
Si Si8 0.297963 0.622731 0.857201
O O1 0.386433 0.747121 0.774971
O O2 0.500000 0.000000 0.500000
O O3 0.500000 0.500000 0.000000
O O4 0.535421 0.789622 0.007002
O O5 0.126609 0.287353 0.546300
O O6 0.209528 0.258293 0.433106
O O7 0.116314 0.754526 0.829033
O O8 0.053388 0.194330 0.292080
O O9 0.869400 0.192241 0.724766
O O10 0.930171 0.743504 0.244273
O O11 0.878217 0.730576 0.937349
O O12 0.770234 0.632581 0.089869
O O13 0.003773 0.517079 0.237742
O O14 0.500000 0.500000 0.500000
O O15 0.641395 0.809168 0.327637
O O16 0.500000 0.000000 0.000000
O O17 0.260249 0.898293 0.616694
O O18 0.313337 0.468102 0.157298
#
# Coordination Sequence:
#
# PCOD9069175 Si02
#       8
#     2   2   2   2   2   2   2   2
#     4  12  26  45  70 109 145 182 230 299 377 431
#     4  12  24  43  70 104 138 186 244 293 364 417
#     4  12  24  44  68 102 140 192 240 283 365 435
#     4  12  26  42  67 105 150 178 236 310 357 415
#     4  12  23  44  74 104 137 188 241 294 353 432
#     4  12  22  44  72 102 134 186 250 296 344 435
#     4  12  23  45  70 100 139 196 241 288 353 440
#     4  12  24  45  73  98 142 188 236 299 354 439
#
# _framework density 23.246711000000001
#
# number of rings (size 3 to 8) (size 9 to 14) (size 15 to 20)
#    0.000    0.000    5.000    6.000    0.000    1.000 
#    0.000    2.500    0.000    0.000    0.000    0.000 
#    0.000    0.000    0.000    0.000    0.000    0.000 
#
# Total GULP energy -89325.326891 kJ/mol
# GULP energy per Si atom -5582.832931 kJ/mol
# Density = 2.319380 g / cm^3
# Si number density = 23.246711 Si / 1000 Ang^3
#
#
#
# Elastic Constant Matrix: (Units=GPa)
#
#
# Indices 1 2 3 4 5 6 
#
# 1 107.8229 52.8873 34.4292 -8.1585 -3.0163 -28.6369
# 2 52.8873 139.3593 60.4458 -4.0936 -1.2805 -29.2650
# 3 34.4292 60.4458 189.3229 -10.3824 -12.8958 -25.0900
# 4 -8.1585 -4.0936 -10.3824 53.9727 -4.3356 9.1879
# 5 -3.0163 -1.2805 -12.8958 -4.3356 41.0021 1.4705
# 6 -28.6369 -29.2650 -25.0900 9.1879 1.4705 46.8177
#
#
#
# Elastic Compliance Matrix: (Units=1/GPa)
#
#
# Indices 1 2 3 4 5 6 
#
# 1 0.012543 -0.003480 -0.000413 0.000728 0.000578 0.005114
# 2 -0.003480 0.010118 -0.002281 -0.000804 -0.000856 0.003158
# 3 -0.000413 -0.002281 0.006475 0.000905 0.001975 0.001552
# 4 0.000728 -0.000804 0.000905 0.019546 0.002505 -0.003487
# 5 0.000578 -0.000856 0.001975 0.002505 0.025305 -0.000409
# 6 0.005114 0.003158 0.001552 -0.003487 -0.000409 0.027990
#
#
# Mechanical properties :
#
#
# Convention : Reuss Voigt Hill
#
# Bulk Modulus (GPa) = 59.56975 81.33662 70.45319
# Shear Modulus (GPa) = 41.69382 47.60804 44.65093
#
# Velocity S-wave (km/s) = 4.23961 4.53033 4.38738
# Velocity P-wave (km/s) = 7.04602 7.90124 7.48585
#
# Compressibility (1/GPa) = 0.01678704
#
# Stress axis : x y z
#
# Youngs Moduli (GPa) = 79.72576 98.83765 154.43501
#
# Poissons Ratio (x) = 0.34399 0.06374
# Poissons Ratio (y) = 0.27748 0.35231
# Poissons Ratio (z) = 0.03290 0.22548
#
# Static dielectric constant tensor:
#      x y z
#    x 1.874160 0.066590 0.001620 
#    y 0.066590 1.905100 -0.024920 
#    z 0.001620 -0.024920 1.841390 
# 
# From -- ./inp_files/343224.got.cif
#   From: 2010.05.17/outbox.cif.g08.bks.cpg/sg2_172_cif.got.tgz:343224.got - 2010.06.03 11:33:40.
