data_PCOD9069131
_publ_section_title
;
Structure prediction by ZEFSAII (Michael W. Deem and Ramdas Pophale) SiO2 
 PCOD9069131
Probable space group: P -1
;
_chemical_formula_sum "Si O2"
_cell_formula_units_Z 16
_cell_length_a 27.684324
_cell_length_b 8.974324
_cell_length_c 27.177903
_cell_angle_alpha 41.391095
_cell_angle_beta 10.886918
_cell_angle_gamma 42.553064
_cell_volume 843.232077
_symmetry_space_group_name_H-M "P -1"
_symmetry_group_IT_number 2
_symmetry_cell_setting 'triclinic'
loop_
_space_group_symop_operation_xyz
x,y,z
-x,-y,-z
loop_
_atom_site_type_symbol
_atom_site_label
_atom_site_fract_x
_atom_site_fract_y
_atom_site_fract_z
Si Si1 0.747193 0.734785 0.613817
Si Si2 0.752235 0.995582 0.646536
Si Si3 0.747358 0.706307 0.909515
Si Si4 0.751804 0.569326 0.824550
Si Si5 0.249438 0.022749 0.553995
Si Si6 0.750246 0.951279 0.229644
Si Si7 0.250955 0.792326 0.935489
Si Si8 0.250247 0.514246 0.711657
O O1 0.759742 0.884338 0.612920
O O2 0.990830 0.570086 0.408535
O O3 0.747377 0.888030 0.526872
O O4 0.491432 0.584559 0.906974
O O5 0.748634 0.794465 0.739595
O O6 0.999784 0.149085 0.369639
O O7 0.500277 0.145819 0.867660
O O8 0.740246 0.632489 0.877869
O O9 0.749684 0.477285 0.995253
O O10 0.250224 0.753333 0.624922
O O11 0.497722 0.118475 0.309951
O O12 0.997665 0.117489 0.809367
O O13 0.749839 0.695879 0.273195
O O14 0.500000 0.000000 0.500000
O O15 0.750925 0.108474 0.141827
O O16 0.000000 0.000000 0.000000
O O17 0.500000 0.500000 0.500000
O O18 0.000000 0.500000 0.000000
#
# Coordination Sequence:
#
# PCOD9069131 Si02
#       8
#     2   2   2   2   2   2   2   2
#     4  12  24  42  68 100 131 179 226 274 338 389
#     4  12  26  42  66 101 141 167 223 292 329 385
#     4  12  24  43  67  98 133 181 224 265 344 399
#     4  12  23  45  68  97 132 184 226 268 332 408
#     4  12  22  43  70  97 129 176 230 272 316 397
#     4  12  26  44  68 104 136 170 213 272 339 390
#     4  12  24  44  71  93 138 176 217 276 327 398
#     4  12  23  43  70  98 128 177 221 267 319 392
#
# _framework density 18.974608
#
# number of rings (size 3 to 8) (size 9 to 14) (size 15 to 20)
#    0.000    0.000    5.000    6.000    0.000    2.000 
#    0.000    0.000    0.000    0.000    0.000    0.000 
#    0.000    0.000    0.000    0.000    0.000    0.000 
#
# Total GULP energy -89618.951292 kJ/mol
# GULP energy per Si atom -5601.184456 kJ/mol
# Density = 1.893142 g / cm^3
# Si number density = 18.974608 Si / 1000 Ang^3
#
#
#
# Elastic Constant Matrix: (Units=GPa)
#
#
# Indices 1 2 3 4 5 6 
#
# 1 46.4987 31.9005 -2.0690 1.9929 -7.3375 -1.6013
# 2 31.9005 171.8620 32.5317 -4.4948 -4.1863 -28.1870
# 3 -2.0690 32.5317 100.2117 12.8038 -14.6588 -9.0078
# 4 1.9929 -4.4948 12.8038 47.9418 -0.7212 7.0998
# 5 -7.3375 -4.1863 -14.6588 -0.7212 33.0897 -8.1508
# 6 -1.6013 -28.1870 -9.0078 7.0998 -8.1508 48.2141
#
#
#
# Elastic Compliance Matrix: (Units=1/GPa)
#
#
# Indices 1 2 3 4 5 6 
#
# 1 0.026646 -0.005567 0.003638 -0.002472 0.006715 -0.000191
# 2 -0.005567 0.007974 -0.002566 0.001100 -0.000411 0.003766
# 3 0.003638 -0.002566 0.012622 -0.004063 0.006651 0.002702
# 4 -0.002472 0.001100 -0.004063 0.022701 -0.002699 -0.003997
# 5 0.006715 -0.000411 0.006651 -0.002699 0.036464 0.007787
# 6 -0.000191 0.003766 0.002702 -0.003997 0.007787 0.025346
#
#
# Mechanical properties :
#
#
# Convention : Reuss Voigt Hill
#
# Bulk Modulus (GPa) = 26.14154 49.25543 37.69848
# Shear Modulus (GPa) = 32.57496 42.92975 37.75236
#
# Velocity S-wave (km/s) = 4.14788 4.76172 4.46536
# Velocity P-wave (km/s) = 6.06192 7.49979 6.81886
#
# Compressibility (1/GPa) = 0.03825330
#
# Stress axis : x y z
#
# Youngs Moduli (GPa) = 37.52880 125.40646 79.22909
#
# Poissons Ratio (x) = 0.69814 -0.28827
# Poissons Ratio (y) = 0.20892 0.20328
# Poissons Ratio (z) = -0.13654 0.32175
#
# Static dielectric constant tensor:
#      x y z
#    x 1.621190 -0.009990 0.000320 
#    y -0.009990 1.633240 -0.001560 
#    z 0.000320 -0.001560 1.627230 
# 
# From -- ./inp_files/55304.got.cif
#   From: 2010.05.17/outbox.cif.g08.bks.cpg/sg2_28_cif.got.tgz:55304.got - 2010.06.03 11:33:40.
