data_PCOD9069807
_publ_section_title
;
Structure prediction by ZEFSAII (Michael W. Deem and Ramdas Pophale) SiO2 
 PCOD9069807
Probable space group: P -1
;
_chemical_formula_sum "Si O2"
_cell_formula_units_Z 15
_cell_length_a 14.213149
_cell_length_b 8.642837
_cell_length_c 8.900250
_cell_angle_alpha 67.225176
_cell_angle_beta 76.074850
_cell_angle_gamma 42.915942
_cell_volume 684.826854
_symmetry_space_group_name_H-M "P -1"
_symmetry_group_IT_number 2
_symmetry_cell_setting 'triclinic'
loop_
_space_group_symop_operation_xyz
x,y,z
-x,-y,-z
loop_
_atom_site_type_symbol
_atom_site_label
_atom_site_fract_x
_atom_site_fract_y
_atom_site_fract_z
Si Si1 0.054270 0.319523 0.413128
Si Si2 0.143469 0.248967 0.103704
Si Si3 0.397773 0.074745 0.877291
Si Si4 0.510754 0.355546 0.184268
Si Si5 0.197030 0.577260 0.648223
Si Si6 0.205371 0.775202 0.267382
Si Si7 0.000000 0.000000 0.000000
Si Si8 0.801951 0.120232 0.263658
O O1 0.147346 0.296436 0.260542
O O2 0.000000 0.500000 0.500000
O O3 0.924100 0.405896 0.339727
O O4 0.131054 0.075530 0.560447
O O5 0.160924 0.025703 0.190328
O O6 0.265216 0.164253 0.983005
O O7 0.000000 0.500000 0.000000
O O8 0.340692 0.301549 0.717431
O O9 0.460959 0.859421 0.821543
O O10 0.500000 0.000000 0.000000
O O11 0.365785 0.548256 0.252400
O O12 0.644575 0.252594 0.262918
O O13 0.500000 0.500000 0.000000
O O14 0.186685 0.713477 0.459645
O O15 0.180267 0.708276 0.755705
O O16 0.104843 0.818391 0.165900
O O17 0.121815 0.975647 0.889753
#
# Coordination Sequence:
#
# PCOD9069807 Si02
#       8
#     2   2   2   2   2   2   1   2
#     4  12  26  43  71 110 149 185 242 308 367 428
#     4  12  26  46  74 104 144 190 243 295 366 431
#     4  12  28  47  75 110 150 192 244 307 366 439
#     4  12  25  47  72 106 145 193 245 296 363 442
#     4  12  26  47  73 109 148 190 246 310 366 432
#     4  12  27  47  76 106 147 196 248 299 372 436
#     4  12  24  38  74 104 132 186 246 292 354 426
#     4  12  25  44  74 103 144 194 245 303 364 433
#
# _framework density 21.903345000000002
#
# number of rings (size 3 to 8) (size 9 to 14) (size 15 to 20)
#    0.000    0.000    6.667    2.800    1.867    3.200 
#    0.000    0.000    0.000    0.000    0.000    0.000 
#    0.000    0.000    0.000    0.000    0.000    0.000 
#
# Total GULP energy -83657.393205 kJ/mol
# GULP energy per Si atom -5577.159547 kJ/mol
# Density = 2.185349 g / cm^3
# Si number density = 21.903345 Si / 1000 Ang^3
#
#
#
# Elastic Constant Matrix: (Units=GPa)
#
#
# Indices 1 2 3 4 5 6 
#
# 1 97.5845 47.0691 12.6750 -8.5107 24.8078 -12.4289
# 2 47.0691 122.3501 31.9001 -14.2354 8.1445 -5.4968
# 3 12.6750 31.9001 123.6202 -18.0456 -0.8573 -1.8081
# 4 -8.5107 -14.2354 -18.0456 49.9178 -9.8502 -3.4288
# 5 24.8078 8.1445 -0.8573 -9.8502 43.1714 0.1632
# 6 -12.4289 -5.4968 -1.8081 -3.4288 0.1632 40.6923
#
#
#
# Elastic Compliance Matrix: (Units=1/GPa)
#
#
# Indices 1 2 3 4 5 6 
#
# 1 0.015233 -0.005116 -0.000273 -0.000240 -0.007864 0.003961
# 2 -0.005116 0.010776 -0.001997 0.001724 0.001261 -0.000055
# 3 -0.000273 -0.001997 0.009079 0.002960 0.001388 0.000294
# 4 -0.000240 0.001724 0.002960 0.022699 0.005042 0.002183
# 5 -0.007864 0.001261 0.001388 0.005042 0.028629 -0.001860
# 6 0.003961 -0.000055 0.000294 0.002183 -0.001860 0.025981
#
#
# Mechanical properties :
#
#
# Convention : Reuss Voigt Hill
#
# Bulk Modulus (GPa) = 49.22127 58.53814 53.87971
# Shear Modulus (GPa) = 37.32992 43.55035 40.44013
#
# Velocity S-wave (km/s) = 4.13280 4.46387 4.30152
# Velocity P-wave (km/s) = 6.73010 7.30424 7.02303
#
# Compressibility (1/GPa) = 0.02031642
#
# Stress axis : x y z
#
# Youngs Moduli (GPa) = 65.64654 92.79848 110.14917
#
# Poissons Ratio (x) = 0.47471 0.03012
# Poissons Ratio (y) = 0.33582 0.21993
# Poissons Ratio (z) = 0.01795 0.18529
#
# Static dielectric constant tensor:
#      x y z
#    x 1.843790 -0.026170 -0.044820 
#    y -0.026170 1.903680 -0.035900 
#    z -0.044820 -0.035900 1.730210 
# 
# From -- ./inp_files/158817.got.cif
#   From: 2010.05.17/outbox.cif.g08.bks.cpg/sg2_80_cif.got.tgz:158817.got - 2010.06.03 11:33:40.
