data_PCOD9069451
_publ_section_title
;
Structure prediction by ZEFSAII (Michael W. Deem and Ramdas Pophale) SiO2 
 PCOD9069451
Probable space group: P -1
;
_chemical_formula_sum "Si O2"
_cell_formula_units_Z 14
_cell_length_a 13.916539
_cell_length_b 6.716933
_cell_length_c 22.702720
_cell_angle_alpha 121.524882
_cell_angle_beta 20.151747
_cell_angle_gamma 121.669638
_cell_volume 618.971835
_symmetry_space_group_name_H-M "P -1"
_symmetry_group_IT_number 2
_symmetry_cell_setting 'triclinic'
loop_
_space_group_symop_operation_xyz
x,y,z
-x,-y,-z
loop_
_atom_site_type_symbol
_atom_site_label
_atom_site_fract_x
_atom_site_fract_y
_atom_site_fract_z
Si Si1 0.987019 0.410981 0.388259
Si Si2 0.706498 0.832953 0.643692
Si Si3 0.750446 0.137950 0.190650
Si Si4 0.775849 0.384058 0.833616
Si Si5 0.422692 0.038666 0.482746
Si Si6 0.955901 0.595104 0.205330
Si Si7 0.536161 0.858528 0.875256
O O1 0.791629 0.568803 0.561181
O O2 0.046661 0.569928 0.320247
O O3 0.270406 0.340115 0.244421
O O4 0.812064 0.169588 0.432882
O O5 0.511218 0.872388 0.705957
O O6 0.550991 0.887465 0.801203
O O7 0.000000 0.000000 0.500000
O O8 0.645214 0.050942 0.303115
O O9 0.859961 0.412100 0.181584
O O10 0.000000 0.000000 0.000000
O O11 0.918859 0.521857 0.828068
O O12 0.679380 0.107927 0.856692
O O13 0.500000 0.500000 0.000000
O O14 0.285321 0.278740 0.605317
O O15 0.500000 0.000000 0.500000
O O16 0.212684 0.781995 0.065078
#
# Coordination Sequence:
#
# PCOD9069451 Si02
#       7
#     2   2   2   2   2   2   2
#     4  12  24  46  77 111 149 197 258 316 382 455
#     4  12  27  49  77 106 159 202 254 318 390 456
#     4  12  31  50  76 115 160 204 255 317 395 462
#     4  12  23  43  74 113 152 193 253 318 377 451
#     4  12  26  49  78 108 151 203 259 316 383 457
#     4  12  26  48  76 111 156 197 259 319 383 457
#     4  12  26  44  77 116 147 202 257 313 387 459
#
# _framework density 22.618154000000001
#
# number of rings (size 3 to 8) (size 9 to 14) (size 15 to 20)
#    0.000    0.000    4.286    5.571    8.000    0.571 
#    0.000    0.000    0.000    0.000    0.000    0.000 
#    0.000    0.000    0.000    0.000    0.000    0.000 
#
# Total GULP energy -78270.420264 kJ/mol
# GULP energy per Si atom -5590.744305 kJ/mol
# Density = 2.256667 g / cm^3
# Si number density = 22.618154 Si / 1000 Ang^3
#
#
#
# Elastic Constant Matrix: (Units=GPa)
#
#
# Indices 1 2 3 4 5 6 
#
# 1 146.5788 33.5009 55.2103 -8.8435 1.4049 11.5051
# 2 33.5009 100.5538 40.7112 -2.0821 -1.8629 21.4390
# 3 55.2103 40.7112 130.1921 2.8863 14.5132 5.1132
# 4 -8.8435 -2.0821 2.8863 45.5737 -10.3059 5.7404
# 5 1.4049 -1.8629 14.5132 -10.3059 45.6783 1.2523
# 6 11.5051 21.4390 5.1132 5.7404 1.2523 39.6047
#
#
#
# Elastic Compliance Matrix: (Units=1/GPa)
#
#
# Indices 1 2 3 4 5 6 
#
# 1 0.008645 -0.000979 -0.003494 0.002414 0.001402 -0.001924
# 2 -0.000979 0.013360 -0.003812 0.002075 0.002442 -0.006833
# 3 -0.003494 -0.003812 0.010792 -0.002755 -0.004159 0.002216
# 4 0.002414 0.002075 -0.002755 0.024846 0.006636 -0.005279
# 5 0.001402 0.002442 -0.004159 0.006636 0.024848 -0.002939
# 6 -0.001924 -0.006833 0.002216 -0.005279 -0.002939 0.030079
#
#
# Mechanical properties :
#
#
# Convention : Reuss Voigt Hill
#
# Bulk Modulus (GPa) = 61.62822 70.68551 66.15687
# Shear Modulus (GPa) = 37.16060 42.69816 39.92938
#
# Velocity S-wave (km/s) = 4.05774 4.34958 4.20619
# Velocity P-wave (km/s) = 7.01855 7.51961 7.27340
#
# Compressibility (1/GPa) = 0.01622633
#
# Stress axis : x y z
#
# Youngs Moduli (GPa) = 115.66766 74.85200 92.65709
#
# Poissons Ratio (x) = 0.07331 0.32376
# Poissons Ratio (y) = 0.11329 0.35321
# Poissons Ratio (z) = 0.40416 0.28534
#
# Static dielectric constant tensor:
#      x y z
#    x 1.841580 -0.026630 0.056760 
#    y -0.026630 1.880680 -0.006370 
#    z 0.056760 -0.006370 1.940140 
# 
# From -- ./inp_files/611330.got.cif
#   From: 2010.05.17/outbox.cif.g08.bks.cpg/sg2_306_cif.got.tgz:611330.got - 2010.06.03 11:33:40.
