data_PCOD9069592
_publ_section_title
;
Structure prediction by ZEFSAII (Michael W. Deem and Ramdas Pophale) SiO2 
 PCOD9069592
Probable space group: P -1
;
_chemical_formula_sum "Si O2"
_cell_formula_units_Z 10
_cell_length_a 9.702753
_cell_length_b 7.671463
_cell_length_c 13.599280
_cell_angle_alpha 75.498932
_cell_angle_beta 151.307132
_cell_angle_gamma 98.433138
_cell_volume 464.676665
_symmetry_space_group_name_H-M "P -1"
_symmetry_group_IT_number 2
_symmetry_cell_setting 'triclinic'
loop_
_space_group_symop_operation_xyz
x,y,z
-x,-y,-z
loop_
_atom_site_type_symbol
_atom_site_label
_atom_site_fract_x
_atom_site_fract_y
_atom_site_fract_z
Si Si1 0.679405 0.460545 0.827766
Si Si2 0.835686 0.263567 0.622284
Si Si3 0.218200 0.568542 0.877678
Si Si4 0.927337 0.971499 0.572368
Si Si5 0.309999 0.894457 0.242879
O O1 0.432348 0.625054 0.620348
O O2 0.630770 0.291625 0.754781
O O3 0.680440 0.418080 0.949103
O O4 0.000000 0.500000 0.000000
O O5 0.580831 0.993386 0.371921
O O6 0.717320 0.153305 0.653010
O O7 0.011142 0.414241 0.757380
O O8 0.500000 0.500000 0.000000
O O9 0.061333 0.766591 0.716601
O O10 0.023325 0.122956 0.684468
O O11 0.000000 0.000000 0.500000
O O12 0.000000 0.000000 0.000000
#
# Coordination Sequence:
#
# PCOD9069592 Si02
#       5
#     2   2   2   2   2
#     4  12  23  45  76 104 140 186 241 295 355 421
#     4  12  26  49  75 104 146 187 243 297 353 429
#     4  12  28  47  74 107 144 191 237 296 363 421
#     4  12  28  47  73 108 147 188 240 296 358 427
#     4  12  25  46  75 107 145 190 239 296 357 426
#
# _framework density 21.520340999999998
#
# number of rings (size 3 to 8) (size 9 to 14) (size 15 to 20)
#    0.000    0.000    4.000    6.000    5.600    2.400 
#    0.000    0.000    0.000    0.000    0.000    0.000 
#    0.000    0.000    0.000    0.000    0.000    0.000 
#
# Total GULP energy -56013.876759 kJ/mol
# GULP energy per Si atom -5601.387676 kJ/mol
# Density = 2.147136 g / cm^3
# Si number density = 21.520341 Si / 1000 Ang^3
#
#
#
# Elastic Constant Matrix: (Units=GPa)
#
#
# Indices 1 2 3 4 5 6 
#
# 1 168.8295 30.1846 48.3975 -18.6759 -39.0600 -11.7395
# 2 30.1846 125.3565 21.4004 -12.5995 -13.9731 -24.5562
# 3 48.3975 21.4004 102.4824 -27.0618 -8.9808 6.5759
# 4 -18.6759 -12.5995 -27.0618 36.5615 -5.0797 -2.2592
# 5 -39.0600 -13.9731 -8.9808 -5.0797 46.3396 3.3289
# 6 -11.7395 -24.5562 6.5759 -2.2592 3.3289 40.7703
#
#
#
# Elastic Compliance Matrix: (Units=1/GPa)
#
#
# Indices 1 2 3 4 5 6 
#
# 1 0.009000 0.000016 -0.002813 0.003694 0.007259 0.002667
# 2 0.000016 0.010060 -0.001440 0.003166 0.002666 0.006254
# 3 -0.002813 -0.001440 0.013892 0.008276 0.001049 -0.003545
# 4 0.003694 0.003166 0.008276 0.037974 0.009623 0.002954
# 5 0.007259 0.002666 0.001049 0.009623 0.029643 0.001639
# 6 0.002667 0.006254 -0.003545 0.002954 0.001639 0.029664
#
#
# Mechanical properties :
#
#
# Convention : Reuss Voigt Hill
#
# Bulk Modulus (GPa) = 40.85439 66.29260 53.57349
# Shear Modulus (GPa) = 34.04474 44.51333 39.27904
#
# Velocity S-wave (km/s) = 3.98173 4.55293 4.27688
# Velocity P-wave (km/s) = 6.33752 7.64921 7.02405
#
# Compressibility (1/GPa) = 0.02447718
#
# Stress axis : x y z
#
# Youngs Moduli (GPa) = 111.10684 99.40811 71.98558
#
# Poissons Ratio (x) = -0.00159 0.20252
# Poissons Ratio (y) = -0.00177 0.10365
# Poissons Ratio (z) = 0.31257 0.14314
#
# Static dielectric constant tensor:
#      x y z
#    x 1.755900 -0.057820 -0.025340 
#    y -0.057820 1.901190 0.119650 
#    z -0.025340 0.119650 1.850820 
# 
# From -- ./inp_files/129900.got.cif
#   From: 2010.05.17/outbox.cif.g08.bks.cpg/sg2_65_cif.got.tgz:129900.got - 2010.06.03 11:33:40.
