data_PCOD9069995
_publ_section_title
;
Structure prediction by ZEFSAII (Michael W. Deem and Ramdas Pophale) SiO2 
 PCOD9069995
Probable space group: P -1
;
_chemical_formula_sum "Si O2"
_cell_formula_units_Z 16
_cell_length_a 19.350243
_cell_length_b 8.458295
_cell_length_c 12.217634
_cell_angle_alpha 32.555254
_cell_angle_beta 137.535327
_cell_angle_gamma 126.407117
_cell_volume 724.273050
_symmetry_space_group_name_H-M "P -1"
_symmetry_group_IT_number 2
_symmetry_cell_setting 'triclinic'
loop_
_space_group_symop_operation_xyz
x,y,z
-x,-y,-z
loop_
_atom_site_type_symbol
_atom_site_label
_atom_site_fract_x
_atom_site_fract_y
_atom_site_fract_z
Si Si1 0.923730 0.720874 0.349346
Si Si2 0.842541 0.879584 0.384187
Si Si3 0.405800 0.300925 0.522587
Si Si4 0.669719 0.452338 0.483100
Si Si5 0.535450 0.395096 0.982032
Si Si6 0.266278 0.244460 0.032565
Si Si7 0.212797 0.434599 0.089194
Si Si8 0.938457 0.799481 0.780318
O O1 0.923962 0.742446 0.469336
O O2 0.000000 0.500000 0.500000
O O3 0.806707 0.698749 0.190529
O O4 0.968280 0.014511 0.186375
O O5 0.750836 0.663072 0.404214
O O6 0.883691 0.901327 0.543481
O O7 0.808190 0.217090 0.114343
O O8 0.500000 0.500000 0.500000
O O9 0.341375 0.444335 0.464739
O O10 0.330821 0.332051 0.313446
O O11 0.439249 0.958413 0.783645
O O12 0.702898 0.104788 0.717215
O O13 0.558788 0.518635 0.259307
O O14 0.500000 0.500000 0.000000
O O15 0.634977 0.567175 0.969138
O O16 0.198973 0.361503 0.989181
O O17 0.143155 0.245823 0.194485
O O18 0.000000 0.500000 0.000000
#
# Coordination Sequence:
#
# PCOD9069995 Si02
#       8
#     2   2   2   2   2   2   2   2
#     4  12  28  44  72 103 144 189 241 296 354 419
#     4  12  25  49  73 105 143 186 240 298 356 423
#     4  12  24  44  72 106 139 185 239 287 353 428
#     4  12  24  45  72 105 142 183 237 293 358 428
#     4  12  25  45  72 104 149 188 232 295 360 428
#     4  12  27  46  69 109 144 191 237 294 360 426
#     4  12  26  46  74 102 146 186 237 295 357 426
#     4  12  26  48  73 103 138 191 243 295 359 415
#
# _framework density 22.091116
#
# number of rings (size 3 to 8) (size 9 to 14) (size 15 to 20)
#    0.000    0.000    2.500    7.875    5.250    0.500 
#    0.000    0.000    0.000    0.000    0.000    0.000 
#    0.000    0.000    0.000    0.000    0.000    0.000 
#
# Total GULP energy -89527.120826 kJ/mol
# GULP energy per Si atom -5595.445052 kJ/mol
# Density = 2.204084 g / cm^3
# Si number density = 22.091116 Si / 1000 Ang^3
#
#
#
# Elastic Constant Matrix: (Units=GPa)
#
#
# Indices 1 2 3 4 5 6 
#
# 1 140.8555 35.0250 5.9458 -18.5459 -17.7271 3.3835
# 2 35.0250 85.8159 7.8542 -21.0898 -0.8053 9.6105
# 3 5.9458 7.8542 69.1548 -8.8131 5.4924 -4.5259
# 4 -18.5459 -21.0898 -8.8131 50.2539 -8.6904 9.5293
# 5 -17.7271 -0.8053 5.4924 -8.6904 34.7267 -1.4975
# 6 3.3835 9.6105 -4.5259 9.5293 -1.4975 55.4691
#
#
#
# Elastic Compliance Matrix: (Units=1/GPa)
#
#
# Indices 1 2 3 4 5 6 
#
# 1 0.008878 -0.002721 -0.000518 0.003053 0.005293 -0.000494
# 2 -0.002721 0.014633 -0.000957 0.005681 0.000376 -0.003413
# 3 -0.000518 -0.000957 0.015050 0.001444 -0.002257 0.001116
# 4 0.003053 0.005681 0.001444 0.026009 0.007741 -0.005312
# 5 0.005293 0.000376 -0.002257 0.007741 0.033759 -0.000991
# 6 -0.000494 -0.003413 0.001116 -0.005312 -0.000991 0.019626
#
#
# Mechanical properties :
#
#
# Convention : Reuss Voigt Hill
#
# Bulk Modulus (GPa) = 33.14694 43.71957 38.43326
# Shear Modulus (GPa) = 36.65599 44.55671 40.60635
#
# Velocity S-wave (km/s) = 4.07788 4.49592 4.29199
# Velocity P-wave (km/s) = 6.09995 6.83993 6.48051
#
# Compressibility (1/GPa) = 0.03016870
#
# Stress axis : x y z
#
# Youngs Moduli (GPa) = 112.63933 68.33903 66.44525
#
# Poissons Ratio (x) = 0.18594 0.03442
# Poissons Ratio (y) = 0.30647 0.06360
# Poissons Ratio (z) = 0.05835 0.06542
#
# Static dielectric constant tensor:
#      x y z
#    x 1.787620 0.004860 0.040050 
#    y 0.004860 1.817380 0.057950 
#    z 0.040050 0.057950 1.758980 
# 
# From -- ./inp_files/39103.got.cif
#   From: 2010.05.17/outbox.cif.g08.bks.cpg/sg2_20_cif.got.tgz:39103.got - 2010.06.03 11:33:40.
