data_PCOD9069374
_publ_section_title
;
Structure prediction by ZEFSAII (Michael W. Deem and Ramdas Pophale) SiO2 
 PCOD9069374
Probable space group: P -1
;
_chemical_formula_sum "Si O2"
_cell_formula_units_Z 15
_cell_length_a 14.173393
_cell_length_b 8.808126
_cell_length_c 8.122478
_cell_angle_alpha 110.380411
_cell_angle_beta 137.667160
_cell_angle_gamma 86.393691
_cell_volume 608.974868
_symmetry_space_group_name_H-M "P -1"
_symmetry_group_IT_number 2
_symmetry_cell_setting 'triclinic'
loop_
_space_group_symop_operation_xyz
x,y,z
-x,-y,-z
loop_
_atom_site_type_symbol
_atom_site_label
_atom_site_fract_x
_atom_site_fract_y
_atom_site_fract_z
Si Si1 0.798280 0.369640 0.420078
Si Si2 0.500000 0.000000 0.500000
Si Si3 0.456287 0.610145 0.125083
Si Si4 0.283088 0.139606 0.269664
Si Si5 0.985118 0.823894 0.506059
Si Si6 0.709148 0.594957 0.902552
Si Si7 0.025607 0.230139 0.149320
Si Si8 0.273254 0.743942 0.358389
O O1 0.885684 0.567090 0.649246
O O2 0.709618 0.281653 0.434651
O O3 0.912578 0.271695 0.484218
O O4 0.691513 0.364973 0.126604
O O5 0.332449 0.985927 0.205170
O O6 0.585993 0.132750 0.506448
O O7 0.570661 0.791773 0.394173
O O8 0.437710 0.498223 0.223351
O O9 0.500000 0.500000 0.000000
O O10 0.293471 0.273678 0.190983
O O11 0.141319 0.144334 0.189313
O O12 0.011317 0.836123 0.738179
O O13 0.820270 0.701414 0.221990
O O14 0.000000 0.000000 0.500000
O O15 0.759669 0.442569 0.835596
O O16 0.875918 0.204834 0.844344
#
# Coordination Sequence:
#
# PCOD9069374 Si02
#       8
#     2   1   2   2   2   2   2   2
#     4  12  24  46  77 109 142 198 249 301 362 441
#     4  12  32  46  70 112 156 188 242 314 374 426
#     4  12  23  42  72 105 141 187 250 303 349 434
#     4  12  27  45  74 110 141 199 243 302 366 433
#     4  12  28  44  71 116 152 186 239 312 376 428
#     4  12  23  47  76 100 146 193 256 292 362 450
#     4  12  24  49  77 107 144 194 255 296 363 443
#     4  12  26  49  78 108 142 199 249 305 366 437
#
# _framework density 24.631557999999998
#
# number of rings (size 3 to 8) (size 9 to 14) (size 15 to 20)
#    0.000    0.000    6.667    2.800    5.600    0.533 
#    0.000    0.667    0.000    0.000    0.000    0.000 
#    0.000    0.000    0.000    0.000    0.000    0.000 
#
# Total GULP energy -83827.836549 kJ/mol
# GULP energy per Si atom -5588.522437 kJ/mol
# Density = 2.457550 g / cm^3
# Si number density = 24.631558 Si / 1000 Ang^3
#
#
#
# Elastic Constant Matrix: (Units=GPa)
#
#
# Indices 1 2 3 4 5 6 
#
# 1 127.4290 57.7801 19.8914 -14.6969 12.9102 21.6992
# 2 57.7801 143.2434 4.2174 -19.1371 -2.4011 8.9680
# 3 19.8914 4.2174 83.8887 1.9489 10.8034 3.4422
# 4 -14.6969 -19.1371 1.9489 40.3297 -5.5352 -4.9787
# 5 12.9102 -2.4011 10.8034 -5.5352 46.1706 -10.1952
# 6 21.6992 8.9680 3.4422 -4.9787 -10.1952 50.6516
#
#
#
# Elastic Compliance Matrix: (Units=1/GPa)
#
#
# Indices 1 2 3 4 5 6 
#
# 1 0.011319 -0.004132 -0.001817 0.001150 -0.003845 -0.004655
# 2 -0.004132 0.009050 0.000133 0.003194 0.002179 0.000911
# 3 -0.001817 0.000133 0.012790 -0.001718 -0.002874 -0.000862
# 4 0.001150 0.003194 -0.001718 0.027705 0.004146 0.002616
# 5 -0.003845 0.002179 -0.002874 0.004146 0.025565 0.007010
# 6 -0.004655 0.000911 -0.000862 0.002616 0.007010 0.023302
#
#
# Mechanical properties :
#
#
# Convention : Reuss Voigt Hill
#
# Bulk Modulus (GPa) = 46.45262 57.59321 52.02292
# Shear Modulus (GPa) = 38.89846 45.60854 42.25350
#
# Velocity S-wave (km/s) = 3.97824 4.30773 4.14626
# Velocity P-wave (km/s) = 6.32470 6.94080 6.63990
#
# Compressibility (1/GPa) = 0.02152731
#
# Stress axis : x y z
#
# Youngs Moduli (GPa) = 88.34346 110.49670 78.18549
#
# Poissons Ratio (x) = 0.45655 0.14205
# Poissons Ratio (y) = 0.36502 -0.01036
# Poissons Ratio (z) = 0.16051 -0.01464
#
# Static dielectric constant tensor:
#      x y z
#    x 1.789270 0.103390 0.029020 
#    y 0.103390 1.941890 0.082010 
#    z 0.029020 0.082010 2.006550 
# 
# From -- ./inp_files/238135.got.cif
#   From: 2010.05.17/outbox.cif.g08.bks.cpg/sg2_120_cif.got.tgz:238135.got - 2010.06.03 11:33:40.
