data_PCOD9069014
_publ_section_title
;
Structure prediction by ZEFSAII (Michael W. Deem and Ramdas Pophale) SiO2 
 PCOD9069014
Probable space group: P -1
;
_chemical_formula_sum "Si O2"
_cell_formula_units_Z 16
_cell_length_a 7.773993
_cell_length_b 17.563906
_cell_length_c 7.992185
_cell_angle_alpha 89.073551
_cell_angle_beta 53.280336
_cell_angle_gamma 120.255058
_cell_volume 671.503071
_symmetry_space_group_name_H-M "P -1"
_symmetry_group_IT_number 2
_symmetry_cell_setting 'triclinic'
loop_
_space_group_symop_operation_xyz
x,y,z
-x,-y,-z
loop_
_atom_site_type_symbol
_atom_site_label
_atom_site_fract_x
_atom_site_fract_y
_atom_site_fract_z
Si Si1 0.423184 0.118204 0.729069
Si Si2 0.553252 0.387912 0.986343
Si Si3 0.801962 0.978537 0.464883
Si Si4 0.347690 0.670407 0.393257
Si Si5 0.138933 0.415445 0.051230
Si Si6 0.308493 0.938310 0.957302
Si Si7 0.895232 0.722307 0.140092
Si Si8 0.015500 0.186780 0.280826
O O1 0.478943 0.214358 0.763480
O O2 0.737955 0.155609 0.530526
O O3 0.294255 0.100625 0.619495
O O4 0.249435 0.010280 0.920035
O O5 0.729787 0.386487 0.736814
O O6 0.729709 0.470290 0.022829
O O7 0.380418 0.414546 0.985554
O O8 0.306126 0.275943 0.196420
O O9 0.966039 0.086946 0.290124
O O10 0.512037 0.944507 0.705880
O O11 0.000000 0.000000 0.500000
O O12 0.569431 0.665926 0.357921
O O13 0.105035 0.637453 0.664516
O O14 0.054864 0.356069 0.925883
O O15 0.080835 0.821728 0.140038
O O16 0.500000 0.000000 0.000000
O O17 0.967159 0.773096 0.913491
#
# Coordination Sequence:
#
# PCOD9069014 Si02
#       8
#     2   2   2   2   2   2   2   2
#     4  11  19  37  58  74 120 159 180 236 288 334
#     4   9  18  28  52  83 111 141 191 236 282 338
#     4  11  22  35  58  82 110 159 196 229 281 347
#     4  10  18  28  54  81 108 149 187 230 284 335
#     4   9  16  32  49  80 116 141 185 242 283 332
#     4  11  23  37  53  84 120 151 190 235 284 341
#     4  10  19  34  54  79 113 155 185 227 287 339
#     4   9  16  36  53  76 116 150 185 225 283 336
#
# _framework density 23.827141999999998
#
# number of rings (size 3 to 8) (size 9 to 14) (size 15 to 20)
#    0.000    2.250    5.000    1.125    1.750    2.500 
#    0.000    0.000    0.000    0.000    0.000   13.125 
#    3.750    0.000    0.000    0.000    0.000    0.000 
#
# Total GULP energy -89183.511013 kJ/mol
# GULP energy per Si atom -5573.969438 kJ/mol
# Density = 2.377291 g / cm^3
# Si number density = 23.827142 Si / 1000 Ang^3
#
#
#
# Elastic Constant Matrix: (Units=GPa)
#
#
# Indices 1 2 3 4 5 6 
#
# 1 39.9831 31.1693 4.8103 6.0596 -0.1029 12.4782
# 2 31.1693 171.9315 9.8353 6.6291 -8.8977 21.9137
# 3 4.8103 9.8353 50.5696 12.3610 -19.1620 -7.2474
# 4 6.0596 6.6291 12.3610 31.0532 -4.2404 -10.7170
# 5 -0.1029 -8.8977 -19.1620 -4.2404 20.2028 8.4647
# 6 12.4782 21.9137 -7.2474 -10.7170 8.4647 24.5651
#
#
#
# Elastic Compliance Matrix: (Units=1/GPa)
#
#
# Indices 1 2 3 4 5 6 
#
# 1 0.037105 -0.002688 -0.001069 -0.014047 0.005417 -0.024760
# 2 -0.002688 0.008089 0.001338 -0.004090 0.008173 -0.010057
# 3 -0.001069 0.001338 0.034115 -0.011557 0.033524 -0.007179
# 4 -0.014047 -0.004090 -0.011557 0.050224 -0.017020 0.035150
# 5 0.005417 0.008173 0.033524 -0.017020 0.098788 -0.041618
# 6 -0.024760 -0.010057 -0.007179 0.035150 -0.041618 0.089815
#
#
# Mechanical properties :
#
#
# Convention : Reuss Voigt Hill
#
# Bulk Modulus (GPa) = 13.42798 39.34598 26.38698
# Shear Modulus (GPa) = 14.37619 29.60883 21.99251
#
# Velocity S-wave (km/s) = 2.45899 3.52895 3.04139
# Velocity P-wave (km/s) = 3.70270 5.75792 4.84064
#
# Compressibility (1/GPa) = 0.07447136
#
# Stress axis : x y z
#
# Youngs Moduli (GPa) = 26.95087 123.61733 29.31247
#
# Poissons Ratio (x) = 0.33224 0.03133
# Poissons Ratio (y) = 0.07244 -0.03921
# Poissons Ratio (z) = 0.02881 -0.16537
#
# Static dielectric constant tensor:
#      x y z
#    x 1.999410 0.008470 -0.030740 
#    y 0.008470 2.423290 -0.015730 
#    z -0.030740 -0.015730 1.927070 
# 
# From -- ./inp_files/217630.got.cif
#   From: 2010.05.17/outbox.cif.g08.bks.cpg/sg2_109_cif.got.tgz:217630.got - 2010.06.03 11:33:40.
