data_PCOD9069543
_publ_section_title
;
Structure prediction by ZEFSAII (Michael W. Deem and Ramdas Pophale) SiO2 
 PCOD9069543
Probable space group: P -1
;
_chemical_formula_sum "Si O2"
_cell_formula_units_Z 16
_cell_length_a 17.104842
_cell_length_b 17.104545
_cell_length_c 17.127219
_cell_angle_alpha 147.064322
_cell_angle_beta 147.065518
_cell_angle_gamma 17.649805
_cell_volume 801.953564
_symmetry_space_group_name_H-M "P -1"
_symmetry_group_IT_number 2
_symmetry_cell_setting 'triclinic'
loop_
_space_group_symop_operation_xyz
x,y,z
-x,-y,-z
loop_
_atom_site_type_symbol
_atom_site_label
_atom_site_fract_x
_atom_site_fract_y
_atom_site_fract_z
Si Si1 0.259390 0.259914 0.308245
Si Si2 0.480660 0.480618 0.146425
Si Si3 0.964906 0.964938 0.854556
Si Si4 0.209620 0.209630 0.400333
Si Si5 0.927501 0.927071 0.434365
Si Si6 0.305723 0.305161 0.879460
Si Si7 0.234643 0.234689 0.923514
Si Si8 0.572534 0.573057 0.455994
O O1 0.219639 0.219586 0.324294
O O2 0.349526 0.349142 0.461677
O O3 0.983626 0.485601 0.220826
O O4 0.484124 0.984677 0.220228
O O5 0.759975 0.259501 0.150349
O O6 0.509065 0.509163 0.283414
O O7 0.391026 0.391162 0.997230
O O8 0.259672 0.759868 0.150371
O O9 0.875894 0.875826 0.716153
O O10 0.000000 0.000000 0.000000
O O11 0.000000 0.500000 0.500000
O O12 0.500000 0.000000 0.500000
O O13 0.849353 0.849245 0.254428
O O14 0.180301 0.678409 0.492666
O O15 0.679135 0.179590 0.492788
O O16 0.000000 0.000000 0.500000
O O17 0.293546 0.293717 0.951774
O O18 0.000000 0.500000 0.000000
O O19 0.500000 0.000000 0.000000
#
# Coordination Sequence:
#
# PCOD9069543 Si02
#       8
#     2   2   2   2   2   2   2   2
#     4  12  23  45  69  94 134 175 223 276 327 398
#     4  12  27  43  70 100 137 181 223 280 335 398
#     4  12  25  47  66 101 140 178 226 281 339 394
#     4  12  25  42  70 101 131 176 226 276 332 395
#     4  12  27  46  70 101 137 179 216 276 343 396
#     4  12  25  45  68 100 129 180 227 266 336 393
#     4  12  26  45  72 100 136 173 225 277 327 403
#     4  12  24  47  67 100 137 176 223 276 332 404
#
# _framework density 19.951279
#
# number of rings (size 3 to 8) (size 9 to 14) (size 15 to 20)
#    0.000    0.000    2.500    8.250    3.500    0.000 
#    0.000    0.000    0.000    0.000    0.000    0.000 
#    0.000    0.000    0.000    0.000    0.000    0.000 
#
# Total GULP energy -89626.156622 kJ/mol
# GULP energy per Si atom -5601.634789 kJ/mol
# Density = 1.990587 g / cm^3
# Si number density = 19.951279 Si / 1000 Ang^3
#
#
#
# Elastic Constant Matrix: (Units=GPa)
#
#
# Indices 1 2 3 4 5 6 
#
# 1 105.3559 32.6981 -12.3855 3.0187 0.2207 -5.3000
# 2 32.6981 186.8867 27.2678 -7.1320 -24.0410 -9.6559
# 3 -12.3855 27.2678 69.1736 -0.5622 -3.5033 -7.3322
# 4 3.0187 -7.1320 -0.5622 34.6481 4.2901 -7.1793
# 5 0.2207 -24.0410 -3.5033 4.2901 58.0119 5.9903
# 6 -5.3000 -9.6559 -7.3322 -7.1793 5.9903 51.3810
#
#
#
# Elastic Compliance Matrix: (Units=1/GPa)
#
#
# Indices 1 2 3 4 5 6 
#
# 1 0.010658 -0.002390 0.002905 -0.001053 -0.000883 0.001021
# 2 -0.002390 0.006568 -0.002832 0.001316 0.002412 0.000486
# 3 0.002905 -0.002832 0.016297 -0.000079 -0.000415 0.002130
# 4 -0.001053 0.001316 -0.000079 0.030455 -0.002186 0.004638
# 5 -0.000883 0.002412 -0.000415 -0.002186 0.018602 -0.002171
# 6 0.001021 0.000486 0.002130 0.004638 -0.002171 0.020864
#
#
# Mechanical properties :
#
#
# Convention : Reuss Voigt Hill
#
# Bulk Modulus (GPa) = 34.61459 50.73079 42.67269
# Shear Modulus (GPa) = 42.47811 49.73057 46.10434
#
# Velocity S-wave (km/s) = 4.61921 4.99801 4.81234
# Velocity P-wave (km/s) = 6.77028 7.66742 7.23278
#
# Compressibility (1/GPa) = 0.02888955
#
# Stress axis : x y z
#
# Youngs Moduli (GPa) = 93.82447 152.25591 61.35997
#
# Poissons Ratio (x) = 0.36384 -0.17827
# Poissons Ratio (y) = 0.22421 0.17380
# Poissons Ratio (z) = -0.27259 0.43126
#
# Static dielectric constant tensor:
#      x y z
#    x 1.662780 0.002440 -0.005270 
#    y 0.002440 1.649480 -0.001040 
#    z -0.005270 -0.001040 1.685740 
# 
# From -- ./inp_files/352512.got.cif
#   From: 2010.05.17/outbox.cif.g08.bks.cpg/sg2_177_cif.got.tgz:352512.got - 2010.06.03 11:33:40.
