data_PCOD9069648
_publ_section_title
;
Structure prediction by ZEFSAII (Michael W. Deem and Ramdas Pophale) SiO2 
 PCOD9069648
Probable space group: P -1
;
_chemical_formula_sum "Si O2"
_cell_formula_units_Z 14
_cell_length_a 13.231260
_cell_length_b 9.323709
_cell_length_c 19.152048
_cell_angle_alpha 62.023918
_cell_angle_beta 153.515230
_cell_angle_gamma 135.339174
_cell_volume 625.982853
_symmetry_space_group_name_H-M "P -1"
_symmetry_group_IT_number 2
_symmetry_cell_setting 'triclinic'
loop_
_space_group_symop_operation_xyz
x,y,z
-x,-y,-z
loop_
_atom_site_type_symbol
_atom_site_label
_atom_site_fract_x
_atom_site_fract_y
_atom_site_fract_z
Si Si1 0.229483 0.628090 0.757478
Si Si2 0.683982 0.760298 0.528732
Si Si3 0.143693 0.472617 0.029743
Si Si4 0.483002 0.182405 0.952605
Si Si5 0.218202 0.275989 0.554604
Si Si6 0.320355 0.060705 0.169579
Si Si7 0.344308 0.911490 0.500267
O O1 0.995296 0.670192 0.600170
O O2 0.030404 0.354582 0.684099
O O3 0.476114 0.775766 0.810023
O O4 0.399285 0.709345 0.920812
O O5 0.500000 0.500000 0.500000
O O6 0.621827 0.700781 0.423129
O O7 0.563047 0.862595 0.464206
O O8 0.086146 0.998674 0.735074
O O9 0.280463 0.628344 0.007505
O O10 0.474196 0.546293 0.242153
O O11 0.000000 0.500000 0.000000
O O12 0.834608 0.194849 0.885063
O O13 0.500000 0.000000 0.000000
O O14 0.000000 0.000000 0.500000
O O15 0.526731 0.147961 0.348508
O O16 0.000000 0.000000 0.000000
O O17 0.500000 0.000000 0.500000
#
# Coordination Sequence:
#
# PCOD9069648 Si02
#       7
#     2   2   2   2   2   2   2
#     4  12  27  49  76 107 151 194 250 305 373 442
#     4  12  28  45  78 107 148 193 252 306 370 438
#     4  12  26  45  75 109 148 186 247 303 368 435
#     4  12  26  47  75 110 146 191 249 308 366 439
#     4  12  23  46  74 108 142 195 246 304 368 435
#     4  12  29  47  73 108 149 196 244 304 370 444
#     4  12  28  51  74 107 151 197 249 306 376 445
#
# _framework density 22.364830000000001
#
# number of rings (size 3 to 8) (size 9 to 14) (size 15 to 20)
#    0.000    0.000    2.857    6.429   10.000    0.571 
#    0.000    0.000    0.000    0.000    0.000    0.000 
#    0.000    0.000    0.000    0.000    0.000    0.000 
#
# Total GULP energy -78156.179527 kJ/mol
# GULP energy per Si atom -5582.584252 kJ/mol
# Density = 2.231393 g / cm^3
# Si number density = 22.364830 Si / 1000 Ang^3
#
#
#
# Elastic Constant Matrix: (Units=GPa)
#
#
# Indices 1 2 3 4 5 6 
#
# 1 188.6049 78.6270 40.0683 -1.6198 -11.2716 34.1427
# 2 78.6270 142.3263 13.1584 30.0045 -3.9743 25.7087
# 3 40.0683 13.1584 83.4218 10.1247 -22.2493 12.6878
# 4 -1.6198 30.0045 10.1247 40.5959 -1.6400 9.0508
# 5 -11.2716 -3.9743 -22.2493 -1.6400 40.7467 -3.0348
# 6 34.1427 25.7087 12.6878 9.0508 -3.0348 61.4330
#
#
#
# Elastic Compliance Matrix: (Units=1/GPa)
#
#
# Indices 1 2 3 4 5 6 
#
# 1 0.008831 -0.005250 -0.003707 0.005779 -0.000070 -0.002800
# 2 -0.005250 0.011898 0.002032 -0.009250 0.000363 -0.001100
# 3 -0.003707 0.002032 0.016308 -0.005177 0.007794 -0.001010
# 4 0.005779 -0.009250 -0.005177 0.033682 -0.001019 -0.003284
# 5 -0.000070 0.000363 0.007794 -0.001019 0.028761 -0.000152
# 6 -0.002800 -0.001100 -0.001010 -0.003284 -0.000152 0.018979
#
#
# Mechanical properties :
#
#
# Convention : Reuss Voigt Hill
#
# Bulk Modulus (GPa) = 43.13135 75.34005 59.23570
# Shear Modulus (GPa) = 35.70422 47.38840 41.54631
#
# Velocity S-wave (km/s) = 3.99989 4.60812 4.31474
# Velocity P-wave (km/s) = 6.37647 7.87864 7.16702
#
# Compressibility (1/GPa) = 0.02318499
#
# Stress axis : x y z
#
# Youngs Moduli (GPa) = 113.23998 84.05121 61.31892
#
# Poissons Ratio (x) = 0.44129 0.22734
# Poissons Ratio (y) = 0.59453 -0.12460
# Poissons Ratio (z) = 0.41984 -0.17079
#
# Static dielectric constant tensor:
#      x y z
#    x 1.408320 -0.174160 -0.026850 
#    y -0.174160 1.782570 0.023500 
#    z -0.026850 0.023500 1.739900 
# 
# From -- ./inp_files/284581.got.cif
#   From: 2010.05.17/outbox.cif.g08.bks.cpg/sg2_143_cif.got.tgz:284581.got - 2010.06.03 11:33:40.
