data_PCOD9069797
_publ_section_title
;
Structure prediction by ZEFSAII (Michael W. Deem and Ramdas Pophale) SiO2 
 PCOD9069797
Probable space group: P -1
;
_chemical_formula_sum "Si O2"
_cell_formula_units_Z 16
_cell_length_a 12.629212
_cell_length_b 16.187261
_cell_length_c 9.174664
_cell_angle_alpha 79.258821
_cell_angle_beta 68.381340
_cell_angle_gamma 23.912095
_cell_volume 648.004989
_symmetry_space_group_name_H-M "P -1"
_symmetry_group_IT_number 2
_symmetry_cell_setting 'triclinic'
loop_
_space_group_symop_operation_xyz
x,y,z
-x,-y,-z
loop_
_atom_site_type_symbol
_atom_site_label
_atom_site_fract_x
_atom_site_fract_y
_atom_site_fract_z
Si Si1 0.296686 0.191005 0.150633
Si Si2 0.413318 0.113609 0.644738
Si Si3 0.156200 0.731933 0.037258
Si Si4 0.792900 0.344620 0.460246
Si Si5 0.779507 0.022034 0.425991
Si Si6 0.584237 0.300593 0.254261
Si Si7 0.834886 0.431087 0.128680
Si Si8 0.310022 0.377030 0.111017
O O1 0.376515 0.232537 0.132446
O O2 0.001547 0.396941 0.130931
O O3 0.359671 0.087092 0.290142
O O4 0.500000 0.000000 0.000000
O O5 0.056450 0.357865 0.783171
O O6 0.500000 0.000000 0.500000
O O7 0.504767 0.146503 0.551318
O O8 0.167654 0.805256 0.900955
O O9 0.086711 0.696897 0.987710
O O10 0.500000 0.500000 0.000000
O O11 0.947511 0.881279 0.235602
O O12 0.500000 0.500000 0.500000
O O13 0.702619 0.454440 0.617798
O O14 0.855923 0.361669 0.287882
O O15 0.032117 0.115758 0.476174
O O16 0.692223 0.175892 0.381331
O O17 0.465884 0.318839 0.183990
O O18 0.588548 0.647928 0.083545
#
# Coordination Sequence:
#
# PCOD9069797 Si02
#       8
#     2   2   2   2   2   2   2   2
#     4  12  28  47  73 110 149 197 252 315 375 439
#     4  12  26  47  73 106 156 197 251 307 372 449
#     4  12  23  50  77 106 146 197 242 308 374 450
#     4  12  25  48  72 109 149 190 241 314 376 437
#     4  12  27  45  74 109 143 196 250 301 372 445
#     4  12  27  47  78 107 149 192 256 300 368 458
#     4  12  24  46  77 104 151 189 245 303 383 435
#     4  12  28  48  76 112 148 206 254 302 375 455
#
# _framework density 24.691168999999999
#
# number of rings (size 3 to 8) (size 9 to 14) (size 15 to 20)
#    0.000    0.000    6.250    3.000    3.500    1.500 
#    0.000    0.000    0.000    0.000    0.000    0.000 
#    0.000    0.000    0.000    0.000    0.000    0.000 
#
# Total GULP energy -89226.991852 kJ/mol
# GULP energy per Si atom -5576.686991 kJ/mol
# Density = 2.463497 g / cm^3
# Si number density = 24.691169 Si / 1000 Ang^3
#
#
#
# Elastic Constant Matrix: (Units=GPa)
#
#
# Indices 1 2 3 4 5 6 
#
# 1 111.1418 13.6022 27.9483 3.9736 -6.8064 11.8442
# 2 13.6022 116.4498 -8.2070 -49.5873 -16.7081 -10.0106
# 3 27.9483 -8.2070 177.3647 10.5493 -1.2336 24.6007
# 4 3.9736 -49.5873 10.5493 65.9621 15.3643 12.0889
# 5 -6.8064 -16.7081 -1.2336 15.3643 43.1861 -11.5426
# 6 11.8442 -10.0106 24.6007 12.0889 -11.5426 49.1775
#
#
#
# Elastic Compliance Matrix: (Units=1/GPa)
#
#
# Indices 1 2 3 4 5 6 
#
# 1 0.009861 -0.002021 -0.001332 -0.001879 0.001024 -0.001418
# 2 -0.002021 0.013184 0.000221 0.009371 0.001768 0.001171
# 3 -0.001332 0.000221 0.006261 -0.000056 -0.000706 -0.002918
# 4 -0.001879 0.009371 -0.000056 0.024940 -0.006984 -0.005382
# 5 0.001024 0.001768 -0.000706 -0.006984 0.028859 0.008957
# 6 -0.001418 0.001171 -0.002918 -0.005382 0.008957 0.025800
#
#
# Mechanical properties :
#
#
# Convention : Reuss Voigt Hill
#
# Bulk Modulus (GPa) = 43.39764 52.40479 47.90122
# Shear Modulus (GPa) = 40.70069 56.43933 48.57001
#
# Velocity S-wave (km/s) = 4.06444 4.78620 4.44001
# Velocity P-wave (km/s) = 6.29608 7.19818 6.76219
#
# Compressibility (1/GPa) = 0.02304273
#
# Stress axis : x y z
#
# Youngs Moduli (GPa) = 101.41296 75.85165 159.70929
#
# Poissons Ratio (x) = 0.15327 0.21270
# Poissons Ratio (y) = 0.20492 -0.03529
# Poissons Ratio (z) = 0.13506 -0.01676
#
# Static dielectric constant tensor:
#      x y z
#    x 1.927630 0.020100 -0.155690 
#    y 0.020100 1.963710 0.051870 
#    z -0.155690 0.051870 2.143590 
# 
# From -- ./inp_files/272871.got.cif
#   From: 2010.05.17/outbox.cif.g08.bks.cpg/sg2_137_cif.got.tgz:272871.got - 2010.06.03 11:33:40.
