data_PCOD9069442
_publ_section_title
;
Structure prediction by ZEFSAII (Michael W. Deem and Ramdas Pophale) SiO2 
 PCOD9069442
Probable space group: P -1
;
_chemical_formula_sum "Si O2"
_cell_formula_units_Z 16
_cell_length_a 12.730120
_cell_length_b 15.799279
_cell_length_c 15.842515
_cell_angle_alpha 151.102306
_cell_angle_beta 142.095591
_cell_angle_gamma 59.827018
_cell_volume 731.667343
_symmetry_space_group_name_H-M "P -1"
_symmetry_group_IT_number 2
_symmetry_cell_setting 'triclinic'
loop_
_space_group_symop_operation_xyz
x,y,z
-x,-y,-z
loop_
_atom_site_type_symbol
_atom_site_label
_atom_site_fract_x
_atom_site_fract_y
_atom_site_fract_z
Si Si1 0.810662 0.291990 0.141196
Si Si2 0.483517 0.791715 0.776444
Si Si3 0.207254 0.065947 0.636534
Si Si4 0.424397 0.832445 0.579918
Si Si5 0.687888 0.577110 0.252765
Si Si6 0.121621 0.323207 0.230354
Si Si7 0.021947 0.998187 0.738287
Si Si8 0.460522 0.412263 0.656784
O O1 0.670781 0.364278 0.081806
O O2 0.000000 0.500000 0.500000
O O3 0.930890 0.278891 0.128283
O O4 0.658570 0.065965 0.902239
O O5 0.435944 0.762568 0.620505
O O6 0.290576 0.571472 0.513072
O O7 0.723870 0.862002 0.005223
O O8 0.500000 0.000000 0.000000
O O9 0.263099 0.896564 0.533399
O O10 0.405182 0.318614 0.015791
O O11 0.000000 0.000000 0.500000
O O12 0.136729 0.061607 0.492225
O O13 0.385520 0.649371 0.328718
O O14 0.653220 0.673008 0.397994
O O15 0.500000 0.500000 0.000000
O O16 0.922182 0.766027 0.521443
O O17 0.272893 0.306104 0.374086
O O18 0.021298 0.150174 0.939156
#
# Coordination Sequence:
#
# PCOD9069442 Si02
#       8
#     2   2   2   2   2   2   2   2
#     4  12  23  43  74 104 144 189 242 291 366 426
#     4  12  25  45  72 106 145 185 243 295 362 428
#     4  12  27  49  72 102 151 193 236 299 367 427
#     4  12  26  46  74 108 141 195 239 295 360 436
#     4  12  24  45  72 103 143 191 237 299 360 426
#     4  12  26  44  73 110 143 187 244 306 351 432
#     4  12  25  45  72 105 143 187 243 300 357 424
#     4  12  25  47  75 102 151 187 239 299 368 421
#
# _framework density 21.867861999999999
#
# number of rings (size 3 to 8) (size 9 to 14) (size 15 to 20)
#    0.000    0.000    5.000    5.625    1.750    2.500 
#    2.250    2.500    0.000    0.000    0.000    0.000 
#    0.000    0.000    0.000    0.000    0.000    0.000 
#
# Total GULP energy -89566.951666 kJ/mol
# GULP energy per Si atom -5597.934479 kJ/mol
# Density = 2.181809 g / cm^3
# Si number density = 21.867862 Si / 1000 Ang^3
#
#
#
# Elastic Constant Matrix: (Units=GPa)
#
#
# Indices 1 2 3 4 5 6 
#
# 1 146.0627 30.9546 23.3360 -10.6185 -7.6009 -11.9003
# 2 30.9546 98.5533 13.3102 -11.5996 -8.8815 -3.1793
# 3 23.3360 13.3102 32.6323 -0.5252 -8.9848 7.4988
# 4 -10.6185 -11.5996 -0.5252 26.9366 5.1783 -3.7256
# 5 -7.6009 -8.8815 -8.9848 5.1783 49.7664 4.9327
# 6 -11.9003 -3.1793 7.4988 -3.7256 4.9327 48.8606
#
#
#
# Elastic Compliance Matrix: (Units=1/GPa)
#
#
# Indices 1 2 3 4 5 6 
#
# 1 0.008665 -0.001411 -0.006556 0.003296 -0.000788 0.003355
# 2 -0.001411 0.011731 -0.003838 0.004486 0.000590 0.001291
# 3 -0.006556 -0.003838 0.040945 -0.006126 0.007268 -0.009331
# 4 0.003296 0.004486 -0.006126 0.041935 -0.004732 0.005710
# 5 -0.000788 0.000590 0.007268 -0.004732 0.022268 -0.003878
# 6 0.003355 0.001291 -0.009331 0.005710 -0.003878 0.023627
#
#
# Mechanical properties :
#
#
# Convention : Reuss Voigt Hill
#
# Bulk Modulus (GPa) = 26.50289 45.82777 36.16533
# Shear Modulus (GPa) = 26.97507 39.08924 33.03216
#
# Velocity S-wave (km/s) = 3.51600 4.23249 3.89078
# Velocity P-wave (km/s) = 5.35060 6.69981 6.06285
#
# Compressibility (1/GPa) = 0.03773174
#
# Stress axis : x y z
#
# Youngs Moduli (GPa) = 115.40989 85.24340 24.42312
#
# Poissons Ratio (x) = 0.12027 0.16011
# Poissons Ratio (y) = 0.16284 0.09373
# Poissons Ratio (z) = 0.75659 0.32715
#
# Static dielectric constant tensor:
#      x y z
#    x 1.827350 0.005640 0.049260 
#    y 0.005640 1.797710 0.024440 
#    z 0.049260 0.024440 1.815430 
# 
# From -- ./inp_files/522699.got.cif
#   From: 2010.05.17/outbox.cif.g08.bks.cpg/sg2_262_cif.got.tgz:522699.got - 2010.06.03 11:33:40.
