data_PCOD9069974
_publ_section_title
;
Structure prediction by ZEFSAII (Michael W. Deem and Ramdas Pophale) SiO2 
 PCOD9069974
Probable space group: P -1
;
_chemical_formula_sum "Si O2"
_cell_formula_units_Z 12
_cell_length_a 15.610492
_cell_length_b 7.742672
_cell_length_c 7.344728
_cell_angle_alpha 143.388026
_cell_angle_beta 68.810850
_cell_angle_gamma 117.960811
_cell_volume 467.448944
_symmetry_space_group_name_H-M "P -1"
_symmetry_group_IT_number 2
_symmetry_cell_setting 'triclinic'
loop_
_space_group_symop_operation_xyz
x,y,z
-x,-y,-z
loop_
_atom_site_type_symbol
_atom_site_label
_atom_site_fract_x
_atom_site_fract_y
_atom_site_fract_z
Si Si1 0.018050 0.703549 0.331394
Si Si2 0.300163 0.016881 0.102007
Si Si3 0.486809 0.189680 0.848221
Si Si4 0.140219 0.838923 0.813539
Si Si5 0.328918 0.479823 0.792711
Si Si6 0.175840 0.467936 0.185876
O O1 0.120823 0.677115 0.301176
O O2 0.942945 0.478874 0.342234
O O3 0.000000 0.000000 0.500000
O O4 0.000000 0.500000 0.000000
O O5 0.332436 0.211446 0.427802
O O6 0.386487 0.089719 0.950858
O O7 0.201785 0.028334 0.095013
O O8 0.275147 0.664082 0.870878
O O9 0.500000 0.000000 0.500000
O O10 0.500000 0.500000 0.000000
O O11 0.569315 0.280987 0.019033
O O12 0.210008 0.693910 0.522091
O O13 0.110028 0.111932 0.969635
O O14 0.264538 0.406995 0.961459
#
# Coordination Sequence:
#
# PCOD9069974 Si02
#       6
#     2   2   2   2   2   2
#     4  12  26  46  72 104 139 184 235 296 360 426
#     4  12  25  44  69 103 141 186 236 291 350 417
#     4  12  24  44  70 102 142 188 234 288 347 416
#     4  12  25  45  70 102 140 185 237 295 356 425
#     4  12  25  44  69 103 141 186 236 291 350 417
#     4  12  25  45  70 102 140 185 237 295 356 425
#
# _framework density 25.671254000000001
#
# number of rings (size 3 to 8) (size 9 to 14) (size 15 to 20)
#    0.000    0.000    0.000   11.000    0.000    2.667 
#    0.000    0.000    0.000    0.000    0.000    0.000 
#    0.000    0.000    0.000    0.000    0.000    0.000 
#
# Total GULP energy -66894.677860 kJ/mol
# GULP energy per Si atom -5574.556488 kJ/mol
# Density = 2.561282 g / cm^3
# Si number density = 25.671254 Si / 1000 Ang^3
#
#
#
# Elastic Constant Matrix: (Units=GPa)
#
#
# Indices 1 2 3 4 5 6 
#
# 1 85.7250 10.4157 13.2628 -0.5676 4.4620 -0.7260
# 2 10.4157 113.4422 47.2344 6.1568 -17.5719 12.9532
# 3 13.2628 47.2344 214.2136 7.8182 -1.3794 -10.2479
# 4 -0.5676 6.1568 7.8182 53.9276 -19.0950 -16.4745
# 5 4.4620 -17.5719 -1.3794 -19.0950 42.5111 6.0520
# 6 -0.7260 12.9532 -10.2479 -16.4745 6.0520 46.0067
#
#
#
# Elastic Compliance Matrix: (Units=1/GPa)
#
#
# Indices 1 2 3 4 5 6 
#
# 1 0.011997 -0.001294 -0.000433 -0.000161 -0.001974 0.000659
# 2 -0.001294 0.011382 -0.002601 -0.000529 0.005184 -0.004676
# 3 -0.000433 -0.002601 0.005367 -0.000341 -0.001289 0.001968
# 4 -0.000161 -0.000529 -0.000341 0.024372 0.009663 0.007527
# 5 -0.001974 0.005184 -0.001289 0.009663 0.030504 -0.002330
# 6 0.000659 -0.004676 0.001968 0.007527 -0.002330 0.026503
#
#
# Mechanical properties :
#
#
# Convention : Reuss Voigt Hill
#
# Bulk Modulus (GPa) = 49.77223 61.68962 55.73093
# Shear Modulus (GPa) = 39.84809 51.32030 45.58420
#
# Velocity S-wave (km/s) = 3.94413 4.47602 4.21847
# Velocity P-wave (km/s) = 6.33813 7.12712 6.74417
#
# Compressibility (1/GPa) = 0.02009152
#
# Stress axis : x y z
#
# Youngs Moduli (GPa) = 83.35696 87.85526 186.33057
#
# Poissons Ratio (x) = 0.11364 0.08065
# Poissons Ratio (y) = 0.10783 0.48460
# Poissons Ratio (z) = 0.03608 0.22849
#
# Static dielectric constant tensor:
#      x y z
#    x 1.913960 -0.065590 0.049570 
#    y -0.065590 2.090140 -0.036650 
#    z 0.049570 -0.036650 1.913670 
# 
# From -- ./inp_files/299914.got.cif
#   From: 2010.05.17/outbox.cif.g08.bks.cpg/sg2_150_cif.got.tgz:299914.got - 2010.06.03 11:33:40.
