data_PCOD9069788
_publ_section_title
;
Structure prediction by ZEFSAII (Michael W. Deem and Ramdas Pophale) SiO2 
 PCOD9069788
Probable space group: P -1
;
_chemical_formula_sum "Si O2"
_cell_formula_units_Z 11
_cell_length_a 8.940997
_cell_length_b 9.076304
_cell_length_c 8.144265
_cell_angle_alpha 66.611861
_cell_angle_beta 130.068493
_cell_angle_gamma 98.410619
_cell_volume 458.576338
_symmetry_space_group_name_H-M "P -1"
_symmetry_group_IT_number 2
_symmetry_cell_setting 'triclinic'
loop_
_space_group_symop_operation_xyz
x,y,z
-x,-y,-z
loop_
_atom_site_type_symbol
_atom_site_label
_atom_site_fract_x
_atom_site_fract_y
_atom_site_fract_z
Si Si1 0.906495 0.884473 0.608793
Si Si2 0.402167 0.189815 0.835058
Si Si3 0.374681 0.376746 0.056998
Si Si4 0.244766 0.698883 0.134811
Si Si5 0.000000 0.500000 0.000000
Si Si6 0.338900 0.881861 0.428209
O O1 0.748879 0.812029 0.420034
O O2 0.833626 0.014401 0.638504
O O3 0.000000 0.000000 0.500000
O O4 0.041345 0.735127 0.864013
O O5 0.572571 0.292078 0.856549
O O6 0.322327 0.257150 0.925076
O O7 0.500000 0.000000 0.000000
O O8 0.180391 0.436542 0.003194
O O9 0.544538 0.277765 0.335317
O O10 0.500000 0.500000 0.000000
O O11 0.188281 0.535507 0.238259
O O12 0.262502 0.834179 0.220787
O O13 0.500000 0.000000 0.500000
#
# Coordination Sequence:
#
# PCOD9069788 Si02
#       6
#     2   2   2   2   1   2
#     4  12  25  42  77 115 151 201 265 326 399 469
#     4  12  23  49  78 112 160 202 263 342 394 463
#     4  12  27  52  79 115 163 212 263 329 405 480
#     4  12  26  47  73 115 158 206 268 319 397 491
#     4  12  30  48  76 114 162 214 268 312 408 494
#     4  12  25  47  79 112 158 206 259 340 399 461
#
# _framework density 23.987280999999999
#
# number of rings (size 3 to 8) (size 9 to 14) (size 15 to 20)
#    0.000    0.000    7.273    1.636    2.545    2.182 
#    0.000    1.818    0.000    0.000    0.000    0.000 
#    0.000    0.000    0.000    0.000    0.000    0.000 
#
# Total GULP energy -61246.072302 kJ/mol
# GULP energy per Si atom -5567.824755 kJ/mol
# Density = 2.393268 g / cm^3
# Si number density = 23.987281 Si / 1000 Ang^3
#
#
#
# Elastic Constant Matrix: (Units=GPa)
#
#
# Indices 1 2 3 4 5 6 
#
# 1 125.8225 73.6024 27.6658 8.4708 12.9626 -21.7880
# 2 73.6024 141.0722 48.5478 18.4346 7.0467 -27.8038
# 3 27.6658 48.5478 141.0042 11.4376 -7.2144 -11.1826
# 4 8.4708 18.4346 11.4376 63.8857 6.6512 -3.3058
# 5 12.9626 7.0467 -7.2144 6.6512 20.5941 10.8615
# 6 -21.7880 -27.8038 -11.1826 -3.3058 10.8615 82.6948
#
#
#
# Elastic Compliance Matrix: (Units=1/GPa)
#
#
# Indices 1 2 3 4 5 6 
#
# 1 0.012515 -0.005499 -0.000859 0.001028 -0.007901 0.002411
# 2 -0.005499 0.011697 -0.002726 -0.001816 -0.002136 0.002323
# 3 -0.000859 -0.002726 0.008507 -0.001204 0.005226 -0.000727
# 4 0.001028 -0.001816 -0.001204 0.016983 -0.006474 0.001027
# 5 -0.007901 -0.002136 0.005226 -0.006474 0.063846 -0.010738
# 6 0.002411 0.002323 -0.000727 0.001027 -0.010738 0.014862
#
#
# Mechanical properties :
#
#
# Convention : Reuss Voigt Hill
#
# Bulk Modulus (GPa) = 68.71959 78.61453 73.66706
# Shear Modulus (GPa) = 33.01865 50.64043 41.82954
#
# Velocity S-wave (km/s) = 3.71415 4.59970 4.18044
# Velocity P-wave (km/s) = 6.86322 7.81372 7.35384
#
# Compressibility (1/GPa) = 0.01455189
#
# Stress axis : x y z
#
# Youngs Moduli (GPa) = 79.90152 85.48855 117.55665
#
# Poissons Ratio (x) = 0.47007 0.10096
# Poissons Ratio (y) = 0.43935 0.32050
# Poissons Ratio (z) = 0.06862 0.23307
#
# Static dielectric constant tensor:
#      x y z
#    x 1.851830 -0.096720 0.084820 
#    y -0.096720 1.631330 0.107840 
#    z 0.084820 0.107840 1.857800 
# 
# From -- ./inp_files/134717.got.cif
#   From: 2010.05.17/outbox.cif.g08.bks.cpg/sg2_68_cif.got.tgz:134717.got - 2010.06.03 11:33:40.
