data_PCOD9069452
_publ_section_title
;
Structure prediction by ZEFSAII (Michael W. Deem and Ramdas Pophale) SiO2 
 PCOD9069452
Probable space group: P -1
;
_chemical_formula_sum "Si O2"
_cell_formula_units_Z 16
_cell_length_a 12.152492
_cell_length_b 15.841562
_cell_length_c 15.350523
_cell_angle_alpha 150.855053
_cell_angle_beta 58.083645
_cell_angle_gamma 141.627137
_cell_volume 765.239272
_symmetry_space_group_name_H-M "P -1"
_symmetry_group_IT_number 2
_symmetry_cell_setting 'triclinic'
loop_
_space_group_symop_operation_xyz
x,y,z
-x,-y,-z
loop_
_atom_site_type_symbol
_atom_site_label
_atom_site_fract_x
_atom_site_fract_y
_atom_site_fract_z
Si Si1 0.382623 0.656331 0.081422
Si Si2 0.928195 0.615755 0.437964
Si Si3 0.439352 0.561415 0.659057
Si Si4 0.148690 0.846666 0.899220
Si Si5 0.301480 0.945612 0.442588
Si Si6 0.190346 0.015321 0.838450
Si Si7 0.243292 0.235464 0.620740
Si Si8 0.716409 0.527729 0.858148
O O1 0.320899 0.474477 0.026518
O O2 0.287458 0.746503 0.219931
O O3 0.630552 0.930565 0.217667
O O4 0.314121 0.477079 0.864607
O O5 0.743739 0.505577 0.359663
O O6 0.853568 0.362731 0.287543
O O7 0.008147 0.819521 0.667292
O O8 0.122213 0.778725 0.439717
O O9 0.500000 0.500000 0.500000
O O10 0.353461 0.362192 0.596214
O O11 0.642701 0.871722 0.888161
O O12 0.131835 0.908268 0.864644
O O13 0.943414 0.688879 0.894375
O O14 0.282795 0.093091 0.521464
O O15 0.531654 0.205268 0.620323
O O16 0.292489 0.310450 0.051278
O O17 0.000000 0.000000 0.500000
#
# Coordination Sequence:
#
# PCOD9069452 Si02
#       8
#     2   2   2   2   2   2   2   2
#     4  12  24  44  73 108 145 184 242 302 354 423
#     4  12  25  46  72 106 146 189 241 299 356 430
#     4  12  28  50  72 102 146 193 237 291 372 432
#     4  12  26  46  68 106 148 188 239 296 361 434
#     4  12  24  45  76 111 139 187 246 299 358 418
#     4  12  24  43  74 106 145 188 239 301 361 421
#     4  12  27  48  73 104 143 190 245 297 348 432
#     4  12  23  43  75 105 143 186 238 301 361 422
#
# _framework density 20.908491999999999
#
# number of rings (size 3 to 8) (size 9 to 14) (size 15 to 20)
#    0.000    0.000    6.250    4.125    1.750    2.500 
#    2.250    0.000    0.000    0.000    0.000    0.000 
#    0.000    0.000    0.000    0.000    0.000    0.000 
#
# Total GULP energy -89523.901871 kJ/mol
# GULP energy per Si atom -5595.243867 kJ/mol
# Density = 2.086090 g / cm^3
# Si number density = 20.908492 Si / 1000 Ang^3
#
#
#
# Elastic Constant Matrix: (Units=GPa)
#
#
# Indices 1 2 3 4 5 6 
#
# 1 86.3194 28.9663 51.8820 9.0160 12.7270 -4.6140
# 2 28.9663 131.0429 41.5736 5.9905 13.7606 -16.1660
# 3 51.8820 41.5736 93.7492 5.5885 -3.4314 -9.1175
# 4 9.0160 5.9905 5.5885 34.8898 1.1050 4.7038
# 5 12.7270 13.7606 -3.4314 1.1050 39.8584 11.7040
# 6 -4.6140 -16.1660 -9.1175 4.7038 11.7040 45.4660
#
#
#
# Elastic Compliance Matrix: (Units=1/GPa)
#
#
# Indices 1 2 3 4 5 6 
#
# 1 0.019677 0.000401 -0.010922 -0.003470 -0.007957 0.002356
# 2 0.000401 0.010066 -0.004372 -0.001539 -0.005181 0.004236
# 3 -0.010922 -0.004372 0.018806 0.000438 0.006806 -0.000689
# 4 -0.003470 -0.001539 0.000438 0.030291 0.002159 -0.004501
# 5 -0.007957 -0.005181 0.006806 0.002159 0.032872 -0.009970
# 6 0.002356 0.004236 -0.000689 -0.004501 -0.009970 0.026634
#
#
# Mechanical properties :
#
#
# Convention : Reuss Voigt Hill
#
# Bulk Modulus (GPa) = 53.29795 61.77281 57.53538
# Shear Modulus (GPa) = 28.67192 36.62212 32.64702
#
# Velocity S-wave (km/s) = 3.70713 4.18968 3.95577
# Velocity P-wave (km/s) = 6.62346 7.28101 6.96000
#
# Compressibility (1/GPa) = 0.01876245
#
# Stress axis : x y z
#
# Youngs Moduli (GPa) = 50.82099 99.34051 53.17478
#
# Poissons Ratio (x) = -0.03979 0.58079
# Poissons Ratio (y) = -0.02036 0.23246
# Poissons Ratio (z) = 0.55508 0.43427
#
# Static dielectric constant tensor:
#      x y z
#    x 1.789190 0.006000 -0.011500 
#    y 0.006000 1.715880 0.003660 
#    z -0.011500 0.003660 1.785810 
# 
# From -- ./inp_files/522633.got.cif
#   From: 2010.05.17/outbox.cif.g08.bks.cpg/sg2_262_cif.got.tgz:522633.got - 2010.06.03 11:33:40.
