data_PCOD9069484
_publ_section_title
;
Structure prediction by ZEFSAII (Michael W. Deem and Ramdas Pophale) SiO2 
 PCOD9069484
Probable space group: P -1
;
_chemical_formula_sum "Si O2"
_cell_formula_units_Z 12
_cell_length_a 8.769488
_cell_length_b 14.970507
_cell_length_c 8.626317
_cell_angle_alpha 71.213564
_cell_angle_beta 31.424206
_cell_angle_gamma 58.541753
_cell_volume 483.924299
_symmetry_space_group_name_H-M "P -1"
_symmetry_group_IT_number 2
_symmetry_cell_setting 'triclinic'
loop_
_space_group_symop_operation_xyz
x,y,z
-x,-y,-z
loop_
_atom_site_type_symbol
_atom_site_label
_atom_site_fract_x
_atom_site_fract_y
_atom_site_fract_z
Si Si1 0.935574 0.583657 0.870483
Si Si2 0.986095 0.086139 0.837551
Si Si3 0.144980 0.058000 0.183260
Si Si4 0.671594 0.420205 0.751465
Si Si5 0.367370 0.209699 0.783868
Si Si6 0.307437 0.227344 0.471831
O O1 0.222637 0.536264 0.516122
O O2 0.592397 0.611440 0.067138
O O3 0.865524 0.696026 0.947112
O O4 0.000000 0.500000 0.000000
O O5 0.658557 0.198220 0.106584
O O6 0.271628 0.118744 0.554492
O O7 0.922136 0.036371 0.766800
O O8 0.000000 0.000000 0.000000
O O9 0.765962 0.148724 0.516880
O O10 0.235693 0.123448 0.942021
O O11 0.500000 0.000000 0.000000
O O12 0.009572 0.320234 0.581102
O O13 0.500000 0.500000 0.000000
O O14 0.318968 0.254678 0.626141
#
# Coordination Sequence:
#
# PCOD9069484 Si02
#       6
#     2   2   2   2   2   2
#     4  12  28  50  78 108 149 191 240 309 382 446
#     4  12  23  44  69 102 144 196 245 291 357 427
#     4  12  27  42  68 103 149 193 246 297 355 434
#     4  12  28  50  78 111 143 190 249 309 371 447
#     4  12  25  47  69 106 144 193 241 303 368 429
#     4  12  25  44  74 104 143 190 248 303 357 434
#
# _framework density 24.797267000000002
#
# number of rings (size 3 to 8) (size 9 to 14) (size 15 to 20)
#    0.000    0.000    3.333    6.000    7.000    2.667 
#    0.000    0.000    0.000    0.000    0.000    0.000 
#    0.000    0.000    0.000    0.000    0.000    0.000 
#
# Total GULP energy -67188.004338 kJ/mol
# GULP energy per Si atom -5599.000361 kJ/mol
# Density = 2.474083 g / cm^3
# Si number density = 24.797267 Si / 1000 Ang^3
#
#
#
# Elastic Constant Matrix: (Units=GPa)
#
#
# Indices 1 2 3 4 5 6 
#
# 1 119.7517 36.6564 22.4881 3.6095 6.7122 6.9601
# 2 36.6564 49.9606 19.8995 -3.4382 16.4153 -8.3746
# 3 22.4881 19.8995 132.1100 -7.1242 6.3632 4.3767
# 4 3.6095 -3.4382 -7.1242 36.5953 0.2868 4.3202
# 5 6.7122 16.4153 6.3632 0.2868 46.7100 1.9947
# 6 6.9601 -8.3746 4.3767 4.3202 1.9947 28.9796
#
#
#
# Elastic Compliance Matrix: (Units=1/GPa)
#
#
# Indices 1 2 3 4 5 6 
#
# 1 0.011841 -0.010292 -0.000470 -0.001575 0.002231 -0.005666
# 2 -0.010292 0.034878 -0.003307 0.002142 -0.010917 0.013482
# 3 -0.000470 -0.003307 0.008304 0.001629 0.000189 -0.002353
# 4 -0.001575 0.002142 0.001629 0.028411 -0.000776 -0.003431
# 5 0.002231 -0.010917 0.000189 -0.000776 0.025131 -0.005333
# 6 -0.005666 0.013482 -0.002353 -0.003431 -0.005333 0.040998
#
#
# Mechanical properties :
#
#
# Convention : Reuss Voigt Hill
#
# Bulk Modulus (GPa) = 37.19427 51.10116 44.14771
# Shear Modulus (GPa) = 26.78627 37.30888 32.04758
#
# Velocity S-wave (km/s) = 3.29022 3.88307 3.59887
# Velocity P-wave (km/s) = 5.42826 6.38409 5.92548
#
# Compressibility (1/GPa) = 0.02688586
#
# Stress axis : x y z
#
# Youngs Moduli (GPa) = 84.45300 28.67114 120.41981
#
# Poissons Ratio (x) = 0.29507 0.05661
# Poissons Ratio (y) = 0.86916 0.39824
# Poissons Ratio (z) = 0.03970 0.09482
#
# Static dielectric constant tensor:
#      x y z
#    x 1.847660 -0.147880 -0.131260 
#    y -0.147880 1.815120 -0.206950 
#    z -0.131260 -0.206950 1.630240 
# 
# From -- ./inp_files/178510.got.cif
#   From: 2010.05.17/outbox.cif.g08.bks.cpg/sg2_90_cif.got.tgz:178510.got - 2010.06.03 11:33:40.
