data_PCOD9069637
_publ_section_title
;
Structure prediction by ZEFSAII (Michael W. Deem and Ramdas Pophale) SiO2 
 PCOD9069637
Probable space group: P -1
;
_chemical_formula_sum "Si O2"
_cell_formula_units_Z 16
_cell_length_a 28.981389
_cell_length_b 8.420167
_cell_length_c 8.993630
_cell_angle_alpha 32.898514
_cell_angle_beta 36.530136
_cell_angle_gamma 37.673379
_cell_volume 661.623557
_symmetry_space_group_name_H-M "P -1"
_symmetry_group_IT_number 2
_symmetry_cell_setting 'triclinic'
loop_
_space_group_symop_operation_xyz
x,y,z
-x,-y,-z
loop_
_atom_site_type_symbol
_atom_site_label
_atom_site_fract_x
_atom_site_fract_y
_atom_site_fract_z
Si Si1 0.172680 0.460922 0.304425
Si Si2 0.693133 0.659649 0.457476
Si Si3 0.063754 0.932025 0.743899
Si Si4 0.268273 0.728853 0.057567
Si Si5 0.010896 0.407870 0.223955
Si Si6 0.495546 0.169250 0.226028
Si Si7 0.786080 0.201424 0.342839
Si Si8 0.555752 0.716633 0.179292
O O1 0.084537 0.446504 0.590255
O O2 0.233405 0.093729 0.440614
O O3 0.195770 0.692431 0.174465
O O4 0.174923 0.627916 0.011299
O O5 0.595108 0.769819 0.654606
O O6 0.712286 0.482984 0.389274
O O7 0.723536 0.943007 0.187311
O O8 0.738959 0.406964 0.658556
O O9 0.145406 0.960785 0.580422
O O10 0.038316 0.111163 0.507957
O O11 0.075036 0.574063 0.968120
O O12 0.000000 0.000000 0.000000
O O13 0.354011 0.502219 0.937892
O O14 0.000000 0.500000 0.000000
O O15 0.500000 0.000000 0.500000
O O16 0.562552 0.912218 0.153256
O O17 0.500000 0.500000 0.000000
O O18 0.500000 0.500000 0.500000
O O19 0.500000 0.000000 0.000000
#
# Coordination Sequence:
#
# PCOD9069637 Si02
#       8
#     2   2   2   2   2   2   2   2
#     4  12  26  48  71 108 142 189 243 300 365 441
#     4  12  27  49  67 106 145 189 238 292 364 438
#     4  12  23  48  75 101 142 194 241 299 370 438
#     4  12  26  47  72 101 146 192 235 296 364 435
#     4  12  26  46  75 108 146 185 249 310 362 435
#     4  12  26  43  72 105 142 181 243 300 348 417
#     4  12  27  46  74 104 144 191 242 299 369 441
#     4  12  23  46  72  99 137 191 236 289 354 427
#
# _framework density 24.182936000000002
#
# number of rings (size 3 to 8) (size 9 to 14) (size 15 to 20)
#    0.000    0.000    5.000    4.500    5.250    0.000 
#    0.000    0.000    0.000    0.000    0.000    0.000 
#    0.000    0.000    0.000    0.000    0.000    0.000 
#
# Total GULP energy -89248.056501 kJ/mol
# GULP energy per Si atom -5578.003531 kJ/mol
# Density = 2.412789 g / cm^3
# Si number density = 24.182936 Si / 1000 Ang^3
#
#
#
# Elastic Constant Matrix: (Units=GPa)
#
#
# Indices 1 2 3 4 5 6 
#
# 1 56.8831 7.7552 32.2028 -5.3319 1.1816 14.8435
# 2 7.7552 99.5922 60.0887 -2.0727 3.5632 21.6041
# 3 32.2028 60.0887 174.7727 -33.6649 8.3782 26.6813
# 4 -5.3319 -2.0727 -33.6649 57.1815 12.0229 -7.2953
# 5 1.1816 3.5632 8.3782 12.0229 60.7811 -4.5999
# 6 14.8435 21.6041 26.6813 -7.2953 -4.5999 34.6632
#
#
#
# Elastic Compliance Matrix: (Units=1/GPa)
#
#
# Indices 1 2 3 4 5 6 
#
# 1 0.021352 0.002286 -0.003670 -0.001015 -0.000449 -0.008016
# 2 0.002286 0.014182 -0.004829 -0.002947 -0.000137 -0.006739
# 3 -0.003670 -0.004829 0.009460 0.005261 -0.002132 -0.001876
# 4 -0.001015 -0.002947 0.005261 0.021637 -0.004649 0.002158
# 5 -0.000449 -0.000137 -0.002132 -0.004649 0.017934 0.003320
# 6 -0.008016 -0.006739 -0.001876 0.002158 0.003320 0.038821
#
#
# Mechanical properties :
#
#
# Convention : Reuss Voigt Hill
#
# Bulk Modulus (GPa) = 30.70643 59.03793 44.87218
# Shear Modulus (GPa) = 34.08999 45.93859 40.01429
#
# Velocity S-wave (km/s) = 3.75863 4.36320 4.07215
# Velocity P-wave (km/s) = 5.61797 7.06041 6.38008
#
# Compressibility (1/GPa) = 0.03256647
#
# Stress axis : x y z
#
# Youngs Moduli (GPa) = 46.83388 70.51080 105.70297
#
# Poissons Ratio (x) = -0.16116 0.38797
# Poissons Ratio (y) = -0.10704 0.51048
# Poissons Ratio (z) = 0.17190 0.34053
#
# Static dielectric constant tensor:
#      x y z
#    x 1.972970 0.036600 0.065670 
#    y 0.036600 1.917360 0.034170 
#    z 0.065670 0.034170 1.878360 
# 
# From -- ./inp_files/358444.got.cif
#   From: 2010.05.17/outbox.cif.g08.bks.cpg/sg2_180_cif.got.tgz:358444.got - 2010.06.03 11:33:40.
