data_PCOD9069551
_publ_section_title
;
Structure prediction by ZEFSAII (Michael W. Deem and Ramdas Pophale) SiO2 
 PCOD9069551
Probable space group: P -1
;
_chemical_formula_sum "Si O2"
_cell_formula_units_Z 12
_cell_length_a 17.944777
_cell_length_b 9.217629
_cell_length_c 11.977109
_cell_angle_alpha 52.968257
_cell_angle_beta 158.725153
_cell_angle_gamma 129.088420
_cell_volume 557.176786
_symmetry_space_group_name_H-M "P -1"
_symmetry_group_IT_number 2
_symmetry_cell_setting 'triclinic'
loop_
_space_group_symop_operation_xyz
x,y,z
-x,-y,-z
loop_
_atom_site_type_symbol
_atom_site_label
_atom_site_fract_x
_atom_site_fract_y
_atom_site_fract_z
Si Si1 0.520303 0.552475 0.371920
Si Si2 0.696883 0.957144 0.362234
Si Si3 0.479784 0.802695 0.623386
Si Si4 0.937739 0.473103 0.297300
Si Si5 0.131597 0.846385 0.278595
Si Si6 0.086700 0.132610 0.663354
O O1 0.500000 0.500000 0.500000
O O2 0.691421 0.739621 0.484823
O O3 0.522647 0.369240 0.385413
O O4 0.307392 0.616826 0.015500
O O5 0.698230 0.058929 0.435347
O O6 0.913536 0.055928 0.554491
O O7 0.500000 0.000000 0.000000
O O8 0.257452 0.774584 0.389629
O O9 0.500000 0.000000 0.500000
O O10 0.681054 0.837188 0.972509
O O11 0.000000 0.500000 0.500000
O O12 0.977834 0.667920 0.200969
O O13 0.073125 0.335821 0.505895
O O14 0.000000 0.000000 0.000000
O O15 0.000000 0.000000 0.500000
#
# Coordination Sequence:
#
# PCOD9069551 Si02
#       6
#     2   2   2   2   2   2
#     4  12  26  45  73 106 143 183 233 290 352 417
#     4  12  23  45  71 103 140 183 232 286 348 413
#     4  12  27  47  71 103 143 186 234 291 352 419
#     4  12  23  48  71 100 143 187 231 289 351 414
#     4  12  26  48  72 100 140 189 234 290 354 416
#     4  12  27  44  72 105 143 182 239 289 346 418
#
# _framework density 21.537148999999999
#
# number of rings (size 3 to 8) (size 9 to 14) (size 15 to 20)
#    0.000    0.000    5.000    5.000    4.667    0.667 
#    0.000    2.500    0.000    0.000    0.000    0.000 
#    0.000    0.000    0.000    0.000    0.000    0.000 
#
# Total GULP energy -67032.396868 kJ/mol
# GULP energy per Si atom -5586.033072 kJ/mol
# Density = 2.148813 g / cm^3
# Si number density = 21.537149 Si / 1000 Ang^3
#
#
#
# Elastic Constant Matrix: (Units=GPa)
#
#
# Indices 1 2 3 4 5 6 
#
# 1 102.3183 33.1822 28.3699 -5.7928 -2.7728 -9.3331
# 2 33.1822 139.9476 15.0316 -22.6317 -7.1715 1.5335
# 3 28.3699 15.0316 103.3182 -12.8011 -0.5889 -7.2676
# 4 -5.7928 -22.6317 -12.8011 35.6516 0.2713 -2.6008
# 5 -2.7728 -7.1715 -0.5889 0.2713 30.5925 8.2200
# 6 -9.3331 1.5335 -7.2676 -2.6008 8.2200 53.5484
#
#
#
# Elastic Compliance Matrix: (Units=1/GPa)
#
#
# Indices 1 2 3 4 5 6 
#
# 1 0.011476 -0.002547 -0.002739 -0.000613 -0.000056 0.001680
# 2 -0.002547 0.008669 0.000020 0.005027 0.001957 -0.000746
# 3 -0.002739 0.000020 0.010959 0.003596 -0.000399 0.001245
# 4 -0.000613 0.005027 0.003596 0.032557 0.000433 0.001752
# 5 -0.000056 0.001957 -0.000399 0.000433 0.034583 -0.005408
# 6 0.001680 -0.000746 0.001245 0.001752 -0.005408 0.020073
#
#
# Mechanical properties :
#
#
# Convention : Reuss Voigt Hill
#
# Bulk Modulus (GPa) = 48.61101 55.41681 52.01391
# Shear Modulus (GPa) = 36.84450 41.89186 39.36818
#
# Velocity S-wave (km/s) = 4.14060 4.41511 4.28006
# Velocity P-wave (km/s) = 6.74383 7.19567 6.97341
#
# Compressibility (1/GPa) = 0.02057147
#
# Stress axis : x y z
#
# Youngs Moduli (GPa) = 87.13929 115.35684 91.25034
#
# Poissons Ratio (x) = 0.29383 0.24990
# Poissons Ratio (y) = 0.22196 -0.00180
# Poissons Ratio (z) = 0.23864 -0.00228
#
# Static dielectric constant tensor:
#      x y z
#    x 3.410560 -0.272140 -0.433200 
#    y -0.272140 1.872060 0.107340 
#    z -0.433200 0.107340 1.900090 
# 
# From -- ./inp_files/147473.got.cif
#   From: 2010.05.17/outbox.cif.g08.bks.cpg/sg2_74_cif.got.tgz:147473.got - 2010.06.03 11:33:40.
