data_PCOD9069579
_publ_section_title
;
Structure prediction by ZEFSAII (Michael W. Deem and Ramdas Pophale) SiO2 
 PCOD9069579
Probable space group: P -1
;
_chemical_formula_sum "Si O2"
_cell_formula_units_Z 14
_cell_length_a 12.778028
_cell_length_b 16.122134
_cell_length_c 21.801913
_cell_angle_alpha 19.099497
_cell_angle_beta 148.921989
_cell_angle_gamma 152.398232
_cell_volume 675.510147
_symmetry_space_group_name_H-M "P -1"
_symmetry_group_IT_number 2
_symmetry_cell_setting 'triclinic'
loop_
_space_group_symop_operation_xyz
x,y,z
-x,-y,-z
loop_
_atom_site_type_symbol
_atom_site_label
_atom_site_fract_x
_atom_site_fract_y
_atom_site_fract_z
Si Si1 0.839982 0.638164 0.300529
Si Si2 0.417609 0.704034 0.702608
Si Si3 0.472256 0.416390 0.375270
Si Si4 0.684659 0.698016 0.405789
Si Si5 0.094611 0.254765 0.054091
Si Si6 0.841237 0.225622 0.358738
Si Si7 0.174444 0.722020 0.980405
O O1 0.756769 0.546484 0.253611
O O2 0.614671 0.498191 0.327071
O O3 0.000000 0.500000 0.500000
O O4 0.972038 0.972392 0.148321
O O5 0.645166 0.677217 0.850626
O O6 0.294401 0.721424 0.690509
O O7 0.500000 0.000000 0.500000
O O8 0.640143 0.526912 0.439632
O O9 0.317368 0.080740 0.535497
O O10 0.318478 0.580579 0.182164
O O11 0.500000 0.500000 0.500000
O O12 0.934431 0.781194 0.497905
O O13 0.670650 0.988054 0.180506
O O14 0.961895 0.204005 0.087265
O O15 0.091267 0.522130 0.832071
O O16 0.000000 0.500000 0.000000
#
# Coordination Sequence:
#
# PCOD9069579 Si02
#       7
#     2   2   2   2   2   2   2
#     4  12  24  43  74 100 132 182 229 280 340 404
#     4  12  23  45  74  99 135 182 230 280 341 405
#     4  12  25  45  72  98 143 184 224 280 344 406
#     4  12  27  44  69 103 139 179 231 282 336 407
#     4  12  27  45  70 104 140 178 230 284 340 408
#     4  12  27  46  68 106 140 178 229 285 341 405
#     4  12  25  46  72 101 138 184 229 278 343 409
#
# _framework density 20.725078
#
# number of rings (size 3 to 8) (size 9 to 14) (size 15 to 20)
#    0.000    0.000    5.714    4.286    4.000    2.857 
#    0.000    0.000    0.000    0.000    0.000    0.000 
#    0.000    0.000    0.000    0.000    0.000    0.000 
#
# Total GULP energy -78429.589908 kJ/mol
# GULP energy per Si atom -5602.113565 kJ/mol
# Density = 2.067791 g / cm^3
# Si number density = 20.725078 Si / 1000 Ang^3
#
#
#
# Elastic Constant Matrix: (Units=GPa)
#
#
# Indices 1 2 3 4 5 6 
#
# 1 58.2268 -10.9744 1.1255 -19.2297 -3.1511 4.5966
# 2 -10.9744 126.5312 37.8082 -32.4763 -1.1674 -21.9733
# 3 1.1255 37.8082 95.2978 -31.6877 -9.3170 -5.4753
# 4 -19.2297 -32.4763 -31.6877 36.6035 8.1387 2.2841
# 5 -3.1511 -1.1674 -9.3170 8.1387 37.0637 1.8269
# 6 4.5966 -21.9733 -5.4753 2.2841 1.8269 35.2207
#
#
#
# Elastic Compliance Matrix: (Units=1/GPa)
#
#
# Indices 1 2 3 4 5 6 
#
# 1 0.026670 0.007334 0.005009 0.025234 -0.001800 0.000330
# 2 0.007334 0.013910 -0.000055 0.016363 -0.002880 0.006801
# 3 0.005009 -0.000055 0.015953 0.016160 0.000851 0.000700
# 4 0.025234 0.016363 0.016160 0.070771 -0.009079 0.005309
# 5 -0.001800 -0.002880 0.000851 -0.009079 0.029060 -0.002348
# 6 0.000330 0.006801 0.000700 0.005309 -0.002348 0.032478
#
#
# Mechanical properties :
#
#
# Convention : Reuss Voigt Hill
#
# Bulk Modulus (GPa) = 12.32930 37.33050 24.82990
# Shear Modulus (GPa) = 26.13651 38.58403 32.36027
#
# Velocity S-wave (km/s) = 3.55506 4.31943 3.95575
# Velocity P-wave (km/s) = 4.77631 6.55195 5.73329
#
# Compressibility (1/GPa) = 0.08110760
#
# Stress axis : x y z
#
# Youngs Moduli (GPa) = 37.49568 71.89104 62.68400
#
# Poissons Ratio (x) = -0.52724 -0.31398
# Poissons Ratio (y) = -0.27499 0.00347
# Poissons Ratio (z) = -0.18781 0.00398
#
# Static dielectric constant tensor:
#      x y z
#    x 1.726210 -0.009040 0.004810 
#    y -0.009040 1.726290 -0.000790 
#    z 0.004810 -0.000790 1.727600 
# 
# From -- ./inp_files/201155.got.cif
#   From: 2010.05.17/outbox.cif.g08.bks.cpg/sg2_101_cif.got.tgz:201155.got - 2010.06.03 11:33:40.
