data_PCOD9069481
_publ_section_title
;
Structure prediction by ZEFSAII (Michael W. Deem and Ramdas Pophale) SiO2 
 PCOD9069481
Probable space group: P -1
;
_chemical_formula_sum "Si O2"
_cell_formula_units_Z 14
_cell_length_a 8.766405
_cell_length_b 22.340573
_cell_length_c 8.008521
_cell_angle_alpha 124.814946
_cell_angle_beta 146.521861
_cell_angle_gamma 44.892540
_cell_volume 609.823139
_symmetry_space_group_name_H-M "P -1"
_symmetry_group_IT_number 2
_symmetry_cell_setting 'triclinic'
loop_
_space_group_symop_operation_xyz
x,y,z
-x,-y,-z
loop_
_atom_site_type_symbol
_atom_site_label
_atom_site_fract_x
_atom_site_fract_y
_atom_site_fract_z
Si Si1 0.592182 0.180236 0.737905
Si Si2 0.423885 0.940187 0.945842
Si Si3 0.150946 0.828575 0.405089
Si Si4 0.963209 0.648635 0.337149
Si Si5 0.501195 0.658460 0.651795
Si Si6 0.287276 0.495263 0.650440
Si Si7 0.751914 0.928392 0.736822
O O1 0.772626 0.186535 0.747166
O O2 0.323073 0.271904 0.701306
O O3 0.417267 0.125977 0.456653
O O4 0.874478 0.136600 0.066039
O O5 0.216507 0.903583 0.625977
O O6 0.785283 0.860098 0.177585
O O7 0.500000 0.000000 0.000000
O O8 0.220443 0.008223 0.008415
O O9 0.399305 0.745027 0.599505
O O10 0.210841 0.673382 0.529204
O O11 0.152302 0.571860 0.516529
O O12 0.808645 0.627586 0.003639
O O13 0.549712 0.589451 0.447471
O O14 0.000000 0.500000 0.500000
O O15 0.500000 0.500000 0.000000
O O16 0.500000 0.000000 0.500000
#
# Coordination Sequence:
#
# PCOD9069481 Si02
#       7
#     2   2   2   2   2   2   2
#     4  12  25  46  66 101 139 187 236 295 352 425
#     4  12  23  44  68  96 135 185 243 295 353 409
#     4  12  25  43  71  99 138 185 241 293 351 427
#     4  12  27  47  74 108 152 184 236 299 359 426
#     4  12  27  47  74 111 145 188 237 297 360 424
#     4  12  26  50  82 110 146 192 235 287 357 440
#     4  12  27  42  67  97 139 184 241 297 359 414
#
# _framework density 22.957477999999998
#
# number of rings (size 3 to 8) (size 9 to 14) (size 15 to 20)
#    0.000    0.000    2.857    6.857    6.000    2.286 
#    0.000    0.000    0.000    0.000    0.000    0.000 
#    0.000    0.000    0.000    0.000    0.000    0.000 
#
# Total GULP energy -78322.224933 kJ/mol
# GULP energy per Si atom -5594.444638 kJ/mol
# Density = 2.290523 g / cm^3
# Si number density = 22.957478 Si / 1000 Ang^3
#
#
#
# Elastic Constant Matrix: (Units=GPa)
#
#
# Indices 1 2 3 4 5 6 
#
# 1 45.3241 40.1909 20.4377 1.0874 -5.6560 15.3239
# 2 40.1909 130.4746 29.0560 -4.1831 -17.8639 5.5005
# 3 20.4377 29.0560 145.4882 -2.0079 -2.1243 13.2277
# 4 1.0874 -4.1831 -2.0079 35.3676 0.1549 -6.2351
# 5 -5.6560 -17.8639 -2.1243 0.1549 44.1831 -8.5898
# 6 15.3239 5.5005 13.2277 -6.2351 -8.5898 41.3966
#
#
#
# Elastic Compliance Matrix: (Units=1/GPa)
#
#
# Indices 1 2 3 4 5 6 
#
# 1 0.036604 -0.010763 -0.001938 -0.004733 -0.002206 -0.012671
# 2 -0.010763 0.011686 -0.001092 0.002334 0.004059 0.003974
# 3 -0.001938 -0.001092 0.007506 0.000067 -0.000652 -0.001661
# 4 -0.004733 0.002334 0.000067 0.029788 0.001443 0.006207
# 5 -0.002206 0.004059 -0.000652 0.001443 0.025105 0.005912
# 6 -0.012671 0.003974 -0.001661 0.006207 0.005912 0.031011
#
#
# Mechanical properties :
#
#
# Convention : Reuss Voigt Hill
#
# Bulk Modulus (GPa) = 35.44847 55.62847 45.53847
# Shear Modulus (GPa) = 27.98162 39.62961 33.80561
#
# Velocity S-wave (km/s) = 3.49498 4.15929 3.84152
# Velocity P-wave (km/s) = 5.63569 6.88113 6.28931
#
# Compressibility (1/GPa) = 0.02820996
#
# Stress axis : x y z
#
# Youngs Moduli (GPa) = 27.31964 85.57284 133.22477
#
# Poissons Ratio (x) = 0.92105 0.25818
# Poissons Ratio (y) = 0.29405 0.14544
# Poissons Ratio (z) = 0.05294 0.09342
#
# Static dielectric constant tensor:
#      x y z
#    x 1.657990 0.072100 0.064610 
#    y 0.072100 1.705840 -0.016470 
#    z 0.064610 -0.016470 1.772150 
# 
# From -- ./inp_files/218464.got.cif
#   From: 2010.05.17/outbox.cif.g08.bks.cpg/sg2_110_cif.got.tgz:218464.got - 2010.06.03 11:33:40.
