data_PCOD9069219
_publ_section_title
;
Structure prediction by ZEFSAII (Michael W. Deem and Ramdas Pophale) SiO2 
 PCOD9069219
Probable space group: P -1
;
_chemical_formula_sum "Si O2"
_cell_formula_units_Z 13
_cell_length_a 9.422812
_cell_length_b 8.937016
_cell_length_c 11.936357
_cell_angle_alpha 38.152408
_cell_angle_beta 109.330948
_cell_angle_gamma 89.788941
_cell_volume 522.417791
_symmetry_space_group_name_H-M "P -1"
_symmetry_group_IT_number 2
_symmetry_cell_setting 'triclinic'
loop_
_space_group_symop_operation_xyz
x,y,z
-x,-y,-z
loop_
_atom_site_type_symbol
_atom_site_label
_atom_site_fract_x
_atom_site_fract_y
_atom_site_fract_z
Si Si1 0.857009 0.566601 0.832882
Si Si2 0.638801 0.047801 0.633781
Si Si3 0.000000 0.500000 0.500000
Si Si4 0.049507 0.709972 0.622800
Si Si5 0.379555 0.657046 0.159434
Si Si6 0.162580 0.815044 0.224137
Si Si7 0.558544 0.682779 0.985306
O O1 0.778889 0.358675 0.931202
O O2 0.935929 0.593465 0.723264
O O3 0.706330 0.855279 0.658243
O O4 0.000000 0.500000 0.000000
O O5 0.526983 0.354487 0.389697
O O6 0.796537 0.031491 0.755573
O O7 0.545315 0.928197 0.760588
O O8 0.017182 0.689656 0.495536
O O9 0.127604 0.579618 0.408454
O O10 0.246140 0.507887 0.818787
O O11 0.000000 0.000000 0.500000
O O12 0.315286 0.751369 0.212579
O O13 0.451262 0.791172 0.008188
O O14 0.000000 0.000000 0.000000
O O15 0.500000 0.500000 0.000000
#
# Coordination Sequence:
#
# PCOD9069219 Si02
#       7
#     2   2   1   2   2   2   2
#     4  12  22  46  73 101 145 191 251 309 366 446
#     4  12  26  45  74 107 149 194 249 313 383 454
#     4  12  26  50  76 110 156 192 260 318 384 452
#     4  12  26  46  78 113 147 205 262 315 383 460
#     4  12  26  46  71 106 147 191 241 312 382 448
#     4  12  27  48  74 107 149 195 252 314 379 457
#     4  12  26  46  74 109 153 197 252 313 386 456
#
# _framework density 24.884295000000002
#
# number of rings (size 3 to 8) (size 9 to 14) (size 15 to 20)
#    0.000    0.000    4.615    5.538    2.154    3.077 
#    0.000    0.000    0.000    0.000    0.000    0.000 
#    0.000    0.000    0.000    0.000    0.000    0.000 
#
# Total GULP energy -72556.367094 kJ/mol
# GULP energy per Si atom -5581.259007 kJ/mol
# Density = 2.482766 g / cm^3
# Si number density = 24.884295 Si / 1000 Ang^3
#
#
#
# Elastic Constant Matrix: (Units=GPa)
#
#
# Indices 1 2 3 4 5 6 
#
# 1 156.5784 27.0629 23.7715 13.8972 -37.0482 -32.9207
# 2 27.0629 144.9065 6.3023 26.0823 -6.4525 -16.5950
# 3 23.7715 6.3023 57.2173 9.2495 -4.0754 -4.6392
# 4 13.8972 26.0823 9.2495 22.7069 -3.1523 -0.7104
# 5 -37.0482 -6.4525 -4.0754 -3.1523 44.0541 5.0520
# 6 -32.9207 -16.5950 -4.6392 -0.7104 5.0520 53.2331
#
#
#
# Elastic Compliance Matrix: (Units=1/GPa)
#
#
# Indices 1 2 3 4 5 6 
#
# 1 0.009920 -0.000174 -0.002581 -0.003656 0.007230 0.005121
# 2 -0.000174 0.009126 0.001025 -0.010680 0.000215 0.002664
# 3 -0.002581 0.001025 0.019658 -0.007704 -0.000800 0.000410
# 4 -0.003656 -0.010680 -0.007704 0.061468 -0.000333 -0.005410
# 5 0.007230 0.000215 -0.000800 -0.000333 0.028511 0.001758
# 6 0.005121 0.002664 0.000410 -0.005410 0.001758 0.022579
#
#
# Mechanical properties :
#
#
# Convention : Reuss Voigt Hill
#
# Bulk Modulus (GPa) = 28.37344 52.55283 40.46313
# Shear Modulus (GPa) = 30.03528 44.10320 37.06924
#
# Velocity S-wave (km/s) = 3.47796 4.21447 3.86380
# Velocity P-wave (km/s) = 5.24930 6.69680 6.01674
#
# Compressibility (1/GPa) = 0.03524423
#
# Stress axis : x y z
#
# Youngs Moduli (GPa) = 100.80359 109.57759 50.86930
#
# Poissons Ratio (x) = 0.01906 0.13130
# Poissons Ratio (y) = 0.01754 -0.05214
# Poissons Ratio (z) = 0.26018 -0.11231
#
# Static dielectric constant tensor:
#      x y z
#    x 1.851270 0.110400 0.026150 
#    y 0.110400 1.855750 -0.037350 
#    z 0.026150 -0.037350 1.966250 
# 
# From -- ./inp_files/158931.got.cif
#   From: 2010.05.17/outbox.cif.g08.bks.cpg/sg2_80_cif.got.tgz:158931.got - 2010.06.03 11:33:40.
