data_PCOD9069862
_publ_section_title
;
Structure prediction by ZEFSAII (Michael W. Deem and Ramdas Pophale) SiO2 
 PCOD9069862
Probable space group: P -1
;
_chemical_formula_sum "Si O2"
_cell_formula_units_Z 16
_cell_length_a 14.863440
_cell_length_b 16.391402
_cell_length_c 15.236754
_cell_angle_alpha 35.626280
_cell_angle_beta 160.891323
_cell_angle_gamma 146.212969
_cell_volume 668.027705
_symmetry_space_group_name_H-M "P -1"
_symmetry_group_IT_number 2
_symmetry_cell_setting 'triclinic'
loop_
_space_group_symop_operation_xyz
x,y,z
-x,-y,-z
loop_
_atom_site_type_symbol
_atom_site_label
_atom_site_fract_x
_atom_site_fract_y
_atom_site_fract_z
Si Si1 0.811499 0.915604 0.163972
Si Si2 0.398192 0.911706 0.636414
Si Si3 0.472660 0.330933 0.144930
Si Si4 0.821714 0.220930 0.700927
Si Si5 0.109851 0.585158 0.241693
Si Si6 0.479633 0.594529 0.208430
Si Si7 0.601235 0.306718 0.768007
Si Si8 0.975965 0.118419 0.303679
O O1 0.692955 0.758828 0.241516
O O2 0.071338 0.913976 0.339983
O O3 0.541032 0.932024 0.846820
O O4 0.935573 0.044839 0.235545
O O5 0.415494 0.758392 0.747808
O O6 0.603782 0.052892 0.648827
O O7 0.662781 0.318101 0.415801
O O8 0.500000 0.500000 0.000000
O O9 0.132516 0.242462 0.925435
O O10 0.888477 0.283922 0.806188
O O11 0.355746 0.521021 0.556261
O O12 0.183714 0.634107 0.166588
O O13 0.804900 0.452692 0.072508
O O14 0.398664 0.588706 0.241794
O O15 0.280847 0.248275 0.483095
O O16 0.708151 0.177712 0.021056
O O17 0.000000 0.000000 0.500000
#
# Coordination Sequence:
#
# PCOD9069862 Si02
#       8
#     2   2   2   2   2   2   2   2
#     4  12  26  43  73 106 146 189 248 293 358 411
#     4  12  27  49  78 109 146 189 244 294 360 440
#     4  12  28  49  80 112 147 183 233 299 371 439
#     4  12  26  50  77 108 148 189 238 296 366 430
#     4  12  26  44  71 101 145 187 246 288 364 434
#     4  12  26  43  68 103 149 195 236 304 351 419
#     4  12  25  45  69  99 142 193 245 294 361 414
#     4  12  24  42  68  98 137 186 241 302 349 414
#
# _framework density 23.951101000000001
#
# number of rings (size 3 to 8) (size 9 to 14) (size 15 to 20)
#    0.000    0.000    1.250    9.000    7.000    0.000 
#    0.000    0.000    0.000    0.000    0.000    0.000 
#    0.000    0.000    0.000    0.000    0.000    0.000 
#
# Total GULP energy -89730.710293 kJ/mol
# GULP energy per Si atom -5608.169393 kJ/mol
# Density = 2.389659 g / cm^3
# Si number density = 23.951101 Si / 1000 Ang^3
#
#
#
# Elastic Constant Matrix: (Units=GPa)
#
#
# Indices 1 2 3 4 5 6 
#
# 1 55.2962 31.9870 9.7226 13.3284 2.7454 -9.7706
# 2 31.9870 91.7126 -5.7015 8.9557 4.3488 -17.1169
# 3 9.7226 -5.7015 70.1151 9.2072 3.7589 -4.3881
# 4 13.3284 8.9557 9.2072 39.5095 -3.6446 -2.6832
# 5 2.7454 4.3488 3.7589 -3.6446 38.4696 0.2093
# 6 -9.7706 -17.1169 -4.3881 -2.6832 0.2093 43.4830
#
#
#
# Elastic Compliance Matrix: (Units=1/GPa)
#
#
# Indices 1 2 3 4 5 6 
#
# 1 0.025046 -0.007965 -0.003173 -0.005887 -0.001145 0.001815
# 2 -0.007965 0.014841 0.002815 -0.001183 -0.001520 0.004271
# 3 -0.003173 0.002815 0.015573 -0.003255 -0.001932 0.001775
# 4 -0.005887 -0.001183 -0.003255 0.028629 0.003586 -0.000368
# 5 -0.001145 -0.001520 -0.001932 0.003586 0.026782 -0.000958
# 6 0.001815 0.004271 0.001775 -0.000368 -0.000958 0.025248
#
#
# Mechanical properties :
#
#
# Convention : Reuss Voigt Hill
#
# Bulk Modulus (GPa) = 25.76239 32.12667 28.94453
# Shear Modulus (GPa) = 30.17470 36.36681 33.27076
#
# Velocity S-wave (km/s) = 3.55328 3.90086 3.73112
# Velocity P-wave (km/s) = 5.25490 5.80789 5.53830
#
# Compressibility (1/GPa) = 0.03881627
#
# Stress axis : x y z
#
# Youngs Moduli (GPa) = 39.92647 67.37927 64.21284
#
# Poissons Ratio (x) = 0.53667 0.20373
# Poissons Ratio (y) = 0.31801 -0.18079
# Poissons Ratio (z) = 0.12668 -0.18971
#
# Static dielectric constant tensor:
#      x y z
#    x 1.927350 0.041600 -0.020330 
#    y 0.041600 1.894670 -0.013020 
#    z -0.020330 -0.013020 1.857350 
# 
# From -- ./inp_files/534304.got.cif
#   From: 2010.05.17/outbox.cif.g08.bks.cpg/sg2_268_cif.got.tgz:534304.got - 2010.06.03 11:33:40.
