data_PCOD9069821
_publ_section_title
;
Structure prediction by ZEFSAII (Michael W. Deem and Ramdas Pophale) SiO2 
 PCOD9069821
Probable space group: P -1
;
_chemical_formula_sum "Si O2"
_cell_formula_units_Z 14
_cell_length_a 11.670603
_cell_length_b 18.293254
_cell_length_c 9.272742
_cell_angle_alpha 45.589861
_cell_angle_beta 142.969732
_cell_angle_gamma 153.597067
_cell_volume 529.300933
_symmetry_space_group_name_H-M "P -1"
_symmetry_group_IT_number 2
_symmetry_cell_setting 'triclinic'
loop_
_space_group_symop_operation_xyz
x,y,z
-x,-y,-z
loop_
_atom_site_type_symbol
_atom_site_label
_atom_site_fract_x
_atom_site_fract_y
_atom_site_fract_z
Si Si1 0.526106 0.452079 0.435250
Si Si2 0.601307 0.303168 0.127166
Si Si3 0.389057 0.091492 0.475660
Si Si4 0.827213 0.008502 0.067911
Si Si5 0.815393 0.372088 0.862684
Si Si6 0.129195 0.795516 0.976241
Si Si7 0.034182 0.218949 0.707660
O O1 0.500000 0.500000 0.500000
O O2 0.533119 0.331217 0.621925
O O3 0.834352 0.616438 0.434734
O O4 0.238098 0.357623 0.176307
O O5 0.569310 0.221122 0.348812
O O6 0.928860 0.495403 0.186149
O O7 0.463787 0.175256 0.034736
O O8 0.335115 0.275941 0.908055
O O9 0.634139 0.165222 0.738586
O O10 0.218723 0.923543 0.464018
O O11 0.114420 0.051754 0.301209
O O12 0.794998 0.054762 0.121839
O O13 0.914472 0.133601 0.862883
O O14 0.818123 0.251190 0.047510
O O15 0.000000 0.500000 0.000000
#
# Coordination Sequence:
#
# PCOD9069821 Si02
#       7
#     2   2   2   2   2   2   2
#     4  12  25  44  64  87 124 173 215 255 312 379
#     4   9  19  42  67  94 130 172 203 249 315 380
#     4   9  21  40  66  98 132 160 205 259 314 371
#     4   9  21  40  66  98 132 160 205 259 314 371
#     4  12  25  44  64  87 124 173 215 255 312 379
#     4  12  24  41  63  99 127 157 216 269 307 365
#     4   9  19  42  67  94 130 172 203 249 315 380
#
# _framework density 26.449983
#
# number of rings (size 3 to 8) (size 9 to 14) (size 15 to 20)
#    0.000    1.714    2.857    2.571    4.000    2.286 
#    0.000    2.857    0.000    5.143    0.000    0.000 
#    0.000    0.000    0.000    0.000    0.000    0.000 
#
# Total GULP energy -78201.092694 kJ/mol
# GULP energy per Si atom -5585.792335 kJ/mol
# Density = 2.638978 g / cm^3
# Si number density = 26.449983 Si / 1000 Ang^3
#
#
#
# Elastic Constant Matrix: (Units=GPa)
#
#
# Indices 1 2 3 4 5 6 
#
# 1 108.4022 28.9560 10.8042 -1.1494 30.6050 -15.2102
# 2 28.9560 97.2015 6.5551 19.3105 -0.4381 24.7649
# 3 10.8042 6.5551 129.5500 24.2367 12.4880 10.3861
# 4 -1.1494 19.3105 24.2367 43.1204 -3.2655 1.3549
# 5 30.6050 -0.4381 12.4880 -3.2655 34.2343 -8.2803
# 6 -15.2102 24.7649 10.3861 1.3549 -8.2803 41.9317
#
#
#
# Elastic Compliance Matrix: (Units=1/GPa)
#
#
# Indices 1 2 3 4 5 6 
#
# 1 0.015657 -0.007273 -0.001047 0.003144 -0.011507 0.007860
# 2 -0.007273 0.017253 0.002158 -0.008579 0.002050 -0.012680
# 3 -0.001047 0.002158 0.009740 -0.006651 -0.004364 -0.004713
# 4 0.003144 -0.008579 -0.006651 0.030940 0.004321 0.007708
# 5 -0.011507 0.002050 -0.004364 0.004321 0.042482 0.003945
# 6 0.007860 -0.012680 -0.004713 0.007708 0.003945 0.035886
#
#
# Mechanical properties :
#
#
# Convention : Reuss Voigt Hill
#
# Bulk Modulus (GPa) = 32.97481 47.53159 40.25320
# Shear Modulus (GPa) = 28.67125 43.11319 35.89222
#
# Velocity S-wave (km/s) = 3.29596 4.04169 3.68772
# Velocity P-wave (km/s) = 5.19407 6.30791 5.77789
#
# Compressibility (1/GPa) = 0.03032618
#
# Stress axis : x y z
#
# Youngs Moduli (GPa) = 63.86974 57.96042 102.66945
#
# Poissons Ratio (x) = 0.42152 0.10748
# Poissons Ratio (y) = 0.46450 -0.22151
# Poissons Ratio (z) = 0.06686 -0.12505
#
# Static dielectric constant tensor:
#      x y z
#    x 2.294260 -0.005000 0.062010 
#    y -0.005000 2.084740 -0.057090 
#    z 0.062010 -0.057090 2.140240 
# 
# From -- ./inp_files/180854.got.cif
#   From: 2010.05.17/outbox.cif.g08.bks.cpg/sg2_91_cif.got.tgz:180854.got - 2010.06.03 11:33:40.
