data_PCOD9069146
_publ_section_title
;
Structure prediction by ZEFSAII (Michael W. Deem and Ramdas Pophale) SiO2 
 PCOD9069146
Probable space group: P -1
;
_chemical_formula_sum "Si O2"
_cell_formula_units_Z 15
_cell_length_a 9.315569
_cell_length_b 15.628372
_cell_length_c 8.610295
_cell_angle_alpha 141.368493
_cell_angle_beta 47.815042
_cell_angle_gamma 128.522339
_cell_volume 566.666416
_symmetry_space_group_name_H-M "P -1"
_symmetry_group_IT_number 2
_symmetry_cell_setting 'triclinic'
loop_
_space_group_symop_operation_xyz
x,y,z
-x,-y,-z
loop_
_atom_site_type_symbol
_atom_site_label
_atom_site_fract_x
_atom_site_fract_y
_atom_site_fract_z
Si Si1 0.565330 0.464891 0.227504
Si Si2 0.868900 0.839401 0.378401
Si Si3 0.228059 0.710879 0.585635
Si Si4 0.721005 0.044035 0.334511
Si Si5 0.198827 0.743757 0.161492
Si Si6 0.197126 0.236501 0.032947
Si Si7 0.504998 0.154899 0.157352
Si Si8 0.500000 0.500000 0.000000
O O1 0.500000 0.500000 0.500000
O O2 0.386653 0.347921 0.112598
O O3 0.588879 0.563209 0.198728
O O4 0.759313 0.402773 0.023811
O O5 0.712735 0.828954 0.616755
O O6 0.022567 0.744085 0.172831
O O7 0.776443 0.804697 0.224749
O O8 0.000000 0.000000 0.500000
O O9 0.291319 0.864787 0.678776
O O10 0.325633 0.737142 0.720289
O O11 0.324152 0.592839 0.270341
O O12 0.991050 0.691208 0.723906
O O13 0.838981 0.159342 0.531682
O O14 0.500000 0.000000 0.500000
O O15 0.815289 0.907283 0.068501
O O16 0.410876 0.820588 0.041198
O O17 0.500000 0.000000 0.000000
#
# Coordination Sequence:
#
# PCOD9069146 Si02
#       8
#     2   2   2   2   2   2   2   1
#     4  12  29  53  80 108 155 212 272 333 387 475
#     4  12  23  41  72 117 160 199 249 318 403 479
#     4  12  26  46  75 109 150 207 256 315 401 475
#     4  12  22  43  73 113 157 194 249 328 402 470
#     4  12  24  45  71 112 153 197 261 319 391 474
#     4  12  25  47  78 115 155 206 256 332 405 471
#     4  12  23  41  71 109 155 200 246 318 393 467
#     4  12  26  56  76 104 158 208 270 326 392 462
#
# _framework density 26.470603000000001
#
# number of rings (size 3 to 8) (size 9 to 14) (size 15 to 20)
#    0.000    0.000    6.667    3.600    0.000    1.600 
#    2.400    0.667    0.000    0.000    0.000    0.000 
#    0.000    0.000    0.000    0.000    0.000    0.000 
#
# Total GULP energy -83760.913436 kJ/mol
# GULP energy per Si atom -5584.060896 kJ/mol
# Density = 2.641035 g / cm^3
# Si number density = 26.470603 Si / 1000 Ang^3
#
#
#
# Elastic Constant Matrix: (Units=GPa)
#
#
# Indices 1 2 3 4 5 6 
#
# 1 146.7754 8.7212 60.0801 -3.3011 -6.5997 3.2903
# 2 8.7212 51.7312 11.9435 -10.2068 -11.6717 3.3560
# 3 60.0801 11.9435 160.6470 4.7261 -21.1682 8.2401
# 4 -3.3011 -10.2068 4.7261 44.2776 -4.4470 -4.9863
# 5 -6.5997 -11.6717 -21.1682 -4.4470 78.8138 3.8847
# 6 3.2903 3.3560 8.2401 -4.9863 3.8847 33.3192
#
#
#
# Elastic Compliance Matrix: (Units=1/GPa)
#
#
# Indices 1 2 3 4 5 6 
#
# 1 0.008098 -0.000556 -0.003043 0.000799 -0.000184 0.000150
# 2 -0.000556 0.021511 -0.001045 0.005189 0.003223 -0.001453
# 3 -0.003043 -0.001045 0.007803 -0.001346 0.001705 -0.001924
# 4 0.000799 0.005189 -0.001346 0.024515 0.001699 0.003202
# 5 -0.000184 0.003223 0.001705 0.001699 0.013807 -0.002084
# 6 0.000150 -0.001453 -0.001924 0.003202 -0.002084 0.031342
#
#
# Mechanical properties :
#
#
# Convention : Reuss Voigt Hill
#
# Bulk Modulus (GPa) = 35.55560 57.84924 46.70242
# Shear Modulus (GPa) = 39.76505 49.84271 44.80388
#
# Velocity S-wave (km/s) = 3.88007 4.34400 4.11857
# Velocity P-wave (km/s) = 5.79090 6.86018 6.34809
#
# Compressibility (1/GPa) = 0.02812497
#
# Stress axis : x y z
#
# Youngs Moduli (GPa) = 123.48789 46.48830 128.14934
#
# Poissons Ratio (x) = 0.02586 0.38990
# Poissons Ratio (y) = 0.06870 0.13387
# Poissons Ratio (z) = 0.37572 0.04856
#
# Static dielectric constant tensor:
#      x y z
#    x 1.873570 0.961610 0.138380 
#    y 0.961610 -3.552880 -0.781220 
#    z 0.138380 -0.781220 1.954830 
# 
# From -- ./inp_files/216095.got.cif
#   From: 2010.05.17/outbox.cif.g08.bks.cpg/sg2_109_cif.got.tgz:216095.got - 2010.06.03 11:33:40.
