data_PCOD9069840
_publ_section_title
;
Structure prediction by ZEFSAII (Michael W. Deem and Ramdas Pophale) SiO2 
 PCOD9069840
Probable space group: P -1
;
_chemical_formula_sum "Si O2"
_cell_formula_units_Z 14
_cell_length_a 5.028847
_cell_length_b 30.875404
_cell_length_c 33.103482
_cell_angle_alpha 172.009993
_cell_angle_beta 124.579771
_cell_angle_gamma 57.530581
_cell_volume 573.800764
_symmetry_space_group_name_H-M "P -1"
_symmetry_group_IT_number 2
_symmetry_cell_setting 'triclinic'
loop_
_space_group_symop_operation_xyz
x,y,z
-x,-y,-z
loop_
_atom_site_type_symbol
_atom_site_label
_atom_site_fract_x
_atom_site_fract_y
_atom_site_fract_z
Si Si1 0.550403 0.315026 0.601326
Si Si2 0.186736 0.281499 0.155512
Si Si3 0.790187 0.062643 0.309478
Si Si4 0.410637 0.958377 0.102859
Si Si5 0.178084 0.874611 0.467934
Si Si6 0.386468 0.623484 0.645401
Si Si7 0.735055 0.288959 0.844621
O O1 0.581896 0.136312 0.397269
O O2 0.728963 0.168229 0.517313
O O3 0.165481 0.248255 0.518858
O O4 0.743757 0.682174 0.952303
O O5 0.418952 0.470227 0.384666
O O6 0.388086 0.160865 0.025676
O O7 0.500000 0.000000 0.000000
O O8 0.949001 0.961218 0.860600
O O9 0.634810 0.152647 0.336578
O O10 0.174161 0.637607 0.807921
O O11 0.502243 0.034229 0.618174
O O12 0.917432 0.105027 0.658374
O O13 0.989861 0.465531 0.879621
O O14 0.500000 0.500000 0.500000
O O15 0.000000 0.500000 0.500000
O O16 0.500000 0.500000 0.000000
#
# Coordination Sequence:
#
# PCOD9069840 Si02
#       7
#     2   2   2   2   2   2   2
#     4  12  24  42  64  94 126 166 208 258 315 375
#     4  12  24  42  66  94 128 169 213 264 318 378
#     4  12  25  43  66  94 128 166 210 262 316 378
#     4  12  24  43  65  94 126 166 212 262 318 378
#     4  12  24  42  66  94 128 166 210 258 312 375
#     4  12  24  42  64  94 129 169 214 264 318 378
#     4  12  25  44  67  96 129 168 211 260 313 372
#
# _framework density 24.398714999999999
#
# number of rings (size 3 to 8) (size 9 to 14) (size 15 to 20)
#    0.000    0.000    0.000   12.000    0.000    0.000 
#    0.000    0.000    0.000    0.000    0.000    0.000 
#    0.000    0.000    0.000    0.000    0.000    0.000 
#
# Total GULP energy -78187.479951 kJ/mol
# GULP energy per Si atom -5584.819996 kJ/mol
# Density = 2.434318 g / cm^3
# Si number density = 24.398715 Si / 1000 Ang^3
#
#
#
# Elastic Constant Matrix: (Units=GPa)
#
#
# Indices 1 2 3 4 5 6 
#
# 1 155.2386 -2.8984 18.9459 -27.4084 9.0308 17.3020
# 2 -2.8984 79.3476 -5.1836 -6.3362 -1.8439 3.9607
# 3 18.9459 -5.1836 59.9726 -24.7725 1.7112 2.6815
# 4 -27.4084 -6.3362 -24.7725 45.3980 0.7939 -9.0223
# 5 9.0308 -1.8439 1.7112 0.7939 34.3417 -11.7731
# 6 17.3020 3.9607 2.6815 -9.0223 -11.7731 40.7303
#
#
#
# Elastic Compliance Matrix: (Units=1/GPa)
#
#
# Indices 1 2 3 4 5 6 
#
# 1 0.007771 0.000650 -0.000562 0.003855 -0.003239 -0.003410
# 2 0.000650 0.013091 0.002332 0.003299 0.000007 -0.000970
# 3 -0.000562 0.002332 0.022094 0.012266 -0.000749 0.001058
# 4 0.003855 0.003299 0.012266 0.032353 -0.000763 0.004180
# 5 -0.003239 0.000007 -0.000749 -0.000763 0.033807 0.011027
# 6 -0.003410 -0.000970 0.001058 0.004180 0.011027 0.030138
#
#
# Mechanical properties :
#
#
# Convention : Reuss Voigt Hill
#
# Bulk Modulus (GPa) = 20.92174 35.14297 28.03235
# Shear Modulus (GPa) = 33.25681 43.00699 38.13190
#
# Velocity S-wave (km/s) = 3.69596 4.20298 3.95760
# Velocity P-wave (km/s) = 5.17756 6.16346 5.69189
#
# Compressibility (1/GPa) = 0.04779717
#
# Stress axis : x y z
#
# Youngs Moduli (GPa) = 128.67573 76.38899 45.26138
#
# Poissons Ratio (x) = -0.04965 0.02542
# Poissons Ratio (y) = -0.08364 -0.10555
# Poissons Ratio (z) = 0.07226 -0.17815
#
# Static dielectric constant tensor:
#      x y z
#    x 1.807240 0.007100 0.061960 
#    y 0.007100 1.978880 0.169190 
#    z 0.061960 0.169190 2.111340 
# 
# From -- ./inp_files/622051.got.cif
#   From: 2010.05.17/outbox.cif.g08.bks.cpg/sg2_312_cif.got.tgz:622051.got - 2010.06.03 11:33:40.
