data_PCOD9069361
_publ_section_title
;
Structure prediction by ZEFSAII (Michael W. Deem and Ramdas Pophale) SiO2 
 PCOD9069361
Probable space group: P -1
;
_chemical_formula_sum "Si O2"
_cell_formula_units_Z 12
_cell_length_a 9.573799
_cell_length_b 9.313717
_cell_length_c 13.398853
_cell_angle_alpha 77.922444
_cell_angle_beta 113.255174
_cell_angle_gamma 150.687275
_cell_volume 512.607280
_symmetry_space_group_name_H-M "P -1"
_symmetry_group_IT_number 2
_symmetry_cell_setting 'triclinic'
loop_
_space_group_symop_operation_xyz
x,y,z
-x,-y,-z
loop_
_atom_site_type_symbol
_atom_site_label
_atom_site_fract_x
_atom_site_fract_y
_atom_site_fract_z
Si Si1 0.468908 0.807957 0.979300
Si Si2 0.461784 0.553212 0.694404
Si Si3 0.793940 0.893552 0.547298
Si Si4 0.316878 0.745931 0.402643
Si Si5 0.113619 0.239380 0.060118
Si Si6 0.415071 0.824191 0.728181
O O1 0.432379 0.793723 0.852153
O O2 0.212333 0.471076 0.994823
O O3 0.500000 0.000000 0.000000
O O4 0.806700 0.021130 0.068957
O O5 0.599015 0.568413 0.817407
O O6 0.529932 0.780383 0.705167
O O7 0.081537 0.225381 0.632503
O O8 0.634164 0.660206 0.623036
O O9 0.506112 0.754495 0.454697
O O10 0.000000 0.000000 0.500000
O O11 0.942147 0.427216 0.364408
O O12 0.500000 0.000000 0.500000
O O13 0.360082 0.853843 0.290123
O O14 0.000000 0.000000 0.000000
#
# Coordination Sequence:
#
# PCOD9069361 Si02
#       6
#     2   2   2   2   2   2
#     4  12  28  48  71 111 152 183 238 309 364 419
#     4  12  24  44  73 102 137 189 241 292 351 435
#     4  12  27  44  66 103 144 180 235 301 358 419
#     4  12  23  42  70  99 136 184 238 292 351 424
#     4  12  26  46  78 107 141 193 246 293 357 439
#     4  12  24  42  74 103 136 189 242 288 355 433
#
# _framework density 23.409734
#
# number of rings (size 3 to 8) (size 9 to 14) (size 15 to 20)
#    0.000    0.000    5.000    5.000    2.333    4.000 
#    0.000    0.000    0.000    0.000    0.000    0.000 
#    0.000    0.000    0.000    0.000    0.000    0.000 
#
# Total GULP energy -67114.718688 kJ/mol
# GULP energy per Si atom -5592.893224 kJ/mol
# Density = 2.335645 g / cm^3
# Si number density = 23.409734 Si / 1000 Ang^3
#
#
#
# Elastic Constant Matrix: (Units=GPa)
#
#
# Indices 1 2 3 4 5 6 
#
# 1 150.8250 30.9960 29.2000 3.7893 9.2992 1.3670
# 2 30.9960 116.6464 21.5706 -26.1005 -12.7052 0.3163
# 3 29.2000 21.5706 98.2246 -19.6455 15.4904 2.4552
# 4 3.7893 -26.1005 -19.6455 30.7268 3.4230 4.4704
# 5 9.2992 -12.7052 15.4904 3.4230 23.4569 -3.5808
# 6 1.3670 0.3163 2.4552 4.4704 -3.5808 40.7228
#
#
#
# Elastic Compliance Matrix: (Units=1/GPa)
#
#
# Indices 1 2 3 4 5 6 
#
# 1 0.007969 -0.003049 -0.002240 -0.004741 -0.002612 0.000182
# 2 -0.003049 0.012509 -0.001059 0.009569 0.007234 -0.000345
# 3 -0.002240 -0.001059 0.015176 0.010834 -0.011755 -0.003054
# 4 -0.004741 0.009569 0.010834 0.050116 -0.008446 -0.006813
# 5 -0.002612 0.007234 -0.011755 -0.008446 0.057608 0.006733
# 6 0.000182 -0.000345 -0.003054 -0.006813 0.006733 0.026077
#
#
# Mechanical properties :
#
#
# Convention : Reuss Voigt Hill
#
# Bulk Modulus (GPa) = 43.55873 58.80325 51.18099
# Shear Modulus (GPa) = 26.34293 37.90992 32.12642
#
# Velocity S-wave (km/s) = 3.35819 4.02855 3.70855
# Velocity P-wave (km/s) = 5.80380 6.84198 6.34416
#
# Compressibility (1/GPa) = 0.02295751
#
# Stress axis : x y z
#
# Youngs Moduli (GPa) = 125.48638 79.94274 65.89256
#
# Poissons Ratio (x) = 0.24374 0.14762
# Poissons Ratio (y) = 0.38261 0.06979
# Poissons Ratio (z) = 0.28112 0.08467
#
# Static dielectric constant tensor:
#      x y z
#    x 2.131920 -0.225720 -0.132930 
#    y -0.225720 2.083730 0.047080 
#    z -0.132930 0.047080 1.941150 
# 
# From -- ./inp_files/69053.got.cif
#   From: 2010.05.17/outbox.cif.g08.bks.cpg/sg2_35_cif.got.tgz:69053.got - 2010.06.03 11:33:40.
