data_PCOD9069834
_publ_section_title
;
Structure prediction by ZEFSAII (Michael W. Deem and Ramdas Pophale) SiO2 
 PCOD9069834
Probable space group: P -1
;
_chemical_formula_sum "Si O2"
_cell_formula_units_Z 16
_cell_length_a 9.117688
_cell_length_b 9.196487
_cell_length_c 14.419649
_cell_angle_alpha 76.884674
_cell_angle_beta 71.549475
_cell_angle_gamma 127.478970
_cell_volume 755.776084
_symmetry_space_group_name_H-M "P -1"
_symmetry_group_IT_number 2
_symmetry_cell_setting 'triclinic'
loop_
_space_group_symop_operation_xyz
x,y,z
-x,-y,-z
loop_
_atom_site_type_symbol
_atom_site_label
_atom_site_fract_x
_atom_site_fract_y
_atom_site_fract_z
Si Si1 0.473803 0.852915 0.107389
Si Si2 0.979447 0.821477 0.276343
Si Si3 0.820232 0.849035 0.978441
Si Si4 0.000226 0.356640 0.274886
Si Si5 0.633596 0.326253 0.339117
Si Si6 0.521450 0.900348 0.800670
Si Si7 0.854222 0.531545 0.977965
Si Si8 0.139034 0.049698 0.555696
O O1 0.216840 0.616420 0.212878
O O2 0.556724 0.989433 0.167226
O O3 0.608031 0.800102 0.059220
O O4 0.500000 0.000000 0.000000
O O5 0.813903 0.590234 0.285651
O O6 0.856210 0.821169 0.384290
O O7 0.080146 0.012677 0.156170
O O8 0.206063 0.911430 0.266240
O O9 0.805707 0.661048 0.006965
O O10 0.000000 0.000000 0.000000
O O11 0.024895 0.358356 0.159556
O O12 0.769713 0.280184 0.356829
O O13 0.992073 0.189753 0.345998
O O14 0.565574 0.231382 0.260054
O O15 0.397103 0.193468 0.455458
O O16 0.400272 0.714335 0.930236
O O17 0.000000 0.500000 0.000000
O O18 0.000000 0.000000 0.500000
#
# Coordination Sequence:
#
# PCOD9069834 Si02
#       8
#     2   2   2   2   2   2   2   2
#     4  12  24  44  73 113 157 196 245 312 387 466
#     4  12  25  49  75 111 151 195 251 325 374 448
#     4  12  26  41  72 117 154 200 250 301 394 473
#     4  12  25  46  75 106 152 198 250 310 387 452
#     4  12  26  49  78 106 147 204 257 312 383 448
#     4  12  24  44  79 110 156 196 246 312 388 460
#     4  12  24  41  72 112 153 196 244 310 387 465
#     4  12  28  50  77 109 147 202 267 322 372 445
#
# _framework density 21.170290999999999
#
# number of rings (size 3 to 8) (size 9 to 14) (size 15 to 20)
#    0.000    0.000    7.500    2.250    1.750    2.000 
#    0.000    3.750    0.000    0.000    0.000    0.000 
#    0.000    0.000    0.000    0.000    0.000    0.000 
#
# Total GULP energy -89238.751802 kJ/mol
# GULP energy per Si atom -5577.421988 kJ/mol
# Density = 2.112211 g / cm^3
# Si number density = 21.170291 Si / 1000 Ang^3
#
#
#
# Elastic Constant Matrix: (Units=GPa)
#
#
# Indices 1 2 3 4 5 6 
#
# 1 112.6240 72.6625 58.2529 10.2428 -2.3922 -18.7362
# 2 72.6625 185.5767 46.4745 7.6665 -6.1146 -15.8172
# 3 58.2529 46.4745 100.0600 4.8984 -14.0373 -3.9488
# 4 10.2428 7.6665 4.8984 41.5368 -7.0585 -4.2961
# 5 -2.3922 -6.1146 -14.0373 -7.0585 44.8913 2.5287
# 6 -18.7362 -15.8172 -3.9488 -4.2961 2.5287 41.8329
#
#
#
# Elastic Compliance Matrix: (Units=1/GPa)
#
#
# Indices 1 2 3 4 5 6 
#
# 1 0.016554 -0.004088 -0.007813 -0.002354 -0.002773 0.005057
# 2 -0.004088 0.007305 -0.000917 -0.000075 0.000433 0.000811
# 3 -0.007813 -0.000917 0.015468 0.000780 0.004564 -0.002581
# 4 -0.002354 -0.000075 0.000780 0.025402 0.004026 0.001356
# 5 -0.002773 0.000433 0.004564 0.004026 0.024343 -0.001705
# 6 0.005057 0.000811 -0.002581 0.001356 -0.001705 0.026475
#
#
# Mechanical properties :
#
#
# Convention : Reuss Voigt Hill
#
# Bulk Modulus (GPa) = 73.03203 83.67117 78.35160
# Shear Modulus (GPa) = 34.30579 40.37693 37.34136
#
# Velocity S-wave (km/s) = 4.02987 4.37194 4.20439
# Velocity P-wave (km/s) = 7.49836 8.06808 7.78843
#
# Compressibility (1/GPa) = 0.01369262
#
# Stress axis : x y z
#
# Youngs Moduli (GPa) = 60.40682 136.88525 64.64792
#
# Poissons Ratio (x) = 0.55964 0.50509
# Poissons Ratio (y) = 0.24696 0.05925
# Poissons Ratio (z) = 0.47195 0.12546
#
# Static dielectric constant tensor:
#      x y z
#    x -3.068920 3.261360 1.584310 
#    y 3.261360 -0.414210 -1.002500 
#    z 1.584310 -1.002500 1.186810 
# 
# From -- ./inp_files/444757.got.cif
#   From: 2010.05.17/outbox.cif.g08.bks.cpg/sg2_223_cif.got.tgz:444757.got - 2010.06.03 11:33:40.
