data_PCOD9069472
_publ_section_title
;
Structure prediction by ZEFSAII (Michael W. Deem and Ramdas Pophale) SiO2 
 PCOD9069472
Probable space group: P -1
;
_chemical_formula_sum "Si O2"
_cell_formula_units_Z 14
_cell_length_a 17.806961
_cell_length_b 4.992363
_cell_length_c 18.668413
_cell_angle_alpha 64.742166
_cell_angle_beta 23.304417
_cell_angle_gamma 64.695723
_cell_volume 590.857701
_symmetry_space_group_name_H-M "P -1"
_symmetry_group_IT_number 2
_symmetry_cell_setting 'triclinic'
loop_
_space_group_symop_operation_xyz
x,y,z
-x,-y,-z
loop_
_atom_site_type_symbol
_atom_site_label
_atom_site_fract_x
_atom_site_fract_y
_atom_site_fract_z
Si Si1 0.814218 0.647132 0.684611
Si Si2 0.713797 0.720880 0.021137
Si Si3 0.094570 0.682359 0.210353
Si Si4 0.891070 0.207750 0.131380
Si Si5 0.747257 0.033858 0.424535
Si Si6 0.403522 0.780353 0.163799
Si Si7 0.520885 0.412507 0.352483
O O1 0.835790 0.522862 0.760458
O O2 0.647734 0.504048 0.802887
O O3 0.000000 0.500000 0.500000
O O4 0.778824 0.003008 0.674174
O O5 0.539614 0.709388 0.119629
O O6 0.651330 0.581024 0.165001
O O7 0.885844 0.522181 0.854005
O O8 0.769677 0.052489 0.943584
O O9 0.880607 0.843119 0.386474
O O10 0.885526 0.074614 0.231004
O O11 0.667876 0.281412 0.298839
O O12 0.000000 0.500000 0.000000
O O13 0.000000 0.000000 0.000000
O O14 0.650570 0.352889 0.497361
O O15 0.575273 0.847689 0.573285
O O16 0.500000 0.000000 0.000000
#
# Coordination Sequence:
#
# PCOD9069472 Si02
#       7
#     2   2   2   2   2   2   2
#     4  12  26  41  65  93 131 168 220 274 332 381
#     4  12  25  42  68  92 131 171 225 263 324 390
#     4  12  24  44  63  95 130 175 216 268 324 390
#     4  12  24  46  74 100 133 174 215 257 321 390
#     4  12  26  44  69  99 139 167 214 269 322 379
#     4  12  23  44  65  93 124 175 220 274 321 380
#     4  12  26  44  68 102 132 171 214 269 322 379
#
# _framework density 23.694371
#
# number of rings (size 3 to 8) (size 9 to 14) (size 15 to 20)
#    0.000    0.000    2.857    7.714    4.000    0.000 
#    0.000    0.000    0.000    0.000    0.000    0.000 
#    0.000    0.000    0.000    0.000    0.000    0.000 
#
# Total GULP energy -78486.071981 kJ/mol
# GULP energy per Si atom -5606.147999 kJ/mol
# Density = 2.364044 g / cm^3
# Si number density = 23.694371 Si / 1000 Ang^3
#
#
#
# Elastic Constant Matrix: (Units=GPa)
#
#
# Indices 1 2 3 4 5 6 
#
# 1 72.9834 9.8700 -12.7352 5.6191 -19.2028 -12.4342
# 2 9.8700 91.2373 -2.1617 17.1823 0.9707 8.8321
# 3 -12.7352 -2.1617 48.1588 13.5602 1.1912 3.0728
# 4 5.6191 17.1823 13.5602 54.4904 2.6033 -7.4551
# 5 -19.2028 0.9707 1.1912 2.6033 53.0189 8.8104
# 6 -12.4342 8.8321 3.0728 -7.4551 8.8104 41.2485
#
#
#
# Elastic Compliance Matrix: (Units=1/GPa)
#
#
# Indices 1 2 3 4 5 6 
#
# 1 0.016992 -0.001728 0.004654 -0.002145 0.005595 0.003563
# 2 -0.001728 0.012490 0.001711 -0.004761 0.000037 -0.004191
# 3 0.004654 0.001711 0.024300 -0.007504 0.001898 -0.002535
# 4 -0.002145 -0.004761 -0.007504 0.022832 -0.002574 0.005608
# 5 0.005595 0.000037 0.001898 -0.002574 0.021558 -0.003533
# 6 0.003563 -0.004191 -0.002535 0.005608 -0.003533 0.028172
#
#
# Mechanical properties :
#
#
# Convention : Reuss Voigt Hill
#
# Bulk Modulus (GPa) = 15.85930 22.48064 19.16997
# Shear Modulus (GPa) = 36.20874 44.24530 40.22702
#
# Velocity S-wave (km/s) = 3.91341 4.32595 4.12484
# Velocity P-wave (km/s) = 5.20840 5.87028 5.54922
#
# Compressibility (1/GPa) = 0.06305447
#
# Stress axis : x y z
#
# Youngs Moduli (GPa) = 58.85210 80.06476 41.15245
#
# Poissons Ratio (x) = 0.13838 -0.19153
# Poissons Ratio (y) = 0.10171 -0.07040
# Poissons Ratio (z) = -0.27390 -0.13697
#
# Static dielectric constant tensor:
#      x y z
#    x 1.882490 -0.009320 -0.008160 
#    y -0.009320 1.837450 0.043190 
#    z -0.008160 0.043190 1.947960 
# 
# From -- ./inp_files/140379.got.cif
#   From: 2010.05.17/outbox.cif.g08.bks.cpg/sg2_71_cif.got.tgz:140379.got - 2010.06.03 11:33:40.
