data_PCOD9069298
_publ_section_title
;
Structure prediction by ZEFSAII (Michael W. Deem and Ramdas Pophale) SiO2 
 PCOD9069298
Probable space group: P -1
;
_chemical_formula_sum "Si O2"
_cell_formula_units_Z 15
_cell_length_a 15.684031
_cell_length_b 8.535226
_cell_length_c 9.653010
_cell_angle_alpha 46.093215
_cell_angle_beta 140.393747
_cell_angle_gamma 131.259981
_cell_volume 571.051572
_symmetry_space_group_name_H-M "P -1"
_symmetry_group_IT_number 2
_symmetry_cell_setting 'triclinic'
loop_
_space_group_symop_operation_xyz
x,y,z
-x,-y,-z
loop_
_atom_site_type_symbol
_atom_site_label
_atom_site_fract_x
_atom_site_fract_y
_atom_site_fract_z
Si Si1 0.938508 0.734315 0.621039
Si Si2 0.393137 0.145249 0.756675
Si Si3 0.591726 0.483185 0.989421
Si Si4 0.759142 0.203459 0.022511
Si Si5 0.346890 0.010008 0.267151
Si Si6 0.771029 0.673817 0.730209
Si Si7 0.831962 0.333139 0.526595
Si Si8 0.000000 0.000000 0.000000
O O1 0.825548 0.670381 0.641541
O O2 0.886179 0.578765 0.516795
O O3 0.000000 0.000000 0.500000
O O4 0.080530 0.685053 0.879195
O O5 0.348265 0.198521 0.516184
O O6 0.471312 0.368884 0.800488
O O7 0.500000 0.000000 0.000000
O O8 0.262373 0.975402 0.772639
O O9 0.709537 0.355696 0.253855
O O10 0.500000 0.500000 0.000000
O O11 0.667910 0.739218 0.885330
O O12 0.705894 0.420371 0.855239
O O13 0.684309 0.064896 0.883477
O O14 0.500000 0.000000 0.500000
O O15 0.238984 0.836785 0.333775
O O16 0.898638 0.808482 0.897536
O O17 0.950535 0.208901 0.714085
#
# Coordination Sequence:
#
# PCOD9069298 Si02
#       8
#     2   2   2   2   2   2   2   1
#     4  12  23  45  77 106 136 189 241 306 359 415
#     4  12  27  46  69 103 147 192 232 291 366 440
#     4  12  23  44  73 108 138 182 243 303 357 420
#     4  12  23  43  71 103 138 185 237 294 362 418
#     4  12  23  40  74 107 138 182 241 307 359 411
#     4  12  25  47  72 103 144 186 247 295 358 433
#     4  12  25  47  69 108 150 184 245 296 361 444
#     4  12  28  46  70 102 150 202 228 294 368 440
#
# _framework density 26.267327999999999
#
# number of rings (size 3 to 8) (size 9 to 14) (size 15 to 20)
#    0.000    0.000    6.667    4.400    0.000    1.600 
#    0.000    3.333    0.000    0.000    0.000    0.000 
#    0.000    0.000    0.000    0.000    0.000    0.000 
#
# Total GULP energy -83782.929948 kJ/mol
# GULP energy per Si atom -5585.528663 kJ/mol
# Density = 2.620754 g / cm^3
# Si number density = 26.267328 Si / 1000 Ang^3
#
#
#
# Elastic Constant Matrix: (Units=GPa)
#
#
# Indices 1 2 3 4 5 6 
#
# 1 55.2867 12.9738 -1.3495 -0.3547 1.7874 10.4075
# 2 12.9738 186.2228 47.3366 -18.0997 -19.1925 0.8074
# 3 -1.3495 47.3366 172.8950 -6.7509 -6.8722 4.0589
# 4 -0.3547 -18.0997 -6.7509 57.2334 10.6075 -7.9101
# 5 1.7874 -19.1925 -6.8722 10.6075 29.9242 -1.0424
# 6 10.4075 0.8074 4.0589 -7.9101 -1.0424 26.9602
#
#
#
# Elastic Compliance Matrix: (Units=1/GPa)
#
#
# Indices 1 2 3 4 5 6 
#
# 1 0.020163 -0.001886 0.000739 -0.001130 -0.002131 -0.008252
# 2 -0.001886 0.006387 -0.001606 0.001370 0.003401 0.001312
# 3 0.000739 -0.001606 0.006270 0.000016 0.000320 -0.001164
# 4 -0.001130 0.001370 0.000016 0.019814 -0.005866 0.005979
# 5 -0.002131 0.003401 0.000320 -0.005866 0.037893 0.000417
# 6 -0.008252 0.001312 -0.001164 0.005979 0.000417 0.042184
#
#
# Mechanical properties :
#
#
# Convention : Reuss Voigt Hill
#
# Bulk Modulus (GPa) = 36.61092 59.14736 47.87914
# Shear Modulus (GPa) = 33.93911 46.51982 40.22946
#
# Velocity S-wave (km/s) = 3.59843 4.21291 3.91774
# Velocity P-wave (km/s) = 5.58865 6.79935 6.22351
#
# Compressibility (1/GPa) = 0.02731426
#
# Stress axis : x y z
#
# Youngs Moduli (GPa) = 49.59507 156.55787 159.49224
#
# Poissons Ratio (x) = 0.29530 -0.11782
# Poissons Ratio (y) = 0.09355 0.25609
# Poissons Ratio (z) = -0.03664 0.25138
#
# Static dielectric constant tensor:
#      x y z
#    x 8.144250 -2.183540 4.410790 
#    y -2.183540 2.788330 -1.632760 
#    z 4.410790 -1.632760 5.243160 
# 
# From -- ./inp_files/279339.got.cif
#   From: 2010.05.17/outbox.cif.g08.bks.cpg/sg2_140_cif.got.tgz:279339.got - 2010.06.03 11:33:40.
