data_PCOD9069221
_publ_section_title
;
Structure prediction by ZEFSAII (Michael W. Deem and Ramdas Pophale) SiO2 
 PCOD9069221
Probable space group: P -1
;
_chemical_formula_sum "Si O2"
_cell_formula_units_Z 16
_cell_length_a 8.683388
_cell_length_b 9.190206
_cell_length_c 19.100882
_cell_angle_alpha 118.621538
_cell_angle_beta 143.002997
_cell_angle_gamma 79.101340
_cell_volume 749.218070
_symmetry_space_group_name_H-M "P -1"
_symmetry_group_IT_number 2
_symmetry_cell_setting 'triclinic'
loop_
_space_group_symop_operation_xyz
x,y,z
-x,-y,-z
loop_
_atom_site_type_symbol
_atom_site_label
_atom_site_fract_x
_atom_site_fract_y
_atom_site_fract_z
Si Si1 0.406131 0.129483 0.846745
Si Si2 0.887876 0.474544 0.374586
Si Si3 0.341257 0.157504 0.117328
Si Si4 0.787697 0.661498 0.645044
Si Si5 0.023512 0.345568 0.132955
Si Si6 0.202801 0.643266 0.160583
Si Si7 0.051205 0.058328 0.841796
Si Si8 0.816826 0.807416 0.360055
O O1 0.262069 0.093681 0.861790
O O2 0.214596 0.170484 0.729211
O O3 0.493098 0.960952 0.819340
O O4 0.699513 0.291204 0.991039
O O5 0.567248 0.352264 0.228866
O O6 0.934876 0.659430 0.394725
O O7 0.000000 0.500000 0.500000
O O8 0.036862 0.365222 0.361375
O O9 0.125703 0.198409 0.099419
O O10 0.208465 0.069441 0.975326
O O11 0.500000 0.500000 0.500000
O O12 0.923389 0.645007 0.763876
O O13 0.811253 0.865617 0.700264
O O14 0.194178 0.531301 0.201283
O O15 0.505811 0.738042 0.261377
O O16 0.074083 0.790041 0.163657
O O17 0.000000 0.500000 0.000000
O O18 0.000000 0.000000 0.500000
#
# Coordination Sequence:
#
# PCOD9069221 Si02
#       8
#     2   2   2   2   2   2   2   2
#     4  12  25  43  71 108 143 185 242 299 363 423
#     4  12  26  50  74  99 148 191 239 301 363 436
#     4  12  22  46  74 105 141 191 239 299 358 429
#     4  12  29  47  72 108 142 193 246 297 363 433
#     4  12  25  44  75 105 145 189 243 298 360 433
#     4  12  25  48  71 108 147 189 240 300 363 433
#     4  12  26  45  73 109 148 185 244 303 356 434
#     4  12  28  46  73 106 142 192 243 295 371 434
#
# _framework density 21.355595999999998
#
# number of rings (size 3 to 8) (size 9 to 14) (size 15 to 20)
#    0.000    0.000    6.250    3.000    5.250    0.500 
#    0.000    1.250    0.000    0.000    0.000    0.000 
#    0.000    0.000    0.000    0.000    0.000    0.000 
#
# Total GULP energy -89559.077225 kJ/mol
# GULP energy per Si atom -5597.442327 kJ/mol
# Density = 2.130699 g / cm^3
# Si number density = 21.355596 Si / 1000 Ang^3
#
#
#
# Elastic Constant Matrix: (Units=GPa)
#
#
# Indices 1 2 3 4 5 6 
#
# 1 94.3580 12.5313 44.2500 4.7240 -13.3742 9.3550
# 2 12.5313 130.8853 31.7345 13.6205 -19.6798 -3.7064
# 3 44.2500 31.7345 130.1171 20.9950 -11.6890 5.9455
# 4 4.7240 13.6205 20.9950 40.4901 14.2940 -2.8757
# 5 -13.3742 -19.6798 -11.6890 14.2940 41.2788 0.0159
# 6 9.3550 -3.7064 5.9455 -2.8757 0.0159 39.9495
#
#
#
# Elastic Compliance Matrix: (Units=1/GPa)
#
#
# Indices 1 2 3 4 5 6 
#
# 1 0.013243 0.000282 -0.003952 -0.001072 0.003678 -0.002565
# 2 0.000282 0.009242 -0.001130 -0.004541 0.005750 0.000630
# 3 -0.003952 -0.001130 0.010595 -0.005871 0.003215 -0.001180
# 4 -0.001072 -0.004541 -0.005871 0.035432 -0.016446 0.003260
# 5 0.003678 0.005750 0.003215 -0.016446 0.034765 -0.002004
# 6 -0.002565 0.000630 -0.001180 0.003260 -0.002004 0.026102
#
#
# Mechanical properties :
#
#
# Convention : Reuss Voigt Hill
#
# Bulk Modulus (GPa) = 42.58648 59.15466 50.87057
# Shear Modulus (GPa) = 34.05895 42.13332 38.09614
#
# Velocity S-wave (km/s) = 3.99789 4.44660 4.22820
# Velocity P-wave (km/s) = 6.42617 7.35683 6.90719
#
# Compressibility (1/GPa) = 0.02348163
#
# Stress axis : x y z
#
# Youngs Moduli (GPa) = 75.51104 108.19972 94.38458
#
# Poissons Ratio (x) = -0.03053 0.37300
# Poissons Ratio (y) = -0.02131 0.10661
# Poissons Ratio (z) = 0.29842 0.12221
#
# Static dielectric constant tensor:
#      x y z
#    x 1.393260 0.166550 0.026150 
#    y 0.166550 1.776240 0.008310 
#    z 0.026150 0.008310 1.775250 
# 
# From -- ./inp_files/402640.got.cif
#   From: 2010.05.17/outbox.cif.g08.bks.cpg/sg2_202_cif.got.tgz:402640.got - 2010.06.03 11:33:40.
