data_PCOD9069165
_publ_section_title
;
Structure prediction by ZEFSAII (Michael W. Deem and Ramdas Pophale) SiO2 
 PCOD9069165
Probable space group: P -1
;
_chemical_formula_sum "Si O2"
_cell_formula_units_Z 16
_cell_length_a 26.975255
_cell_length_b 9.362729
_cell_length_c 26.873107
_cell_angle_alpha 35.759726
_cell_angle_beta 169.246712
_cell_angle_gamma 142.727993
_cell_volume 739.969988
_symmetry_space_group_name_H-M "P -1"
_symmetry_group_IT_number 2
_symmetry_cell_setting 'triclinic'
loop_
_space_group_symop_operation_xyz
x,y,z
-x,-y,-z
loop_
_atom_site_type_symbol
_atom_site_label
_atom_site_fract_x
_atom_site_fract_y
_atom_site_fract_z
Si Si1 0.965296 0.402158 0.936896
Si Si2 0.522839 0.916556 0.488810
Si Si3 0.641416 0.265449 0.418619
Si Si4 0.847287 0.926732 0.271497
Si Si5 0.671504 0.382870 0.139514
Si Si6 0.147710 0.583385 0.804618
Si Si7 0.784869 0.910724 0.571184
Si Si8 0.691355 0.943538 0.007328
O O1 0.743827 0.196473 0.766527
O O2 0.870463 0.636481 0.745866
O O3 0.000000 0.500000 0.000000
O O4 0.246728 0.289573 0.229755
O O5 0.500000 0.000000 0.500000
O O6 0.607295 0.141561 0.473441
O O7 0.901664 0.423733 0.623756
O O8 0.667454 0.047709 0.465159
O O9 0.401197 0.445894 0.116833
O O10 0.114113 0.764907 0.574401
O O11 0.890345 0.141888 0.291737
O O12 0.603442 0.759119 0.095290
O O13 0.767672 0.048920 0.106093
O O14 0.806021 0.403976 0.212145
O O15 0.625316 0.660220 0.032457
O O16 0.557599 0.929356 0.300311
O O17 0.050469 0.042340 0.777057
#
# Coordination Sequence:
#
# PCOD9069165 Si02
#       8
#     2   2   2   2   2   2   2   2
#     4  12  26  46  78 106 142 189 240 290 346 423
#     4  12  28  48  74 111 148 186 232 294 365 418
#     4  12  24  45  72  96 139 180 228 283 340 416
#     4  12  26  42  65 101 136 172 226 289 343 408
#     4  12  22  44  67  95 135 178 228 277 345 410
#     4  12  25  43  70  98 133 181 229 277 347 413
#     4  12  24  44  72  99 135 179 237 281 332 414
#     4  12  25  43  68 100 134 179 227 284 348 402
#
# _framework density 21.622498
#
# number of rings (size 3 to 8) (size 9 to 14) (size 15 to 20)
#    0.000    0.000    3.750    6.750    1.750    3.000 
#    0.000    0.000    0.000    0.000    0.000    0.000 
#    0.000    0.000    0.000    0.000    0.000    0.000 
#
# Total GULP energy -89647.177098 kJ/mol
# GULP energy per Si atom -5602.948569 kJ/mol
# Density = 2.157328 g / cm^3
# Si number density = 21.622498 Si / 1000 Ang^3
#
#
#
# Elastic Constant Matrix: (Units=GPa)
#
#
# Indices 1 2 3 4 5 6 
#
# 1 110.9927 29.5087 23.0804 -3.9409 -7.3643 -6.0791
# 2 29.5087 66.5127 28.6969 22.5441 2.6440 7.8096
# 3 23.0804 28.6969 156.2262 3.7421 -10.9871 10.9360
# 4 -3.9409 22.5441 3.7421 65.5922 11.0520 11.7393
# 5 -7.3643 2.6440 -10.9871 11.0520 35.7030 0.1992
# 6 -6.0791 7.8096 10.9360 11.7393 0.1992 43.5160
#
#
#
# Elastic Compliance Matrix: (Units=1/GPa)
#
#
# Indices 1 2 3 4 5 6 
#
# 1 0.010928 -0.005532 -0.000664 0.001895 0.001861 0.002167
# 2 -0.005532 0.021379 -0.002907 -0.006907 -0.001470 -0.002009
# 3 -0.000664 -0.002907 0.007284 0.000449 0.002189 -0.001533
# 4 0.001895 -0.006907 0.000449 0.019205 -0.004883 -0.003767
# 5 0.001861 -0.001470 0.002189 -0.004883 0.030680 0.001150
# 6 0.002167 -0.002009 -0.001533 -0.003767 0.001150 0.025039
#
#
# Mechanical properties :
#
#
# Convention : Reuss Voigt Hill
#
# Bulk Modulus (GPa) = 46.76569 55.14484 50.95527
# Shear Modulus (GPa) = 35.75255 45.79194 40.77225
#
# Velocity S-wave (km/s) = 4.07072 4.60694 4.34711
# Velocity P-wave (km/s) = 6.61586 7.33876 6.98666
#
# Compressibility (1/GPa) = 0.02138320
#
# Stress axis : x y z
#
# Youngs Moduli (GPa) = 91.50848 46.77538 137.29427
#
# Poissons Ratio (x) = 0.25877 0.09123
# Poissons Ratio (y) = 0.50623 0.39912
# Poissons Ratio (z) = 0.06081 0.13598
#
# Static dielectric constant tensor:
#      x y z
#    x 1.785460 -0.003400 -0.002260 
#    y -0.003400 1.791560 -0.000610 
#    z -0.002260 -0.000610 1.755850 
# 
# From -- ./inp_files/615310.got.cif
#   From: 2010.05.17/outbox.cif.g08.bks.cpg/sg2_308_cif.got.tgz:615310.got - 2010.06.03 11:33:40.
