data_PCOD9069980
_publ_section_title
;
Structure prediction by ZEFSAII (Michael W. Deem and Ramdas Pophale) SiO2 
 PCOD9069980
Probable space group: P -1
;
_chemical_formula_sum "Si O2"
_cell_formula_units_Z 13
_cell_length_a 8.275378
_cell_length_b 8.763757
_cell_length_c 9.474940
_cell_angle_alpha 55.678936
_cell_angle_beta 77.386935
_cell_angle_gamma 87.617114
_cell_volume 550.977326
_symmetry_space_group_name_H-M "P -1"
_symmetry_group_IT_number 2
_symmetry_cell_setting 'triclinic'
loop_
_space_group_symop_operation_xyz
x,y,z
-x,-y,-z
loop_
_atom_site_type_symbol
_atom_site_label
_atom_site_fract_x
_atom_site_fract_y
_atom_site_fract_z
Si Si1 0.500000 0.500000 0.000000
Si Si2 0.384595 0.257476 0.403607
Si Si3 0.132430 0.902277 0.617206
Si Si4 0.484944 0.887474 0.916243
Si Si5 0.095941 0.855192 0.966142
Si Si6 0.340087 0.770803 0.423724
Si Si7 0.142664 0.554054 0.333820
O O1 0.503743 0.664379 0.790644
O O2 0.511104 0.669863 0.027529
O O3 0.296645 0.048081 0.534491
O O4 0.493403 0.292191 0.505996
O O5 0.229127 0.378188 0.359299
O O6 0.052469 0.844066 0.814413
O O7 0.199228 0.747176 0.584442
O O8 0.000000 0.000000 0.500000
O O9 0.294471 0.905533 0.900811
O O10 0.618794 0.010477 0.731259
O O11 0.500000 0.000000 0.000000
O O12 0.078211 0.664410 0.156675
O O13 0.000000 0.000000 0.000000
O O14 0.277082 0.678295 0.338750
O O15 0.000000 0.500000 0.500000
#
# Coordination Sequence:
#
# PCOD9069980 Si02
#       7
#     1   2   2   2   2   2   2
#     4  12  24  44  70 112 150 180 256 318 358 446
#     4  12  24  44  73 102 146 184 248 312 369 441
#     4  12  26  46  72 102 143 198 247 303 381 453
#     4  12  24  46  79 108 146 199 253 310 380 449
#     4  12  25  46  74 102 146 201 247 300 387 458
#     4  12  24  46  75 104 140 197 247 305 383 446
#     4  12  27  48  68 108 150 188 247 316 379 454
#
# _framework density 23.594438
#
# number of rings (size 3 to 8) (size 9 to 14) (size 15 to 20)
#    0.000    0.000    6.154    4.615    0.000    0.000 
#    2.769    1.538    0.000    0.000    0.000    0.000 
#    0.000    0.000    0.000    0.000    0.000    0.000 
#
# Total GULP energy -72413.907207 kJ/mol
# GULP energy per Si atom -5570.300554 kJ/mol
# Density = 2.354074 g / cm^3
# Si number density = 23.594438 Si / 1000 Ang^3
#
#
#
# Elastic Constant Matrix: (Units=GPa)
#
#
# Indices 1 2 3 4 5 6 
#
# 1 57.9656 -10.1597 13.8028 2.5111 9.3325 2.6317
# 2 -10.1597 105.1094 30.6994 2.1856 5.0023 -1.5328
# 3 13.8028 30.6994 180.7328 22.4783 12.2953 8.0455
# 4 2.5111 2.1856 22.4783 30.6872 -0.9637 -9.4816
# 5 9.3325 5.0023 12.2953 -0.9637 38.0501 0.6831
# 6 2.6317 -1.5328 8.0455 -9.4816 0.6831 37.1599
#
#
#
# Elastic Compliance Matrix: (Units=1/GPa)
#
#
# Indices 1 2 3 4 5 6 
#
# 1 0.018831 0.002435 -0.001338 -0.001240 -0.004517 -0.001177
# 2 0.002435 0.010392 -0.001997 0.000762 -0.001315 0.000907
# 3 -0.001338 -0.001997 0.006945 -0.005799 -0.001748 -0.002939
# 4 -0.001240 0.000762 -0.005799 0.040580 0.002896 0.011676
# 5 -0.004517 -0.001315 -0.001748 0.002896 0.028184 0.000865
# 6 -0.001177 0.000907 -0.002939 0.011676 0.000865 0.030631
#
#
# Mechanical properties :
#
#
# Convention : Reuss Voigt Hill
#
# Bulk Modulus (GPa) = 29.09647 45.83254 37.46450
# Shear Modulus (GPa) = 33.59740 41.81047 37.70393
#
# Velocity S-wave (km/s) = 3.77763 4.21414 4.00184
# Velocity P-wave (km/s) = 5.60232 6.56855 6.10458
#
# Compressibility (1/GPa) = 0.03436843
#
# Stress axis : x y z
#
# Youngs Moduli (GPa) = 53.10336 96.22396 143.98186
#
# Poissons Ratio (x) = -0.23426 0.19262
# Poissons Ratio (y) = -0.12928 0.28752
# Poissons Ratio (z) = 0.07104 0.19215
#
# Static dielectric constant tensor:
#      x y z
#    x 1.892390 0.012520 -0.032540 
#    y 0.012520 1.896260 0.026880 
#    z -0.032540 0.026880 1.941760 
# 
# From -- ./inp_files/153047.got.cif
#   From: 2010.05.17/outbox.cif.g08.bks.cpg/sg2_77_cif.got.tgz:153047.got - 2010.06.03 11:33:40.
