data_PCOD9069901
_publ_section_title
;
Structure prediction by ZEFSAII (Michael W. Deem and Ramdas Pophale) SiO2 
 PCOD9069901
Probable space group: P -1
;
_chemical_formula_sum "Si O2"
_cell_formula_units_Z 16
_cell_length_a 8.293461
_cell_length_b 10.051040
_cell_length_c 15.916928
_cell_angle_alpha 144.465784
_cell_angle_beta 77.868204
_cell_angle_gamma 110.514489
_cell_volume 715.328984
_symmetry_space_group_name_H-M "P -1"
_symmetry_group_IT_number 2
_symmetry_cell_setting 'triclinic'
loop_
_space_group_symop_operation_xyz
x,y,z
-x,-y,-z
loop_
_atom_site_type_symbol
_atom_site_label
_atom_site_fract_x
_atom_site_fract_y
_atom_site_fract_z
Si Si1 0.339722 0.779897 0.439772
Si Si2 0.832250 0.916866 0.285934
Si Si3 0.742466 0.939751 0.117244
Si Si4 0.625315 0.367471 0.064883
Si Si5 0.247367 0.602180 0.758135
Si Si6 0.121670 0.452324 0.153537
Si Si7 0.436111 0.315801 0.488771
Si Si8 0.800816 0.172398 0.808773
O O1 0.262266 0.585164 0.276460
O O2 0.411798 0.672483 0.456193
O O3 0.500000 0.000000 0.500000
O O4 0.194558 0.893315 0.546833
O O5 0.777994 0.979733 0.232197
O O6 0.704974 0.653225 0.189719
O O7 0.025405 0.901166 0.251531
O O8 0.743691 0.181155 0.194349
O O9 0.556246 0.742184 0.018583
O O10 0.878938 0.818604 0.001341
O O11 0.615603 0.316746 0.138881
O O12 0.754584 0.243794 0.942477
O O13 0.290037 0.390801 0.594791
O O14 0.060733 0.528025 0.784847
O O15 0.172809 0.597286 0.135521
O O16 0.500000 0.500000 0.500000
O O17 0.355276 0.048288 0.323844
#
# Coordination Sequence:
#
# PCOD9069901 Si02
#       8
#     2   2   2   2   2   2   2   2
#     4  12  25  42  70 101 132 177 229 278 329 401
#     4  12  24  43  68 101 136 176 226 279 335 401
#     4  12  26  44  69 102 138 177 227 278 336 400
#     4  12  24  43  71 101 136 179 227 275 338 400
#     4  12  26  46  69 100 140 181 221 279 341 402
#     4  12  25  44  70 103 137 177 228 280 335 398
#     4  12  27  48  70 100 140 178 223 279 344 401
#     4  12  25  44  71 102 137 179 224 281 339 399
#
# _framework density 22.367329999999999
#
# number of rings (size 3 to 8) (size 9 to 14) (size 15 to 20)
#    0.000    0.000    3.750    7.500    0.000    3.000 
#    0.000    2.500    0.000    0.000    0.000    0.000 
#    0.000    0.000    0.000    0.000    0.000    0.000 
#
# Total GULP energy -89713.607108 kJ/mol
# GULP energy per Si atom -5607.100444 kJ/mol
# Density = 2.231642 g / cm^3
# Si number density = 22.367330 Si / 1000 Ang^3
#
#
#
# Elastic Constant Matrix: (Units=GPa)
#
#
# Indices 1 2 3 4 5 6 
#
# 1 54.2153 3.7171 -6.8127 -7.6068 -4.4233 -8.7890
# 2 3.7171 70.2161 3.8457 -14.7493 -4.4295 -25.9207
# 3 -6.8127 3.8457 93.9894 -13.3512 -22.3887 -7.0503
# 4 -7.6068 -14.7493 -13.3512 20.7957 -3.7149 7.6410
# 5 -4.4233 -4.4295 -22.3887 -3.7149 46.4225 -5.8501
# 6 -8.7890 -25.9207 -7.0503 7.6410 -5.8501 34.9293
#
#
#
# Elastic Compliance Matrix: (Units=1/GPa)
#
#
# Indices 1 2 3 4 5 6 
#
# 1 0.022925 0.005271 0.005993 0.014016 0.007851 0.009138
# 2 0.005271 0.024856 0.005523 0.017962 0.009308 0.018516
# 3 0.005993 0.005523 0.016309 0.015894 0.011154 0.007289
# 4 0.014016 0.017962 0.015894 0.077046 0.017657 0.006168
# 5 0.007851 0.009308 0.011154 0.017657 0.031552 0.012556
# 6 0.009138 0.018516 0.007289 0.006168 0.012556 0.046894
#
#
# Mechanical properties :
#
#
# Convention : Reuss Voigt Hill
#
# Bulk Modulus (GPa) = 10.23928 24.43568 17.33748
# Shear Modulus (GPa) = 22.87660 34.94089 28.90874
#
# Velocity S-wave (km/s) = 3.20154 3.95668 3.59897
# Velocity P-wave (km/s) = 4.27250 5.64112 5.00382
#
# Compressibility (1/GPa) = 0.09766316
#
# Stress axis : x y z
#
# Youngs Moduli (GPa) = 43.62022 40.23219 61.31435
#
# Poissons Ratio (x) = -0.21207 -0.36743
# Poissons Ratio (y) = -0.22993 -0.33862
# Poissons Ratio (z) = -0.26140 -0.22219
#
# Static dielectric constant tensor:
#      x y z
#    x 1.853260 0.006470 -0.016010 
#    y 0.006470 1.779750 -0.010460 
#    z -0.016010 -0.010460 1.773520 
# 
# From -- ./inp_files/184197.got.cif
#   From: 2010.05.17/outbox.cif.g08.bks.cpg/sg2_93_cif.got.tgz:184197.got - 2010.06.03 11:33:40.
