data_PCOD9069783
_publ_section_title
;
Structure prediction by ZEFSAII (Michael W. Deem and Ramdas Pophale) SiO2 
 PCOD9069783
Probable space group: P -1
;
_chemical_formula_sum "Si O2"
_cell_formula_units_Z 16
_cell_length_a 17.095332
_cell_length_b 19.006691
_cell_length_c 8.775281
_cell_angle_alpha 137.758272
_cell_angle_beta 31.297907
_cell_angle_gamma 155.352043
_cell_volume 608.994720
_symmetry_space_group_name_H-M "P -1"
_symmetry_group_IT_number 2
_symmetry_cell_setting 'triclinic'
loop_
_space_group_symop_operation_xyz
x,y,z
-x,-y,-z
loop_
_atom_site_type_symbol
_atom_site_label
_atom_site_fract_x
_atom_site_fract_y
_atom_site_fract_z
Si Si1 0.650668 0.378113 0.810949
Si Si2 0.353788 0.018223 0.837443
Si Si3 0.572015 0.038932 0.770039
Si Si4 0.685122 0.635086 0.770365
Si Si5 0.066137 0.570609 0.177431
Si Si6 0.160912 0.001468 0.652331
Si Si7 0.125424 0.131552 0.639658
Si Si8 0.341676 0.519367 0.735866
O O1 0.534960 0.215533 0.829229
O O2 0.839259 0.447673 0.477406
O O3 0.421337 0.310839 0.009880
O O4 0.753859 0.518945 0.990250
O O5 0.346100 0.969170 0.943336
O O6 0.500000 0.000000 0.500000
O O7 0.092558 0.906215 0.020814
O O8 0.796806 0.244629 0.718177
O O9 0.639173 0.951535 0.502513
O O10 0.500000 0.000000 0.000000
O O11 0.962561 0.802392 0.629162
O O12 0.700581 0.574688 0.494884
O O13 0.500000 0.500000 0.000000
O O14 0.000000 0.500000 0.000000
O O15 0.252426 0.582085 0.926947
O O16 0.220232 0.101604 0.561552
O O17 0.000000 0.000000 0.000000
O O18 0.362185 0.322177 0.489108
O O19 0.000000 0.000000 0.500000
#
# Coordination Sequence:
#
# PCOD9069783 Si02
#       8
#     2   2   2   2   2   2   2   2
#     4  12  26  50  76 114 159 207 271 328 400 475
#     4  12  27  49  77 116 159 207 265 333 396 470
#     4  12  27  47  74 114 152 204 262 318 402 468
#     4  12  26  48  76 114 155 206 265 322 404 472
#     4  12  27  50  79 112 162 206 259 333 404 479
#     4  12  25  45  73 109 150 201 258 322 380 468
#     4  12  23  49  76 107 152 204 268 324 389 466
#     4  12  25  49  76 113 154 209 262 327 392 479
#
# _framework density 26.272805999999999
#
# number of rings (size 3 to 8) (size 9 to 14) (size 15 to 20)
#    0.000    0.000    3.750    6.000    1.750    1.000 
#    4.500    0.000    0.000    0.000    0.000    0.000 
#    0.000    0.000    0.000    0.000    0.000    0.000 
#
# Total GULP energy -89370.330195 kJ/mol
# GULP energy per Si atom -5585.645637 kJ/mol
# Density = 2.621301 g / cm^3
# Si number density = 26.272806 Si / 1000 Ang^3
#
#
#
# Elastic Constant Matrix: (Units=GPa)
#
#
# Indices 1 2 3 4 5 6 
#
# 1 101.3669 1.2597 38.7599 -0.5482 -13.8142 -25.9864
# 2 1.2597 66.6524 28.2796 -3.3419 3.8053 1.5894
# 3 38.7599 28.2796 190.9752 6.6795 -8.2979 -6.5596
# 4 -0.5482 -3.3419 6.6795 48.0451 -12.5104 -0.0924
# 5 -13.8142 3.8053 -8.2979 -12.5104 67.4586 11.0813
# 6 -25.9864 1.5894 -6.5596 -0.0924 11.0813 45.8415
#
#
#
# Elastic Compliance Matrix: (Units=1/GPa)
#
#
# Indices 1 2 3 4 5 6 
#
# 1 0.012623 0.000592 -0.002399 0.000885 0.001358 0.006465
# 2 0.000592 0.016223 -0.002616 0.001287 -0.000811 -0.000403
# 3 -0.002399 -0.002616 0.006142 -0.000985 0.000306 -0.000466
# 4 0.000885 0.001287 -0.000985 0.022143 0.004202 -0.000655
# 5 0.001358 -0.000811 0.000306 0.004202 0.016479 -0.003133
# 6 0.006465 -0.000403 -0.000466 -0.000655 -0.003133 0.026182
#
#
# Mechanical properties :
#
#
# Convention : Reuss Voigt Hill
#
# Bulk Modulus (GPa) = 38.25556 55.06588 46.66072
# Shear Modulus (GPa) = 42.60644 51.64872 47.12758
#
# Velocity S-wave (km/s) = 4.03139 4.43861 4.23990
# Velocity P-wave (km/s) = 6.02180 6.87555 6.46279
#
# Compressibility (1/GPa) = 0.02613999
#
# Stress axis : x y z
#
# Youngs Moduli (GPa) = 79.22352 61.64244 162.80249
#
# Poissons Ratio (x) = -0.03650 0.39063
# Poissons Ratio (y) = -0.04691 0.42597
# Poissons Ratio (z) = 0.19009 0.16129
#
# Static dielectric constant tensor:
#      x y z
#    x 1.932970 0.048480 0.140930 
#    y 0.048480 2.284370 0.124850 
#    z 0.140930 0.124850 2.275690 
# 
# From -- ./inp_files/298560.got.cif
#   From: 2010.05.17/outbox.cif.g08.bks.cpg/sg2_150_cif.got.tgz:298560.got - 2010.06.03 11:33:40.
