data_PCOD9069993
_publ_section_title
;
Structure prediction by ZEFSAII (Michael W. Deem and Ramdas Pophale) SiO2 
 PCOD9069993
Probable space group: P -1
;
_chemical_formula_sum "Si O2"
_cell_formula_units_Z 16
_cell_length_a 9.410707
_cell_length_b 24.699146
_cell_length_c 8.639817
_cell_angle_alpha 139.148373
_cell_angle_beta 78.904166
_cell_angle_gamma 132.442231
_cell_volume 729.261240
_symmetry_space_group_name_H-M "P -1"
_symmetry_group_IT_number 2
_symmetry_cell_setting 'triclinic'
loop_
_space_group_symop_operation_xyz
x,y,z
-x,-y,-z
loop_
_atom_site_type_symbol
_atom_site_label
_atom_site_fract_x
_atom_site_fract_y
_atom_site_fract_z
Si Si1 0.446911 0.066104 0.091730
Si Si2 0.138902 0.179787 0.229228
Si Si3 0.974035 0.576442 0.752024
Si Si4 0.883711 0.986731 0.345208
Si Si5 0.426743 0.879370 0.178330
Si Si6 0.642107 0.701463 0.225209
Si Si7 0.512990 0.542069 0.414593
Si Si8 0.770612 0.354144 0.833279
O O1 0.617889 0.213549 0.464204
O O2 0.512417 0.096261 0.962510
O O3 0.500000 0.000000 0.000000
O O4 0.150870 0.946844 0.926829
O O5 0.317599 0.266994 0.531776
O O6 0.221175 0.291947 0.337594
O O7 0.158455 0.102258 0.969103
O O8 0.000000 0.500000 0.500000
O O9 0.689721 0.478699 0.606811
O O10 0.138170 0.719321 0.928675
O O11 0.102821 0.626897 0.001539
O O12 0.615144 0.900471 0.258530
O O13 0.000000 0.000000 0.500000
O O14 0.088376 0.149608 0.590988
O O15 0.500000 0.000000 0.500000
O O16 0.429517 0.666137 0.133186
O O17 0.560756 0.569910 0.920389
O O18 0.500000 0.500000 0.500000
O O19 0.000000 0.500000 0.000000
#
# Coordination Sequence:
#
# PCOD9069993 Si02
#       8
#     2   2   2   2   2   2   2   2
#     4  12  28  45  75 108 146 191 238 300 359 424
#     4  12  26  48  73 107 145 188 247 293 356 427
#     4  12  26  48  71 105 147 186 239 290 361 430
#     4  12  24  44  72 104 142 187 235 292 356 422
#     4  12  26  45  71 105 146 184 237 294 356 425
#     4  12  24  46  72 104 142 185 240 293 353 426
#     4  12  28  47  74 104 145 191 239 298 357 425
#     4  12  26  46  74 106 143 187 237 293 363 424
#
# _framework density 21.940010999999998
#
# number of rings (size 3 to 8) (size 9 to 14) (size 15 to 20)
#    0.000    0.000    2.500    7.500    7.000    0.000 
#    0.000    0.000    0.000    0.000    0.000    0.000 
#    0.000    0.000    0.000    0.000    0.000    0.000 
#
# Total GULP energy -89708.265909 kJ/mol
# GULP energy per Si atom -5606.766619 kJ/mol
# Density = 2.189007 g / cm^3
# Si number density = 21.940011 Si / 1000 Ang^3
#
#
#
# Elastic Constant Matrix: (Units=GPa)
#
#
# Indices 1 2 3 4 5 6 
#
# 1 88.6511 7.8797 30.0085 -26.6517 -3.1913 -2.1976
# 2 7.8797 118.6111 46.3012 4.6686 6.2219 -9.0338
# 3 30.0085 46.3012 130.4929 -2.6817 -22.7129 5.3568
# 4 -26.6517 4.6686 -2.6817 49.8062 -4.9787 -0.5167
# 5 -3.1913 6.2219 -22.7129 -4.9787 46.0702 -6.4345
# 6 -2.1976 -9.0338 5.3568 -0.5167 -6.4345 35.7849
#
#
#
# Elastic Compliance Matrix: (Units=1/GPa)
#
#
# Indices 1 2 3 4 5 6 
#
# 1 0.014770 0.000077 -0.003247 0.007786 0.000478 0.001611
# 2 0.000077 0.010647 -0.004540 -0.001518 -0.003453 0.002729
# 3 -0.003247 -0.004540 0.011064 -0.000183 0.005543 -0.002008
# 4 0.007786 -0.001518 -0.000183 0.024736 0.003482 0.001106
# 5 0.000478 -0.003453 0.005543 0.003482 0.025734 0.003005
# 6 0.001611 0.002729 -0.002008 0.001106 0.003005 0.029590
#
#
# Mechanical properties :
#
#
# Convention : Reuss Voigt Hill
#
# Bulk Modulus (GPa) = 47.47774 56.23710 51.85742
# Shear Modulus (GPa) = 35.97628 43.23666 39.60647
#
# Velocity S-wave (km/s) = 4.05378 4.44405 4.25339
# Velocity P-wave (km/s) = 6.60285 7.21253 6.91441
#
# Compressibility (1/GPa) = 0.02106250
#
# Stress axis : x y z
#
# Youngs Moduli (GPa) = 67.70317 93.92605 90.38240
#
# Poissons Ratio (x) = -0.00727 0.29347
# Poissons Ratio (y) = -0.00524 0.41031
# Poissons Ratio (z) = 0.21983 0.42640
#
# Static dielectric constant tensor:
#      x y z
#    x 1.757120 -0.009500 0.003450 
#    y -0.009500 1.781550 0.023840 
#    z 0.003450 0.023840 1.715910 
# 
# From -- ./inp_files/226642.got.cif
#   From: 2010.05.17/outbox.cif.g08.bks.cpg/sg2_114_cif.got.tgz:226642.got - 2010.06.03 11:33:40.
