data_PCOD9069255
_publ_section_title
;
Structure prediction by ZEFSAII (Michael W. Deem and Ramdas Pophale) SiO2 
 PCOD9069255
Probable space group: P -1
;
_chemical_formula_sum "Si O2"
_cell_formula_units_Z 14
_cell_length_a 12.383614
_cell_length_b 11.422288
_cell_length_c 12.430712
_cell_angle_alpha 45.257547
_cell_angle_beta 145.160129
_cell_angle_gamma 143.722629
_cell_volume 589.692816
_symmetry_space_group_name_H-M "P -1"
_symmetry_group_IT_number 2
_symmetry_cell_setting 'triclinic'
loop_
_space_group_symop_operation_xyz
x,y,z
-x,-y,-z
loop_
_atom_site_type_symbol
_atom_site_label
_atom_site_fract_x
_atom_site_fract_y
_atom_site_fract_z
Si Si1 0.886003 0.231523 0.375982
Si Si2 0.500000 0.000000 0.000000
Si Si3 0.301820 0.575359 0.034802
Si Si4 0.027608 0.795973 0.858194
Si Si5 0.838077 0.903926 0.031702
Si Si6 0.000000 0.000000 0.500000
Si Si7 0.699576 0.563038 0.292478
Si Si8 0.391177 0.827037 0.609925
O O1 0.769675 0.166358 0.438464
O O2 0.802458 0.053980 0.337549
O O3 0.149921 0.312931 0.559662
O O4 0.855070 0.396296 0.194185
O O5 0.508894 0.195774 0.928836
O O6 0.272631 0.845964 0.991144
O O7 0.441995 0.495881 0.144949
O O8 0.150717 0.426961 0.102151
O O9 0.063701 0.935583 0.897376
O O10 0.934262 0.858624 0.641988
O O11 0.797815 0.704658 0.177632
O O12 0.592059 0.848594 0.831433
O O13 0.000000 0.000000 0.000000
O O14 0.724162 0.381720 0.411057
O O15 0.500000 0.000000 0.500000
#
# Coordination Sequence:
#
# PCOD9069255 Si02
#       8
#     2   1   2   2   2   1   2   2
#     4  12  26  49  76 113 157 207 266 330 393 475
#     4  12  22  50  72 110 154 204 270 306 392 466
#     4  12  27  49  79 113 159 210 264 331 398 473
#     4  12  27  49  80 113 158 209 262 329 401 469
#     4  12  25  47  79 113 159 208 261 331 406 469
#     4  12  26  50  74 112 160 200 268 324 382 488
#     4  12  26  51  75 117 158 208 265 332 401 474
#     4  12  28  47  76 116 159 208 270 329 400 480
#
# _framework density 23.741174999999998
#
# number of rings (size 3 to 8) (size 9 to 14) (size 15 to 20)
#    0.000    0.000    5.714    3.000    6.000    0.000 
#    2.571    1.429    0.000    0.000    0.000    0.000 
#    0.000    0.000    0.000    0.000    0.000    0.000 
#
# Total GULP energy -77963.197931 kJ/mol
# GULP energy per Si atom -5568.799852 kJ/mol
# Density = 2.368714 g / cm^3
# Si number density = 23.741175 Si / 1000 Ang^3
#
#
#
# Elastic Constant Matrix: (Units=GPa)
#
#
# Indices 1 2 3 4 5 6 
#
# 1 137.3191 6.9818 27.4497 -18.7113 3.2032 24.8315
# 2 6.9818 94.3027 12.5538 -22.0414 -15.8590 16.4837
# 3 27.4497 12.5538 96.9053 -4.6990 -20.8487 23.1499
# 4 -18.7113 -22.0414 -4.6990 32.6701 8.3285 -1.9610
# 5 3.2032 -15.8590 -20.8487 8.3285 49.2501 -5.8364
# 6 24.8315 16.4837 23.1499 -1.9610 -5.8364 39.2649
#
#
#
# Elastic Compliance Matrix: (Units=1/GPa)
#
#
# Indices 1 2 3 4 5 6 
#
# 1 0.009567 0.001645 -0.001801 0.006664 -0.002662 -0.005742
# 2 0.001645 0.014163 0.000120 0.009593 0.002140 -0.006260
# 3 -0.001801 0.000120 0.013343 -0.000722 0.005211 -0.006040
# 4 0.006664 0.009593 -0.000722 0.041802 -0.005495 -0.006545
# 5 -0.002662 0.002140 0.005211 -0.005495 0.024429 0.001070
# 6 -0.005742 -0.006260 -0.006040 -0.006545 0.001070 0.035120
#
#
# Mechanical properties :
#
#
# Convention : Reuss Voigt Hill
#
# Bulk Modulus (GPa) = 27.02609 46.94418 36.98514
# Shear Modulus (GPa) = 33.15017 43.00648 38.07833
#
# Velocity S-wave (km/s) = 3.74078 4.26076 4.00921
# Velocity P-wave (km/s) = 5.48328 6.63488 6.08638
#
# Compressibility (1/GPa) = 0.03700128
#
# Stress axis : x y z
#
# Youngs Moduli (GPa) = 104.52344 70.60826 74.94676
#
# Poissons Ratio (x) = -0.11615 0.13499
# Poissons Ratio (y) = -0.17195 -0.00902
# Poissons Ratio (z) = 0.18825 -0.00850
#
# Static dielectric constant tensor:
#      x y z
#    x 1.971670 -0.175830 -0.001440 
#    y -0.175830 1.919980 -0.097810 
#    z -0.001440 -0.097810 1.781780 
# 
# From -- ./inp_files/427472.got.cif
#   From: 2010.05.17/outbox.cif.g08.bks.cpg/sg2_214_cif.got.tgz:427472.got - 2010.06.03 11:33:40.
