data_PCOD9069552
_publ_section_title
;
Structure prediction by ZEFSAII (Michael W. Deem and Ramdas Pophale) SiO2 
 PCOD9069552
Probable space group: P -1
;
_chemical_formula_sum "Si O2"
_cell_formula_units_Z 12
_cell_length_a 19.496374
_cell_length_b 8.603201
_cell_length_c 8.971398
_cell_angle_alpha 31.827562
_cell_angle_beta 44.803458
_cell_angle_gamma 42.171612
_cell_volume 519.046398
_symmetry_space_group_name_H-M "P -1"
_symmetry_group_IT_number 2
_symmetry_cell_setting 'triclinic'
loop_
_space_group_symop_operation_xyz
x,y,z
-x,-y,-z
loop_
_atom_site_type_symbol
_atom_site_label
_atom_site_fract_x
_atom_site_fract_y
_atom_site_fract_z
Si Si1 0.067793 0.717628 0.729750
Si Si2 0.707058 0.566997 0.518234
Si Si3 0.705804 0.851665 0.604009
Si Si4 0.568832 0.561409 0.207700
Si Si5 0.930992 0.873035 0.314795
Si Si6 0.424945 0.809962 0.954153
O O1 0.182595 0.501597 0.671651
O O2 0.079392 0.905461 0.705553
O O3 0.000000 0.000000 0.500000
O O4 0.000000 0.500000 0.000000
O O5 0.715951 0.619361 0.637983
O O6 0.677594 0.261342 0.791526
O O7 0.614539 0.863671 0.341911
O O8 0.814480 0.891035 0.440055
O O9 0.631607 0.192588 0.373986
O O10 0.657714 0.721806 0.924920
O O11 0.500000 0.500000 0.500000
O O12 0.488196 0.784294 0.029367
O O13 0.000000 0.500000 0.500000
O O14 0.000000 0.000000 0.000000
O O15 0.500000 0.500000 0.000000
#
# Coordination Sequence:
#
# PCOD9069552 Si02
#       6
#     2   2   2   2   2   2
#     4  12  27  50  77 112 149 193 254 318 379 459
#     4  12  24  43  77 106 144 195 255 310 374 450
#     4  12  24  46  73 106 148 197 250 312 382 448
#     4  12  27  45  68 106 151 198 252 311 369 450
#     4  12  27  50  78 111 152 196 247 317 394 460
#     4  12  23  45  71 104 146 196 253 304 369 446
#
# _framework density 23.119323000000001
#
# number of rings (size 3 to 8) (size 9 to 14) (size 15 to 20)
#    0.000    0.000    3.333    7.000    2.333    0.000 
#    0.000    0.000    0.000    0.000    0.000    0.000 
#    0.000    0.000    0.000    0.000    0.000    0.000 
#
# Total GULP energy -66980.240371 kJ/mol
# GULP energy per Si atom -5581.686698 kJ/mol
# Density = 2.306670 g / cm^3
# Si number density = 23.119323 Si / 1000 Ang^3
#
#
#
# Elastic Constant Matrix: (Units=GPa)
#
#
# Indices 1 2 3 4 5 6 
#
# 1 137.7533 34.8851 52.8831 20.1995 -20.8199 -11.0024
# 2 34.8851 119.9067 37.5627 9.9383 1.7576 -9.7892
# 3 52.8831 37.5627 186.3933 -0.1306 -21.4722 -10.5853
# 4 20.1995 9.9383 -0.1306 49.4018 -7.4955 -6.4344
# 5 -20.8199 1.7576 -21.4722 -7.4955 49.1795 2.0514
# 6 -11.0024 -9.7892 -10.5853 -6.4344 2.0514 20.1499
#
#
#
# Elastic Compliance Matrix: (Units=1/GPa)
#
#
# Indices 1 2 3 4 5 6 
#
# 1 0.009427 -0.001786 -0.001884 -0.002812 0.002715 0.002115
# 2 -0.001786 0.009692 -0.001528 -0.001176 -0.002064 0.002765
# 3 -0.001884 -0.001528 0.006588 0.001706 0.002310 0.002000
# 4 -0.002812 -0.001176 0.001706 0.022817 0.002832 0.005787
# 5 0.002715 -0.002064 0.002310 0.002832 0.022987 0.000258
# 6 0.002115 0.002765 0.002000 0.005787 0.000258 0.054998
#
#
# Mechanical properties :
#
#
# Convention : Reuss Voigt Hill
#
# Bulk Modulus (GPa) = 65.31373 77.19056 71.25214
# Shear Modulus (GPa) = 35.20940 44.99439 40.10189
#
# Velocity S-wave (km/s) = 3.90672 4.41634 4.16933
# Velocity P-wave (km/s) = 6.97582 7.71141 7.35282
#
# Compressibility (1/GPa) = 0.01531072
#
# Stress axis : x y z
#
# Youngs Moduli (GPa) = 106.08285 103.18127 151.78677
#
# Poissons Ratio (x) = 0.18433 0.28589
# Poissons Ratio (y) = 0.18952 0.23191
# Poissons Ratio (z) = 0.19981 0.15765
#
# Static dielectric constant tensor:
#      x y z
#    x 1.876800 0.022390 0.016760 
#    y 0.022390 1.827210 0.010420 
#    z 0.016760 0.010420 1.776490 
# 
# From -- ./inp_files/221439.got.cif
#   From: 2010.05.17/outbox.cif.g08.bks.cpg/sg2_111_cif.got.tgz:221439.got - 2010.06.03 11:33:40.
