data_PCOD9069601
_publ_section_title
;
Structure prediction by ZEFSAII (Michael W. Deem and Ramdas Pophale) SiO2 
 PCOD9069601
Probable space group: P -1
;
_chemical_formula_sum "Si O2"
_cell_formula_units_Z 14
_cell_length_a 7.680306
_cell_length_b 10.239136
_cell_length_c 16.663218
_cell_angle_alpha 52.695471
_cell_angle_beta 79.149148
_cell_angle_gamma 121.103751
_cell_volume 604.090896
_symmetry_space_group_name_H-M "P -1"
_symmetry_group_IT_number 2
_symmetry_cell_setting 'triclinic'
loop_
_space_group_symop_operation_xyz
x,y,z
-x,-y,-z
loop_
_atom_site_type_symbol
_atom_site_label
_atom_site_fract_x
_atom_site_fract_y
_atom_site_fract_z
Si Si1 0.649514 0.871750 0.408376
Si Si2 0.275311 0.892807 0.369468
Si Si3 0.878454 0.514391 0.079083
Si Si4 0.997539 0.194461 0.412211
Si Si5 0.209748 0.667765 0.155385
Si Si6 0.164935 0.201114 0.112936
Si Si7 0.955101 0.697292 0.303357
O O1 0.471012 0.877118 0.373268
O O2 0.402890 0.546425 0.566418
O O3 0.743674 0.017248 0.431450
O O4 0.000000 0.000000 0.500000
O O5 0.072896 0.781373 0.504638
O O6 0.521820 0.221731 0.222432
O O7 0.093738 0.746531 0.357835
O O8 0.033043 0.559624 0.127878
O O9 0.942393 0.748948 0.962817
O O10 0.000000 0.500000 0.000000
O O11 0.250209 0.505453 0.235842
O O12 0.012308 0.604077 0.266125
O O13 0.940817 0.039890 0.269426
O O14 0.500000 0.500000 0.000000
O O15 0.132287 0.995521 0.157115
O O16 0.500000 0.000000 0.000000
#
# Coordination Sequence:
#
# PCOD9069601 Si02
#       7
#     2   2   2   2   2   2   2
#     4  12  25  48  74 106 147 192 255 302 368 445
#     4  12  23  45  78 101 143 197 246 293 371 448
#     4  12  24  46  77 102 142 201 243 299 374 443
#     4  12  27  46  74 108 145 197 251 307 370 438
#     4  12  28  45  75 111 153 195 250 307 375 445
#     4  12  27  45  76 108 147 194 248 308 375 443
#     4  12  27  46  74 112 147 192 252 308 369 442
#
# _framework density 23.175319999999999
#
# number of rings (size 3 to 8) (size 9 to 14) (size 15 to 20)
#    0.000    0.000    5.714    3.857    2.000    1.714 
#    0.000    0.000    0.000    0.000    0.000    0.000 
#    0.000    0.000    0.000    0.000    0.000    0.000 
#
# Total GULP energy -78333.027418 kJ/mol
# GULP energy per Si atom -5595.216244 kJ/mol
# Density = 2.312257 g / cm^3
# Si number density = 23.175320 Si / 1000 Ang^3
#
#
#
# Elastic Constant Matrix: (Units=GPa)
#
#
# Indices 1 2 3 4 5 6 
#
# 1 59.7027 21.8367 41.2974 -2.3694 6.4487 -2.3031
# 2 21.8367 112.4970 57.6471 9.0809 7.9059 7.3107
# 3 41.2974 57.6471 151.7855 -13.9941 13.7861 6.0227
# 4 -2.3694 9.0809 -13.9941 65.4577 -1.5157 3.7589
# 5 6.4487 7.9059 13.7861 -1.5157 47.4321 -12.5458
# 6 -2.3031 7.3107 6.0227 3.7589 -12.5458 39.4943
#
#
#
# Elastic Compliance Matrix: (Units=1/GPa)
#
#
# Indices 1 2 3 4 5 6 
#
# 1 0.021035 -0.001487 -0.005222 -0.000285 -0.000533 0.002156
# 2 -0.001487 0.011659 -0.004083 -0.002470 -0.001092 -0.001734
# 3 -0.005222 -0.004083 0.010055 0.002594 -0.001966 -0.001953
# 4 -0.000285 -0.002470 0.002594 0.016249 -0.000198 -0.001564
# 5 -0.000533 -0.001092 -0.001966 -0.000198 0.024053 0.008130
# 6 0.002156 -0.001734 -0.001953 -0.001564 0.008130 0.028796
#
#
# Mechanical properties :
#
#
# Convention : Reuss Voigt Hill
#
# Bulk Modulus (GPa) = 47.24776 62.83863 55.04319
# Shear Modulus (GPa) = 35.59082 44.02375 39.80729
#
# Velocity S-wave (km/s) = 3.92308 4.36316 4.14896
# Velocity P-wave (km/s) = 6.39938 7.24957 6.83770
#
# Compressibility (1/GPa) = 0.02116503
#
# Stress axis : x y z
#
# Youngs Moduli (GPa) = 47.53989 85.77145 99.45389
#
# Poissons Ratio (x) = 0.12754 0.51933
# Poissons Ratio (y) = 0.07069 0.40609
# Poissons Ratio (z) = 0.24824 0.35022
#
# Static dielectric constant tensor:
#      x y z
#    x 1.869290 -0.035690 0.004800 
#    y -0.035690 1.864540 -0.072280 
#    z 0.004800 -0.072280 1.950740 
# 
# From -- ./inp_files/377709.got.cif
#   From: 2010.05.17/outbox.cif.g08.bks.cpg/sg2_189_cif.got.tgz:377709.got - 2010.06.03 11:33:40.
