data_PCOD9069204
_publ_section_title
;
Structure prediction by ZEFSAII (Michael W. Deem and Ramdas Pophale) SiO2 
 PCOD9069204
Probable space group: P -1
;
_chemical_formula_sum "Si O2"
_cell_formula_units_Z 16
_cell_length_a 22.282472
_cell_length_b 6.602381
_cell_length_c 14.340070
_cell_angle_alpha 77.716658
_cell_angle_beta 30.534683
_cell_angle_gamma 56.449676
_cell_volume 699.591779
_symmetry_space_group_name_H-M "P -1"
_symmetry_group_IT_number 2
_symmetry_cell_setting 'triclinic'
loop_
_space_group_symop_operation_xyz
x,y,z
-x,-y,-z
loop_
_atom_site_type_symbol
_atom_site_label
_atom_site_fract_x
_atom_site_fract_y
_atom_site_fract_z
Si Si1 0.511369 0.712308 0.698038
Si Si2 0.532119 0.386954 0.863887
Si Si3 0.838195 0.666464 0.488168
Si Si4 0.326776 0.367123 0.685838
Si Si5 0.974622 0.562574 0.918119
Si Si6 0.266190 0.745989 0.892274
Si Si7 0.189099 0.418816 0.123031
Si Si8 0.827984 0.366743 0.685850
O O1 0.577569 0.512599 0.720958
O O2 0.670299 0.576613 0.432118
O O3 0.402565 0.693274 0.779782
O O4 0.372180 0.072241 0.879460
O O5 0.681540 0.019003 0.695177
O O6 0.500000 0.500000 0.000000
O O7 0.345137 0.537794 0.067863
O O8 0.812907 0.480545 0.591329
O O9 0.854289 0.657154 0.355684
O O10 0.025939 0.504437 0.291288
O O11 0.345081 0.532651 0.715988
O O12 0.500000 0.000000 0.500000
O O13 0.155140 0.458765 0.932496
O O14 0.000000 0.500000 0.000000
O O15 0.873825 0.904773 0.992128
O O16 0.186060 0.659574 0.066953
O O17 0.169661 0.455325 0.257183
O O18 0.000000 0.000000 0.500000
#
# Coordination Sequence:
#
# PCOD9069204 Si02
#       8
#     2   2   2   2   2   2   2   2
#     4  12  25  45  76 109 140 193 246 297 358 426
#     4  12  28  47  70 110 149 186 239 301 371 428
#     4  12  25  48  68 106 150 185 239 303 358 432
#     4  12  24  44  72 107 141 190 246 302 346 428
#     4  12  29  45  68 108 150 190 241 294 368 427
#     4  12  22  45  75  98 147 184 253 288 356 419
#     4  12  23  46  77 107 139 187 249 295 353 440
#     4  12  25  46  81 105 140 193 240 296 369 429
#
# _framework density 22.870480000000001
#
# number of rings (size 3 to 8) (size 9 to 14) (size 15 to 20)
#    0.000    0.000    6.250    4.125    1.750    3.500 
#    0.000    0.000    0.000    0.000    0.000    0.000 
#    0.000    0.000    0.000    0.000    0.000    0.000 
#
# Total GULP energy -89618.939803 kJ/mol
# GULP energy per Si atom -5601.183738 kJ/mol
# Density = 2.281843 g / cm^3
# Si number density = 22.870480 Si / 1000 Ang^3
#
#
#
# Elastic Constant Matrix: (Units=GPa)
#
#
# Indices 1 2 3 4 5 6 
#
# 1 86.1442 15.2025 16.3379 5.4730 40.5978 -5.2585
# 2 15.2025 121.2187 39.5895 -0.3514 20.8903 -18.3875
# 3 16.3379 39.5895 111.0162 4.9664 39.3725 -8.3612
# 4 5.4730 -0.3514 4.9664 51.3227 -0.9000 10.6567
# 5 40.5978 20.8903 39.3725 -0.9000 44.0186 -5.3326
# 6 -5.2585 -18.3875 -8.3612 10.6567 -5.3326 42.2901
#
#
#
# Elastic Compliance Matrix: (Units=1/GPa)
#
#
# Indices 1 2 3 4 5 6 
#
# 1 0.023805 -0.000138 0.006701 -0.004036 -0.027755 0.001742
# 2 -0.000138 0.009991 -0.002581 -0.000468 -0.001867 0.003699
# 3 0.006701 -0.002581 0.015943 -0.002853 -0.019132 0.001170
# 4 -0.004036 -0.000468 -0.002853 0.021524 0.006221 -0.005909
# 5 -0.027755 -0.001867 -0.019132 0.006221 0.066290 -0.001254
# 6 0.001742 0.003699 0.001170 -0.005909 -0.001254 0.027033
#
#
# Mechanical properties :
#
#
# Convention : Reuss Voigt Hill
#
# Bulk Modulus (GPa) = 17.33015 51.18210 34.25612
# Shear Modulus (GPa) = 28.43220 44.00955 36.22087
#
# Velocity S-wave (km/s) = 3.52971 4.39144 3.98394
# Velocity P-wave (km/s) = 4.91993 6.93835 6.01442
#
# Compressibility (1/GPa) = 0.05770290
#
# Stress axis : x y z
#
# Youngs Moduli (GPa) = 42.00832 100.08651 62.72302
#
# Poissons Ratio (x) = 0.01385 -0.42032
# Poissons Ratio (y) = 0.00581 0.16189
# Poissons Ratio (z) = -0.28150 0.25832
#
# Static dielectric constant tensor:
#      x y z
#    x 1.822060 -0.032400 0.022670 
#    y -0.032400 1.812470 -0.049380 
#    z 0.022670 -0.049380 1.837170 
# 
# From -- ./inp_files/542140.got.cif
#   From: 2010.05.17/outbox.cif.g08.bks.cpg/sg2_272_cif.got.tgz:542140.got - 2010.06.03 11:33:40.
