data_PCOD9069560
_publ_section_title
;
Structure prediction by ZEFSAII (Michael W. Deem and Ramdas Pophale) SiO2 
 PCOD9069560
Probable space group: P -1
;
_chemical_formula_sum "Si O2"
_cell_formula_units_Z 14
_cell_length_a 8.941668
_cell_length_b 9.958794
_cell_length_c 15.158936
_cell_angle_alpha 141.628102
_cell_angle_beta 115.006690
_cell_angle_gamma 87.675581
_cell_volume 650.031500
_symmetry_space_group_name_H-M "P -1"
_symmetry_group_IT_number 2
_symmetry_cell_setting 'triclinic'
loop_
_space_group_symop_operation_xyz
x,y,z
-x,-y,-z
loop_
_atom_site_type_symbol
_atom_site_label
_atom_site_fract_x
_atom_site_fract_y
_atom_site_fract_z
Si Si1 0.606240 0.591716 0.481621
Si Si2 0.614318 0.106627 0.173477
Si Si3 0.607817 0.357247 0.989618
Si Si4 0.006139 0.254722 0.606853
Si Si5 0.972125 0.111791 0.321784
Si Si6 0.818905 0.530289 0.968318
Si Si7 0.645132 0.250868 0.610352
O O1 0.500000 0.500000 0.500000
O O2 0.599542 0.347760 0.314231
O O3 0.486320 0.690828 0.452599
O O4 0.831517 0.800368 0.636684
O O5 0.832843 0.168943 0.258910
O O6 0.500000 0.000000 0.000000
O O7 0.522945 0.896899 0.120258
O O8 0.795336 0.526360 0.185660
O O9 0.500000 0.500000 0.000000
O O10 0.677801 0.318331 0.893148
O O11 0.005538 0.247832 0.495990
O O12 0.818182 0.246075 0.598195
O O13 0.000000 0.000000 0.500000
O O14 0.873555 0.809429 0.155646
O O15 0.737793 0.472604 0.820571
O O16 0.000000 0.500000 0.000000
O O17 0.500000 0.000000 0.500000
#
# Coordination Sequence:
#
# PCOD9069560 Si02
#       7
#     2   2   2   2   2   2   2
#     4  12  29  48  72 108 145 188 239 301 368 425
#     4  12  27  50  73 104 148 194 239 293 361 440
#     4  12  26  44  77 108 142 190 248 294 355 427
#     4  12  23  45  72 111 141 186 242 300 353 425
#     4  12  26  48  74 103 146 193 243 293 360 438
#     4  12  24  45  71 111 144 183 244 306 353 414
#     4  12  28  45  75 107 147 189 243 300 359 422
#
# _framework density 21.537417000000001
#
# number of rings (size 3 to 8) (size 9 to 14) (size 15 to 20)
#    0.000    0.000    4.286    4.714   10.000    1.143 
#    0.000    2.143    0.000    0.000    0.000    0.000 
#    0.000    0.000    0.000    0.000    0.000    0.000 
#
# Total GULP energy -78285.904210 kJ/mol
# GULP energy per Si atom -5591.850301 kJ/mol
# Density = 2.148840 g / cm^3
# Si number density = 21.537417 Si / 1000 Ang^3
#
#
#
# Elastic Constant Matrix: (Units=GPa)
#
#
# Indices 1 2 3 4 5 6 
#
# 1 160.7164 68.3262 40.8307 -16.0857 21.4721 -10.0960
# 2 68.3262 156.2214 34.5225 -10.1207 12.0998 -14.0881
# 3 40.8307 34.5225 80.5964 -7.1700 2.5579 -11.2228
# 4 -16.0857 -10.1207 -7.1700 47.2108 -0.4177 2.7070
# 5 21.4721 12.0998 2.5579 -0.4177 34.7760 -1.4679
# 6 -10.0960 -14.0881 -11.2228 2.7070 -1.4679 49.5526
#
#
#
# Elastic Compliance Matrix: (Units=1/GPa)
#
#
# Indices 1 2 3 4 5 6 
#
# 1 0.008947 -0.002776 -0.003017 0.001950 -0.004308 0.000116
# 2 -0.002776 0.008251 -0.001876 0.000455 -0.000958 0.001302
# 3 -0.003017 -0.001876 0.015074 0.000742 0.001512 0.002270
# 4 0.001950 0.000455 0.000742 0.022077 -0.001175 -0.000546
# 5 -0.004308 -0.000958 0.001512 -0.001175 0.031632 0.000193
# 6 0.000116 0.001302 0.002270 -0.000546 0.000193 0.021124
#
#
# Mechanical properties :
#
#
# Convention : Reuss Voigt Hill
#
# Bulk Modulus (GPa) = 59.05267 76.09922 67.57595
# Shear Modulus (GPa) = 39.03612 43.23154 41.13383
#
# Velocity S-wave (km/s) = 4.26194 4.48512 4.37496
# Velocity P-wave (km/s) = 7.19006 7.88872 7.54748
#
# Compressibility (1/GPa) = 0.01693403
#
# Stress axis : x y z
#
# Youngs Moduli (GPa) = 111.77150 121.19938 66.34108
#
# Poissons Ratio (x) = 0.33643 0.20016
# Poissons Ratio (y) = 0.31026 0.12444
# Poissons Ratio (z) = 0.33723 0.22733
#
# Static dielectric constant tensor:
#      x y z
#    x 1.829130 0.057670 0.081680 
#    y 0.057670 1.727310 0.016660 
#    z 0.081680 0.016660 1.833860 
# 
# From -- ./inp_files/159266.got.cif
#   From: 2010.05.17/outbox.cif.g08.bks.cpg/sg2_80_cif.got.tgz:159266.got - 2010.06.03 11:33:40.
