data_PCOD9069184
_publ_section_title
;
Structure prediction by ZEFSAII (Michael W. Deem and Ramdas Pophale) SiO2 
 PCOD9069184
Probable space group: P -1
;
_chemical_formula_sum "Si O2"
_cell_formula_units_Z 14
_cell_length_a 9.888366
_cell_length_b 8.894223
_cell_length_c 9.625107
_cell_angle_alpha 86.338361
_cell_angle_beta 52.190914
_cell_angle_gamma 93.150166
_cell_volume 662.664845
_symmetry_space_group_name_H-M "P -1"
_symmetry_group_IT_number 2
_symmetry_cell_setting 'triclinic'
loop_
_space_group_symop_operation_xyz
x,y,z
-x,-y,-z
loop_
_atom_site_type_symbol
_atom_site_label
_atom_site_fract_x
_atom_site_fract_y
_atom_site_fract_z
Si Si1 0.625013 0.424244 0.823249
Si Si2 0.010984 0.647035 0.279828
Si Si3 0.840961 0.885616 0.556162
Si Si4 0.849472 0.084790 0.030513
Si Si5 0.379572 0.123227 0.028407
Si Si6 0.672666 0.100694 0.429141
Si Si7 0.660509 0.448060 0.488378
O O1 0.819200 0.417499 0.759747
O O2 0.634218 0.495097 0.661215
O O3 0.500000 0.500000 0.000000
O O4 0.514449 0.260677 0.884788
O O5 0.920486 0.744994 0.445320
O O6 0.855019 0.526890 0.326188
O O7 0.084525 0.769763 0.111579
O O8 0.723747 0.841054 0.768522
O O9 0.756222 0.987348 0.488296
O O10 0.000000 0.000000 0.500000
O O11 0.760840 0.135003 0.222335
O O12 0.740582 0.958554 0.010622
O O13 0.000000 0.000000 0.000000
O O14 0.500000 0.000000 0.000000
O O15 0.656507 0.265726 0.493425
O O16 0.500000 0.000000 0.500000
O O17 0.500000 0.500000 0.500000
#
# Coordination Sequence:
#
# PCOD9069184 Si02
#       7
#     2   2   2   2   2   2   2
#     4  12  28  48  73 104 145 191 238 298 361 436
#     4  12  26  48  73 105 147 188 244 296 363 433
#     4  12  22  44  74 105 137 188 238 296 353 424
#     4  12  25  43  72 109 140 181 241 299 354 423
#     4  12  23  44  74 105 141 184 245 296 352 421
#     4  12  26  45  72 102 142 185 235 294 360 422
#     4  12  29  49  71 105 147 191 238 296 368 430
#
# _framework density 21.126819000000001
#
# number of rings (size 3 to 8) (size 9 to 14) (size 15 to 20)
#    0.000    0.000    4.286    5.571    4.000    2.857 
#    0.000    0.000    0.000    0.000    0.000    0.000 
#    0.000    0.000    0.000    0.000    0.000    0.000 
#
# Total GULP energy -78218.292518 kJ/mol
# GULP energy per Si atom -5587.020894 kJ/mol
# Density = 2.107873 g / cm^3
# Si number density = 21.126819 Si / 1000 Ang^3
#
#
#
# Elastic Constant Matrix: (Units=GPa)
#
#
# Indices 1 2 3 4 5 6 
#
# 1 229.2736 55.2575 44.9398 -4.7569 -2.1110 4.1696
# 2 55.2575 89.1889 7.9234 7.1236 -13.1937 16.9403
# 3 44.9398 7.9234 120.9403 12.8590 2.5786 -1.0292
# 4 -4.7569 7.1236 12.8590 47.5955 2.8627 -12.1304
# 5 -2.1110 -13.1937 2.5786 2.8627 35.1870 -4.6334
# 6 4.1696 16.9403 -1.0292 -12.1304 -4.6334 38.9784
#
#
#
# Elastic Compliance Matrix: (Units=1/GPa)
#
#
# Indices 1 2 3 4 5 6 
#
# 1 0.005740 -0.004004 -0.002071 0.002210 -0.000969 0.001644
# 2 -0.004004 0.016273 0.000811 -0.005321 0.005227 -0.007657
# 3 -0.002071 0.000811 0.009309 -0.003044 -0.000370 -0.000877
# 4 0.002210 -0.005321 -0.003044 0.025450 -0.002442 0.009626
# 5 -0.000969 0.005227 -0.000370 -0.002442 0.030640 0.000704
# 6 0.001644 -0.007657 -0.000877 0.009626 0.000704 0.031864
#
#
# Mechanical properties :
#
#
# Convention : Reuss Voigt Hill
#
# Bulk Modulus (GPa) = 48.09040 72.84937 60.46988
# Shear Modulus (GPa) = 36.56708 46.43764 41.50236
#
# Velocity S-wave (km/s) = 4.16485 4.69341 4.43701
# Velocity P-wave (km/s) = 6.77791 7.99548 7.41174
#
# Compressibility (1/GPa) = 0.02079417
#
# Stress axis : x y z
#
# Youngs Moduli (GPa) = 174.23053 61.44974 107.42281
#
# Poissons Ratio (x) = 0.24605 0.22244
# Poissons Ratio (y) = 0.69762 -0.08710
# Poissons Ratio (z) = 0.36078 -0.04982
#
# Static dielectric constant tensor:
#      x y z
#    x 1.678750 -0.019490 0.048990 
#    y -0.019490 1.675350 0.111570 
#    z 0.048990 0.111570 1.559210 
# 
# From -- ./inp_files/156874.got.cif
#   From: 2010.05.17/outbox.cif.g08.bks.cpg/sg2_79_cif.got.tgz:156874.got - 2010.06.03 11:33:40.
