data_PCOD9069089
_publ_section_title
;
Structure prediction by ZEFSAII (Michael W. Deem and Ramdas Pophale) SiO2 
 PCOD9069089
Probable space group: P -1
;
_chemical_formula_sum "Si O2"
_cell_formula_units_Z 16
_cell_length_a 15.121855
_cell_length_b 22.120050
_cell_length_c 9.749243
_cell_angle_alpha 56.597138
_cell_angle_beta 113.228307
_cell_angle_gamma 160.866549
_cell_volume 792.574765
_symmetry_space_group_name_H-M "P -1"
_symmetry_group_IT_number 2
_symmetry_cell_setting 'triclinic'
loop_
_space_group_symop_operation_xyz
x,y,z
-x,-y,-z
loop_
_atom_site_type_symbol
_atom_site_label
_atom_site_fract_x
_atom_site_fract_y
_atom_site_fract_z
Si Si1 0.680839 0.054469 0.002961
Si Si2 0.924076 0.387585 0.478514
Si Si3 0.626429 0.407747 0.892441
Si Si4 0.711479 0.878652 0.673552
Si Si5 0.267989 0.946147 0.661123
Si Si6 0.774471 0.360889 0.918826
Si Si7 0.402582 0.349599 0.589432
Si Si8 0.295703 0.518544 0.638978
O O1 0.698062 0.019333 0.196624
O O2 0.497132 0.885618 0.979458
O O3 0.021618 0.304593 0.843149
O O4 0.500000 0.000000 0.000000
O O5 0.000000 0.500000 0.500000
O O6 0.009095 0.486795 0.268842
O O7 0.150070 0.482915 0.517177
O O8 0.569845 0.115478 0.599578
O O9 0.656800 0.355978 0.889584
O O10 0.443692 0.331249 0.775537
O O11 0.956739 0.680879 0.775919
O O12 0.481009 0.281237 0.108383
O O13 0.573330 0.739264 0.631044
O O14 0.711150 0.964000 0.523817
O O15 0.055505 0.102235 0.636786
O O16 0.000000 0.500000 0.000000
O O17 0.500000 0.500000 0.500000
O O18 0.603821 0.464537 0.440353
#
# Coordination Sequence:
#
# PCOD9069089 Si02
#       8
#     2   2   2   2   2   2   2   2
#     4  12  24  45  74 113 153 191 245 303 368 462
#     4  12  22  42  72 105 149 188 234 300 370 447
#     4  12  27  49  73 111 149 193 246 312 379 432
#     4  12  26  49  78 104 145 199 252 306 369 442
#     4  12  24  44  78 109 151 192 245 302 369 456
#     4  12  26  41  69 111 150 193 240 295 380 450
#     4  12  28  52  73 107 151 196 258 320 365 426
#     4  12  25  46  77 106 146 201 244 300 376 441
#
# _framework density 20.187370000000001
#
# number of rings (size 3 to 8) (size 9 to 14) (size 15 to 20)
#    0.000    0.000    7.500    2.250    1.750    1.500 
#    0.000    1.250    0.000    0.000    0.000    0.000 
#    0.000    0.000    0.000    0.000    0.000    0.000 
#
# Total GULP energy -89375.930256 kJ/mol
# GULP energy per Si atom -5585.995641 kJ/mol
# Density = 2.014142 g / cm^3
# Si number density = 20.187370 Si / 1000 Ang^3
#
#
#
# Elastic Constant Matrix: (Units=GPa)
#
#
# Indices 1 2 3 4 5 6 
#
# 1 141.0799 64.5911 50.7838 1.3805 0.7363 -10.5081
# 2 64.5911 169.0219 45.3248 -2.4939 7.7020 10.0852
# 3 50.7838 45.3248 120.8147 7.8884 -1.8415 3.4852
# 4 1.3805 -2.4939 7.8884 43.9613 4.5817 0.4103
# 5 0.7363 7.7020 -1.8415 4.5817 36.7110 1.9410
# 6 -10.5081 10.0852 3.4852 0.4103 1.9410 29.2488
#
#
#
# Elastic Compliance Matrix: (Units=1/GPa)
#
#
# Indices 1 2 3 4 5 6 
#
# 1 0.010137 -0.003338 -0.003157 0.000004 0.000065 0.005165
# 2 -0.003338 0.007915 -0.001553 0.001034 -0.001607 -0.003651
# 3 -0.003157 -0.001553 0.010389 -0.001966 0.001256 -0.001892
# 4 0.000004 0.001034 -0.001966 0.023498 -0.003236 -0.000236
# 5 0.000065 -0.001607 0.001256 -0.003236 0.028116 -0.001392
# 6 0.005165 -0.003651 -0.001892 -0.000236 -0.001392 0.037625
#
#
# Mechanical properties :
#
#
# Convention : Reuss Voigt Hill
#
# Bulk Modulus (GPa) = 81.00633 83.59067 82.29850
# Shear Modulus (GPa) = 36.26027 39.99867 38.12947
#
# Velocity S-wave (km/s) = 4.24274 4.45609 4.35072
# Velocity P-wave (km/s) = 8.01346 8.24457 8.12983
#
# Compressibility (1/GPa) = 0.01234471
#
# Stress axis : x y z
#
# Youngs Moduli (GPa) = 98.64478 126.34327 96.25754
#
# Poissons Ratio (x) = 0.42180 0.30388
# Poissons Ratio (y) = 0.32932 0.14946
# Poissons Ratio (z) = 0.31142 0.19618
#
# Static dielectric constant tensor:
#      x y z
#    x 1.717310 0.006830 0.011850 
#    y 0.006830 1.676900 -0.031930 
#    z 0.011850 -0.031930 1.807130 
# 
# From -- ./inp_files/319313.got.cif
#   From: 2010.05.17/outbox.cif.g08.bks.cpg/sg2_160_cif.got.tgz:319313.got - 2010.06.03 11:33:40.
