data_PCOD9069992
_publ_section_title
;
Structure prediction by ZEFSAII (Michael W. Deem and Ramdas Pophale) SiO2 
 PCOD9069992
Probable space group: P -1
;
_chemical_formula_sum "Si O2"
_cell_formula_units_Z 16
_cell_length_a 6.959156
_cell_length_b 13.479022
_cell_length_c 9.047445
_cell_angle_alpha 83.940926
_cell_angle_beta 119.253246
_cell_angle_gamma 78.558203
_cell_volume 705.085838
_symmetry_space_group_name_H-M "P -1"
_symmetry_group_IT_number 2
_symmetry_cell_setting 'triclinic'
loop_
_space_group_symop_operation_xyz
x,y,z
-x,-y,-z
loop_
_atom_site_type_symbol
_atom_site_label
_atom_site_fract_x
_atom_site_fract_y
_atom_site_fract_z
Si Si1 0.241755 0.537941 0.334629
Si Si2 0.364398 0.201899 0.224908
Si Si3 0.654146 0.418209 0.957229
Si Si4 0.082586 0.341912 0.336455
Si Si5 0.182119 0.939928 0.458855
Si Si6 0.973580 0.753406 0.352960
Si Si7 0.500642 0.231291 0.956607
Si Si8 0.006442 0.086203 0.107470
O O1 0.500000 0.500000 0.500000
O O2 0.260885 0.536271 0.163814
O O3 0.112358 0.455750 0.353967
O O4 0.107755 0.653042 0.322861
O O5 0.297304 0.274701 0.331532
O O6 0.572357 0.103517 0.366052
O O7 0.143501 0.166531 0.096912
O O8 0.447184 0.253556 0.106584
O O9 0.518128 0.336892 0.869764
O O10 0.500000 0.500000 0.000000
O O11 0.868508 0.354847 0.145101
O O12 0.044113 0.286319 0.480316
O O13 0.105619 0.840865 0.388107
O O14 0.156462 0.023632 0.307941
O O15 0.000000 0.000000 0.500000
O O16 0.713357 0.798783 0.189232
O O17 0.745282 0.145615 0.044585
O O18 0.000000 0.000000 0.000000
#
# Coordination Sequence:
#
# PCOD9069992 Si02
#       8
#     2   2   2   2   2   2   2   2
#     4  12  25  45  71 105 145 185 232 291 359 421
#     4  12  25  48  73 102 142 186 238 293 350 422
#     4  12  24  44  72 104 142 185 235 286 350 425
#     4  12  24  45  71 105 139 183 236 285 355 421
#     4  12  26  47  71 103 139 190 239 292 352 412
#     4  12  27  44  73 105 146 185 235 295 353 421
#     4  12  26  47  70 105 147 183 236 292 354 421
#     4  12  28  45  73 103 141 189 238 292 357 415
#
# _framework density 22.692270000000001
#
# number of rings (size 3 to 8) (size 9 to 14) (size 15 to 20)
#    0.000    0.000    2.500    7.875    5.250    1.000 
#    0.000    0.000    0.000    0.000    0.000    0.000 
#    0.000    0.000    0.000    0.000    0.000    0.000 
#
# Total GULP energy -89652.085563 kJ/mol
# GULP energy per Si atom -5603.255348 kJ/mol
# Density = 2.264062 g / cm^3
# Si number density = 22.692270 Si / 1000 Ang^3
#
#
#
# Elastic Constant Matrix: (Units=GPa)
#
#
# Indices 1 2 3 4 5 6 
#
# 1 98.3596 30.5362 20.9722 -6.9052 11.3823 -10.3080
# 2 30.5362 98.9195 -21.5384 7.1808 4.0957 -13.4614
# 3 20.9722 -21.5384 86.4908 -15.5263 3.8630 -14.0492
# 4 -6.9052 7.1808 -15.5263 33.4709 5.4101 1.9250
# 5 11.3823 4.0957 3.8630 5.4101 47.8722 -0.5289
# 6 -10.3080 -13.4614 -14.0492 1.9250 -0.5289 51.7531
#
#
#
# Elastic Compliance Matrix: (Units=1/GPa)
#
#
# Indices 1 2 3 4 5 6 
#
# 1 0.012976 -0.004870 -0.003786 0.002381 -0.002630 0.000175
# 2 -0.004870 0.013323 0.004802 -0.001839 -0.000119 0.003866
# 3 -0.003786 0.004802 0.015409 0.005290 -0.001303 0.004468
# 4 0.002381 -0.001839 0.005290 0.033965 -0.004673 0.000121
# 5 -0.002630 -0.000119 -0.001303 -0.004673 0.022152 -0.000508
# 6 0.000175 0.003866 0.004468 0.000121 -0.000508 0.021566
#
#
# Mechanical properties :
#
#
# Convention : Reuss Voigt Hill
#
# Bulk Modulus (GPa) = 29.41239 38.18998 33.80118
# Shear Modulus (GPa) = 36.11882 43.53925 39.82904
#
# Velocity S-wave (km/s) = 3.99391 4.38503 4.19403
# Velocity P-wave (km/s) = 5.85303 6.51951 6.19524
#
# Compressibility (1/GPa) = 0.03399928
#
# Stress axis : x y z
#
# Youngs Moduli (GPa) = 77.06703 75.06023 64.89577
#
# Poissons Ratio (x) = 0.36555 0.24569
# Poissons Ratio (y) = 0.37532 -0.31162
# Poissons Ratio (z) = 0.29177 -0.36042
#
# Static dielectric constant tensor:
#      x y z
#    x 1.832710 -0.016350 0.032160 
#    y -0.016350 1.815350 0.038380 
#    z 0.032160 0.038380 1.781450 
# 
# From -- ./inp_files/135181.got.cif
#   From: 2010.05.17/outbox.cif.g08.bks.cpg/sg2_68_cif.got.tgz:135181.got - 2010.06.03 11:33:40.
