data_PCOD9069448
_publ_section_title
;
Structure prediction by ZEFSAII (Michael W. Deem and Ramdas Pophale) SiO2 
 PCOD9069448
Probable space group: P -1
;
_chemical_formula_sum "Si O2"
_cell_formula_units_Z 16
_cell_length_a 5.497163
_cell_length_b 12.156160
_cell_length_c 9.999644
_cell_angle_alpha 78.291698
_cell_angle_beta 95.363620
_cell_angle_gamma 105.268785
_cell_volume 630.652893
_symmetry_space_group_name_H-M "P -1"
_symmetry_group_IT_number 2
_symmetry_cell_setting 'triclinic'
loop_
_space_group_symop_operation_xyz
x,y,z
-x,-y,-z
loop_
_atom_site_type_symbol
_atom_site_label
_atom_site_fract_x
_atom_site_fract_y
_atom_site_fract_z
Si Si1 0.989944 0.308151 0.985381
Si Si2 0.619131 0.206457 0.760112
Si Si3 0.628375 0.493058 0.150269
Si Si4 0.760400 0.889735 0.034905
Si Si5 0.919921 0.341910 0.289929
Si Si6 0.343587 0.547721 0.369508
Si Si7 0.382122 0.033765 0.247260
Si Si8 0.948077 0.095611 0.373607
O O1 0.748710 0.249082 0.898781
O O2 0.093256 0.431324 0.888500
O O3 0.175259 0.226728 0.984780
O O4 0.979858 0.326420 0.138632
O O5 0.339225 0.138884 0.812604
O O6 0.662958 0.319248 0.641829
O O7 0.724580 0.105243 0.725837
O O8 0.498059 0.554004 0.237981
O O9 0.648291 0.371476 0.246051
O O10 0.500000 0.500000 0.000000
O O11 0.565818 0.922874 0.912785
O O12 0.000000 0.000000 0.000000
O O13 0.085426 0.450817 0.353809
O O14 0.969224 0.227500 0.387556
O O15 0.500000 0.500000 0.500000
O O16 0.167960 0.092876 0.277486
O O17 0.652558 0.061384 0.325481
O O18 0.000000 0.000000 0.500000
#
# Coordination Sequence:
#
# PCOD9069448 Si02
#       8
#     2   2   2   2   2   2   2   2
#     4  12  23  43  74 108 151 185 256 320 396 456
#     4  12  26  45  74 109 155 200 251 323 397 473
#     4  12  25  46  78 109 150 197 254 326 394 468
#     4  12  24  43  70 112 152 195 246 323 398 468
#     4  12  27  47  75 111 150 198 261 323 388 471
#     4  12  29  49  72 109 151 204 259 320 388 467
#     4  12  27  49  76 112 155 200 261 326 397 468
#     4  12  30  51  77 108 153 213 267 323 386 474
#
# _framework density 25.370532000000001
#
# number of rings (size 3 to 8) (size 9 to 14) (size 15 to 20)
#    0.000    0.000    6.250    3.375    5.250    1.500 
#    0.000    0.000    0.000    0.000    0.000    0.000 
#    0.000    0.000    0.000    0.000    0.000    0.000 
#
# Total GULP energy -89459.033208 kJ/mol
# GULP energy per Si atom -5591.189576 kJ/mol
# Density = 2.531279 g / cm^3
# Si number density = 25.370532 Si / 1000 Ang^3
#
#
#
# Elastic Constant Matrix: (Units=GPa)
#
#
# Indices 1 2 3 4 5 6 
#
# 1 74.8681 34.9748 17.8306 -2.9211 19.1805 -6.8015
# 2 34.9748 147.0201 28.7514 -39.7384 23.7410 -15.5111
# 3 17.8306 28.7514 95.4477 -29.8246 37.5270 9.6281
# 4 -2.9211 -39.7384 -29.8246 46.5421 -9.9137 10.2133
# 5 19.1805 23.7410 37.5270 -9.9137 44.8736 -3.9363
# 6 -6.8015 -15.5111 9.6281 10.2133 -3.9363 51.8796
#
#
#
# Elastic Compliance Matrix: (Units=1/GPa)
#
#
# Indices 1 2 3 4 5 6 
#
# 1 0.016827 -0.004072 -0.002022 -0.005078 -0.004290 0.002038
# 2 -0.004072 0.010403 0.001617 0.008937 -0.003116 0.000281
# 3 -0.002022 0.001617 0.021448 0.013326 -0.015647 -0.007573
# 4 -0.005078 0.008937 0.013326 0.037885 -0.006068 -0.008385
# 5 -0.004290 -0.003116 -0.015647 -0.006068 0.037993 0.005487
# 6 0.002038 0.000281 -0.007573 -0.008385 0.005487 0.023099
#
#
# Mechanical properties :
#
#
# Convention : Reuss Voigt Hill
#
# Bulk Modulus (GPa) = 25.17557 53.38325 39.27941
# Shear Modulus (GPa) = 29.43752 44.37767 36.90760
#
# Velocity S-wave (km/s) = 3.41002 4.18686 3.81825
# Velocity P-wave (km/s) = 5.04470 6.66785 5.91224
#
# Compressibility (1/GPa) = 0.03972105
#
# Stress axis : x y z
#
# Youngs Moduli (GPa) = 59.42898 96.12788 46.62488
#
# Poissons Ratio (x) = 0.39145 0.09430
# Poissons Ratio (y) = 0.24201 -0.07537
# Poissons Ratio (z) = 0.12019 -0.15539
#
# Static dielectric constant tensor:
#      x y z
#    x 2.096980 0.082430 -0.002620 
#    y 0.082430 2.175370 -0.004820 
#    z -0.002620 -0.004820 2.021170 
# 
# From -- ./inp_files/364143.got.cif
#   From: 2010.05.17/outbox.cif.g08.bks.cpg/sg2_183_cif.got.tgz:364143.got - 2010.06.03 11:33:40.
