data_PCOD9069667
_publ_section_title
;
Structure prediction by ZEFSAII (Michael W. Deem and Ramdas Pophale) SiO2 
 PCOD9069667
Probable space group: P -1
;
_chemical_formula_sum "Si O2"
_cell_formula_units_Z 14
_cell_length_a 11.911252
_cell_length_b 9.418678
_cell_length_c 9.015637
_cell_angle_alpha 58.870262
_cell_angle_beta 108.886124
_cell_angle_gamma 68.808002
_cell_volume 620.453502
_symmetry_space_group_name_H-M "P -1"
_symmetry_group_IT_number 2
_symmetry_cell_setting 'triclinic'
loop_
_space_group_symop_operation_xyz
x,y,z
-x,-y,-z
loop_
_atom_site_type_symbol
_atom_site_label
_atom_site_fract_x
_atom_site_fract_y
_atom_site_fract_z
Si Si1 0.379544 0.244838 0.878952
Si Si2 0.060069 0.953910 0.719540
Si Si3 0.948646 0.711909 0.952548
Si Si4 0.575909 0.386262 0.939212
Si Si5 0.893132 0.376147 0.628990
Si Si6 0.401329 0.041977 0.291157
Si Si7 0.594954 0.562457 0.573824
O O1 0.214242 0.402374 0.635578
O O2 0.464415 0.345290 0.848193
O O3 0.359998 0.222576 0.057602
O O4 0.500000 0.000000 0.000000
O O5 0.243675 0.832445 0.856158
O O6 0.024271 0.807816 0.859739
O O7 0.000000 0.000000 0.500000
O O8 0.976043 0.171413 0.665263
O O9 0.760951 0.894660 0.765243
O O10 0.000000 0.500000 0.000000
O O11 0.994973 0.653933 0.178252
O O12 0.500000 0.500000 0.000000
O O13 0.586871 0.536811 0.758796
O O14 0.764998 0.400940 0.663549
O O15 0.500000 0.000000 0.500000
O O16 0.511144 0.811646 0.377314
O O17 0.500000 0.500000 0.500000
#
# Coordination Sequence:
#
# PCOD9069667 Si02
#       7
#     2   2   2   2   2   2   2
#     4  12  27  47  76 112 146 197 255 310 383 454
#     4  12  30  48  77 115 154 201 259 321 389 453
#     4  12  30  50  76 113 155 203 256 320 393 452
#     4  12  27  47  77 108 152 199 256 311 379 464
#     4  12  26  50  78 109 157 198 259 318 384 458
#     4  12  28  48  75 108 153 197 253 314 386 460
#     4  12  23  46  77 106 142 198 253 304 376 461
#
# _framework density 22.564139000000001
#
# number of rings (size 3 to 8) (size 9 to 14) (size 15 to 20)
#    0.000    0.000    4.286    3.857   12.000    0.571 
#    0.000    0.000    0.000    0.000    0.000    0.000 
#    0.000    0.000    0.000    0.000    0.000    0.000 
#
# Total GULP energy -78324.352372 kJ/mol
# GULP energy per Si atom -5594.596598 kJ/mol
# Density = 2.251278 g / cm^3
# Si number density = 22.564139 Si / 1000 Ang^3
#
#
#
# Elastic Constant Matrix: (Units=GPa)
#
#
# Indices 1 2 3 4 5 6 
#
# 1 88.7747 27.4593 36.5585 8.4098 7.6817 -24.9350
# 2 27.4593 177.8607 63.4602 4.5879 6.0297 -16.4449
# 3 36.5585 63.4602 163.0015 27.2418 -1.4764 -4.0778
# 4 8.4098 4.5879 27.2418 43.2266 -4.3282 3.1801
# 5 7.6817 6.0297 -1.4764 -4.3282 55.7419 3.9883
# 6 -24.9350 -16.4449 -4.0778 3.1801 3.9883 42.2797
#
#
#
# Elastic Compliance Matrix: (Units=1/GPa)
#
#
# Indices 1 2 3 4 5 6 
#
# 1 0.015590 -0.000410 -0.002761 -0.002229 -0.003010 0.009220
# 2 -0.000410 0.006844 -0.002656 0.000781 -0.000850 0.002186
# 3 -0.002761 -0.002656 0.008481 -0.004342 0.000668 -0.001580
# 4 -0.002229 0.000781 -0.004342 0.026736 0.002446 -0.003671
# 5 -0.003010 -0.000850 0.000668 0.002446 0.018941 -0.004012
# 6 0.009220 0.002186 -0.001580 -0.003671 -0.004012 0.030442
#
#
# Mechanical properties :
#
#
# Convention : Reuss Voigt Hill
#
# Bulk Modulus (GPa) = 51.92047 76.06587 63.99317
# Shear Modulus (GPa) = 39.96552 48.39356 44.17954
#
# Velocity S-wave (km/s) = 4.21312 4.63613 4.42968
# Velocity P-wave (km/s) = 6.83574 7.90205 7.38816
#
# Compressibility (1/GPa) = 0.01926023
#
# Stress axis : x y z
#
# Youngs Moduli (GPa) = 64.14548 146.11058 117.91675
#
# Poissons Ratio (x) = 0.05986 0.32557
# Poissons Ratio (y) = 0.02628 0.31322
# Poissons Ratio (z) = 0.17711 0.38812
#
# Static dielectric constant tensor:
#      x y z
#    x 1.753370 -0.212370 -0.051050 
#    y -0.212370 1.195200 0.000080 
#    z -0.051050 0.000080 1.924730 
# 
# From -- ./inp_files/156816.got.cif
#   From: 2010.05.17/outbox.cif.g08.bks.cpg/sg2_79_cif.got.tgz:156816.got - 2010.06.03 11:33:40.
