data_PCOD9069350
_publ_section_title
;
Structure prediction by ZEFSAII (Michael W. Deem and Ramdas Pophale) SiO2 
 PCOD9069350
Probable space group: P -1
;
_chemical_formula_sum "Si O2"
_cell_formula_units_Z 16
_cell_length_a 9.376416
_cell_length_b 21.642120
_cell_length_c 8.939134
_cell_angle_alpha 127.757217
_cell_angle_beta 149.700244
_cell_angle_gamma 46.236183
_cell_volume 660.382652
_symmetry_space_group_name_H-M "P -1"
_symmetry_group_IT_number 2
_symmetry_cell_setting 'triclinic'
loop_
_space_group_symop_operation_xyz
x,y,z
-x,-y,-z
loop_
_atom_site_type_symbol
_atom_site_label
_atom_site_fract_x
_atom_site_fract_y
_atom_site_fract_z
Si Si1 0.443169 0.872615 0.496339
Si Si2 0.771408 0.969773 0.082223
Si Si3 0.709139 0.837314 0.396150
Si Si4 0.192742 0.661162 0.688165
Si Si5 0.274654 0.851277 0.787044
Si Si6 0.850858 0.598748 0.054747
Si Si7 0.243314 0.296966 0.173448
Si Si8 0.357227 0.699386 0.211972
O O1 0.461239 0.899775 0.380715
O O2 0.438581 0.779209 0.353879
O O3 0.132683 0.930985 0.390144
O O4 0.721827 0.892412 0.842373
O O5 0.500000 0.000000 0.000000
O O6 0.721739 0.055582 0.075355
O O7 0.499972 0.804848 0.059147
O O8 0.959915 0.760667 0.605182
O O9 0.927120 0.863045 0.522362
O O10 0.998359 0.613362 0.365273
O O11 0.487152 0.632094 0.804018
O O12 0.317566 0.650635 0.955521
O O13 0.454628 0.790495 0.722980
O O14 0.886343 0.649852 0.016582
O O15 0.000000 0.500000 0.000000
O O16 0.372555 0.343977 0.483384
O O17 0.968881 0.276197 0.962669
#
# Coordination Sequence:
#
# PCOD9069350 Si02
#       8
#     2   2   2   2   2   2   2   2
#     4  12  25  43  64  99 141 184 244 294 362 412
#     4  12  26  43  61  92 142 194 232 301 369 413
#     4  12  23  42  69 100 131 185 241 297 348 424
#     4  12  23  48  72 108 143 191 236 282 364 431
#     4  12  24  41  69  97 140 183 244 300 351 417
#     4  12  26  48  77 109 147 184 229 293 359 433
#     4  12  24  46  70 111 137 184 250 291 348 431
#     4  12  25  43  75 102 143 192 240 297 342 424
#
# _framework density 24.228376000000001
#
# number of rings (size 3 to 8) (size 9 to 14) (size 15 to 20)
#    0.000    0.000    2.500    9.750    0.000    3.000 
#    0.000    3.750    0.000    0.000    0.000    0.000 
#    0.000    0.000    0.000    0.000    0.000    0.000 
#
# Total GULP energy -89391.955809 kJ/mol
# GULP energy per Si atom -5586.997238 kJ/mol
# Density = 2.417323 g / cm^3
# Si number density = 24.228376 Si / 1000 Ang^3
#
#
#
# Elastic Constant Matrix: (Units=GPa)
#
#
# Indices 1 2 3 4 5 6 
#
# 1 104.4524 32.2676 15.7962 -0.5724 21.3812 -12.7127
# 2 32.2676 78.9941 15.2572 8.5852 5.0680 -1.7677
# 3 15.7962 15.2572 143.5693 0.8404 -3.4788 -7.4456
# 4 -0.5724 8.5852 0.8404 23.6322 -7.3513 -0.3509
# 5 21.3812 5.0680 -3.4788 -7.3513 60.5745 -5.6922
# 6 -12.7127 -1.7677 -7.4456 -0.3509 -5.6922 18.2490
#
#
#
# Elastic Compliance Matrix: (Units=1/GPa)
#
#
# Indices 1 2 3 4 5 6 
#
# 1 0.012707 -0.004829 -0.000602 0.001161 -0.003305 0.007130
# 2 -0.004829 0.015497 -0.001235 -0.005940 -0.000636 -0.002679
# 3 -0.000602 -0.001235 0.007330 0.000546 0.001066 0.002795
# 4 0.001161 -0.005940 0.000546 0.046414 0.006055 0.003238
# 5 -0.003305 -0.000636 0.001066 0.006055 0.018908 0.004085
# 6 0.007130 -0.002679 0.002795 0.003238 0.004085 0.061982
#
#
# Mechanical properties :
#
#
# Convention : Reuss Voigt Hill
#
# Bulk Modulus (GPa) = 45.04105 50.40642 47.72374
# Shear Modulus (GPa) = 27.23740 38.07078 32.65409
#
# Velocity S-wave (km/s) = 3.35654 3.96830 3.67517
# Velocity P-wave (km/s) = 5.80107 6.46888 6.14405
#
# Compressibility (1/GPa) = 0.02220197
#
# Stress axis : x y z
#
# Youngs Moduli (GPa) = 78.69523 64.52986 136.41950
#
# Poissons Ratio (x) = 0.31162 0.08213
# Poissons Ratio (y) = 0.38002 0.16849
# Poissons Ratio (z) = 0.04738 0.07970
#
# Static dielectric constant tensor:
#      x y z
#    x 2.091480 -0.053820 -0.040780 
#    y -0.053820 1.982910 -0.020690 
#    z -0.040780 -0.020690 1.932110 
# 
# From -- ./inp_files/226570.got.cif
#   From: 2010.05.17/outbox.cif.g08.bks.cpg/sg2_114_cif.got.tgz:226570.got - 2010.06.03 11:33:40.
