data_PCOD9069966
_publ_section_title
;
Structure prediction by ZEFSAII (Michael W. Deem and Ramdas Pophale) SiO2 
 PCOD9069966
Probable space group: P -1
;
_chemical_formula_sum "Si O2"
_cell_formula_units_Z 12
_cell_length_a 8.036262
_cell_length_b 21.466623
_cell_length_c 21.743964
_cell_angle_alpha 167.507040
_cell_angle_beta 143.353222
_cell_angle_gamma 37.320590
_cell_volume 482.258897
_symmetry_space_group_name_H-M "P -1"
_symmetry_group_IT_number 2
_symmetry_cell_setting 'triclinic'
loop_
_space_group_symop_operation_xyz
x,y,z
-x,-y,-z
loop_
_atom_site_type_symbol
_atom_site_label
_atom_site_fract_x
_atom_site_fract_y
_atom_site_fract_z
Si Si1 0.374913 0.109835 0.951686
Si Si2 0.685805 0.870391 0.373856
Si Si3 0.591430 0.335388 0.029033
Si Si4 0.752243 0.561913 0.534701
Si Si5 0.969897 0.807225 0.629847
Si Si6 0.919675 0.682758 0.055856
O O1 0.227901 0.126362 0.858191
O O2 0.660205 0.899754 0.837735
O O3 0.470284 0.423917 0.297380
O O4 0.167448 0.987396 0.820919
O O5 0.500652 0.776968 0.172433
O O6 0.500000 0.000000 0.500000
O O7 0.886124 0.119160 0.656949
O O8 0.885834 0.582326 0.170765
O O9 0.320516 0.423034 0.074297
O O10 0.764477 0.055488 0.841338
O O11 0.781034 0.599618 0.336019
O O12 0.000000 0.500000 0.500000
O O13 0.852579 0.404874 0.475757
#
# Coordination Sequence:
#
# PCOD9069966 Si02
#       6
#     2   2   2   2   2   2
#     4  12  25  43  68 101 138 181 228 284 343 408
#     4  12  26  45  71 104 139 181 231 289 347 410
#     4  12  25  46  71 102 139 184 232 286 345 411
#     4  12  24  44  69 100 137 182 230 283 341 409
#     4  12  25  44  69 102 140 183 230 286 345 410
#     4  12  25  46  71 103 139 183 232 286 345 412
#
# _framework density 24.882899999999999
#
# number of rings (size 3 to 8) (size 9 to 14) (size 15 to 20)
#    0.000    0.000    0.000   11.000    0.000    2.667 
#    0.000    0.000    0.000    0.000    0.000    0.000 
#    0.000    0.000    0.000    0.000    0.000    0.000 
#
# Total GULP energy -67371.377277 kJ/mol
# GULP energy per Si atom -5614.281440 kJ/mol
# Density = 2.482627 g / cm^3
# Si number density = 24.882900 Si / 1000 Ang^3
#
#
#
# Elastic Constant Matrix: (Units=GPa)
#
#
# Indices 1 2 3 4 5 6 
#
# 1 114.5806 32.7913 23.5942 0.1301 -1.0862 -10.4665
# 2 32.7913 94.7974 25.8203 13.0678 -0.4845 -6.4041
# 3 23.5942 25.8203 107.1171 -9.8722 5.7937 -9.1102
# 4 0.1301 13.0678 -9.8722 56.9087 -9.5065 0.9676
# 5 -1.0862 -0.4845 5.7937 -9.5065 32.2605 4.2731
# 6 -10.4665 -6.4041 -9.1102 0.9676 4.2731 36.3766
#
#
#
# Elastic Compliance Matrix: (Units=1/GPa)
#
#
# Indices 1 2 3 4 5 6 
#
# 1 0.010051 -0.003059 -0.001286 0.000491 0.000407 0.001971
# 2 -0.003059 0.012870 -0.002646 -0.003521 -0.000589 0.000886
# 3 -0.001286 -0.002646 0.010713 0.002162 -0.001632 0.001981
# 4 0.000491 -0.003521 0.002162 0.019697 0.005526 -0.001110
# 5 0.000407 -0.000589 -0.001632 0.005526 0.033517 -0.004480
# 6 0.001971 0.000886 0.001981 -0.001110 -0.004480 0.029265
#
#
# Mechanical properties :
#
#
# Convention : Reuss Voigt Hill
#
# Bulk Modulus (GPa) = 50.88402 53.43408 52.15905
# Shear Modulus (GPa) = 36.59142 40.72846 38.65994
#
# Velocity S-wave (km/s) = 3.83893 4.05013 3.94594
# Velocity P-wave (km/s) = 6.33590 6.58728 6.46281
#
# Compressibility (1/GPa) = 0.01965254
#
# Stress axis : x y z
#
# Youngs Moduli (GPa) = 99.49282 77.70168 93.34803
#
# Poissons Ratio (x) = 0.23769 0.12002
# Poissons Ratio (y) = 0.30435 0.24697
# Poissons Ratio (z) = 0.12792 0.20557
#
# Static dielectric constant tensor:
#      x y z
#    x 1.918310 -0.008330 -0.015570 
#    y -0.008330 1.990830 0.003470 
#    z -0.015570 0.003470 1.918540 
# 
# From -- ./inp_files/355420.got.cif
#   From: 2010.05.17/outbox.cif.g08.bks.cpg/sg2_178_cif.got.tgz:355420.got - 2010.06.03 11:33:40.
