data_PCOD9069631
_publ_section_title
;
Structure prediction by ZEFSAII (Michael W. Deem and Ramdas Pophale) SiO2 
 PCOD9069631
Probable space group: P -1
;
_chemical_formula_sum "Si O2"
_cell_formula_units_Z 14
_cell_length_a 14.827145
_cell_length_b 9.475545
_cell_length_c 15.065365
_cell_angle_alpha 81.573361
_cell_angle_beta 18.956513
_cell_angle_gamma 72.998404
_cell_volume 597.193239
_symmetry_space_group_name_H-M "P -1"
_symmetry_group_IT_number 2
_symmetry_cell_setting 'triclinic'
loop_
_space_group_symop_operation_xyz
x,y,z
-x,-y,-z
loop_
_atom_site_type_symbol
_atom_site_label
_atom_site_fract_x
_atom_site_fract_y
_atom_site_fract_z
Si Si1 0.471610 0.803479 0.377432
Si Si2 0.774680 0.106329 0.778170
Si Si3 0.740611 0.553217 0.812467
Si Si4 0.710199 0.429342 0.157233
Si Si5 0.384849 0.061556 0.296115
Si Si6 0.806818 0.641146 0.433474
Si Si7 0.996533 0.144214 0.047516
O O1 0.647450 0.609738 0.220312
O O2 0.137330 0.857525 0.730204
O O3 0.439551 0.897131 0.307299
O O4 0.671089 0.858182 0.250958
O O5 0.016338 0.151616 0.600740
O O6 0.470298 0.253935 0.004280
O O7 0.625667 0.034055 0.994696
O O8 0.000000 0.000000 0.500000
O O9 0.000000 0.500000 0.500000
O O10 0.914199 0.475126 0.749205
O O11 0.500000 0.500000 0.000000
O O12 0.415060 0.436230 0.378140
O O13 0.763604 0.316431 0.202994
O O14 0.023091 0.340461 0.813813
O O15 0.400772 0.187172 0.340187
O O16 0.000000 0.000000 0.000000
#
# Coordination Sequence:
#
# PCOD9069631 Si02
#       7
#     2   2   2   2   2   2   2
#     4  12  26  46  70 106 147 181 233 298 357 427
#     4  12  26  46  71 104 146 190 240 304 364 426
#     4  12  23  46  72 103 140 192 246 298 358 421
#     4  12  26  44  71 108 140 190 232 301 358 425
#     4  12  25  47  70 104 143 190 241 297 359 428
#     4  12  24  44  73 101 142 185 249 290 356 429
#     4  12  24  47  75 103 141 188 237 284 359 433
#
# _framework density 23.442997999999999
#
# number of rings (size 3 to 8) (size 9 to 14) (size 15 to 20)
#    0.000    0.000    2.857    7.714    2.000    0.000 
#    0.000    0.000    0.000    0.000    0.000    0.000 
#    0.000    0.000    0.000    0.000    0.000    0.000 
#
# Total GULP energy -78451.099160 kJ/mol
# GULP energy per Si atom -5603.649940 kJ/mol
# Density = 2.338964 g / cm^3
# Si number density = 23.442998 Si / 1000 Ang^3
#
#
#
# Elastic Constant Matrix: (Units=GPa)
#
#
# Indices 1 2 3 4 5 6 
#
# 1 56.5487 42.2209 21.7458 -5.4457 1.3181 -5.5044
# 2 42.2209 136.6730 45.6056 2.2274 11.6827 -9.7558
# 3 21.7458 45.6056 135.3125 -14.9956 19.5068 -9.6298
# 4 -5.4457 2.2274 -14.9956 46.7537 -0.3411 -5.3251
# 5 1.3181 11.6827 19.5068 -0.3411 50.7723 -13.2999
# 6 -5.5044 -9.7558 -9.6298 -5.3251 -13.2999 41.9641
#
#
#
# Elastic Compliance Matrix: (Units=1/GPa)
#
#
# Indices 1 2 3 4 5 6 
#
# 1 0.023870 -0.007012 -0.001285 0.002973 0.002096 0.002248
# 2 -0.007012 0.010453 -0.002427 -0.002068 -0.001225 0.000303
# 3 -0.001285 -0.002427 0.009199 0.003000 -0.002684 0.000908
# 4 0.002973 -0.002068 0.003000 0.023215 0.000360 0.003658
# 5 0.002096 -0.001225 -0.002684 0.000360 0.022689 0.006611
# 6 0.002248 0.000303 0.000908 0.003658 0.006611 0.026963
#
#
# Mechanical properties :
#
#
# Convention : Reuss Voigt Hill
#
# Bulk Modulus (GPa) = 45.30555 60.85321 53.07938
# Shear Modulus (GPa) = 34.43641 42.49548 38.46595
#
# Velocity S-wave (km/s) = 3.83684 4.26222 4.05511
# Velocity P-wave (km/s) = 6.24469 7.08776 6.67954
#
# Compressibility (1/GPa) = 0.02207235
#
# Stress axis : x y z
#
# Youngs Moduli (GPa) = 41.89371 95.66784 108.70747
#
# Poissons Ratio (x) = 0.67084 0.13974
# Poissons Ratio (y) = 0.29377 0.26384
# Poissons Ratio (z) = 0.05385 0.23219
#
# Static dielectric constant tensor:
#      x y z
#    x 1.890980 -0.031620 -0.001710 
#    y -0.031620 1.882520 0.014420 
#    z -0.001710 0.014420 1.831930 
# 
# From -- ./inp_files/528441.got.cif
#   From: 2010.05.17/outbox.cif.g08.bks.cpg/sg2_265_cif.got.tgz:528441.got - 2010.06.03 11:33:40.
