data_PCOD9069900
_publ_section_title
;
Structure prediction by ZEFSAII (Michael W. Deem and Ramdas Pophale) SiO2 
 PCOD9069900
Probable space group: P -1
;
_chemical_formula_sum "Si O2"
_cell_formula_units_Z 14
_cell_length_a 8.113317
_cell_length_b 9.154413
_cell_length_c 21.452830
_cell_angle_alpha 43.920060
_cell_angle_beta 52.926391
_cell_angle_gamma 31.713526
_cell_volume 580.779209
_symmetry_space_group_name_H-M "P -1"
_symmetry_group_IT_number 2
_symmetry_cell_setting 'triclinic'
loop_
_space_group_symop_operation_xyz
x,y,z
-x,-y,-z
loop_
_atom_site_type_symbol
_atom_site_label
_atom_site_fract_x
_atom_site_fract_y
_atom_site_fract_z
Si Si1 0.090403 0.499904 0.409733
Si Si2 0.785007 0.369713 0.436736
Si Si3 0.413027 0.585337 0.882883
Si Si4 0.811540 0.888695 0.982172
Si Si5 0.686544 0.725476 0.855973
Si Si6 0.339371 0.788305 0.703361
Si Si7 0.750134 0.554938 0.250404
O O1 0.932253 0.455839 0.412302
O O2 0.000000 0.500000 0.500000
O O3 0.447605 0.246880 0.383572
O O4 0.958102 0.837947 0.329885
O O5 0.500000 0.500000 0.500000
O O6 0.690025 0.511469 0.345832
O O7 0.000000 0.000000 0.500000
O O8 0.454414 0.723529 0.885305
O O9 0.489820 0.627597 0.785531
O O10 0.053068 0.778789 0.906773
O O11 0.662214 0.206792 0.951920
O O12 0.048941 0.570353 0.067827
O O13 0.500000 0.000000 0.000000
O O14 0.892629 0.640109 0.775941
O O15 0.490619 0.070101 0.821527
O O16 0.272078 0.614946 0.741854
#
# Coordination Sequence:
#
# PCOD9069900 Si02
#       7
#     2   2   2   2   2   2   2
#     4  12  24  43  67  98 135 178 226 281 340 408
#     4  12  24  43  68  99 136 180 228 284 344 411
#     4  12  25  46  71 102 138 182 232 289 349 417
#     4  12  26  45  71 104 139 181 232 291 351 416
#     4  12  25  46  71 101 138 183 232 287 348 416
#     4  12  25  43  67  99 135 178 226 282 342 407
#     4  12  25  44  68 101 138 182 231 286 346 415
#
# _framework density 24.105547000000001
#
# number of rings (size 3 to 8) (size 9 to 14) (size 15 to 20)
#    0.000    0.000    0.000   11.143    0.000    2.286 
#    0.000    0.000    0.000    0.000    0.000    0.000 
#    0.000    0.000    0.000    0.000    0.000    0.000 
#
# Total GULP energy -78478.756632 kJ/mol
# GULP energy per Si atom -5605.625474 kJ/mol
# Density = 2.405068 g / cm^3
# Si number density = 24.105547 Si / 1000 Ang^3
#
#
#
# Elastic Constant Matrix: (Units=GPa)
#
#
# Indices 1 2 3 4 5 6 
#
# 1 119.3730 25.8512 29.7200 -20.1140 -3.9291 18.1289
# 2 25.8512 149.5359 30.8466 -20.3500 -11.6409 -0.7992
# 3 29.7200 30.8466 99.7835 -15.4405 3.2561 15.8265
# 4 -20.1140 -20.3500 -15.4405 67.5742 0.4774 -15.1060
# 5 -3.9291 -11.6409 3.2561 0.4774 31.6214 6.5788
# 6 18.1289 -0.7992 15.8265 -15.1060 6.5788 44.0327
#
#
#
# Elastic Compliance Matrix: (Units=1/GPa)
#
#
# Indices 1 2 3 4 5 6 
#
# 1 0.009857 -0.000982 -0.001964 0.001481 0.001691 -0.003115
# 2 -0.000982 0.007769 -0.002152 0.001890 0.002603 0.001579
# 3 -0.001964 -0.002152 0.011929 0.000838 -0.001657 -0.002983
# 4 0.001481 0.001890 0.000838 0.017140 -0.000522 0.005081
# 5 0.001691 0.002603 -0.001657 -0.000522 0.034079 -0.005324
# 6 -0.003115 0.001579 -0.002983 0.005081 -0.005324 0.027632
#
#
# Mechanical properties :
#
#
# Convention : Reuss Voigt Hill
#
# Bulk Modulus (GPa) = 51.65761 60.16976 55.91369
# Shear Modulus (GPa) = 39.98215 47.46395 43.72305
#
# Velocity S-wave (km/s) = 4.07704 4.44216 4.26351
# Velocity P-wave (km/s) = 6.60601 7.16419 6.89075
#
# Compressibility (1/GPa) = 0.01935823
#
# Stress axis : x y z
#
# Youngs Moduli (GPa) = 101.44959 128.71045 83.83060
#
# Poissons Ratio (x) = 0.12643 0.16466
# Poissons Ratio (y) = 0.09966 0.18041
# Poissons Ratio (z) = 0.19927 0.27699
#
# Static dielectric constant tensor:
#      x y z
#    x 1.893420 -0.010870 -0.002690 
#    y -0.010870 1.857660 0.039100 
#    z -0.002690 0.039100 1.967570 
# 
# From -- ./inp_files/606612.got.cif
#   From: 2010.05.17/outbox.cif.g08.bks.cpg/sg2_304_cif.got.tgz:606612.got - 2010.06.03 11:33:40.
