data_PCOD9069435
_publ_section_title
;
Structure prediction by ZEFSAII (Michael W. Deem and Ramdas Pophale) SiO2 
 PCOD9069435
Probable space group: P -1
;
_chemical_formula_sum "Si O2"
_cell_formula_units_Z 14
_cell_length_a 8.673343
_cell_length_b 9.448107
_cell_length_c 9.195063
_cell_angle_alpha 92.922547
_cell_angle_beta 114.065458
_cell_angle_gamma 62.403107
_cell_volume 600.813194
_symmetry_space_group_name_H-M "P -1"
_symmetry_group_IT_number 2
_symmetry_cell_setting 'triclinic'
loop_
_space_group_symop_operation_xyz
x,y,z
-x,-y,-z
loop_
_atom_site_type_symbol
_atom_site_label
_atom_site_fract_x
_atom_site_fract_y
_atom_site_fract_z
Si Si1 0.768391 0.569325 0.755485
Si Si2 0.067917 0.912488 0.674529
Si Si3 0.546666 0.074881 0.883572
Si Si4 0.522934 0.833192 0.432439
Si Si5 0.530229 0.345098 0.093671
Si Si6 0.072806 0.208176 0.138683
Si Si7 0.147663 0.785495 0.216792
O O1 0.648017 0.690039 0.584380
O O2 0.640192 0.611103 0.854630
O O3 0.931704 0.620685 0.851234
O O4 0.827581 0.385509 0.729108
O O5 0.277366 0.756917 0.741456
O O6 0.944054 0.844442 0.708072
O O7 0.000000 0.000000 0.500000
O O8 0.035908 0.061574 0.774359
O O9 0.398565 0.160878 0.698114
O O10 0.729669 0.927126 0.866553
O O11 0.558897 0.219916 0.972017
O O12 0.500000 0.000000 0.000000
O O13 0.332790 0.809478 0.326168
O O14 0.500000 0.000000 0.500000
O O15 0.500000 0.500000 0.000000
O O16 0.905321 0.211277 0.973415
#
# Coordination Sequence:
#
# PCOD9069435 Si02
#       7
#     2   2   2   2   2   2   2
#     4  12  26  47  74 107 148 191 245 307 369 435
#     4  12  26  45  73 106 147 192 246 306 371 433
#     4  12  23  43  73 104 142 190 245 294 361 443
#     4  12  23  44  71 103 143 194 241 296 369 431
#     4  12  26  44  71 111 143 189 253 303 357 449
#     4  12  24  48  74 105 146 195 241 300 370 439
#     4  12  25  46  76 105 143 194 243 301 366 437
#
# _framework density 23.301752
#
# number of rings (size 3 to 8) (size 9 to 14) (size 15 to 20)
#    0.000    0.000    5.714    4.714    0.000    2.286 
#    0.000    0.714    0.000    0.000    0.000    0.000 
#    0.000    0.000    0.000    0.000    0.000    0.000 
#
# Total GULP energy -78210.108774 kJ/mol
# GULP energy per Si atom -5586.436341 kJ/mol
# Density = 2.324872 g / cm^3
# Si number density = 23.301752 Si / 1000 Ang^3
#
#
#
# Elastic Constant Matrix: (Units=GPa)
#
#
# Indices 1 2 3 4 5 6 
#
# 1 95.3370 56.6970 54.3379 -3.2350 -18.6475 16.0095
# 2 56.6970 191.7057 39.9649 -28.7465 -0.6263 43.5642
# 3 54.3379 39.9649 164.9479 -34.9269 -15.5791 27.2276
# 4 -3.2350 -28.7465 -34.9269 44.3362 15.3240 0.6228
# 5 -18.6475 -0.6263 -15.5791 15.3240 44.3679 -6.1089
# 6 16.0095 43.5642 27.2276 0.6228 -6.1089 37.9860
#
#
#
# Elastic Compliance Matrix: (Units=1/GPa)
#
#
# Indices 1 2 3 4 5 6 
#
# 1 0.020711 -0.008766 -0.008301 -0.015051 0.012170 0.009478
# 2 -0.008766 0.012567 0.004667 0.014537 -0.009059 -0.015759
# 3 -0.008301 0.004667 0.012012 0.013993 -0.005635 -0.011599
# 4 -0.015051 0.014537 0.013993 0.049788 -0.021801 -0.024681
# 5 0.012170 -0.009059 -0.005635 -0.021801 0.035186 0.015315
# 6 0.009478 -0.015759 -0.011599 -0.024681 0.015315 0.051585
#
#
# Mechanical properties :
#
#
# Convention : Reuss Voigt Hill
#
# Bulk Modulus (GPa) = 48.80473 83.77669 66.29071
# Shear Modulus (GPa) = 23.42140 45.40409 34.41275
#
# Velocity S-wave (km/s) = 3.17383 4.41900 3.84712
# Velocity P-wave (km/s) = 5.86694 7.87831 6.94582
#
# Compressibility (1/GPa) = 0.02048982
#
# Stress axis : x y z
#
# Youngs Moduli (GPa) = 48.28239 79.57113 83.25145
#
# Poissons Ratio (x) = 0.69752 0.69108
# Poissons Ratio (y) = 0.42324 -0.38850
# Poissons Ratio (z) = 0.40080 -0.37133
#
# Static dielectric constant tensor:
#      x y z
#    x 2.009590 0.020810 0.043150 
#    y 0.020810 1.709440 0.075700 
#    z 0.043150 0.075700 1.871210 
# 
# From -- ./inp_files/158834.got.cif
#   From: 2010.05.17/outbox.cif.g08.bks.cpg/sg2_80_cif.got.tgz:158834.got - 2010.06.03 11:33:40.
