data_PCOD9069115
_publ_section_title
;
Structure prediction by ZEFSAII (Michael W. Deem and Ramdas Pophale) SiO2 
 PCOD9069115
Probable space group: P -1
;
_chemical_formula_sum "Si O2"
_cell_formula_units_Z 12
_cell_length_a 15.956150
_cell_length_b 9.713379
_cell_length_c 16.066180
_cell_angle_alpha 46.261879
_cell_angle_beta 161.967767
_cell_angle_gamma 133.454841
_cell_volume 551.751561
_symmetry_space_group_name_H-M "P -1"
_symmetry_group_IT_number 2
_symmetry_cell_setting 'triclinic'
loop_
_space_group_symop_operation_xyz
x,y,z
-x,-y,-z
loop_
_atom_site_type_symbol
_atom_site_label
_atom_site_fract_x
_atom_site_fract_y
_atom_site_fract_z
Si Si1 0.946873 0.881491 0.916676
Si Si2 0.962629 0.440774 0.157832
Si Si3 0.725145 0.357550 0.279179
Si Si4 0.469043 0.003328 0.650916
Si Si5 0.499718 0.353331 0.637928
Si Si6 0.239066 0.865204 0.770189
O O1 0.931280 0.661643 0.021745
O O2 0.206329 0.946989 0.075097
O O3 0.000000 0.000000 0.000000
O O4 0.675988 0.929401 0.596052
O O5 0.826323 0.325659 0.155101
O O6 0.281195 0.417780 0.468309
O O7 0.796791 0.349581 0.958701
O O8 0.638051 0.211640 0.333888
O O9 0.737316 0.223041 0.263886
O O10 0.000000 0.500000 0.500000
O O11 0.500000 0.500000 0.000000
O O12 0.389175 0.143430 0.588987
O O13 0.500000 0.500000 0.500000
O O14 0.000000 0.000000 0.500000
O O15 0.500000 0.000000 0.000000
#
# Coordination Sequence:
#
# PCOD9069115 Si02
#       6
#     2   2   2   2   2   2
#     4  12  26  43  66 103 134 181 220 280 348 405
#     4  12  24  42  73  99 139 172 227 284 341 416
#     4  12  28  49  73 106 141 193 241 291 350 421
#     4  12  25  44  72  96 140 173 227 285 341 414
#     4  12  22  43  67 107 131 171 222 279 353 404
#     4  12  27  50  73 106 143 192 240 291 350 420
#
# _framework density 21.748919000000001
#
# number of rings (size 3 to 8) (size 9 to 14) (size 15 to 20)
#    0.000    0.000    3.333    7.000    4.667    0.000 
#    0.000    0.000    0.000    0.000    0.000    0.000 
#    0.000    0.000    0.000    0.000    0.000    0.000 
#
# Total GULP energy -67106.943214 kJ/mol
# GULP energy per Si atom -5592.245268 kJ/mol
# Density = 2.169942 g / cm^3
# Si number density = 21.748919 Si / 1000 Ang^3
#
#
#
# Elastic Constant Matrix: (Units=GPa)
#
#
# Indices 1 2 3 4 5 6 
#
# 1 79.1764 41.3759 5.3347 -0.8940 -0.1427 3.3273
# 2 41.3759 148.3228 31.8318 -0.3733 -8.2070 14.0006
# 3 5.3347 31.8318 112.2683 6.2623 10.9162 -9.1982
# 4 -0.8940 -0.3733 6.2623 39.9421 0.3631 -4.1831
# 5 -0.1427 -8.2070 10.9162 0.3631 20.3559 5.2957
# 6 3.3273 14.0006 -9.1982 -4.1831 5.2957 60.8333
#
#
#
# Elastic Compliance Matrix: (Units=1/GPa)
#
#
# Indices 1 2 3 4 5 6 
#
# 1 0.014910 -0.004519 0.000831 0.000242 -0.002315 0.000568
# 2 -0.004519 0.009331 -0.003287 0.000137 0.006254 -0.002932
# 3 0.000831 -0.003287 0.010884 -0.001338 -0.007901 0.002953
# 4 0.000242 0.000137 -0.001338 0.025411 -0.000071 0.001506
# 5 -0.002315 0.006254 -0.007901 -0.000071 0.057832 -0.007547
# 6 0.000568 -0.002932 0.002953 0.001506 -0.007547 0.018289
#
#
# Mechanical properties :
#
#
# Convention : Reuss Voigt Hill
#
# Bulk Modulus (GPa) = 47.22299 55.20581 51.21440
# Shear Modulus (GPa) = 31.71249 41.64126 36.67687
#
# Velocity S-wave (km/s) = 3.82267 4.38040 4.11101
# Velocity P-wave (km/s) = 6.42213 7.14299 6.79213
#
# Compressibility (1/GPa) = 0.02117613
#
# Stress axis : x y z
#
# Youngs Moduli (GPa) = 67.06846 107.16762 91.87433
#
# Poissons Ratio (x) = 0.48427 -0.07634
# Poissons Ratio (y) = 0.30307 0.30199
# Poissons Ratio (z) = -0.05573 0.35225
#
# Static dielectric constant tensor:
#      x y z
#    x 1.375290 -0.441900 -0.204430 
#    y -0.441900 1.328380 -0.213330 
#    z -0.204430 -0.213330 1.678820 
# 
# From -- ./inp_files/311043.got.cif
#   From: 2010.05.17/outbox.cif.g08.bks.cpg/sg2_156_cif.got.tgz:311043.got - 2010.06.03 11:33:40.
