data_PCOD9069368
_publ_section_title
;
Structure prediction by ZEFSAII (Michael W. Deem and Ramdas Pophale) SiO2 
 PCOD9069368
Probable space group: P -1
;
_chemical_formula_sum "Si O2"
_cell_formula_units_Z 15
_cell_length_a 19.682506
_cell_length_b 8.689412
_cell_length_c 7.735751
_cell_angle_alpha 144.527527
_cell_angle_beta 58.721351
_cell_angle_gamma 109.447389
_cell_volume 645.313585
_symmetry_space_group_name_H-M "P -1"
_symmetry_group_IT_number 2
_symmetry_cell_setting 'triclinic'
loop_
_space_group_symop_operation_xyz
x,y,z
-x,-y,-z
loop_
_atom_site_type_symbol
_atom_site_label
_atom_site_fract_x
_atom_site_fract_y
_atom_site_fract_z
Si Si1 0.962300 0.792637 0.742748
Si Si2 0.657721 0.286021 0.322860
Si Si3 0.194674 0.199660 0.841457
Si Si4 0.415122 0.144651 0.166144
Si Si5 0.635407 0.767059 0.326619
Si Si6 0.417823 0.673036 0.197349
Si Si7 0.181973 0.755586 0.162008
Si Si8 0.000000 0.000000 0.500000
O O1 0.000000 0.500000 0.500000
O O2 0.979458 0.848723 0.572047
O O3 0.869394 0.827199 0.950679
O O4 0.000000 0.000000 0.000000
O O5 0.591376 0.545717 0.590877
O O6 0.654752 0.319896 0.563459
O O7 0.741674 0.279253 0.104197
O O8 0.619320 0.025267 0.089536
O O9 0.276910 0.227251 0.855433
O O10 0.198095 0.949019 0.476272
O O11 0.173087 0.469438 0.998279
O O12 0.354630 0.165048 0.425496
O O13 0.500000 0.000000 0.000000
O O14 0.573692 0.021224 0.567888
O O15 0.606857 0.486577 0.081099
O O16 0.500000 0.500000 0.000000
O O17 0.098037 0.887624 0.302167
#
# Coordination Sequence:
#
# PCOD9069368 Si02
#       8
#     2   2   2   2   2   2   2   1
#     4  12  26  49  75 110 148 193 245 312 382 458
#     4  12  24  45  65 102 141 184 234 302 360 432
#     4  12  24  49  71 102 144 186 244 311 378 453
#     4  12  23  42  71  98 131 182 240 289 357 437
#     4  12  24  43  69  98 133 191 233 287 372 429
#     4  12  26  44  65 101 145 185 239 304 361 436
#     4  12  25  47  72 105 143 190 248 315 379 458
#     4  12  28  48  80 110 148 200 254 312 402 444
#
# _framework density 23.244510999999999
#
# number of rings (size 3 to 8) (size 9 to 14) (size 15 to 20)
#    0.000    0.000    5.333    4.800    1.867    2.133 
#    0.000    0.000    0.000    0.000    0.000    0.000 
#    0.000    0.000    0.000    0.000    0.000    0.000 
#
# Total GULP energy -83616.932947 kJ/mol
# GULP energy per Si atom -5574.462196 kJ/mol
# Density = 2.319161 g / cm^3
# Si number density = 23.244511 Si / 1000 Ang^3
#
#
#
# Elastic Constant Matrix: (Units=GPa)
#
#
# Indices 1 2 3 4 5 6 
#
# 1 78.8193 16.5913 32.5129 3.5914 -19.9757 6.1235
# 2 16.5913 141.3614 45.9819 -22.7139 -0.2206 -4.3135
# 3 32.5129 45.9819 100.6982 6.6864 5.7854 3.6096
# 4 3.5914 -22.7139 6.6864 36.4279 10.8186 -10.4898
# 5 -19.9757 -0.2206 5.7854 10.8186 32.5052 -0.1927
# 6 6.1235 -4.3135 3.6096 -10.4898 -0.1927 45.0902
#
#
#
# Elastic Compliance Matrix: (Units=1/GPa)
#
#
# Indices 1 2 3 4 5 6 
#
# 1 0.020358 -0.001862 -0.005962 -0.008132 0.016241 -0.004288
# 2 -0.001862 0.010542 -0.004805 0.009790 -0.003453 0.003909
# 3 -0.005962 -0.004805 0.014674 -0.004158 -0.004935 -0.001813
# 4 -0.008132 0.009790 -0.004158 0.044360 -0.018880 0.012613
# 5 0.016241 -0.003453 -0.004935 -0.018880 0.047846 -0.006329
# 6 -0.004288 0.003909 -0.001813 0.012613 -0.006329 0.026186
#
#
# Mechanical properties :
#
#
# Convention : Reuss Voigt Hill
#
# Bulk Modulus (GPa) = 49.21980 56.78346 53.00163
# Shear Modulus (GPa) = 25.51051 37.85750 31.68400
#
# Velocity S-wave (km/s) = 3.31643 4.04005 3.69599
# Velocity P-wave (km/s) = 5.99047 6.80033 6.40820
#
# Compressibility (1/GPa) = 0.02031703
#
# Stress axis : x y z
#
# Youngs Moduli (GPa) = 49.12004 94.85537 68.14658
#
# Poissons Ratio (x) = 0.17663 0.40631
# Poissons Ratio (y) = 0.09147 0.32741
# Poissons Ratio (z) = 0.29287 0.45574
#
# Static dielectric constant tensor:
#      x y z
#    x 1.877120 -0.052240 -0.058490 
#    y -0.052240 1.943850 -0.034420 
#    z -0.058490 -0.034420 1.898110 
# 
# From -- ./inp_files/343945.got.cif
#   From: 2010.05.17/outbox.cif.g08.bks.cpg/sg2_172_cif.got.tgz:343945.got - 2010.06.03 11:33:40.
