data_PCOD9069612
_publ_section_title
;
Structure prediction by ZEFSAII (Michael W. Deem and Ramdas Pophale) SiO2 
 PCOD9069612
Probable space group: P -1
;
_chemical_formula_sum "Si O2"
_cell_formula_units_Z 16
_cell_length_a 8.859289
_cell_length_b 8.503383
_cell_length_c 19.715982
_cell_angle_alpha 63.773865
_cell_angle_beta 61.229705
_cell_angle_gamma 32.356683
_cell_volume 694.799119
_symmetry_space_group_name_H-M "P -1"
_symmetry_group_IT_number 2
_symmetry_cell_setting 'triclinic'
loop_
_space_group_symop_operation_xyz
x,y,z
-x,-y,-z
loop_
_atom_site_type_symbol
_atom_site_label
_atom_site_fract_x
_atom_site_fract_y
_atom_site_fract_z
Si Si1 0.848588 0.523709 0.138221
Si Si2 0.511985 0.090336 0.297320
Si Si3 0.248984 0.764713 0.551094
Si Si4 0.447614 0.152190 0.067407
Si Si5 0.893378 0.983888 0.908418
Si Si6 0.072371 0.556996 0.702739
Si Si7 0.461753 0.655033 0.867812
Si Si8 0.665956 0.705753 0.551094
O O1 0.865480 0.507385 0.218772
O O2 0.112284 0.421722 0.069936
O O3 0.930581 0.266638 0.140000
O O4 0.559045 0.865040 0.116486
O O5 0.613226 0.174859 0.216299
O O6 0.376631 0.260314 0.365387
O O7 0.259189 0.209861 0.285265
O O8 0.750513 0.742019 0.317293
O O9 0.500000 0.500000 0.500000
O O10 0.139750 0.694517 0.634154
O O11 0.447922 0.731337 0.562854
O O12 0.000000 0.000000 0.500000
O O13 0.456183 0.270264 0.108096
O O14 0.659753 0.057217 0.983832
O O15 0.166540 0.810332 0.929094
O O16 0.712353 0.307166 0.867413
O O17 0.000000 0.500000 0.500000
O O18 0.500000 0.000000 0.500000
#
# Coordination Sequence:
#
# PCOD9069612 Si02
#       8
#     2   2   2   2   2   2   2   2
#     4  12  24  44  68 100 138 186 239 291 365 425
#     4  12  25  46  72  97 144 188 235 291 356 433
#     4  12  26  46  73 107 142 183 236 291 355 426
#     4  12  23  46  68  98 135 191 238 293 362 432
#     4  12  26  41  69 100 141 178 242 307 353 426
#     4  12  24  46  70  99 140 190 236 293 354 432
#     4  12  24  44  66 102 138 185 237 292 367 423
#     4  12  26  47  74 109 144 186 236 291 358 429
#
# _framework density 23.028237000000001
#
# number of rings (size 3 to 8) (size 9 to 14) (size 15 to 20)
#    0.000    0.000    2.500    9.000    1.750    0.000 
#    2.250    0.000    0.000    0.000    0.000    0.000 
#    0.000    0.000    0.000    0.000    0.000    0.000 
#
# Total GULP energy -89229.605266 kJ/mol
# GULP energy per Si atom -5576.850329 kJ/mol
# Density = 2.297582 g / cm^3
# Si number density = 23.028237 Si / 1000 Ang^3
#
#
#
# Elastic Constant Matrix: (Units=GPa)
#
#
# Indices 1 2 3 4 5 6 
#
# 1 124.0834 35.3883 45.0231 -0.7809 -4.8438 6.8848
# 2 35.3883 136.2417 21.7132 -10.5235 -4.5943 -9.3140
# 3 45.0231 21.7132 103.0002 0.8371 4.1113 15.0660
# 4 -0.7809 -10.5235 0.8371 35.4339 1.4803 0.6047
# 5 -4.8438 -4.5943 4.1113 1.4803 39.3264 7.7081
# 6 6.8848 -9.3140 15.0660 0.6047 7.7081 45.9211
#
#
#
# Elastic Compliance Matrix: (Units=1/GPa)
#
#
# Indices 1 2 3 4 5 6 
#
# 1 0.010189 -0.002052 -0.003949 -0.000344 0.001621 -0.000916
# 2 -0.002052 0.008432 -0.001256 0.002436 0.000312 0.002345
# 3 -0.003949 -0.001256 0.012261 -0.000640 -0.001210 -0.003474
# 4 -0.000344 0.002436 -0.000640 0.028980 -0.000884 0.000522
# 5 0.001621 0.000312 -0.001210 -0.000884 0.026656 -0.004245
# 6 -0.000916 0.002345 -0.003474 0.000522 -0.004245 0.024235
#
#
# Mechanical properties :
#
#
# Convention : Reuss Voigt Hill
#
# Bulk Modulus (GPa) = 61.09278 63.06382 62.07830
# Shear Modulus (GPa) = 38.24845 41.54967 39.89906
#
# Velocity S-wave (km/s) = 4.07988 4.25230 4.16698
# Velocity P-wave (km/s) = 6.98434 7.18014 7.08291
#
# Compressibility (1/GPa) = 0.01636855
#
# Stress axis : x y z
#
# Youngs Moduli (GPa) = 98.14402 118.59604 81.55647
#
# Poissons Ratio (x) = 0.24332 0.32209
# Poissons Ratio (y) = 0.20136 0.10244
# Poissons Ratio (z) = 0.38760 0.14896
#
# Static dielectric constant tensor:
#      x y z
#    x 1.817940 0.058020 -0.015640 
#    y 0.058020 1.816540 -0.007060 
#    z -0.015640 -0.007060 1.830510 
# 
# From -- ./inp_files/587902.got.cif
#   From: 2010.05.17/outbox.cif.g08.bks.cpg/sg2_294_cif.got.tgz:587902.got - 2010.06.03 11:33:40.
