data_PCOD9069917
_publ_section_title
;
Structure prediction by ZEFSAII (Michael W. Deem and Ramdas Pophale) SiO2 
 PCOD9069917
Probable space group: P -1
;
_chemical_formula_sum "Si O2"
_cell_formula_units_Z 15
_cell_length_a 16.758982
_cell_length_b 20.314279
_cell_length_c 11.558238
_cell_angle_alpha 146.669251
_cell_angle_beta 146.941572
_cell_angle_gamma 20.441320
_cell_volume 723.195159
_symmetry_space_group_name_H-M "P -1"
_symmetry_group_IT_number 2
_symmetry_cell_setting 'triclinic'
loop_
_space_group_symop_operation_xyz
x,y,z
-x,-y,-z
loop_
_atom_site_type_symbol
_atom_site_label
_atom_site_fract_x
_atom_site_fract_y
_atom_site_fract_z
Si Si1 0.489280 0.249297 0.987946
Si Si2 0.620611 0.111081 0.492364
Si Si3 0.700558 0.470336 0.211087
Si Si4 0.500000 0.500000 0.500000
Si Si5 0.044252 0.081864 0.586078
Si Si6 0.371295 0.030603 0.066082
Si Si7 0.862790 0.967019 0.819502
Si Si8 0.080893 0.548731 0.758703
O O1 0.523436 0.357356 0.245417
O O2 0.238841 0.401538 0.840248
O O3 0.501188 0.143003 0.946793
O O4 0.696018 0.092399 0.913109
O O5 0.407171 0.346187 0.582423
O O6 0.535071 0.035979 0.236508
O O7 0.833927 0.026034 0.547927
O O8 0.704748 0.039504 0.621762
O O9 0.755181 0.471016 0.147148
O O10 0.938187 0.262136 0.250060
O O11 0.500000 0.500000 0.000000
O O12 0.791885 0.309537 0.597448
O O13 0.243749 0.035206 0.820102
O O14 0.000000 0.000000 0.500000
O O15 0.152223 0.232787 0.163755
O O16 0.000000 0.000000 0.000000
O O17 0.000000 0.500000 0.500000
#
# Coordination Sequence:
#
# PCOD9069917 Si02
#       8
#     2   2   2   1   2   2   2   2
#     4  12  25  44  73 106 145 189 240 296 367 427
#     4  12  28  47  71 109 146 192 242 305 369 434
#     4  12  25  42  69 106 145 186 230 304 359 432
#     4  12  26  46  76 108 136 194 250 300 350 444
#     4  12  28  50  76 102 139 197 251 303 367 431
#     4  12  26  47  73 105 152 193 239 303 364 448
#     4  12  24  43  71 107 145 180 243 304 361 430
#     4  12  24  44  72 107 146 190 239 288 370 437
#
# _framework density 20.741288999999998
#
# number of rings (size 3 to 8) (size 9 to 14) (size 15 to 20)
#    0.000    0.000    8.000    1.200    3.733    3.200 
#    0.000    0.667    0.000    0.000    0.000    0.000 
#    0.000    0.000    0.000    0.000    0.000    0.000 
#
# Total GULP energy -83639.295619 kJ/mol
# GULP energy per Si atom -5575.953041 kJ/mol
# Density = 2.069408 g / cm^3
# Si number density = 20.741289 Si / 1000 Ang^3
#
#
#
# Elastic Constant Matrix: (Units=GPa)
#
#
# Indices 1 2 3 4 5 6 
#
# 1 111.6958 44.3176 33.9341 13.4979 3.0672 -9.4861
# 2 44.3176 158.6698 39.6192 11.4192 -9.4187 21.8506
# 3 33.9341 39.6192 119.7876 -9.1167 4.0410 19.0782
# 4 13.4979 11.4192 -9.1167 35.0094 -8.6449 -6.4639
# 5 3.0672 -9.4187 4.0410 -8.6449 25.2350 -5.8110
# 6 -9.4861 21.8506 19.0782 -6.4639 -5.8110 25.9458
#
#
#
# Elastic Compliance Matrix: (Units=1/GPa)
#
#
# Indices 1 2 3 4 5 6 
#
# 1 0.013024 -0.003781 -0.004242 -0.003339 -0.001162 0.009973
# 2 -0.003781 0.009073 -0.000751 -0.003182 0.000783 -0.009088
# 3 -0.004242 -0.000751 0.011598 0.002406 -0.002989 -0.009517
# 4 -0.003339 -0.003182 0.002406 0.037338 0.014440 0.012226
# 5 -0.001162 0.000783 -0.002989 0.014440 0.049104 0.015709
# 6 0.009973 -0.009088 -0.009517 0.012226 0.015709 0.063404
#
#
# Mechanical properties :
#
#
# Convention : Reuss Voigt Hill
#
# Bulk Modulus (GPa) = 61.93077 69.54388 65.73732
# Shear Modulus (GPa) = 24.21647 35.39021 29.80334
#
# Velocity S-wave (km/s) = 3.42065 4.13518 3.79477
# Velocity P-wave (km/s) = 6.74719 7.51010 7.13885
#
# Compressibility (1/GPa) = 0.01614706
#
# Stress axis : x y z
#
# Youngs Moduli (GPa) = 76.78057 110.21884 86.22190
#
# Poissons Ratio (x) = 0.41668 0.36579
# Poissons Ratio (y) = 0.29027 0.06475
# Poissons Ratio (z) = 0.32574 0.08277
#
# Static dielectric constant tensor:
#      x y z
#    x 1.877340 -0.001200 0.020480 
#    y -0.001200 1.717530 0.006580 
#    z 0.020480 0.006580 1.725910 
# 
# From -- ./inp_files/255791.got.cif
#   From: 2010.05.17/outbox.cif.g08.bks.cpg/sg2_128_cif.got.tgz:255791.got - 2010.06.03 11:33:40.
