data_PCOD9069371
_publ_section_title
;
Structure prediction by ZEFSAII (Michael W. Deem and Ramdas Pophale) SiO2 
 PCOD9069371
Probable space group: P -1
;
_chemical_formula_sum "Si O2"
_cell_formula_units_Z 16
_cell_length_a 6.938206
_cell_length_b 13.842703
_cell_length_c 21.692040
_cell_angle_alpha 159.884517
_cell_angle_beta 86.837896
_cell_angle_gamma 90.811897
_cell_volume 711.103765
_symmetry_space_group_name_H-M "P -1"
_symmetry_group_IT_number 2
_symmetry_cell_setting 'triclinic'
loop_
_space_group_symop_operation_xyz
x,y,z
-x,-y,-z
loop_
_atom_site_type_symbol
_atom_site_label
_atom_site_fract_x
_atom_site_fract_y
_atom_site_fract_z
Si Si1 0.319905 0.076982 0.592667
Si Si2 0.782535 0.792650 0.561787
Si Si3 0.080235 0.600163 0.869097
Si Si4 0.410661 0.236233 0.815255
Si Si5 0.362807 0.710506 0.670479
Si Si6 0.067067 0.097262 0.824565
Si Si7 0.367840 0.051782 0.094538
Si Si8 0.871038 0.447218 0.668457
O O1 0.156841 0.269669 0.673668
O O2 0.374714 0.270240 0.764048
O O3 0.500000 0.000000 0.500000
O O4 0.262300 0.790249 0.451562
O O5 0.744865 0.482618 0.397773
O O6 0.932216 0.730462 0.465981
O O7 0.574658 0.968811 0.659139
O O8 0.894306 0.958334 0.710742
O O9 0.915471 0.627464 0.835854
O O10 0.009701 0.688324 0.991736
O O11 0.241893 0.797060 0.961031
O O12 0.208181 0.206920 0.836044
O O13 0.500000 0.500000 0.000000
O O14 0.500000 0.500000 0.500000
O O15 0.494091 0.899964 0.821301
O O16 0.207070 0.871332 0.724908
O O17 0.226557 0.339344 0.253764
O O18 0.500000 0.000000 0.000000
#
# Coordination Sequence:
#
# PCOD9069371 Si02
#       8
#     2   2   2   2   2   2   2   2
#     4  12  27  48  72 105 142 187 242 292 353 422
#     4  12  24  47  71 103 142 186 238 288 354 421
#     4  12  27  44  73 105 146 186 235 299 353 421
#     4  12  28  45  73 102 145 191 229 293 356 420
#     4  12  23  42  72 103 139 184 233 288 350 417
#     4  12  26  46  70 107 146 183 237 287 358 425
#     4  12  25  46  73 105 144 187 238 293 359 417
#     4  12  25  47  72 105 142 187 239 295 351 421
#
# _framework density 22.500230999999999
#
# number of rings (size 3 to 8) (size 9 to 14) (size 15 to 20)
#    0.000    0.000    2.500    7.875    5.250    1.000 
#    0.000    0.000    0.000    0.000    0.000    0.000 
#    0.000    0.000    0.000    0.000    0.000    0.000 
#
# Total GULP energy -89615.719486 kJ/mol
# GULP energy per Si atom -5600.982468 kJ/mol
# Density = 2.244902 g / cm^3
# Si number density = 22.500231 Si / 1000 Ang^3
#
#
#
# Elastic Constant Matrix: (Units=GPa)
#
#
# Indices 1 2 3 4 5 6 
#
# 1 79.2193 18.9610 16.5324 -9.0207 -4.2659 4.3532
# 2 18.9610 79.1300 9.1124 -12.4994 -6.1995 4.4581
# 3 16.5324 9.1124 57.0851 -8.5883 1.4431 14.1908
# 4 -9.0207 -12.4994 -8.5883 49.8356 0.5084 -0.0595
# 5 -4.2659 -6.1995 1.4431 0.5084 53.1866 -6.2945
# 6 4.3532 4.4581 14.1908 -0.0595 -6.2945 43.3778
#
#
#
# Elastic Compliance Matrix: (Units=1/GPa)
#
#
# Indices 1 2 3 4 5 6 
#
# 1 0.014203 -0.002731 -0.003548 0.001265 0.000923 0.000152
# 2 -0.002731 0.013985 -0.000878 0.002848 0.001327 -0.000680
# 3 -0.003548 -0.000878 0.020782 0.002729 -0.001758 -0.006604
# 4 0.001265 0.002848 0.002729 0.021478 0.000002 -0.001283
# 5 0.000923 0.001327 -0.001758 0.000002 0.019453 0.003169
# 6 0.000152 -0.000680 -0.006604 -0.001283 0.003169 0.025726
#
#
# Mechanical properties :
#
#
# Convention : Reuss Voigt Hill
#
# Bulk Modulus (GPa) = 28.85474 33.84956 31.35215
# Shear Modulus (GPa) = 35.33748 40.66859 38.00303
#
# Velocity S-wave (km/s) = 3.96730 4.25605 4.11421
# Velocity P-wave (km/s) = 5.81704 6.26328 6.04428
#
# Compressibility (1/GPa) = 0.03465635
#
# Stress axis : x y z
#
# Youngs Moduli (GPa) = 70.40906 71.50525 48.11845
#
# Poissons Ratio (x) = 0.19528 0.17073
# Poissons Ratio (y) = 0.19229 0.04223
# Poissons Ratio (z) = 0.24981 0.06276
#
# Static dielectric constant tensor:
#      x y z
#    x 1.780950 -0.019370 0.001410 
#    y -0.019370 1.813290 0.027230 
#    z 0.001410 0.027230 1.820390 
# 
# From -- ./inp_files/124309.got.cif
#   From: 2010.05.17/outbox.cif.g08.bks.cpg/sg2_63_cif.got.tgz:124309.got - 2010.06.03 11:33:40.
