data_PCOD9069081
_publ_section_title
;
Structure prediction by ZEFSAII (Michael W. Deem and Ramdas Pophale) SiO2 
 PCOD9069081
Probable space group: P -1
;
_chemical_formula_sum "Si O2"
_cell_formula_units_Z 13
_cell_length_a 12.257230
_cell_length_b 14.932969
_cell_length_c 15.934448
_cell_angle_alpha 162.306639
_cell_angle_beta 34.721924
_cell_angle_gamma 143.217146
_cell_volume 502.202947
_symmetry_space_group_name_H-M "P -1"
_symmetry_group_IT_number 2
_symmetry_cell_setting 'triclinic'
loop_
_space_group_symop_operation_xyz
x,y,z
-x,-y,-z
loop_
_atom_site_type_symbol
_atom_site_label
_atom_site_fract_x
_atom_site_fract_y
_atom_site_fract_z
Si Si1 0.213413 0.710654 0.779881
Si Si2 0.869792 0.513365 0.699837
Si Si3 0.596736 0.750569 0.954912
Si Si4 0.000000 0.000000 0.500000
Si Si5 0.724331 0.947556 0.796144
Si Si6 0.293515 0.118710 0.736694
Si Si7 0.338206 0.175008 0.569749
O O1 0.272742 0.395772 0.488258
O O2 0.068738 0.638450 0.728387
O O3 0.360274 0.975327 0.888951
O O4 0.154872 0.851006 0.030400
O O5 0.848792 0.160460 0.389832
O O6 0.787507 0.656320 0.796316
O O7 0.725266 0.605673 0.945879
O O8 0.452135 0.884029 0.230890
O O9 0.488703 0.465449 0.724064
O O10 0.830835 0.002581 0.688184
O O11 0.834302 0.852650 0.410757
O O12 0.500000 0.000000 0.000000
O O13 0.500000 0.000000 0.500000
O O14 0.259967 0.196897 0.732257
#
# Coordination Sequence:
#
# PCOD9069081 Si02
#       7
#     2   2   2   1   2   2   2
#     4  12  27  49  78 116 158 213 272 337 413 491
#     4  12  23  43  72 111 157 207 264 328 406 494
#     4  12  25  45  72 112 158 211 260 325 410 488
#     4  12  30  54  82 120 154 212 280 340 402 488
#     4  12  29  56  84 115 162 215 275 346 414 481
#     4  12  22  42  69 106 151 205 260 330 405 476
#     4  12  26  44  72 109 155 206 272 332 397 482
#
# _framework density 25.885949
#
# number of rings (size 3 to 8) (size 9 to 14) (size 15 to 20)
#    0.000    0.000    3.077    6.923    0.000    4.923 
#    0.000    4.615    0.000    0.000    0.000    0.000 
#    0.000    0.000    0.000    0.000    0.000    0.000 
#
# Total GULP energy -72570.422222 kJ/mol
# GULP energy per Si atom -5582.340171 kJ/mol
# Density = 2.582703 g / cm^3
# Si number density = 25.885949 Si / 1000 Ang^3
#
#
#
# Elastic Constant Matrix: (Units=GPa)
#
#
# Indices 1 2 3 4 5 6 
#
# 1 155.0500 90.1366 52.0202 4.9466 28.9957 16.4013
# 2 90.1366 138.0664 66.8869 -7.3520 -0.8448 10.5221
# 3 52.0202 66.8869 127.0775 19.6837 5.7844 -14.3711
# 4 4.9466 -7.3520 19.6837 49.5384 -5.3819 10.2442
# 5 28.9957 -0.8448 5.7844 -5.3819 39.0589 -7.4162
# 6 16.4013 10.5221 -14.3711 10.2442 -7.4162 42.9824
#
#
#
# Elastic Compliance Matrix: (Units=1/GPa)
#
#
# Indices 1 2 3 4 5 6 
#
# 1 0.015211 -0.009303 -0.000921 -0.002810 -0.012763 -0.005367
# 2 -0.009303 0.017868 -0.007746 0.008426 0.008862 -0.003893
# 3 -0.000921 -0.007746 0.014795 -0.008951 -0.001176 0.009124
# 4 -0.002810 0.008426 -0.008951 0.027881 0.005601 -0.009661
# 5 -0.012763 0.008862 -0.001176 0.005601 0.037632 0.007466
# 6 -0.005367 -0.003893 0.009124 -0.009661 0.007466 0.032908
#
#
# Mechanical properties :
#
#
# Convention : Reuss Voigt Hill
#
# Bulk Modulus (GPa) = 83.78433 93.14239 88.46336
# Shear Modulus (GPa) = 26.85111 40.39261 33.62186
#
# Velocity S-wave (km/s) = 3.22419 3.95448 3.60786
# Velocity P-wave (km/s) = 6.80423 7.54391 7.18359
#
# Compressibility (1/GPa) = 0.01193541
#
# Stress axis : x y z
#
# Youngs Moduli (GPa) = 65.74241 55.96462 67.59143
#
# Poissons Ratio (x) = 0.52065 0.06223
# Poissons Ratio (y) = 0.61161 0.52353
# Poissons Ratio (z) = 0.06053 0.43348
#
# Static dielectric constant tensor:
#      x y z
#    x 2.012790 0.018780 -0.015880 
#    y 0.018780 2.128550 -0.105960 
#    z -0.015880 -0.105960 2.003260 
# 
# From -- ./inp_files/522011.got.cif
#   From: 2010.05.17/outbox.cif.g08.bks.cpg/sg2_262_cif.got.tgz:522011.got - 2010.06.03 11:33:40.
