data_PCOD9069157
_publ_section_title
;
Structure prediction by ZEFSAII (Michael W. Deem and Ramdas Pophale) SiO2 
 PCOD9069157
Probable space group: P -1
;
_chemical_formula_sum "Si O2"
_cell_formula_units_Z 16
_cell_length_a 17.067552
_cell_length_b 8.428867
_cell_length_c 7.273080
_cell_angle_alpha 126.201067
_cell_angle_beta 109.448700
_cell_angle_gamma 49.378361
_cell_volume 638.582063
_symmetry_space_group_name_H-M "P -1"
_symmetry_group_IT_number 2
_symmetry_cell_setting 'triclinic'
loop_
_space_group_symop_operation_xyz
x,y,z
-x,-y,-z
loop_
_atom_site_type_symbol
_atom_site_label
_atom_site_fract_x
_atom_site_fract_y
_atom_site_fract_z
Si Si1 0.889767 0.724679 0.494459
Si Si2 0.086972 0.527925 0.034140
Si Si3 0.297236 0.264066 0.938266
Si Si4 0.691315 0.088678 0.823473
Si Si5 0.574385 0.237418 0.476763
Si Si6 0.595953 0.827106 0.697048
Si Si7 0.751885 0.416203 0.251775
Si Si8 0.991572 0.062358 0.252861
O O1 0.877720 0.602427 0.227573
O O2 0.795624 0.849455 0.648375
O O3 0.000000 0.500000 0.500000
O O4 0.920213 0.906264 0.602381
O O5 0.202837 0.385785 0.098050
O O6 0.000000 0.500000 0.000000
O O7 0.027453 0.813997 0.206224
O O8 0.385704 0.234713 0.114442
O O9 0.273056 0.437314 0.861671
O O10 0.333189 0.992523 0.726088
O O11 0.619327 0.024650 0.816361
O O12 0.624807 0.256277 0.711416
O O13 0.730216 0.215620 0.062089
O O14 0.500000 0.500000 0.500000
O O15 0.512061 0.125060 0.402125
O O16 0.675147 0.602476 0.472876
O O17 0.870230 0.282979 0.322642
O O18 0.000000 0.000000 0.000000
#
# Coordination Sequence:
#
# PCOD9069157 Si02
#       8
#     2   2   2   2   2   2   2   2
#     4  12  22  43  75 102 147 199 237 299 377 435
#     4  12  27  43  70 110 152 189 248 306 365 447
#     4  12  26  52  74 108 153 195 246 316 378 443
#     4  12  25  47  78 108 149 196 250 309 376 443
#     4  12  28  52  78 109 150 200 252 315 380 437
#     4  12  29  48  79 111 145 196 256 313 371 442
#     4  12  26  50  77 110 154 195 252 305 373 450
#     4  12  23  43  72 107 144 200 241 288 373 449
#
# _framework density 25.055512
#
# number of rings (size 3 to 8) (size 9 to 14) (size 15 to 20)
#    0.000    0.000    6.250    2.250    7.000    1.000 
#    2.250    0.000    0.000    0.000    0.000    0.000 
#    0.000    0.000    0.000    0.000    0.000    0.000 
#
# Total GULP energy -89462.313637 kJ/mol
# GULP energy per Si atom -5591.394602 kJ/mol
# Density = 2.499848 g / cm^3
# Si number density = 25.055512 Si / 1000 Ang^3
#
#
#
# Elastic Constant Matrix: (Units=GPa)
#
#
# Indices 1 2 3 4 5 6 
#
# 1 109.5937 31.3540 8.1270 13.6463 11.9455 -2.0670
# 2 31.3540 107.5284 -2.5363 16.9240 -5.9222 -9.8762
# 3 8.1270 -2.5363 85.7193 1.1318 5.6543 13.9134
# 4 13.6463 16.9240 1.1318 38.6565 -0.4884 11.7217
# 5 11.9455 -5.9222 5.6543 -0.4884 43.9058 8.1749
# 6 -2.0670 -9.8762 13.9134 11.7217 8.1749 38.1770
#
#
#
# Elastic Compliance Matrix: (Units=1/GPa)
#
#
# Indices 1 2 3 4 5 6 
#
# 1 0.010814 -0.002666 -0.001165 -0.003298 -0.003579 0.002100
# 2 -0.002666 0.011364 -0.000109 -0.005269 0.001442 0.004144
# 3 -0.001165 -0.000109 0.012605 0.001636 -0.000351 -0.005112
# 4 -0.003298 -0.005269 0.001636 0.033250 0.002754 -0.012937
# 5 -0.003579 0.001442 -0.000351 0.002754 0.025122 -0.005918
# 6 0.002100 0.004144 -0.005112 -0.012937 -0.005918 0.034482
#
#
# Mechanical properties :
#
#
# Convention : Reuss Voigt Hill
#
# Bulk Modulus (GPa) = 37.17221 41.85895 39.51558
# Shear Modulus (GPa) = 34.60568 41.87430 38.23999
#
# Velocity S-wave (km/s) = 3.72043 4.09254 3.91091
# Velocity P-wave (km/s) = 5.77266 6.25097 6.01657
#
# Compressibility (1/GPa) = 0.02690182
#
# Stress axis : x y z
#
# Youngs Moduli (GPa) = 92.47124 87.99655 79.33638
#
# Poissons Ratio (x) = 0.23459 0.09245
# Poissons Ratio (y) = 0.24652 0.00867
# Poissons Ratio (z) = 0.10776 0.00961
#
# Static dielectric constant tensor:
#      x y z
#    x 2.402430 -0.414770 -0.047390 
#    y -0.414770 2.495180 -0.071490 
#    z -0.047390 -0.071490 1.811140 
# 
# From -- ./inp_files/328107.got.cif
#   From: 2010.05.17/outbox.cif.g08.bks.cpg/sg2_165_cif.got.tgz:328107.got - 2010.06.03 11:33:40.
