data_PCOD9069296
_publ_section_title
;
Structure prediction by ZEFSAII (Michael W. Deem and Ramdas Pophale) SiO2 
 PCOD9069296
Probable space group: P -1
;
_chemical_formula_sum "Si O2"
_cell_formula_units_Z 14
_cell_length_a 12.981945
_cell_length_b 5.393046
_cell_length_c 23.461053
_cell_angle_alpha 72.548382
_cell_angle_beta 151.542225
_cell_angle_gamma 89.885755
_cell_volume 605.895707
_symmetry_space_group_name_H-M "P -1"
_symmetry_group_IT_number 2
_symmetry_cell_setting 'triclinic'
loop_
_space_group_symop_operation_xyz
x,y,z
-x,-y,-z
loop_
_atom_site_type_symbol
_atom_site_label
_atom_site_fract_x
_atom_site_fract_y
_atom_site_fract_z
Si Si1 0.791471 0.558055 0.848410
Si Si2 0.340523 0.115391 0.757984
Si Si3 0.416057 0.769051 0.343264
Si Si4 0.755550 0.731626 0.606318
Si Si5 0.853563 0.130452 0.544114
Si Si6 0.071030 0.221146 0.889658
Si Si7 0.335085 0.699870 0.681238
O O1 0.950737 0.377575 0.881794
O O2 0.625140 0.462842 0.809016
O O3 0.602288 0.934199 0.713743
O O4 0.000000 0.500000 0.000000
O O5 0.099841 0.150779 0.672998
O O6 0.254003 0.463656 0.673183
O O7 0.378797 0.885964 0.739127
O O8 0.612840 0.978735 0.934898
O O9 0.615959 0.625428 0.503645
O O10 0.112133 0.907263 0.202049
O O11 0.570458 0.463237 0.398234
O O12 0.971600 0.476721 0.773088
O O13 0.500000 0.000000 0.500000
O O14 0.870716 0.871708 0.611232
O O15 0.847746 0.083457 0.476267
#
# Coordination Sequence:
#
# PCOD9069296 Si02
#       7
#     2   2   2   2   2   2   2
#     4  12  23  40  73 108 142 182 238 305 360 424
#     4  12  30  46  73 110 151 194 235 304 372 432
#     4  12  23  44  73 103 141 188 249 297 360 427
#     4  12  24  46  72 104 137 190 251 299 358 428
#     4  12  27  45  73 106 144 192 244 297 361 442
#     4  12  26  44  71 106 145 187 242 303 363 428
#     4  12  24  48  73 106 149 192 243 292 367 437
#
# _framework density 23.106286000000001
#
# number of rings (size 3 to 8) (size 9 to 14) (size 15 to 20)
#    0.000    0.000    7.143    3.000    2.000    1.714 
#    0.000    0.714    0.000    0.000    0.000    0.000 
#    0.000    0.000    0.000    0.000    0.000    0.000 
#
# Total GULP energy -78202.882049 kJ/mol
# GULP energy per Si atom -5585.920146 kJ/mol
# Density = 2.305370 g / cm^3
# Si number density = 23.106286 Si / 1000 Ang^3
#
#
#
# Elastic Constant Matrix: (Units=GPa)
#
#
# Indices 1 2 3 4 5 6 
#
# 1 106.9426 44.3558 45.4891 14.3637 -10.9394 32.3593
# 2 44.3558 85.2039 11.8956 13.1516 3.3142 20.2757
# 3 45.4891 11.8956 127.7909 31.8087 11.2067 22.7924
# 4 14.3637 13.1516 31.8087 39.1233 11.1463 7.4399
# 5 -10.9394 3.3142 11.2067 11.1463 30.4204 12.2882
# 6 32.3593 20.2757 22.7924 7.4399 12.2882 50.5368
#
#
#
# Elastic Compliance Matrix: (Units=1/GPa)
#
#
# Indices 1 2 3 4 5 6 
#
# 1 0.019578 -0.007077 -0.004975 -0.003027 0.015064 -0.010670
# 2 -0.007077 0.016180 0.002517 -0.003642 -0.003179 -0.001786
# 3 -0.004975 0.002517 0.011702 -0.007397 -0.003161 -0.001244
# 4 -0.003027 -0.003642 -0.007397 0.036834 -0.013300 0.004546
# 5 0.015064 -0.003179 -0.003161 -0.013300 0.051773 -0.017575
# 6 -0.010670 -0.001786 -0.001244 0.004546 -0.017575 0.031502
#
#
# Mechanical properties :
#
#
# Convention : Reuss Voigt Hill
#
# Bulk Modulus (GPa) = 35.22335 58.15759 46.69047
# Shear Modulus (GPa) = 25.49673 38.56256 32.02965
#
# Velocity S-wave (km/s) = 3.32543 4.08967 3.72719
# Velocity P-wave (km/s) = 5.47922 6.89382 6.22682
#
# Compressibility (1/GPa) = 0.02839026
#
# Stress axis : x y z
#
# Youngs Moduli (GPa) = 51.07658 61.80379 85.45410
#
# Poissons Ratio (x) = 0.43740 0.42513
# Poissons Ratio (y) = 0.36148 -0.21508
# Poissons Ratio (z) = 0.25410 -0.15555
#
# Static dielectric constant tensor:
#      x y z
#    x 1.814490 0.132620 -0.027730 
#    y 0.132620 1.662270 0.104560 
#    z -0.027730 0.104560 1.908130 
# 
# From -- ./inp_files/609166.got.cif
#   From: 2010.05.17/outbox.cif.g08.bks.cpg/sg2_305_cif.got.tgz:609166.got - 2010.06.03 11:33:40.
