data_PCOD9069673
_publ_section_title
;
Structure prediction by ZEFSAII (Michael W. Deem and Ramdas Pophale) SiO2 
 PCOD9069673
Probable space group: P -1
;
_chemical_formula_sum "Si O2"
_cell_formula_units_Z 14
_cell_length_a 19.819544
_cell_length_b 9.727454
_cell_length_c 4.772432
_cell_angle_alpha 119.431119
_cell_angle_beta 69.249523
_cell_angle_gamma 135.768467
_cell_volume 558.988349
_symmetry_space_group_name_H-M "P -1"
_symmetry_group_IT_number 2
_symmetry_cell_setting 'triclinic'
loop_
_space_group_symop_operation_xyz
x,y,z
-x,-y,-z
loop_
_atom_site_type_symbol
_atom_site_label
_atom_site_fract_x
_atom_site_fract_y
_atom_site_fract_z
Si Si1 0.284087 0.259316 0.124444
Si Si2 0.205191 0.483460 0.383829
Si Si3 0.529830 0.388428 0.170945
Si Si4 0.276875 0.755744 0.049721
Si Si5 0.467208 0.107139 0.482586
Si Si6 0.003597 0.881835 0.622964
Si Si7 0.798837 0.020262 0.534377
O O1 0.379734 0.446030 0.999667
O O2 0.230609 0.048600 0.811310
O O3 0.221307 0.326312 0.279748
O O4 0.281833 0.189122 0.369871
O O5 0.229997 0.546983 0.088897
O O6 0.374178 0.944535 0.259893
O O7 0.094096 0.363440 0.479329
O O8 0.500000 0.500000 0.500000
O O9 0.455861 0.217135 0.864905
O O10 0.541129 0.277197 0.297832
O O11 0.208387 0.807854 0.212461
O O12 0.278379 0.695095 0.672031
O O13 0.500000 0.000000 0.500000
O O14 0.098577 0.913041 0.505055
O O15 0.000000 0.000000 0.500000
O O16 0.000000 0.000000 0.000000
#
# Coordination Sequence:
#
# PCOD9069673 Si02
#       7
#     2   2   2   2   2   2   2
#     4  12  25  46  75 107 142 198 252 297 364 436
#     4  12  25  46  74 109 147 193 246 299 357 456
#     4  12  27  48  76 110 145 190 254 316 363 430
#     4  12  28  46  71 109 152 193 242 302 381 427
#     4  12  27  51  73 104 153 199 243 308 375 440
#     4  12  23  46  77 112 146 187 248 300 366 433
#     4  12  25  47  74 109 151 193 237 310 369 435
#
# _framework density 25.045245000000001
#
# number of rings (size 3 to 8) (size 9 to 14) (size 15 to 20)
#    0.000    0.000    2.857    6.857    0.000    5.714 
#    0.000    0.000    0.000    0.000    0.000    0.000 
#    0.000    0.000    0.000    0.000    0.000    0.000 
#
# Total GULP energy -78427.439633 kJ/mol
# GULP energy per Si atom -5601.959974 kJ/mol
# Density = 2.498824 g / cm^3
# Si number density = 25.045245 Si / 1000 Ang^3
#
#
#
# Elastic Constant Matrix: (Units=GPa)
#
#
# Indices 1 2 3 4 5 6 
#
# 1 99.2640 24.0649 33.9977 -10.3408 3.7408 7.4837
# 2 24.0649 66.7093 24.9488 -9.9607 9.6431 17.4344
# 3 33.9977 24.9488 131.8316 -10.9687 12.9078 -1.3070
# 4 -10.3408 -9.9607 -10.9687 33.9993 -8.4167 -4.4129
# 5 3.7408 9.6431 12.9078 -8.4167 43.4520 -3.3719
# 6 7.4837 17.4344 -1.3070 -4.4129 -3.3719 50.1119
#
#
#
# Elastic Compliance Matrix: (Units=1/GPa)
#
#
# Indices 1 2 3 4 5 6 
#
# 1 0.011857 -0.003039 -0.002388 0.002052 0.000718 -0.000547
# 2 -0.003039 0.019519 -0.002448 0.002332 -0.003390 -0.006424
# 3 -0.002388 -0.002448 0.008934 0.001242 -0.001552 0.001446
# 4 0.002052 0.002332 0.001242 0.032750 0.005449 0.002165
# 5 0.000718 -0.003390 -0.001552 0.005449 0.025471 0.003225
# 6 -0.000547 -0.006424 0.001446 0.002165 0.003225 0.022717
#
#
# Mechanical properties :
#
#
# Convention : Reuss Voigt Hill
#
# Bulk Modulus (GPa) = 40.71470 51.53641 46.12555
# Shear Modulus (GPa) = 34.43897 39.83222 37.13559
#
# Velocity S-wave (km/s) = 3.71222 3.99232 3.85481
# Velocity P-wave (km/s) = 5.88777 6.47097 6.18625
#
# Compressibility (1/GPa) = 0.02456115
#
# Stress axis : x y z
#
# Youngs Moduli (GPa) = 84.34184 51.23173 111.93023
#
# Poissons Ratio (x) = 0.15568 0.26724
# Poissons Ratio (y) = 0.25629 0.27402
# Poissons Ratio (z) = 0.20137 0.12542
#
# Static dielectric constant tensor:
#      x y z
#    x 1.974960 0.078090 -0.048620 
#    y 0.078090 2.036200 0.069020 
#    z -0.048620 0.069020 1.720350 
# 
# From -- ./inp_files/28193.got.cif
#   From: 2010.05.17/outbox.cif.g08.bks.cpg/sg2_15_cif.got.tgz:28193.got - 2010.06.03 11:33:40.
