data_PCOD9069164
_publ_section_title
;
Structure prediction by ZEFSAII (Michael W. Deem and Ramdas Pophale) SiO2 
 PCOD9069164
Probable space group: P -1
;
_chemical_formula_sum "Si O2"
_cell_formula_units_Z 16
_cell_length_a 13.916586
_cell_length_b 9.189453
_cell_length_c 11.683592
_cell_angle_alpha 29.107608
_cell_angle_beta 98.401053
_cell_angle_gamma 101.161517
_cell_volume 712.260573
_symmetry_space_group_name_H-M "P -1"
_symmetry_group_IT_number 2
_symmetry_cell_setting 'triclinic'
loop_
_space_group_symop_operation_xyz
x,y,z
-x,-y,-z
loop_
_atom_site_type_symbol
_atom_site_label
_atom_site_fract_x
_atom_site_fract_y
_atom_site_fract_z
Si Si1 0.948772 0.671787 0.968862
Si Si2 0.620148 0.074863 0.214495
Si Si3 0.913224 0.242677 0.639510
Si Si4 0.741583 0.605540 0.302491
Si Si5 0.390222 0.878238 0.286137
Si Si6 0.685620 0.425210 0.745727
Si Si7 0.281327 0.414160 0.957305
Si Si8 0.874818 0.203085 0.914883
O O1 0.946686 0.024256 0.700648
O O2 0.832267 0.573000 0.033957
O O3 0.000000 0.500000 0.000000
O O4 0.024005 0.691908 0.075614
O O5 0.653329 0.307790 0.162711
O O6 0.503754 0.995717 0.234170
O O7 0.654918 0.751582 0.481039
O O8 0.657083 0.273345 0.969549
O O9 0.817252 0.373272 0.500150
O O10 0.893035 0.098834 0.860500
O O11 0.000000 0.500000 0.500000
O O12 0.639970 0.464366 0.438583
O O13 0.722017 0.586056 0.179227
O O14 0.802809 0.913411 0.149554
O O15 0.356304 0.827793 0.182583
O O16 0.332394 0.108597 0.191133
O O17 0.803837 0.458259 0.729728
#
# Coordination Sequence:
#
# PCOD9069164 Si02
#       8
#     2   2   2   2   2   2   2   2
#     4  12  25  44  69 108 149 189 242 313 387 444
#     4  12  31  48  76 114 159 194 253 321 387 433
#     4  12  23  42  74 101 140 199 252 300 362 452
#     4  12  22  43  80 101 145 188 272 298 367 438
#     4  12  26  48  80 107 144 207 256 311 368 457
#     4  12  26  51  77 114 153 199 250 317 384 448
#     4  12  27  49  72 109 149 201 252 308 372 461
#     4  12  24  45  75 106 146 197 250 305 369 460
#
# _framework density 22.463691000000001
#
# number of rings (size 3 to 8) (size 9 to 14) (size 15 to 20)
#    0.000    0.000    6.250    3.750    3.500    2.500 
#    0.000    1.875    0.000    0.000    0.000    0.000 
#    0.000    0.000    0.000    0.000    0.000    0.000 
#
# Total GULP energy -89226.968434 kJ/mol
# GULP energy per Si atom -5576.685527 kJ/mol
# Density = 2.241256 g / cm^3
# Si number density = 22.463691 Si / 1000 Ang^3
#
#
#
# Elastic Constant Matrix: (Units=GPa)
#
#
# Indices 1 2 3 4 5 6 
#
# 1 58.5850 -3.3631 25.9740 3.0178 3.5048 10.8176
# 2 -3.3631 72.5143 29.0807 -12.5539 3.1978 2.6387
# 3 25.9740 29.0807 86.0389 -12.0323 0.6676 -7.3433
# 4 3.0178 -12.5539 -12.0323 32.4851 -2.4230 0.0344
# 5 3.5048 3.1978 0.6676 -2.4230 33.6179 -0.3935
# 6 10.8176 2.6387 -7.3433 0.0344 -0.3935 42.3400
#
#
#
# Elastic Compliance Matrix: (Units=1/GPa)
#
#
# Indices 1 2 3 4 5 6 
#
# 1 0.023716 0.004826 -0.010060 -0.004290 -0.003136 -0.008131
# 2 0.004826 0.017757 -0.007250 0.003596 -0.001831 -0.003617
# 3 -0.010060 -0.007250 0.018333 0.005052 0.001811 0.006215
# 4 -0.004290 0.003596 0.005052 0.034629 0.002521 0.001743
# 5 -0.003136 -0.001831 0.001811 0.002521 0.030411 0.001510
# 6 -0.008131 -0.003617 0.006215 0.001743 0.001510 0.027012
#
#
# Mechanical properties :
#
#
# Convention : Reuss Voigt Hill
#
# Bulk Modulus (GPa) = 28.70510 35.61349 32.15929
# Shear Modulus (GPa) = 26.53385 32.71838 29.62611
#
# Velocity S-wave (km/s) = 3.44057 3.82055 3.63553
# Velocity P-wave (km/s) = 5.34692 5.94562 5.65420
#
# Compressibility (1/GPa) = 0.03483701
#
# Stress axis : x y z
#
# Youngs Moduli (GPa) = 42.16475 56.31690 54.54614
#
# Poissons Ratio (x) = -0.27178 0.54875
# Poissons Ratio (y) = -0.20349 0.39547
# Poissons Ratio (z) = 0.42419 0.40831
#
# Static dielectric constant tensor:
#      x y z
#    x 1.854200 -0.028630 -0.048700 
#    y -0.028630 1.821400 0.033040 
#    z -0.048700 0.033040 1.974800 
# 
# From -- ./inp_files/90141.got.cif
#   From: 2010.05.17/outbox.cif.g08.bks.cpg/sg2_46_cif.got.tgz:90141.got - 2010.06.03 11:33:40.
