data_PCOD9069277
_publ_section_title
;
Structure prediction by ZEFSAII (Michael W. Deem and Ramdas Pophale) SiO2 
 PCOD9069277
Probable space group: P -1
;
_chemical_formula_sum "Si O2"
_cell_formula_units_Z 14
_cell_length_a 8.611212
_cell_length_b 17.515207
_cell_length_c 6.148250
_cell_angle_alpha 64.570859
_cell_angle_beta 61.531419
_cell_angle_gamma 103.584599
_cell_volume 613.071130
_symmetry_space_group_name_H-M "P -1"
_symmetry_group_IT_number 2
_symmetry_cell_setting 'triclinic'
loop_
_space_group_symop_operation_xyz
x,y,z
-x,-y,-z
loop_
_atom_site_type_symbol
_atom_site_label
_atom_site_fract_x
_atom_site_fract_y
_atom_site_fract_z
Si Si1 0.002293 0.706493 0.822586
Si Si2 0.189828 0.204715 0.958554
Si Si3 0.622489 0.321823 0.277343
Si Si4 0.836552 0.014393 0.217827
Si Si5 0.472031 0.202145 0.119809
Si Si6 0.398645 0.490243 0.832023
Si Si7 0.321836 0.895321 0.130353
O O1 0.181176 0.684726 0.776589
O O2 0.121724 0.818536 0.503176
O O3 0.888232 0.719063 0.093164
O O4 0.818345 0.620273 0.901650
O O5 0.380932 0.236430 0.623353
O O6 0.302360 0.214832 0.097697
O O7 0.987625 0.091086 0.208487
O O8 0.610274 0.300521 0.054187
O O9 0.651405 0.423384 0.223921
O O10 0.644656 0.903311 0.542556
O O11 0.752538 0.070994 0.067761
O O12 0.000000 0.000000 0.000000
O O13 0.595098 0.175606 0.901325
O O14 0.500000 0.500000 0.500000
O O15 0.500000 0.500000 0.000000
O O16 0.500000 0.000000 0.000000
#
# Coordination Sequence:
#
# PCOD9069277 Si02
#       7
#     2   2   2   2   2   2   2
#     4  12  26  49  77 109 150 203 249 320 394 457
#     4  12  24  45  71 103 151 192 254 308 384 457
#     4  12  26  49  74 110 148 193 256 318 384 467
#     4  12  23  39  67 102 148 198 249 308 383 451
#     4  12  24  45  71 104 152 200 252 323 377 465
#     4  12  29  53  85 116 156 205 264 328 393 467
#     4  12  25  44  72 111 152 198 257 312 384 472
#
# _framework density 22.835851000000002
#
# number of rings (size 3 to 8) (size 9 to 14) (size 15 to 20)
#    0.000    0.000    4.286    6.429    2.000    1.143 
#    0.000    2.143    0.000    0.000    0.000    0.000 
#    0.000    0.000    0.000    0.000    0.000    0.000 
#
# Total GULP energy -78091.152104 kJ/mol
# GULP energy per Si atom -5577.939436 kJ/mol
# Density = 2.278388 g / cm^3
# Si number density = 22.835851 Si / 1000 Ang^3
#
#
#
# Elastic Constant Matrix: (Units=GPa)
#
#
# Indices 1 2 3 4 5 6 
#
# 1 119.6121 49.4401 38.1180 20.8937 -10.8432 -7.5780
# 2 49.4401 185.3635 37.6793 13.0167 -19.7376 3.2337
# 3 38.1180 37.6793 57.3845 4.5722 -10.5855 4.9920
# 4 20.8937 13.0167 4.5722 34.4997 -4.4633 -15.3601
# 5 -10.8432 -19.7376 -10.5855 -4.4633 28.4673 4.4785
# 6 -7.5780 3.2337 4.9920 -15.3601 4.4785 52.9070
#
#
#
# Elastic Compliance Matrix: (Units=1/GPa)
#
#
# Indices 1 2 3 4 5 6 
#
# 1 0.012137 -0.001493 -0.006699 -0.005506 0.000099 0.000855
# 2 -0.001493 0.006782 -0.002696 -0.001357 0.003080 -0.001029
# 3 -0.006699 -0.002696 0.024869 0.001016 0.005507 -0.003313
# 4 -0.005506 -0.001357 0.001016 0.037314 0.001634 0.009893
# 5 0.000099 0.003080 0.005507 0.001634 0.040175 -0.003620
# 6 0.000855 -0.001029 -0.003313 0.009893 -0.003620 0.022578
#
#
# Mechanical properties :
#
#
# Convention : Reuss Voigt Hill
#
# Bulk Modulus (GPa) = 45.42791 68.09275 56.76033
# Shear Modulus (GPa) = 28.90685 38.98297 33.94491
#
# Velocity S-wave (km/s) = 3.56174 4.13618 3.85967
# Velocity P-wave (km/s) = 6.07051 7.25905 6.69122
#
# Compressibility (1/GPa) = 0.02201290
#
# Stress axis : x y z
#
# Youngs Moduli (GPa) = 82.38990 147.44368 40.20994
#
# Poissons Ratio (x) = 0.22017 0.26938
# Poissons Ratio (y) = 0.12303 0.10839
# Poissons Ratio (z) = 0.55196 0.39744
#
# Static dielectric constant tensor:
#      x y z
#    x 1.853700 -0.094580 -0.108200 
#    y -0.094580 2.027720 0.152430 
#    z -0.108200 0.152430 1.947450 
# 
# From -- ./inp_files/46999.got.cif
#   From: 2010.05.17/outbox.cif.g08.bks.cpg/sg2_24_cif.got.tgz:46999.got - 2010.06.03 11:33:40.
