data_PCOD9069419
_publ_section_title
;
Structure prediction by ZEFSAII (Michael W. Deem and Ramdas Pophale) SiO2 
 PCOD9069419
Probable space group: P -1
;
_chemical_formula_sum "Si O2"
_cell_formula_units_Z 13
_cell_length_a 19.473157
_cell_length_b 10.907091
_cell_length_c 22.374156
_cell_angle_alpha 150.460348
_cell_angle_beta 11.975580
_cell_angle_gamma 147.373708
_cell_volume 484.315485
_symmetry_space_group_name_H-M "P -1"
_symmetry_group_IT_number 2
_symmetry_cell_setting 'triclinic'
loop_
_space_group_symop_operation_xyz
x,y,z
-x,-y,-z
loop_
_atom_site_type_symbol
_atom_site_label
_atom_site_fract_x
_atom_site_fract_y
_atom_site_fract_z
Si Si1 0.606064 0.053279 0.658966
Si Si2 0.773501 0.137057 0.200732
Si Si3 0.000000 0.500000 0.500000
Si Si4 0.321662 0.902126 0.959334
Si Si5 0.260393 0.759662 0.184878
Si Si6 0.240387 0.546435 0.447588
Si Si7 0.365846 0.381972 0.752203
O O1 0.736929 0.316766 0.676506
O O2 0.334473 0.047965 0.836541
O O3 0.931965 0.893302 0.289345
O O4 0.479694 0.915309 0.766070
O O5 0.462850 0.257888 0.553880
O O6 0.993089 0.339495 0.069658
O O7 0.000000 0.000000 0.000000
O O8 0.096912 0.623517 0.537560
O O9 0.451142 0.666834 0.789159
O O10 0.415158 0.162005 0.021322
O O11 0.049916 0.579319 0.324772
O O12 0.432659 0.641460 0.928986
O O13 0.000000 0.000000 0.500000
O O14 0.399613 0.718317 0.434467
#
# Coordination Sequence:
#
# PCOD9069419 Si02
#       7
#     2   2   1   2   2   2   2
#     4  12  28  47  75 105 152 188 247 309 362 432
#     4  12  28  53  75 107 146 200 246 298 356 447
#     4  12  26  48  70 108 144 196 240 298 372 428
#     4  12  25  46  73 115 146 186 241 312 368 432
#     4  12  23  43  70 106 152 186 234 303 363 426
#     4  12  26  42  73 108 145 192 240 299 358 437
#     4  12  27  47  80 108 147 195 247 296 372 433
#
# _framework density 26.842009999999998
#
# number of rings (size 3 to 8) (size 9 to 14) (size 15 to 20)
#    0.000    0.000    4.615    4.615    2.154    7.385 
#    0.000    0.000    0.000    0.000    0.000    0.000 
#    0.000    0.000    0.000    0.000    0.000    0.000 
#
# Total GULP energy -72690.130063 kJ/mol
# GULP energy per Si atom -5591.548466 kJ/mol
# Density = 2.678092 g / cm^3
# Si number density = 26.842010 Si / 1000 Ang^3
#
#
#
# Elastic Constant Matrix: (Units=GPa)
#
#
# Indices 1 2 3 4 5 6 
#
# 1 175.3652 55.1185 60.6118 -27.9536 18.1104 10.3702
# 2 55.1185 103.1469 32.5613 -31.8123 20.5086 -9.9467
# 3 60.6118 32.5613 153.9984 -29.0347 30.2332 -13.7603
# 4 -27.9536 -31.8123 -29.0347 33.1130 -3.7197 -1.7074
# 5 18.1104 20.5086 30.2332 -3.7197 52.8369 -14.4459
# 6 10.3702 -9.9467 -13.7603 -1.7074 -14.4459 44.0452
#
#
#
# Elastic Compliance Matrix: (Units=1/GPa)
#
#
# Indices 1 2 3 4 5 6 
#
# 1 0.008097 -0.003347 -0.002373 0.001231 -0.001043 -0.003698
# 2 -0.003347 0.016610 0.001704 0.014387 -0.004090 0.004288
# 3 -0.002373 0.001704 0.009566 0.007726 -0.003978 0.002927
# 4 0.001231 0.014387 0.007726 0.051537 -0.005255 0.005647
# 5 -0.001043 -0.004090 -0.003978 -0.005255 0.024383 0.005872
# 6 -0.003698 0.004288 0.002927 0.005647 0.005872 0.027602
#
#
# Mechanical properties :
#
#
# Convention : Reuss Voigt Hill
#
# Bulk Modulus (GPa) = 38.10804 81.01041 59.55922
# Shear Modulus (GPa) = 32.34701 44.94697 38.64699
#
# Velocity S-wave (km/s) = 3.47521 4.09651 3.79858
# Velocity P-wave (km/s) = 5.50733 7.25404 6.44018
#
# Compressibility (1/GPa) = 0.02624118
#
# Stress axis : x y z
#
# Youngs Moduli (GPa) = 123.49894 60.20631 104.53338
#
# Poissons Ratio (x) = 0.20153 0.24803
# Poissons Ratio (y) = 0.41340 -0.17814
# Poissons Ratio (z) = 0.29303 -0.10260
#
# Static dielectric constant tensor:
#      x y z
#    x 1.977730 0.064580 0.029690 
#    y 0.064580 1.999060 -0.017200 
#    z 0.029690 -0.017200 2.002360 
# 
# From -- ./inp_files/474809.got.cif
#   From: 2010.05.17/outbox.cif.g08.bks.cpg/sg2_238_cif.got.tgz:474809.got - 2010.06.03 11:33:40.
