data_PCOD9069541
_publ_section_title
;
Structure prediction by ZEFSAII (Michael W. Deem and Ramdas Pophale) SiO2 
 PCOD9069541
Probable space group: P -1
;
_chemical_formula_sum "Si O2"
_cell_formula_units_Z 14
_cell_length_a 9.467616
_cell_length_b 21.346923
_cell_length_c 9.106774
_cell_angle_alpha 38.262185
_cell_angle_beta 149.649613
_cell_angle_gamma 129.540344
_cell_volume 570.952162
_symmetry_space_group_name_H-M "P -1"
_symmetry_group_IT_number 2
_symmetry_cell_setting 'triclinic'
loop_
_space_group_symop_operation_xyz
x,y,z
-x,-y,-z
loop_
_atom_site_type_symbol
_atom_site_label
_atom_site_fract_x
_atom_site_fract_y
_atom_site_fract_z
Si Si1 0.632484 0.219982 0.722643
Si Si2 0.795558 0.432902 0.361148
Si Si3 0.492041 0.828598 0.607500
Si Si4 0.042500 0.225399 0.330187
Si Si5 0.865034 0.394336 0.070014
Si Si6 0.740372 0.630504 0.315797
Si Si7 0.085643 0.112888 0.877297
O O1 0.758517 0.319837 0.590024
O O2 0.582957 0.146362 0.675149
O O3 0.327480 0.251096 0.463461
O O4 0.850928 0.178489 0.122219
O O5 0.000000 0.500000 0.500000
O O6 0.959506 0.425951 0.366168
O O7 0.500000 0.500000 0.000000
O O8 0.199745 0.822089 0.438325
O O9 0.650917 0.713257 0.959253
O O10 0.677339 0.884406 0.786920
O O11 0.127983 0.146547 0.685343
O O12 0.858182 0.330870 0.028969
O O13 0.135682 0.321617 0.518309
O O14 0.546182 0.410754 0.817888
O O15 0.000000 0.500000 0.000000
O O16 0.000000 0.000000 0.000000
#
# Coordination Sequence:
#
# PCOD9069541 Si02
#       7
#     2   2   2   2   2   2   2
#     4  12  27  45  72 103 148 203 235 308 382 419
#     4  12  26  42  65 101 146 198 262 307 344 437
#     4  12  23  50  74 105 144 192 244 292 369 462
#     4  12  25  48  71 108 151 187 250 311 369 443
#     4  12  26  41  69 102 148 196 248 311 365 424
#     4  12  23  45  68  97 140 199 253 295 361 428
#     4  12  26  49  82 111 140 187 244 307 378 461
#
# _framework density 24.520444000000001
#
# number of rings (size 3 to 8) (size 9 to 14) (size 15 to 20)
#    0.000    0.000    2.857    8.571    6.000    0.000 
#    0.000    4.286    0.000    0.000    0.000    0.000 
#    0.000    0.000    0.000    0.000    0.000    0.000 
#
# Total GULP energy -78054.731249 kJ/mol
# GULP energy per Si atom -5575.337946 kJ/mol
# Density = 2.446463 g / cm^3
# Si number density = 24.520444 Si / 1000 Ang^3
#
#
#
# Elastic Constant Matrix: (Units=GPa)
#
#
# Indices 1 2 3 4 5 6 
#
# 1 149.0087 60.6498 51.2171 26.4439 9.4429 31.1632
# 2 60.6498 138.7047 59.3302 47.1259 -15.3346 11.5316
# 3 51.2171 59.3302 100.8434 55.1176 -0.9319 3.8917
# 4 26.4439 47.1259 55.1176 55.3633 3.9525 -3.2686
# 5 9.4429 -15.3346 -0.9319 3.9525 57.6298 23.6957
# 6 31.1632 11.5316 3.8917 -3.2686 23.6957 31.3381
#
#
#
# Elastic Compliance Matrix: (Units=1/GPa)
#
#
# Indices 1 2 3 4 5 6 
#
# 1 0.011246 -0.001511 -0.003392 -0.001672 0.003023 -0.012666
# 2 -0.001511 0.014624 0.000027 -0.013280 0.010472 -0.013185
# 3 -0.003392 0.000027 0.025087 -0.024111 0.005158 -0.006167
# 4 -0.001672 -0.013280 -0.024111 0.057440 -0.020282 0.030870
# 5 0.003023 0.010472 0.005158 -0.020282 0.036382 -0.037125
# 6 -0.012666 -0.013185 -0.006167 0.030870 -0.037125 0.081414
#
#
# Mechanical properties :
#
#
# Convention : Reuss Voigt Hill
#
# Bulk Modulus (GPa) = 24.26855 81.21681 52.74268
# Shear Modulus (GPa) = 20.02548 43.35687 31.69117
#
# Velocity S-wave (km/s) = 2.86087 4.20955 3.59895
# Velocity P-wave (km/s) = 4.56416 7.53798 6.23108
#
# Compressibility (1/GPa) = 0.04120559
#
# Stress axis : x y z
#
# Youngs Moduli (GPa) = 88.91928 68.37846 39.86084
#
# Poissons Ratio (x) = 0.10334 0.13522
# Poissons Ratio (y) = 0.13438 -0.00109
# Poissons Ratio (z) = 0.30163 -0.00187
#
# Static dielectric constant tensor:
#      x y z
#    x 1.766380 0.159920 -0.048260 
#    y 0.159920 1.856380 -0.163740 
#    z -0.048260 -0.163740 2.160400 
# 
# From -- ./inp_files/226024.got.cif
#   From: 2010.05.17/outbox.cif.g08.bks.cpg/sg2_114_cif.got.tgz:226024.got - 2010.06.03 11:33:40.
