data_PCOD9069658
_publ_section_title
;
Structure prediction by ZEFSAII (Michael W. Deem and Ramdas Pophale) SiO2 
 PCOD9069658
Probable space group: P -1
;
_chemical_formula_sum "Si O2"
_cell_formula_units_Z 14
_cell_length_a 9.733519
_cell_length_b 11.557022
_cell_length_c 8.886641
_cell_angle_alpha 119.628355
_cell_angle_beta 45.393762
_cell_angle_gamma 108.547142
_cell_volume 617.970371
_symmetry_space_group_name_H-M "P -1"
_symmetry_group_IT_number 2
_symmetry_cell_setting 'triclinic'
loop_
_space_group_symop_operation_xyz
x,y,z
-x,-y,-z
loop_
_atom_site_type_symbol
_atom_site_label
_atom_site_fract_x
_atom_site_fract_y
_atom_site_fract_z
Si Si1 0.480951 0.718246 0.469939
Si Si2 0.330924 0.094367 0.763319
Si Si3 0.300782 0.283387 0.378477
Si Si4 0.548186 0.450766 0.098815
Si Si5 0.917424 0.184155 0.048559
Si Si6 0.293282 0.018649 0.089791
Si Si7 0.984711 0.507547 0.839350
O O1 0.601123 0.766594 0.266362
O O2 0.592336 0.733992 0.552939
O O3 0.468322 0.562594 0.350808
O O4 0.274791 0.798532 0.688800
O O5 0.107952 0.092490 0.880615
O O6 0.500000 0.000000 0.500000
O O7 0.327671 0.068739 0.925661
O O8 0.455143 0.319107 0.152496
O O9 0.199219 0.146441 0.330254
O O10 0.144812 0.405668 0.581951
O O11 0.500000 0.500000 0.000000
O O12 0.778041 0.452790 0.925585
O O13 0.827325 0.114391 0.924274
O O14 0.985057 0.335676 0.106935
O O15 0.500000 0.000000 0.000000
O O16 0.000000 0.500000 0.000000
#
# Coordination Sequence:
#
# PCOD9069658 Si02
#       7
#     2   2   2   2   2   2   2
#     4  12  23  46  76 104 145 196 242 301 372 432
#     4  12  25  47  73 104 146 196 248 296 368 449
#     4  12  25  47  74 109 152 191 244 312 358 434
#     4  12  26  45  74 110 146 189 249 310 361 433
#     4  12  25  47  77 103 147 197 242 296 375 433
#     4  12  27  48  73 110 149 193 245 308 368 433
#     4  12  25  46  78 108 143 199 250 291 377 441
#
# _framework density 22.654807000000002
#
# number of rings (size 3 to 8) (size 9 to 14) (size 15 to 20)
#    0.000    0.000    7.143    2.571    0.000    1.714 
#    2.571    3.571    0.000    0.000    0.000    0.000 
#    0.000    0.000    0.000    0.000    0.000    0.000 
#
# Total GULP energy -78096.979440 kJ/mol
# GULP energy per Si atom -5578.355674 kJ/mol
# Density = 2.260324 g / cm^3
# Si number density = 22.654807 Si / 1000 Ang^3
#
#
#
# Elastic Constant Matrix: (Units=GPa)
#
#
# Indices 1 2 3 4 5 6 
#
# 1 134.4748 -6.2143 44.3477 -1.7153 -32.3413 -4.6416
# 2 -6.2143 61.5401 24.7586 13.5394 -25.0677 12.0719
# 3 44.3477 24.7586 98.9386 18.5800 -28.7600 10.3665
# 4 -1.7153 13.5394 18.5800 47.4086 -0.1479 7.9993
# 5 -32.3413 -25.0677 -28.7600 -0.1479 46.4677 -6.2400
# 6 -4.6416 12.0719 10.3665 7.9993 -6.2400 32.1842
#
#
#
# Elastic Compliance Matrix: (Units=1/GPa)
#
#
# Indices 1 2 3 4 5 6 
#
# 1 0.011315 0.005950 -0.004268 -0.000008 0.008776 0.002478
# 2 0.005950 0.026566 -0.003285 -0.005425 0.015937 -0.003610
# 3 -0.004268 -0.003285 0.015253 -0.004800 0.004380 -0.002254
# 4 -0.000008 -0.005425 -0.004800 0.025163 -0.006348 -0.003905
# 5 0.008776 0.015937 0.004380 -0.006348 0.039331 0.003080
# 6 0.002478 -0.003610 -0.002254 -0.003905 0.003080 0.035076
#
#
# Mechanical properties :
#
#
# Convention : Reuss Voigt Hill
#
# Bulk Modulus (GPa) = 20.02870 46.74862 33.38866
# Shear Modulus (GPa) = 28.97688 40.68286 34.82987
#
# Velocity S-wave (km/s) = 3.58028 4.24225 3.92524
# Velocity P-wave (km/s) = 5.09423 6.68398 5.94251
#
# Compressibility (1/GPa) = 0.04992834
#
# Stress axis : x y z
#
# Youngs Moduli (GPa) = 88.37923 37.64256 65.56048
#
# Poissons Ratio (x) = -0.22398 0.27979
# Poissons Ratio (y) = -0.52587 0.21537
# Poissons Ratio (z) = 0.37717 0.12366
#
# Static dielectric constant tensor:
#      x y z
#    x 1.808890 -0.018350 -0.038060 
#    y -0.018350 1.793850 -0.033270 
#    z -0.038060 -0.033270 1.829330 
# 
# From -- ./inp_files/189587.got.cif
#   From: 2010.05.17/outbox.cif.g08.bks.cpg/sg2_95_cif.got.tgz:189587.got - 2010.06.03 11:33:40.
