data_PCOD9069566
_publ_section_title
;
Structure prediction by ZEFSAII (Michael W. Deem and Ramdas Pophale) SiO2 
 PCOD9069566
Probable space group: P -1
;
_chemical_formula_sum "Si O2"
_cell_formula_units_Z 15
_cell_length_a 8.488965
_cell_length_b 10.098546
_cell_length_c 12.408323
_cell_angle_alpha 122.964200
_cell_angle_beta 116.606968
_cell_angle_gamma 46.909527
_cell_volume 646.696332
_symmetry_space_group_name_H-M "P -1"
_symmetry_group_IT_number 2
_symmetry_cell_setting 'triclinic'
loop_
_space_group_symop_operation_xyz
x,y,z
-x,-y,-z
loop_
_atom_site_type_symbol
_atom_site_label
_atom_site_fract_x
_atom_site_fract_y
_atom_site_fract_z
Si Si1 0.244981 0.803470 0.198195
Si Si2 0.105801 0.009209 0.644724
Si Si3 0.000000 0.000000 0.000000
Si Si4 0.599373 0.028669 0.936126
Si Si5 0.385147 0.229819 0.567973
Si Si6 0.036330 0.384105 0.699883
Si Si7 0.410155 0.277152 0.344510
Si Si8 0.804414 0.530924 0.025416
O O1 0.468480 0.741724 0.294495
O O2 0.058384 0.937518 0.286746
O O3 0.249979 0.615201 0.093066
O O4 0.179601 0.918782 0.117393
O O5 0.123151 0.188037 0.706100
O O6 0.342286 0.811199 0.646082
O O7 0.000000 0.000000 0.500000
O O8 0.831594 0.983931 0.015745
O O9 0.415374 0.253772 0.952185
O O10 0.622369 0.878679 0.787358
O O11 0.500000 0.000000 0.000000
O O12 0.150484 0.332408 0.596358
O O13 0.383877 0.287961 0.470412
O O14 0.500000 0.000000 0.500000
O O15 0.105887 0.502566 0.840327
O O16 0.777250 0.514823 0.669386
O O17 0.000000 0.500000 0.000000
#
# Coordination Sequence:
#
# PCOD9069566 Si02
#       8
#     2   2   1   2   2   2   2   2
#     4  12  26  45  75 109 147 198 250 314 383 450
#     4  12  24  48  73 105 149 193 247 310 376 450
#     4  12  26  44  70 110 150 188 260 308 372 460
#     4  12  26  47  76 110 151 203 252 315 388 452
#     4  12  24  48  71 103 153 199 246 312 378 447
#     4  12  25  43  75 105 144 198 245 306 377 450
#     4  12  24  45  76 104 146 199 249 300 383 453
#     4  12  23  45  73 105 153 193 247 320 381 450
#
# _framework density 23.194813
#
# number of rings (size 3 to 8) (size 9 to 14) (size 15 to 20)
#    0.000    0.000    5.333    5.200    0.000    3.733 
#    0.000    2.667    0.000    0.000    0.000    0.000 
#    0.000    0.000    0.000    0.000    0.000    0.000 
#
# Total GULP energy -83802.682764 kJ/mol
# GULP energy per Si atom -5586.845518 kJ/mol
# Density = 2.314202 g / cm^3
# Si number density = 23.194813 Si / 1000 Ang^3
#
#
#
# Elastic Constant Matrix: (Units=GPa)
#
#
# Indices 1 2 3 4 5 6 
#
# 1 82.4970 16.2719 5.7880 4.6310 1.7274 -28.2339
# 2 16.2719 102.0943 28.3701 -6.1752 -2.9029 -33.2266
# 3 5.7880 28.3701 112.6103 -1.0042 6.2852 0.7285
# 4 4.6310 -6.1752 -1.0042 33.8531 -1.7838 -1.2429
# 5 1.7274 -2.9029 6.2852 -1.7838 51.2196 -2.7333
# 6 -28.2339 -33.2266 0.7285 -1.2429 -2.7333 41.9434
#
#
#
# Elastic Compliance Matrix: (Units=1/GPa)
#
#
# Indices 1 2 3 4 5 6 
#
# 1 0.016138 0.001703 -0.001369 -0.001472 0.000321 0.012213
# 2 0.001703 0.015347 -0.004135 0.003057 0.002152 0.013606
# 3 -0.001369 -0.004135 0.010111 -0.000521 -0.001687 -0.004498
# 4 -0.001472 0.003057 -0.000521 0.030450 0.001477 0.002438
# 5 0.000321 0.002152 -0.001687 0.001477 0.020070 0.003302
# 6 0.012213 0.013606 -0.004498 0.002438 0.003302 0.043207
#
#
# Mechanical properties :
#
#
# Convention : Reuss Voigt Hill
#
# Bulk Modulus (GPa) = 29.41646 44.22906 36.82276
# Shear Modulus (GPa) = 32.41416 41.85466 37.13441
#
# Velocity S-wave (km/s) = 3.74234 4.25253 4.00556
# Velocity P-wave (km/s) = 5.60208 6.57434 6.10759
#
# Compressibility (1/GPa) = 0.03399457
#
# Stress axis : x y z
#
# Youngs Moduli (GPa) = 61.96746 65.16083 98.90409
#
# Poissons Ratio (x) = -0.11097 0.13535
# Poissons Ratio (y) = -0.10554 0.40894
# Poissons Ratio (z) = 0.08480 0.26942
#
# Static dielectric constant tensor:
#      x y z
#    x 2.001400 0.084080 0.157270 
#    y 0.084080 1.884600 0.114010 
#    z 0.157270 0.114010 2.200580 
# 
# From -- ./inp_files/391140.got.cif
#   From: 2010.05.17/outbox.cif.g08.bks.cpg/sg2_196_cif.got.tgz:391140.got - 2010.06.03 11:33:40.
