data_PCOD9069148
_publ_section_title
;
Structure prediction by ZEFSAII (Michael W. Deem and Ramdas Pophale) SiO2 
 PCOD9069148
Probable space group: P -1
;
_chemical_formula_sum "Si O2"
_cell_formula_units_Z 14
_cell_length_a 8.012458
_cell_length_b 15.113498
_cell_length_c 16.923269
_cell_angle_alpha 153.930752
_cell_angle_beta 77.945892
_cell_angle_gamma 119.913186
_cell_volume 607.650747
_symmetry_space_group_name_H-M "P -1"
_symmetry_group_IT_number 2
_symmetry_cell_setting 'triclinic'
loop_
_space_group_symop_operation_xyz
x,y,z
-x,-y,-z
loop_
_atom_site_type_symbol
_atom_site_label
_atom_site_fract_x
_atom_site_fract_y
_atom_site_fract_z
Si Si1 0.442236 0.890502 0.238313
Si Si2 0.772194 0.774681 0.901971
Si Si3 0.767136 0.739148 0.259514
Si Si4 0.906481 0.266950 0.388263
Si Si5 0.652291 0.588853 0.476146
Si Si6 0.969847 0.189704 0.851198
Si Si7 0.659852 0.344679 0.696700
O O1 0.215150 0.850082 0.219157
O O2 0.663569 0.129688 0.347972
O O3 0.561957 0.048273 0.437280
O O4 0.338393 0.580000 0.982322
O O5 0.528780 0.593138 0.726418
O O6 0.751968 0.554060 0.778953
O O7 0.814944 0.985895 0.130069
O O8 0.000000 0.000000 0.000000
O O9 0.551183 0.699575 0.278005
O O10 0.862329 0.820155 0.224379
O O11 0.000000 0.000000 0.500000
O O12 0.000000 0.500000 0.500000
O O13 0.146347 0.415830 0.536443
O O14 0.500000 0.500000 0.500000
O O15 0.809413 0.922059 0.711544
O O16 0.124892 0.479384 0.119214
#
# Coordination Sequence:
#
# PCOD9069148 Si02
#       7
#     2   2   2   2   2   2   2
#     4  12  26  47  71 110 146 184 245 297 358 430
#     4  12  22  43  73  99 142 189 231 296 355 419
#     4  12  25  49  74 103 149 192 240 299 360 423
#     4  12  26  43  70 108 146 182 242 297 355 434
#     4  12  23  44  74 102 139 192 236 290 368 423
#     4  12  25  45  76 105 140 194 241 294 365 427
#     4  12  25  48  72 104 146 191 237 303 357 424
#
# _framework density 23.039549000000001
#
# number of rings (size 3 to 8) (size 9 to 14) (size 15 to 20)
#    0.000    0.000    7.143    2.571    0.000    2.286 
#    2.571    0.000    0.000    0.000    0.000    0.000 
#    0.000    0.000    0.000    0.000    0.000    0.000 
#
# Total GULP energy -78374.026921 kJ/mol
# GULP energy per Si atom -5598.144780 kJ/mol
# Density = 2.298711 g / cm^3
# Si number density = 23.039549 Si / 1000 Ang^3
#
#
#
# Elastic Constant Matrix: (Units=GPa)
#
#
# Indices 1 2 3 4 5 6 
#
# 1 40.4011 3.7892 23.0944 5.8661 12.8260 1.8579
# 2 3.7892 130.2997 34.8403 18.3055 -5.4461 14.5617
# 3 23.0944 34.8403 164.9476 -4.5888 9.1170 -6.4489
# 4 5.8661 18.3055 -4.5888 47.8398 -6.6225 -0.8248
# 5 12.8260 -5.4461 9.1170 -6.6225 53.6043 -3.9798
# 6 1.8579 14.5617 -6.4489 -0.8248 -3.9798 38.2895
#
#
#
# Elastic Compliance Matrix: (Units=1/GPa)
#
#
# Indices 1 2 3 4 5 6 
#
# 1 0.030501 0.001182 -0.004409 -0.005701 -0.007397 -0.003564
# 2 0.001182 0.009310 -0.002417 -0.003970 0.000282 -0.004061
# 3 -0.004409 -0.002417 0.007346 0.002214 0.000013 0.002419
# 4 -0.005701 -0.003970 0.002214 0.023908 0.003765 0.003066
# 5 -0.007397 0.000282 0.000013 0.003765 0.021104 0.002529
# 6 -0.003564 -0.004061 0.002419 0.003066 0.002529 0.028571
#
#
# Mechanical properties :
#
#
# Convention : Reuss Voigt Hill
#
# Bulk Modulus (GPa) = 27.87935 51.01068 39.44502
# Shear Modulus (GPa) = 34.72612 46.20835 40.46724
#
# Velocity S-wave (km/s) = 3.88653 4.48326 4.19552
# Velocity P-wave (km/s) = 5.68041 6.99915 6.37398
#
# Compressibility (1/GPa) = 0.03586884
#
# Stress axis : x y z
#
# Youngs Moduli (GPa) = 32.78555 107.41327 136.13278
#
# Poissons Ratio (x) = -0.12696 0.60024
# Poissons Ratio (y) = -0.03875 0.32900
# Poissons Ratio (z) = 0.14456 0.25959
#
# Static dielectric constant tensor:
#      x y z
#    x 1.864070 0.002880 0.018550 
#    y 0.002880 1.921620 0.024750 
#    z 0.018550 0.024750 1.848580 
# 
# From -- ./inp_files/296635.got.cif
#   From: 2010.05.17/outbox.cif.g08.bks.cpg/sg2_149_cif.got.tgz:296635.got - 2010.06.03 11:33:40.
