data_PCOD9069370
_publ_section_title
;
Structure prediction by ZEFSAII (Michael W. Deem and Ramdas Pophale) SiO2 
 PCOD9069370
Probable space group: P -1
;
_chemical_formula_sum "Si O2"
_cell_formula_units_Z 16
_cell_length_a 24.436273
_cell_length_b 24.556623
_cell_length_c 8.231829
_cell_angle_alpha 46.068376
_cell_angle_beta 133.600681
_cell_angle_gamma 168.619936
_cell_volume 700.374705
_symmetry_space_group_name_H-M "P -1"
_symmetry_group_IT_number 2
_symmetry_cell_setting 'triclinic'
loop_
_space_group_symop_operation_xyz
x,y,z
-x,-y,-z
loop_
_atom_site_type_symbol
_atom_site_label
_atom_site_fract_x
_atom_site_fract_y
_atom_site_fract_z
Si Si1 0.306426 0.955428 0.843584
Si Si2 0.901089 0.929680 0.767893
Si Si3 0.129354 0.541871 0.210834
Si Si4 0.440602 0.405187 0.746321
Si Si5 0.839279 0.032371 0.288279
Si Si6 0.077834 0.661422 0.297177
Si Si7 0.360060 0.555590 0.042823
Si Si8 0.432576 0.790274 0.642759
O O1 0.119033 0.756405 0.713914
O O2 0.233621 0.966581 0.748547
O O3 0.623053 0.243433 0.848829
O O4 0.212487 0.806370 0.099408
O O5 0.590308 0.602538 0.775032
O O6 0.111511 0.087776 0.752643
O O7 0.931456 0.047625 0.546191
O O8 0.000000 0.000000 0.000000
O O9 0.271611 0.673894 0.405269
O O10 0.000000 0.500000 0.000000
O O11 0.500000 0.500000 0.500000
O O12 0.581205 0.458876 0.921429
O O13 0.058810 0.264343 0.114637
O O14 0.564261 0.745349 0.221697
O O15 0.000000 0.500000 0.500000
O O16 0.780724 0.415149 0.216535
O O17 0.292725 0.902260 0.371553
O O18 0.451582 0.719557 0.796353
#
# Coordination Sequence:
#
# PCOD9069370 Si02
#       8
#     2   2   2   2   2   2   2   2
#     4  12  25  46  73 100 136 186 231 274 368 415
#     4  12  26  43  68 108 150 182 234 289 345 411
#     4  12  28  47  69 100 143 179 222 292 358 421
#     4  12  23  42  72 103 138 195 236 276 347 413
#     4  12  23  44  71 101 142 182 229 299 342 407
#     4  12  25  44  73 103 131 174 236 287 336 417
#     4  12  23  42  74 101 138 182 240 294 335 405
#     4  12  25  47  68 103 137 177 232 291 342 408
#
# _framework density 22.844915
#
# number of rings (size 3 to 8) (size 9 to 14) (size 15 to 20)
#    0.000    0.000    5.000    5.250    0.000    4.000 
#    0.000    0.000    0.000    0.000    0.000    0.000 
#    0.000    0.000    0.000    0.000    0.000    0.000 
#
# Total GULP energy -89556.210136 kJ/mol
# GULP energy per Si atom -5597.263133 kJ/mol
# Density = 2.279292 g / cm^3
# Si number density = 22.844915 Si / 1000 Ang^3
#
#
#
# Elastic Constant Matrix: (Units=GPa)
#
#
# Indices 1 2 3 4 5 6 
#
# 1 94.8822 24.9740 35.9659 -5.3016 28.9362 5.5007
# 2 24.9740 116.9968 7.9446 -0.1769 10.6892 0.7043
# 3 35.9659 7.9446 112.3016 1.1814 23.0930 -14.4147
# 4 -5.3016 -0.1769 1.1814 25.1855 -9.4435 -0.3286
# 5 28.9362 10.6892 23.0930 -9.4435 51.2670 1.6935
# 6 5.5007 0.7043 -14.4147 -0.3286 1.6935 48.3008
#
#
#
# Elastic Compliance Matrix: (Units=1/GPa)
#
#
# Indices 1 2 3 4 5 6 
#
# 1 0.014483 -0.002300 -0.003612 0.000994 -0.005803 -0.002483
# 2 -0.002300 0.009095 0.000316 -0.000766 -0.000890 0.000250
# 3 -0.003612 0.000316 0.011339 -0.002646 -0.003752 0.003904
# 4 0.000994 -0.000766 -0.002646 0.043321 0.008800 -0.000905
# 5 -0.005803 -0.000890 -0.003752 0.008800 0.026321 -0.001309
# 6 -0.002483 0.000250 0.003904 -0.000905 -0.001309 0.022188
#
#
# Mechanical properties :
#
#
# Convention : Reuss Voigt Hill
#
# Bulk Modulus (GPa) = 42.14513 51.32774 46.73644
# Shear Modulus (GPa) = 34.28263 41.97039 38.12651
#
# Velocity S-wave (km/s) = 3.87805 4.29089 4.08968
# Velocity P-wave (km/s) = 6.20812 6.86044 6.54242
#
# Compressibility (1/GPa) = 0.02372754
#
# Stress axis : x y z
#
# Youngs Moduli (GPa) = 69.04677 109.94676 88.18909
#
# Poissons Ratio (x) = 0.25284 0.31850
# Poissons Ratio (y) = 0.15878 -0.02788
# Poissons Ratio (z) = 0.24936 -0.03476
#
# Static dielectric constant tensor:
#      x y z
#    x 0.622660 -1.413230 0.605290 
#    y -1.413230 0.262130 0.635600 
#    z 0.605290 0.635600 1.611280 
# 
# From -- ./inp_files/357989.got.cif
#   From: 2010.05.17/outbox.cif.g08.bks.cpg/sg2_179_cif.got.tgz:357989.got - 2010.06.03 11:33:40.
