data_PCOD9069792
_publ_section_title
;
Structure prediction by ZEFSAII (Michael W. Deem and Ramdas Pophale) SiO2 
 PCOD9069792
Probable space group: P -1
;
_chemical_formula_sum "Si O2"
_cell_formula_units_Z 14
_cell_length_a 11.768605
_cell_length_b 9.223808
_cell_length_c 8.150712
_cell_angle_alpha 128.687702
_cell_angle_beta 76.146986
_cell_angle_gamma 69.896757
_cell_volume 508.979952
_symmetry_space_group_name_H-M "P -1"
_symmetry_group_IT_number 2
_symmetry_cell_setting 'triclinic'
loop_
_space_group_symop_operation_xyz
x,y,z
-x,-y,-z
loop_
_atom_site_type_symbol
_atom_site_label
_atom_site_fract_x
_atom_site_fract_y
_atom_site_fract_z
Si Si1 0.830119 0.220164 0.150634
Si Si2 0.576541 0.091294 0.635049
Si Si3 0.831277 0.225800 0.778040
Si Si4 0.500000 0.000000 0.000000
Si Si5 0.615131 0.151823 0.343016
Si Si6 0.888069 0.582561 0.941698
Si Si7 0.500000 0.500000 0.000000
Si Si8 0.811873 0.678322 0.503149
O O1 0.821904 0.448278 0.322636
O O2 0.693767 0.250032 0.308378
O O3 0.822061 0.176741 0.933786
O O4 0.000000 0.000000 0.000000
O O5 0.500000 0.000000 0.500000
O O6 0.530919 0.295782 0.649447
O O7 0.727798 0.856635 0.500786
O O8 0.484493 0.296222 0.952368
O O9 0.814114 0.461894 0.920283
O O10 0.688731 0.273710 0.778737
O O11 0.000000 0.000000 0.500000
O O12 0.311926 0.157734 0.196317
O O13 0.505658 0.143045 0.258631
O O14 0.759165 0.874944 0.163493
O O15 0.009944 0.439757 0.647420
O O16 0.000000 0.500000 0.000000
#
# Coordination Sequence:
#
# PCOD9069792 Si02
#       8
#     2   2   2   1   2   2   1   2
#     4  12  27  50  76 117 160 214 267 347 425 493
#     4  12  25  52  81 117 157 218 272 339 406 502
#     4  12  29  50  81 121 162 209 281 349 415 506
#     4  12  32  46  72 120 160 212 262 340 416 502
#     4  12  27  48  78 112 157 206 264 337 418 483
#     4  12  23  49  85 110 147 217 273 335 410 495
#     4  12  30  48  88 124 160 212 292 338 416 508
#     4  12  26  50  79 113 161 209 278 328 416 498
#
# _framework density 27.505994000000001
#
# number of rings (size 3 to 8) (size 9 to 14) (size 15 to 20)
#    0.000    0.000    5.714    2.571    6.000    3.429 
#    0.000    0.000    0.000    0.000    0.000    0.000 
#    0.000    0.000    0.000    0.000    0.000    0.000 
#
# Total GULP energy -77992.153286 kJ/mol
# GULP energy per Si atom -5570.868092 kJ/mol
# Density = 2.744339 g / cm^3
# Si number density = 27.505994 Si / 1000 Ang^3
#
#
#
# Elastic Constant Matrix: (Units=GPa)
#
#
# Indices 1 2 3 4 5 6 
#
# 1 109.7237 30.6370 -13.3855 1.0292 -17.0224 -2.4356
# 2 30.6370 114.0037 32.3447 23.2859 4.1921 13.5917
# 3 -13.3855 32.3447 93.7126 18.3301 -36.2136 -7.0684
# 4 1.0292 23.2859 18.3301 78.1672 2.9947 -0.1272
# 5 -17.0224 4.1921 -36.2136 2.9947 59.7807 4.1325
# 6 -2.4356 13.5917 -7.0684 -0.1272 4.1325 50.7267
#
#
#
# Elastic Compliance Matrix: (Units=1/GPa)
#
#
# Indices 1 2 3 4 5 6 
#
# 1 0.013232 -0.006299 0.007724 -0.000439 0.008725 0.002688
# 2 -0.006299 0.014157 -0.008755 -0.001795 -0.007676 -0.004695
# 3 0.007724 -0.008755 0.021931 -0.003240 0.015953 0.004465
# 4 -0.000439 -0.001795 -0.003240 0.014197 -0.002691 0.000263
# 5 0.008725 -0.007676 0.015953 -0.002691 0.029390 0.002297
# 6 0.002688 -0.004695 0.004465 0.000263 0.002297 0.021536
#
#
# Mechanical properties :
#
#
# Convention : Reuss Voigt Hill
#
# Bulk Modulus (GPa) = 28.85096 46.29246 37.57171
# Shear Modulus (GPa) = 35.54740 55.59117 45.56928
#
# Velocity S-wave (km/s) = 3.59883 4.50049 4.07468
# Velocity P-wave (km/s) = 5.27072 6.62363 5.98552
#
# Compressibility (1/GPa) = 0.03466089
#
# Stress axis : x y z
#
# Youngs Moduli (GPa) = 75.57236 70.63630 45.59704
#
# Poissons Ratio (x) = 0.44495 -0.35221
# Poissons Ratio (y) = 0.47604 0.39921
# Poissons Ratio (z) = -0.58375 0.61843
#
# Static dielectric constant tensor:
#      x y z
#    x 0.032070 -0.872460 -0.055510 
#    y -0.872460 1.747800 -0.041000 
#    z -0.055510 -0.041000 1.899100 
# 
# From -- ./inp_files/189011.got.cif
#   From: 2010.05.17/outbox.cif.g08.bks.cpg/sg2_95_cif.got.tgz:189011.got - 2010.06.03 11:33:40.
