data_PCOD9069065
_publ_section_title
;
Structure prediction by ZEFSAII (Michael W. Deem and Ramdas Pophale) SiO2 
 PCOD9069065
Probable space group: P -1
;
_chemical_formula_sum "Si O2"
_cell_formula_units_Z 10
_cell_length_a 11.156633
_cell_length_b 13.916970
_cell_length_c 14.168714
_cell_angle_alpha 31.849164
_cell_angle_beta 22.542402
_cell_angle_gamma 33.354137
_cell_volume 430.807577
_symmetry_space_group_name_H-M "P -1"
_symmetry_group_IT_number 2
_symmetry_cell_setting 'triclinic'
loop_
_space_group_symop_operation_xyz
x,y,z
-x,-y,-z
loop_
_atom_site_type_symbol
_atom_site_label
_atom_site_fract_x
_atom_site_fract_y
_atom_site_fract_z
Si Si1 0.856056 0.522524 0.192450
Si Si2 0.842037 0.160124 0.255388
Si Si3 0.159437 0.457884 0.522599
Si Si4 0.114350 0.238435 0.399028
Si Si5 0.782442 0.163550 0.084405
O O1 0.500000 0.500000 0.500000
O O2 0.087443 0.362664 0.221761
O O3 0.000000 0.500000 0.000000
O O4 0.880264 0.730387 0.031671
O O5 0.511376 0.317097 0.384694
O O6 0.785955 0.091586 0.248101
O O7 0.905123 0.973768 0.427741
O O8 0.000000 0.500000 0.500000
O O9 0.151318 0.644399 0.432214
O O10 0.930879 0.342755 0.834389
O O11 0.445444 0.225530 0.224805
O O12 0.000000 0.000000 0.000000
#
# Coordination Sequence:
#
# PCOD9069065 Si02
#       5
#     2   2   2   2   2
#     4  12  30  54  78 109 150 210 279 325 373 447
#     4  12  26  48  75 112 155 197 254 317 393 468
#     4  12  22  41  71 109 164 198 237 303 387 476
#     4  12  25  48  77 113 153 206 246 322 394 461
#     4  12  23  41  73 118 156 188 243 308 399 482
#
# _framework density 23.212218
#
# number of rings (size 3 to 8) (size 9 to 14) (size 15 to 20)
#    0.000    0.000    6.000    4.800    0.000    3.200 
#    0.000    0.000    0.000    0.000    0.000    0.000 
#    0.000    0.000    0.000    0.000    0.000    0.000 
#
# Total GULP energy -55963.918815 kJ/mol
# GULP energy per Si atom -5596.391881 kJ/mol
# Density = 2.315939 g / cm^3
# Si number density = 23.212218 Si / 1000 Ang^3
#
#
#
# Elastic Constant Matrix: (Units=GPa)
#
#
# Indices 1 2 3 4 5 6 
#
# 1 111.3107 29.5549 32.9391 -3.8848 28.4574 5.4695
# 2 29.5549 152.9320 37.5645 -2.6402 9.2746 12.2294
# 3 32.9391 37.5645 119.0537 -11.9729 -13.8377 2.9238
# 4 -3.8848 -2.6402 -11.9729 45.5513 7.0939 13.2225
# 5 28.4574 9.2746 -13.8377 7.0939 43.0712 -10.3473
# 6 5.4695 12.2294 2.9238 13.2225 -10.3473 20.3044
#
#
#
# Elastic Compliance Matrix: (Units=1/GPa)
#
#
# Indices 1 2 3 4 5 6 
#
# 1 0.016622 0.001126 -0.005834 0.008707 -0.019294 -0.019818
# 2 0.001126 0.008462 -0.003101 0.004078 -0.006908 -0.011129
# 3 -0.005834 -0.003101 0.011861 -0.001557 0.010540 0.008117
# 4 0.008707 0.004078 -0.001557 0.038151 -0.023340 -0.041316
# 5 -0.019294 -0.006908 0.010540 -0.023340 0.057223 0.052201
# 6 -0.019818 -0.011129 0.008117 -0.041316 0.052201 0.113631
#
#
# Mechanical properties :
#
#
# Convention : Reuss Voigt Hill
#
# Bulk Modulus (GPa) = 46.89006 64.82372 55.85689
# Shear Modulus (GPa) = 18.60963 40.66789 29.63876
#
# Velocity S-wave (km/s) = 2.83453 4.19024 3.57719
# Velocity P-wave (km/s) = 5.56392 7.16924 6.41698
#
# Compressibility (1/GPa) = 0.02132648
#
# Stress axis : x y z
#
# Youngs Moduli (GPa) = 60.16231 118.17184 84.30726
#
# Poissons Ratio (x) = -0.13306 0.49188
# Poissons Ratio (y) = -0.06774 0.26144
# Poissons Ratio (z) = 0.35101 0.36646
#
# Static dielectric constant tensor:
#      x y z
#    x 1.904040 0.018840 -0.008960 
#    y 0.018840 1.965570 0.008090 
#    z -0.008960 0.008090 1.948610 
# 
# From -- ./inp_files/39547.got.cif
#   From: 2010.05.17/outbox.cif.g08.bks.cpg/sg2_20_cif.got.tgz:39547.got - 2010.06.03 11:33:40.
