data_PCOD9069160
_publ_section_title
;
Structure prediction by ZEFSAII (Michael W. Deem and Ramdas Pophale) SiO2 
 PCOD9069160
Probable space group: P -1
;
_chemical_formula_sum "Si O2"
_cell_formula_units_Z 16
_cell_length_a 16.649432
_cell_length_b 20.347274
_cell_length_c 11.507847
_cell_angle_alpha 30.089601
_cell_angle_beta 146.243004
_cell_angle_gamma 159.778896
_cell_volume 671.288266
_symmetry_space_group_name_H-M "P -1"
_symmetry_group_IT_number 2
_symmetry_cell_setting 'triclinic'
loop_
_space_group_symop_operation_xyz
x,y,z
-x,-y,-z
loop_
_atom_site_type_symbol
_atom_site_label
_atom_site_fract_x
_atom_site_fract_y
_atom_site_fract_z
Si Si1 0.225700 0.294541 0.967392
Si Si2 0.888342 0.555918 0.239937
Si Si3 0.050231 0.121568 0.579859
Si Si4 0.797622 0.092807 0.120434
Si Si5 0.569861 0.901252 0.706570
Si Si6 0.994956 0.459245 0.922812
Si Si7 0.021601 0.255168 0.566150
Si Si8 0.470570 0.238319 0.885884
O O1 0.128508 0.360912 0.799329
O O2 0.173648 0.265479 0.812422
O O3 0.500000 0.500000 0.000000
O O4 0.105761 0.094024 0.204543
O O5 0.638603 0.337547 0.223479
O O6 0.000000 0.500000 0.500000
O O7 0.030915 0.734121 0.040082
O O8 0.070628 0.255780 0.490500
O O9 0.912336 0.065631 0.383662
O O10 0.307314 0.250685 0.657626
O O11 0.793433 0.217443 0.007440
O O12 0.580286 0.881823 0.108453
O O13 0.500000 0.000000 0.500000
O O14 0.759867 0.036848 0.626434
O O15 0.645303 0.902551 0.920736
O O16 0.955883 0.573777 0.642386
O O17 0.252742 0.576156 0.035839
O O18 0.000000 0.500000 0.000000
#
# Coordination Sequence:
#
# PCOD9069160 Si02
#       8
#     2   2   2   2   2   2   2   2
#     4  12  27  45  71 110 147 192 244 303 373 438
#     4  12  25  45  76 108 144 190 251 308 355 440
#     4  12  27  48  72 106 151 200 239 303 377 447
#     4  12  25  49  76 108 149 191 255 297 370 442
#     4  12  22  43  76 108 141 194 248 304 369 426
#     4  12  27  51  73 110 144 194 246 310 369 439
#     4  12  25  48  73 104 152 189 252 308 368 436
#     4  12  26  45  78 103 145 196 243 304 367 441
#
# _framework density 23.834768
#
# number of rings (size 3 to 8) (size 9 to 14) (size 15 to 20)
#    0.000    0.000    6.250    3.750    1.750    2.000 
#    2.250    0.000    0.000    0.000    0.000    0.000 
#    0.000    0.000    0.000    0.000    0.000    0.000 
#
# Total GULP energy -89476.895585 kJ/mol
# GULP energy per Si atom -5592.305974 kJ/mol
# Density = 2.378052 g / cm^3
# Si number density = 23.834768 Si / 1000 Ang^3
#
#
#
# Elastic Constant Matrix: (Units=GPa)
#
#
# Indices 1 2 3 4 5 6 
#
# 1 97.8772 8.2292 8.8667 0.9155 2.5006 -15.7838
# 2 8.2292 94.6342 23.6690 4.8861 8.7279 -10.1137
# 3 8.8667 23.6690 133.2447 -0.5527 -13.5691 -4.1365
# 4 0.9155 4.8861 -0.5527 23.6628 -6.0181 -4.5243
# 5 2.5006 8.7279 -13.5691 -6.0181 41.2486 6.6234
# 6 -15.7838 -10.1137 -4.1365 -4.5243 6.6234 42.5574
#
#
#
# Elastic Compliance Matrix: (Units=1/GPa)
#
#
# Indices 1 2 3 4 5 6 
#
# 1 0.011017 -0.000184 -0.000727 0.000008 -0.001543 0.004213
# 2 -0.000184 0.012068 -0.002490 -0.003077 -0.004275 0.002896
# 3 -0.000727 -0.002490 0.008357 0.001573 0.003621 -0.000445
# 4 0.000008 -0.003077 0.001573 0.045382 0.007289 0.003115
# 5 -0.001543 -0.004275 0.003621 0.007289 0.028277 -0.004862
# 6 0.004213 0.002896 -0.000445 0.003115 -0.004862 0.026793
#
#
# Mechanical properties :
#
#
# Convention : Reuss Voigt Hill
#
# Bulk Modulus (GPa) = 40.58260 45.25400 42.91830
# Shear Modulus (GPa) = 34.03478 40.49318 37.26398
#
# Velocity S-wave (km/s) = 3.78292 4.12626 3.95831
# Velocity P-wave (km/s) = 6.01201 6.45981 6.23993
#
# Compressibility (1/GPa) = 0.02464110
#
# Stress axis : x y z
#
# Youngs Moduli (GPa) = 90.76974 82.86114 119.65906
#
# Poissons Ratio (x) = 0.01525 0.08696
# Poissons Ratio (y) = 0.01671 0.29792
# Poissons Ratio (z) = 0.06597 0.20630
#
# Static dielectric constant tensor:
#      x y z
#    x 1.929170 -0.021360 0.019550 
#    y -0.021360 1.956200 0.032140 
#    z 0.019550 0.032140 1.979490 
# 
# From -- ./inp_files/467073.got.cif
#   From: 2010.05.17/outbox.cif.g08.bks.cpg/sg2_234_cif.got.tgz:467073.got - 2010.06.03 11:33:40.
