data_PCOD9069999
_publ_section_title
;
Structure prediction by ZEFSAII (Michael W. Deem and Ramdas Pophale) SiO2 
 PCOD9069999
Probable space group: P -1
;
_chemical_formula_sum "Si O2"
_cell_formula_units_Z 14
_cell_length_a 10.013537
_cell_length_b 7.610819
_cell_length_c 12.268738
_cell_angle_alpha 90.909237
_cell_angle_beta 47.640483
_cell_angle_gamma 114.266334
_cell_volume 580.653506
_symmetry_space_group_name_H-M "P -1"
_symmetry_group_IT_number 2
_symmetry_cell_setting 'triclinic'
loop_
_space_group_symop_operation_xyz
x,y,z
-x,-y,-z
loop_
_atom_site_type_symbol
_atom_site_label
_atom_site_fract_x
_atom_site_fract_y
_atom_site_fract_z
Si Si1 0.218691 0.664239 0.817257
Si Si2 0.106663 0.168697 0.543414
Si Si3 0.284514 0.439142 0.059205
Si Si4 0.534200 0.122032 0.702107
Si Si5 0.712883 0.199977 0.836241
Si Si6 0.566824 0.559631 0.263463
Si Si7 0.842163 0.124028 0.358969
O O1 0.610450 0.129459 0.204341
O O2 0.323453 0.533153 0.724354
O O3 0.196193 0.787678 0.729752
O O4 0.000000 0.500000 0.000000
O O5 0.311647 0.387917 0.391735
O O6 0.915541 0.183072 0.700192
O O7 0.000000 0.000000 0.500000
O O8 0.216559 0.103030 0.574771
O O9 0.228109 0.611400 0.114346
O O10 0.097238 0.237979 0.220208
O O11 0.500000 0.500000 0.000000
O O12 0.316298 0.412299 0.916010
O O13 0.634372 0.230372 0.762847
O O14 0.405812 0.220350 0.725028
O O15 0.726501 0.176552 0.515598
O O16 0.500000 0.000000 0.000000
#
# Coordination Sequence:
#
# PCOD9069999 Si02
#       7
#     2   2   2   2   2   2   2
#     4  12  27  53  74 103 150 197 253 308 365 438
#     4  12  24  44  75 109 152 193 242 304 377 437
#     4  12  24  44  72 107 150 188 240 304 374 433
#     4  12  27  48  76 110 145 194 254 303 371 443
#     4  12  25  42  73 111 150 190 245 302 378 446
#     4  12  26  49  74 108 148 198 247 307 365 444
#     4  12  26  47  75 106 149 196 244 306 361 443
#
# _framework density 24.110766000000002
#
# number of rings (size 3 to 8) (size 9 to 14) (size 15 to 20)
#    0.000    0.000    5.714    4.714    0.000    2.286 
#    2.571    0.000    0.000    0.000    0.000    0.000 
#    0.000    0.000    0.000    0.000    0.000    0.000 
#
# Total GULP energy -78271.815887 kJ/mol
# GULP energy per Si atom -5590.843992 kJ/mol
# Density = 2.405589 g / cm^3
# Si number density = 24.110766 Si / 1000 Ang^3
#
#
#
# Elastic Constant Matrix: (Units=GPa)
#
#
# Indices 1 2 3 4 5 6 
#
# 1 86.3770 7.0018 28.7074 5.1962 6.3245 -35.8225
# 2 7.0018 97.3297 48.4028 0.7877 -5.5615 -32.4782
# 3 28.7074 48.4028 183.6009 -7.4263 -19.7393 -4.4916
# 4 5.1962 0.7877 -7.4263 41.7000 -12.6476 -9.6699
# 5 6.3245 -5.5615 -19.7393 -12.6476 44.5295 0.5150
# 6 -35.8225 -32.4782 -4.4916 -9.6699 0.5150 46.2599
#
#
#
# Elastic Compliance Matrix: (Units=1/GPa)
#
#
# Indices 1 2 3 4 5 6 
#
# 1 0.022866 0.008761 -0.005869 -0.000197 -0.005081 0.023303
# 2 0.008761 0.019260 -0.006018 0.001759 -0.001239 0.020104
# 3 -0.005869 -0.006018 0.008313 0.001892 0.004392 -0.007616
# 4 -0.000197 0.001759 0.001892 0.028754 0.009170 0.007174
# 5 -0.005081 -0.001239 0.004392 0.009170 0.027608 -0.002768
# 6 0.023303 0.020104 -0.007616 0.007174 -0.002768 0.054568
#
#
# Mechanical properties :
#
#
# Convention : Reuss Voigt Hill
#
# Bulk Modulus (GPa) = 22.63058 59.50350 41.06704
# Shear Modulus (GPa) = 27.41992 45.37760 36.39876
#
# Velocity S-wave (km/s) = 3.37597 4.34296 3.88963
# Velocity P-wave (km/s) = 4.96011 7.06267 6.10262
#
# Compressibility (1/GPa) = 0.04418801
#
# Stress axis : x y z
#
# Youngs Moduli (GPa) = 43.73343 51.92050 120.29121
#
# Poissons Ratio (x) = -0.45489 0.70600
# Poissons Ratio (y) = -0.38316 0.72388
# Poissons Ratio (z) = 0.25667 0.31244
#
# Static dielectric constant tensor:
#      x y z
#    x 2.038120 -0.004840 0.000680 
#    y -0.004840 2.039640 -0.112060 
#    z 0.000680 -0.112060 1.930370 
# 
# From -- ./inp_files/417024.got.cif
#   From: 2010.05.17/outbox.cif.g08.bks.cpg/sg2_209_cif.got.tgz:417024.got - 2010.06.03 11:33:40.
