data_PCOD9069681
_publ_section_title
;
Structure prediction by ZEFSAII (Michael W. Deem and Ramdas Pophale) SiO2 
 PCOD9069681
Probable space group: P -1
;
_chemical_formula_sum "Si O2"
_cell_formula_units_Z 14
_cell_length_a 7.821546
_cell_length_b 13.441169
_cell_length_c 14.146497
_cell_angle_alpha 30.615491
_cell_angle_beta 76.925449
_cell_angle_gamma 58.704792
_cell_volume 557.694892
_symmetry_space_group_name_H-M "P -1"
_symmetry_group_IT_number 2
_symmetry_cell_setting 'triclinic'
loop_
_space_group_symop_operation_xyz
x,y,z
-x,-y,-z
loop_
_atom_site_type_symbol
_atom_site_label
_atom_site_fract_x
_atom_site_fract_y
_atom_site_fract_z
Si Si1 0.572236 0.192417 0.628213
Si Si2 0.617599 0.453440 0.922404
Si Si3 0.917261 0.605761 0.738252
Si Si4 0.798843 0.019159 0.552546
Si Si5 0.090265 0.729045 0.249108
Si Si6 0.236751 0.089595 0.687379
Si Si7 0.254257 0.160091 0.949854
O O1 0.424070 0.102857 0.697152
O O2 0.367027 0.500262 0.398278
O O3 0.770254 0.061902 0.631947
O O4 0.704480 0.069865 0.809815
O O5 0.831383 0.447511 0.896047
O O6 0.435698 0.713901 0.673615
O O7 0.500000 0.500000 0.000000
O O8 0.675607 0.197303 0.086571
O O9 0.850325 0.769261 0.707870
O O10 0.802027 0.811436 0.497287
O O11 0.181031 0.381763 0.852658
O O12 0.000000 0.000000 0.500000
O O13 0.987671 0.750374 0.346918
O O14 0.956339 0.689584 0.221311
O O15 0.000000 0.000000 0.000000
O O16 0.500000 0.000000 0.000000
#
# Coordination Sequence:
#
# PCOD9069681 Si02
#       7
#     2   2   2   2   2   2   2
#     4  12  26  48  75 107 155 196 246 313 376 434
#     4  12  25  46  75 106 142 198 250 296 373 445
#     4  12  26  49  75 108 149 197 249 302 378 448
#     4  12  28  46  70 112 151 190 252 311 369 444
#     4  12  26  48  76 111 149 198 252 304 376 447
#     4  12  23  46  80 105 146 196 248 308 367 447
#     4  12  26  45  74 108 145 193 248 305 370 438
#
# _framework density 25.103332000000002
#
# number of rings (size 3 to 8) (size 9 to 14) (size 15 to 20)
#    0.000    0.000    5.714    4.286    4.000    3.429 
#    0.000    0.000    0.000    0.000    0.000    0.000 
#    0.000    0.000    0.000    0.000    0.000    0.000 
#
# Total GULP energy -78388.521011 kJ/mol
# GULP energy per Si atom -5599.180072 kJ/mol
# Density = 2.504620 g / cm^3
# Si number density = 25.103332 Si / 1000 Ang^3
#
#
#
# Elastic Constant Matrix: (Units=GPa)
#
#
# Indices 1 2 3 4 5 6 
#
# 1 42.5195 10.9626 19.5528 -9.6840 -20.8233 -14.9192
# 2 10.9626 173.6154 43.0968 -0.3315 -5.4577 -22.8250
# 3 19.5528 43.0968 144.7987 -19.8385 -4.6186 2.3964
# 4 -9.6840 -0.3315 -19.8385 58.1856 4.5481 -7.5949
# 5 -20.8233 -5.4577 -4.6186 4.5481 52.9092 -2.7823
# 6 -14.9192 -22.8250 2.3964 -7.5949 -2.7823 36.8094
#
#
#
# Elastic Compliance Matrix: (Units=1/GPa)
#
#
# Indices 1 2 3 4 5 6 
#
# 1 0.043091 0.002010 -0.005285 0.006875 0.017259 0.021778
# 2 0.002010 0.006988 -0.002370 0.000155 0.001578 0.005453
# 3 -0.005285 -0.002370 0.008556 0.001656 -0.001929 -0.003973
# 4 0.006875 0.000155 0.001656 0.019683 0.001540 0.006952
# 5 0.017259 0.001578 -0.001929 0.001540 0.026101 0.010390
# 6 0.021778 0.005453 -0.003973 0.006952 0.010390 0.041854
#
#
# Mechanical properties :
#
#
# Convention : Reuss Voigt Hill
#
# Bulk Modulus (GPa) = 21.12159 56.46200 38.79180
# Shear Modulus (GPa) = 28.84410 48.73558 38.78984
#
# Velocity S-wave (km/s) = 3.39339 4.41091 3.93518
# Velocity P-wave (km/s) = 4.87705 6.96291 6.01115
#
# Compressibility (1/GPa) = 0.04734493
#
# Stress axis : x y z
#
# Youngs Moduli (GPa) = 23.20695 143.09979 116.87230
#
# Poissons Ratio (x) = -0.28762 0.61766
# Poissons Ratio (y) = -0.04664 0.27699
# Poissons Ratio (z) = 0.12265 0.33915
#
# Static dielectric constant tensor:
#      x y z
#    x 1.957880 0.206790 -0.109130 
#    y 0.206790 1.545000 0.259710 
#    z -0.109130 0.259710 1.850930 
# 
# From -- ./inp_files/504925.got.cif
#   From: 2010.05.17/outbox.cif.g08.bks.cpg/sg2_253_cif.got.tgz:504925.got - 2010.06.03 11:33:40.
