data_PCOD9069293
_publ_section_title
;
Structure prediction by ZEFSAII (Michael W. Deem and Ramdas Pophale) SiO2 
 PCOD9069293
Probable space group: P -1
;
_chemical_formula_sum "Si O2"
_cell_formula_units_Z 16
_cell_length_a 20.614263
_cell_length_b 17.944619
_cell_length_c 11.927808
_cell_angle_alpha 161.163713
_cell_angle_beta 141.690095
_cell_angle_gamma 28.953726
_cell_volume 662.416881
_symmetry_space_group_name_H-M "P -1"
_symmetry_group_IT_number 2
_symmetry_cell_setting 'triclinic'
loop_
_space_group_symop_operation_xyz
x,y,z
-x,-y,-z
loop_
_atom_site_type_symbol
_atom_site_label
_atom_site_fract_x
_atom_site_fract_y
_atom_site_fract_z
Si Si1 0.311142 0.134945 0.110473
Si Si2 0.382588 0.268235 0.082980
Si Si3 0.360259 0.787725 0.915591
Si Si4 0.874644 0.669340 0.227659
Si Si5 0.896978 0.746178 0.616133
Si Si6 0.337887 0.608554 0.276734
Si Si7 0.050647 0.836140 0.693303
Si Si8 0.033757 0.029769 0.461456
O O1 0.180367 0.491710 0.419699
O O2 0.456926 0.047807 0.151883
O O3 0.317583 0.011315 0.068267
O O4 0.313181 0.906706 0.708808
O O5 0.364098 0.513479 0.490736
O O6 0.365820 0.420342 0.157804
O O7 0.266450 0.236093 0.879239
O O8 0.520635 0.611292 0.914023
O O9 0.253865 0.994437 0.164529
O O10 0.883896 0.621771 0.306962
O O11 0.912306 0.880586 0.563740
O O12 0.001446 0.346941 0.884154
O O13 0.000000 0.500000 0.500000
O O14 0.956858 0.908450 0.893033
O O15 0.188679 0.742424 0.225107
O O16 0.067683 0.893544 0.667062
O O17 0.000000 0.000000 0.500000
#
# Coordination Sequence:
#
# PCOD9069293 Si02
#       8
#     2   2   2   2   2   2   2   2
#     4   9  19  40  69 102 136 165 221 279 327 384
#     4   9  19  39  72 101 132 175 219 273 322 389
#     4   9  20  43  71  98 134 183 222 259 329 399
#     4  12  24  41  65 100 140 166 224 275 331 386
#     4  12  27  44  66  94 134 186 222 266 333 412
#     4   9  18  37  71 101 135 169 219 272 326 384
#     4  12  26  43  68  99 130 177 221 279 342 384
#     4  12  23  40  72 100 131 167 231 282 322 390
#
# _framework density 24.153972
#
# number of rings (size 3 to 8) (size 9 to 14) (size 15 to 20)
#    0.000    1.500    2.500    4.500    3.500    0.000 
#    2.250    5.000    2.750    0.000    0.000    0.000 
#    0.000    0.000    0.000    0.000    0.000    0.000 
#
# Total GULP energy -89412.681051 kJ/mol
# GULP energy per Si atom -5588.292566 kJ/mol
# Density = 2.409900 g / cm^3
# Si number density = 24.153972 Si / 1000 Ang^3
#
#
#
# Elastic Constant Matrix: (Units=GPa)
#
#
# Indices 1 2 3 4 5 6 
#
# 1 100.1621 51.6554 28.8051 9.0051 7.1598 -17.8371
# 2 51.6554 117.0949 33.2390 23.2718 8.5591 -21.8489
# 3 28.8051 33.2390 90.4082 4.7333 9.4039 -7.9548
# 4 9.0051 23.2718 4.7333 27.8221 0.2639 -3.9742
# 5 7.1598 8.5591 9.4039 0.2639 47.2298 2.0394
# 6 -17.8371 -21.8489 -7.9548 -3.9742 2.0394 59.5736
#
#
#
# Elastic Compliance Matrix: (Units=1/GPa)
#
#
# Indices 1 2 3 4 5 6 
#
# 1 0.013588 -0.005022 -0.002251 0.000476 -0.000790 0.001985
# 2 -0.005022 0.013933 -0.002671 -0.009179 -0.001296 0.002682
# 3 -0.002251 -0.002671 0.012917 0.000809 -0.001759 0.000185
# 4 0.000476 -0.009179 0.000809 0.043279 0.001200 -0.000270
# 5 -0.000790 -0.001296 -0.001759 0.001200 0.021941 -0.001618
# 6 0.001985 0.002682 0.000185 -0.000270 -0.001618 0.018426
#
#
# Mechanical properties :
#
#
# Convention : Reuss Voigt Hill
#
# Bulk Modulus (GPa) = 48.66156 59.45158 54.05657
# Shear Modulus (GPa) = 33.15145 39.85617 36.50381
#
# Velocity S-wave (km/s) = 3.70875 4.06653 3.89176
# Velocity P-wave (km/s) = 6.20725 6.83491 6.52862
#
# Compressibility (1/GPa) = 0.02055010
#
# Stress axis : x y z
#
# Youngs Moduli (GPa) = 73.59330 71.77130 77.41610
#
# Poissons Ratio (x) = 0.36043 0.17428
# Poissons Ratio (y) = 0.36958 0.20679
# Poissons Ratio (z) = 0.16567 0.19172
#
# Static dielectric constant tensor:
#      x y z
#    x 2.086710 0.012190 0.033250 
#    y 0.012190 1.996920 -0.025880 
#    z 0.033250 -0.025880 1.894790 
# 
# From -- ./inp_files/472540.got.cif
#   From: 2010.05.17/outbox.cif.g08.bks.cpg/sg2_237_cif.got.tgz:472540.got - 2010.06.03 11:33:40.
