data_PCOD9069899
_publ_section_title
;
Structure prediction by ZEFSAII (Michael W. Deem and Ramdas Pophale) SiO2 
 PCOD9069899
Probable space group: P -1
;
_chemical_formula_sum "Si O2"
_cell_formula_units_Z 14
_cell_length_a 5.043933
_cell_length_b 5.043619
_cell_length_c 28.147311
_cell_angle_alpha 95.496099
_cell_angle_beta 90.143376
_cell_angle_gamma 116.854061
_cell_volume 635.056781
_symmetry_space_group_name_H-M "P -1"
_symmetry_group_IT_number 2
_symmetry_cell_setting 'triclinic'
loop_
_space_group_symop_operation_xyz
x,y,z
-x,-y,-z
loop_
_atom_site_type_symbol
_atom_site_label
_atom_site_fract_x
_atom_site_fract_y
_atom_site_fract_z
Si Si1 0.210064 0.659170 0.868760
Si Si2 0.706752 0.602058 0.308816
Si Si3 0.888836 0.525001 0.413946
Si Si4 0.564431 0.883913 0.448458
Si Si5 0.359007 0.914096 0.273168
Si Si6 0.465122 0.701377 0.167013
Si Si7 0.677871 0.342516 0.020365
O O1 0.348877 0.485663 0.834336
O O2 0.291392 0.631149 0.922519
O O3 0.856542 0.505156 0.859090
O O4 0.354934 0.003136 0.859133
O O5 0.794770 0.566967 0.361787
O O6 0.520008 0.787664 0.307813
O O7 0.011869 0.773606 0.282745
O O8 0.509284 0.270850 0.282730
O O9 0.747347 0.179045 0.422216
O O10 0.752129 0.697550 0.449805
O O11 0.243034 0.674735 0.422227
O O12 0.500000 0.000000 0.500000
O O13 0.412806 0.807066 0.220149
O O14 0.500000 0.500000 0.000000
O O15 0.000000 0.500000 0.000000
O O16 0.500000 0.000000 0.000000
#
# Coordination Sequence:
#
# PCOD9069899 Si02
#       7
#     2   2   2   2   2   2   2
#     4  12  25  44  67  96 129 169 214 264 318 379
#     4  12  25  43  66  96 130 169 213 264 319 379
#     4  12  24  43  67  96 129 169 214 264 318 379
#     4  12  25  44  67  96 130 170 214 264 319 380
#     4  12  25  44  67  96 130 170 214 264 319 379
#     4  12  25  44  67  96 130 170 214 264 318 379
#     4  12  25  44  67  96 130 169 213 264 319 379
#
# _framework density 22.045272000000001
#
# number of rings (size 3 to 8) (size 9 to 14) (size 15 to 20)
#    0.000    0.000    0.000   12.000    0.000    0.000 
#    0.000    0.000    0.000    0.000    0.000    0.000 
#    0.000    0.000    0.000    0.000    0.000    0.000 
#
# Total GULP energy -78542.285372 kJ/mol
# GULP energy per Si atom -5610.163241 kJ/mol
# Density = 2.199510 g / cm^3
# Si number density = 22.045272 Si / 1000 Ang^3
#
#
#
# Elastic Constant Matrix: (Units=GPa)
#
#
# Indices 1 2 3 4 5 6 
#
# 1 108.7507 66.9626 -36.6501 -3.2613 -2.8653 6.3548
# 2 66.9626 189.8391 4.1756 -7.9904 -0.4871 28.1615
# 3 -36.6501 4.1756 70.0995 0.0294 3.5204 17.1184
# 4 -3.2613 -7.9904 0.0294 19.1593 -8.6171 -1.0227
# 5 -2.8653 -0.4871 3.5204 -8.6171 39.4456 2.2477
# 6 6.3548 28.1615 17.1184 -1.0227 2.2477 37.8179
#
#
#
# Elastic Compliance Matrix: (Units=1/GPa)
#
#
# Indices 1 2 3 4 5 6 
#
# 1 0.015788 -0.005318 0.009251 0.000543 0.000539 -0.002898
# 2 -0.005318 0.007878 -0.002335 0.002484 0.000684 -0.003889
# 3 0.009251 -0.002335 0.021617 -0.000306 -0.000808 -0.009561
# 4 0.000543 0.002484 -0.000306 0.059151 0.013075 -0.000980
# 5 0.000539 0.000684 -0.000808 0.013075 0.028417 -0.001569
# 6 -0.002898 -0.003889 -0.009561 -0.000980 -0.001569 0.034220
#
#
# Mechanical properties :
#
#
# Convention : Reuss Voigt Hill
#
# Bulk Modulus (GPa) = 20.62794 48.62950 34.62872
# Shear Modulus (GPa) = 27.77248 41.56465 34.66857
#
# Velocity S-wave (km/s) = 3.55321 4.34686 3.96991
# Velocity P-wave (km/s) = 5.11968 6.87753 6.06265
#
# Compressibility (1/GPa) = 0.04847794
#
# Stress axis : x y z
#
# Youngs Moduli (GPa) = 63.34087 126.93365 46.26024
#
# Poissons Ratio (x) = 0.67506 -0.42797
# Poissons Ratio (y) = 0.33686 0.10804
# Poissons Ratio (z) = -0.58599 0.29644
#
# Static dielectric constant tensor:
#      x y z
#    x 1.746720 -0.003480 -0.008720 
#    y -0.003480 1.739870 0.006840 
#    z -0.008720 0.006840 1.820460 
# 
# From -- ./inp_files/14118.got.cif
#   From: 2010.05.17/outbox.cif.g08.bks.cpg/sg2_8_cif.got.tgz:14118.got - 2010.06.03 11:33:40.
