data_PCOD9069803
_publ_section_title
;
Structure prediction by ZEFSAII (Michael W. Deem and Ramdas Pophale) SiO2 
 PCOD9069803
Probable space group: P -1
;
_chemical_formula_sum "Si O2"
_cell_formula_units_Z 12
_cell_length_a 8.512188
_cell_length_b 11.218210
_cell_length_c 10.011949
_cell_angle_alpha 134.791659
_cell_angle_beta 134.764952
_cell_angle_gamma 73.419659
_cell_volume 437.555996
_symmetry_space_group_name_H-M "P -1"
_symmetry_group_IT_number 2
_symmetry_cell_setting 'triclinic'
loop_
_space_group_symop_operation_xyz
x,y,z
-x,-y,-z
loop_
_atom_site_type_symbol
_atom_site_label
_atom_site_fract_x
_atom_site_fract_y
_atom_site_fract_z
Si Si1 0.401273 0.655036 0.336100
Si Si2 0.225282 0.854703 0.193008
Si Si3 0.501319 0.673617 0.942880
Si Si4 0.885664 0.654212 0.628322
Si Si5 0.067990 0.086209 0.460682
Si Si6 0.275411 0.710085 0.596810
O O1 0.233442 0.686914 0.151205
O O2 0.356937 0.441338 0.126352
O O3 0.696123 0.746975 0.568007
O O4 0.354224 0.727724 0.505945
O O5 0.500000 0.000000 0.500000
O O6 0.049585 0.932363 0.221794
O O7 0.141603 0.804806 0.950642
O O8 0.228443 0.512289 0.681529
O O9 0.474210 0.796451 0.902620
O O10 0.647581 0.775439 0.238580
O O11 0.804142 0.508052 0.588792
O O12 0.920166 0.206121 0.431902
O O13 0.000000 0.000000 0.500000
#
# Coordination Sequence:
#
# PCOD9069803 Si02
#       6
#     2   2   2   2   2   2
#     4   9  19  38  66  86 121 160 202 233 301 367
#     4  12  26  41  58  89 127 162 195 244 305 355
#     4   8  21  38  61  92 116 156 203 245 296 354
#     4   8  21  40  64  83 118 166 199 238 297 366
#     4  12  24  35  62  96 124 149 197 260 299 334
#     4   9  19  37  65  92 119 151 203 247 299 352
#
# _framework density 27.425059000000001
#
# number of rings (size 3 to 8) (size 9 to 14) (size 15 to 20)
#    2.000    0.000    1.667    3.000    4.667    4.000 
#    0.000    4.167    0.000    0.000    0.000    0.000 
#    0.000    0.000    0.000    0.000    0.000    0.000 
#
# Total GULP energy -66994.236620 kJ/mol
# GULP energy per Si atom -5582.853052 kJ/mol
# Density = 2.736264 g / cm^3
# Si number density = 27.425059 Si / 1000 Ang^3
#
#
#
# Elastic Constant Matrix: (Units=GPa)
#
#
# Indices 1 2 3 4 5 6 
#
# 1 96.9096 30.4949 24.6935 1.8664 -36.9126 -20.0048
# 2 30.4949 156.6136 45.1746 -26.6515 -18.3566 -19.8537
# 3 24.6935 45.1746 133.7555 -27.8545 -17.3714 -19.4246
# 4 1.8664 -26.6515 -27.8545 38.5305 3.4603 -0.5365
# 5 -36.9126 -18.3566 -17.3714 3.4603 37.7843 11.8662
# 6 -20.0048 -19.8537 -19.4246 -0.5365 11.8662 39.4250
#
#
#
# Elastic Compliance Matrix: (Units=1/GPa)
#
#
# Indices 1 2 3 4 5 6 
#
# 1 0.017679 -0.001648 -0.001158 -0.004178 0.015418 0.002873
# 2 -0.001648 0.008269 -0.000946 0.005095 0.000646 0.002737
# 3 -0.001158 -0.000946 0.010081 0.006622 0.001307 0.003600
# 4 -0.004178 0.005095 0.006622 0.034844 -0.003386 0.005202
# 5 0.015418 0.000646 0.001307 -0.003386 0.044183 -0.004551
# 6 0.002873 0.002737 0.003600 0.005202 -0.004551 0.031415
#
#
# Mechanical properties :
#
#
# Convention : Reuss Voigt Hill
#
# Bulk Modulus (GPa) = 35.05625 65.33387 50.19506
# Shear Modulus (GPa) = 30.58436 42.27568 36.43002
#
# Velocity S-wave (km/s) = 3.34308 3.93045 3.64860
# Velocity P-wave (km/s) = 5.26421 6.66876 6.00767
#
# Compressibility (1/GPa) = 0.02852558
#
# Stress axis : x y z
#
# Youngs Moduli (GPa) = 56.56511 120.93876 99.19446
#
# Poissons Ratio (x) = 0.19931 0.11482
# Poissons Ratio (y) = 0.09322 0.09383
# Poissons Ratio (z) = 0.06548 0.11440
#
# Static dielectric constant tensor:
#      x y z
#    x 2.243080 0.009850 0.158540 
#    y 0.009850 2.165370 0.065540 
#    z 0.158540 0.065540 2.274660 
# 
# From -- ./inp_files/149484.got.cif
#   From: 2010.05.17/outbox.cif.g08.bks.cpg/sg2_75_cif.got.tgz:149484.got - 2010.06.03 11:33:40.
