data_PCOD9069257
_publ_section_title
;
Structure prediction by ZEFSAII (Michael W. Deem and Ramdas Pophale) SiO2 
 PCOD9069257
Probable space group: P -1
;
_chemical_formula_sum "Si O2"
_cell_formula_units_Z 12
_cell_length_a 5.618916
_cell_length_b 15.677061
_cell_length_c 12.391667
_cell_angle_alpha 153.477561
_cell_angle_beta 115.015564
_cell_angle_gamma 67.501167
_cell_volume 441.683788
_symmetry_space_group_name_H-M "P -1"
_symmetry_group_IT_number 2
_symmetry_cell_setting 'triclinic'
loop_
_space_group_symop_operation_xyz
x,y,z
-x,-y,-z
loop_
_atom_site_type_symbol
_atom_site_label
_atom_site_fract_x
_atom_site_fract_y
_atom_site_fract_z
Si Si1 0.000000 0.500000 0.500000
Si Si2 0.585962 0.211764 0.973103
Si Si3 0.184304 0.527375 0.326715
Si Si4 0.000000 0.000000 0.500000
Si Si5 0.677393 0.345289 0.918832
Si Si6 0.722924 0.088566 0.336660
Si Si7 0.880482 0.856127 0.898672
O O1 0.150606 0.577456 0.501716
O O2 0.752777 0.665300 0.616312
O O3 0.375589 0.346611 0.141847
O O4 0.873559 0.267463 0.136563
O O5 0.526870 0.233453 0.859432
O O6 0.538986 0.993176 0.750172
O O7 0.252542 0.694748 0.445629
O O8 0.900122 0.458219 0.152429
O O9 0.813972 0.192284 0.693957
O O10 0.955674 0.010532 0.370474
O O11 0.500000 0.500000 0.000000
O O12 0.740322 0.975178 0.098197
O O13 0.000000 0.000000 0.000000
#
# Coordination Sequence:
#
# PCOD9069257 Si02
#       7
#     1   2   2   1   2   2   2
#     4  12  22  50  76 100 160 192 244 334 366 456
#     4  12  25  51  74 109 154 197 255 321 389 456
#     4  12  27  51  74 116 154 198 266 316 385 469
#     4  12  24  52  76 108 160 200 250 326 376 468
#     4  12  28  51  79 114 157 209 260 319 390 465
#     4  12  27  46  77 111 151 197 262 312 385 467
#     4  12  26  49  73 109 151 199 257 312 389 466
#
# _framework density 27.168758
#
# number of rings (size 3 to 8) (size 9 to 14) (size 15 to 20)
#    0.000    0.000    8.333    1.000    2.333    7.333 
#    0.000    0.000    0.000    0.000    0.000    0.000 
#    0.000    0.000    0.000    0.000    0.000    0.000 
#
# Total GULP energy -66894.906515 kJ/mol
# GULP energy per Si atom -5574.575543 kJ/mol
# Density = 2.710692 g / cm^3
# Si number density = 27.168758 Si / 1000 Ang^3
#
#
#
# Elastic Constant Matrix: (Units=GPa)
#
#
# Indices 1 2 3 4 5 6 
#
# 1 40.0124 54.5786 4.6849 -0.1799 -9.9215 12.1671
# 2 54.5786 187.2822 46.0053 23.6010 18.6975 15.7569
# 3 4.6849 46.0053 102.2171 17.5016 -15.0287 18.3408
# 4 -0.1799 23.6010 17.5016 56.3036 11.6501 10.5442
# 5 -9.9215 18.6975 -15.0287 11.6501 50.9520 4.6710
# 6 12.1671 15.7569 18.3408 10.5442 4.6710 68.5308
#
#
#
# Elastic Compliance Matrix: (Units=1/GPa)
#
#
# Indices 1 2 3 4 5 6 
#
# 1 0.068911 -0.025637 0.014087 0.003259 0.027380 -0.012478
# 2 -0.025637 0.016127 -0.008423 -0.002294 -0.013270 0.004355
# 3 0.014087 -0.008423 0.016079 -0.002867 0.011711 -0.005225
# 4 0.003259 -0.002294 -0.002867 0.020854 -0.003934 -0.002225
# 5 0.027380 -0.013270 0.011711 -0.003934 0.034796 -0.006711
# 6 -0.012478 0.004355 -0.005225 -0.002225 -0.006711 0.018004
#
#
# Mechanical properties :
#
#
# Convention : Reuss Voigt Hill
#
# Bulk Modulus (GPa) = 16.34793 60.00547 38.17670
# Shear Modulus (GPa) = 21.26674 50.10681 35.68678
#
# Velocity S-wave (km/s) = 2.80083 4.29917 3.62819
# Velocity P-wave (km/s) = 4.06076 6.83944 5.62440
#
# Compressibility (1/GPa) = 0.06116982
#
# Stress axis : x y z
#
# Youngs Moduli (GPa) = 14.51143 62.00644 62.19421
#
# Poissons Ratio (x) = 1.58967 -0.87611
# Poissons Ratio (y) = 0.37203 0.52387
# Poissons Ratio (z) = -0.20442 0.52229
#
# Static dielectric constant tensor:
#      x y z
#    x 2.079120 -0.185000 0.113970 
#    y -0.185000 1.970450 -0.105640 
#    z 0.113970 -0.105640 2.839290 
# 
# From -- ./inp_files/28654.got.cif
#   From: 2010.05.17/outbox.cif.g08.bks.cpg/sg2_15_cif.got.tgz:28654.got - 2010.06.03 11:33:40.
