data_PCOD9069758
_publ_section_title
;
Structure prediction by ZEFSAII (Michael W. Deem and Ramdas Pophale) SiO2 
 PCOD9069758
Probable space group: P -1
;
_chemical_formula_sum "Si O2"
_cell_formula_units_Z 16
_cell_length_a 8.921733
_cell_length_b 5.239824
_cell_length_c 20.984802
_cell_angle_alpha 72.014543
_cell_angle_beta 123.930982
_cell_angle_gamma 123.251761
_cell_volume 680.675737
_symmetry_space_group_name_H-M "P -1"
_symmetry_group_IT_number 2
_symmetry_cell_setting 'triclinic'
loop_
_space_group_symop_operation_xyz
x,y,z
-x,-y,-z
loop_
_atom_site_type_symbol
_atom_site_label
_atom_site_fract_x
_atom_site_fract_y
_atom_site_fract_z
Si Si1 0.863503 0.720896 0.034979
Si Si2 0.294693 0.923068 0.352598
Si Si3 0.341869 0.899317 0.027092
Si Si4 0.589521 0.554308 0.333189
Si Si5 0.649920 0.903715 0.195839
Si Si6 0.090981 0.366388 0.800345
Si Si7 0.346739 0.221053 0.528801
Si Si8 0.986209 0.301149 0.573455
O O1 0.929882 0.738992 0.122847
O O2 0.839349 0.411280 0.021746
O O3 0.674136 0.796269 0.985582
O O4 0.000000 0.000000 0.000000
O O5 0.518721 0.952111 0.415239
O O6 0.173147 0.773624 0.400459
O O7 0.131981 0.724955 0.275599
O O8 0.370658 0.269624 0.320026
O O9 0.440234 0.807583 0.115494
O O10 0.500000 0.000000 0.000000
O O11 0.585066 0.777759 0.261640
O O12 0.675735 0.692008 0.412137
O O13 0.786619 0.526592 0.356499
O O14 0.790522 0.780447 0.201723
O O15 0.775356 0.268988 0.197638
O O16 0.500000 0.500000 0.500000
O O17 0.127240 0.041651 0.456765
O O18 0.000000 0.500000 0.500000
#
# Coordination Sequence:
#
# PCOD9069758 Si02
#       8
#     2   2   2   2   2   2   2   2
#     4  12  26  46  75 113 151 197 248 311 369 436
#     4  12  28  47  70 107 153 190 247 313 376 449
#     4  12  23  48  76 106 146 196 257 299 364 442
#     4  12  28  47  71 107 143 197 249 300 383 445
#     4  12  28  47  78 107 148 202 250 307 375 448
#     4  12  27  49  73 108 156 195 245 308 381 444
#     4  12  26  46  74 103 142 190 249 316 370 438
#     4  12  24  48  73  99 141 191 246 307 371 444
#
# _framework density 23.506052
#
# number of rings (size 3 to 8) (size 9 to 14) (size 15 to 20)
#    0.000    0.000    6.250    3.000    8.750    1.000 
#    0.000    0.000    0.000    0.000    0.000    0.000 
#    0.000    0.000    0.000    0.000    0.000    0.000 
#
# Total GULP energy -89224.097872 kJ/mol
# GULP energy per Si atom -5576.506117 kJ/mol
# Density = 2.345255 g / cm^3
# Si number density = 23.506052 Si / 1000 Ang^3
#
#
#
# Elastic Constant Matrix: (Units=GPa)
#
#
# Indices 1 2 3 4 5 6 
#
# 1 80.5750 26.6172 7.5779 -8.7432 -12.6208 10.7477
# 2 26.6172 120.3351 29.3409 -14.9746 -29.8575 15.3175
# 3 7.5779 29.3409 127.5475 -14.8814 -15.0877 10.0211
# 4 -8.7432 -14.9746 -14.8814 44.0554 6.8977 -6.9435
# 5 -12.6208 -29.8575 -15.0877 6.8977 18.6009 -7.1556
# 6 10.7477 15.3175 10.0211 -6.9435 -7.1556 39.9316
#
#
#
# Elastic Compliance Matrix: (Units=1/GPa)
#
#
# Indices 1 2 3 4 5 6 
#
# 1 0.014242 -0.001116 0.000550 0.001199 0.007079 -0.002066
# 2 -0.001116 0.014057 -0.000531 0.000980 0.020590 -0.001099
# 3 0.000550 -0.000531 0.008892 0.001909 0.005710 -0.000821
# 4 0.001199 0.000980 0.001909 0.024980 -0.004414 0.002375
# 5 0.007079 0.020590 0.005710 -0.004414 0.100170 0.005946
# 6 -0.002066 -0.001099 -0.000821 0.002375 0.005946 0.027705
#
#
# Mechanical properties :
#
#
# Convention : Reuss Voigt Hill
#
# Bulk Modulus (GPa) = 28.57287 50.61440 39.59364
# Shear Modulus (GPa) = 24.52115 38.17901 31.35008
#
# Velocity S-wave (km/s) = 3.23334 4.03453 3.65595
# Velocity P-wave (km/s) = 5.11090 6.57895 5.89083
#
# Compressibility (1/GPa) = 0.03499823
#
# Stress axis : x y z
#
# Youngs Moduli (GPa) = 70.21391 71.13913 112.45616
#
# Poissons Ratio (x) = 0.07937 -0.06187
# Poissons Ratio (y) = 0.07834 0.05972
# Poissons Ratio (z) = -0.03863 0.03778
#
# Static dielectric constant tensor:
#      x y z
#    x 1.939140 -0.012410 0.099900 
#    y -0.012410 1.910830 -0.005890 
#    z 0.099900 -0.005890 1.898720 
# 
# From -- ./inp_files/112468.got.cif
#   From: 2010.05.17/outbox.cif.g08.bks.cpg/sg2_57_cif.got.tgz:112468.got - 2010.06.03 11:33:40.
