data_PCOD9069787
_publ_section_title
;
Structure prediction by ZEFSAII (Michael W. Deem and Ramdas Pophale) SiO2 
 PCOD9069787
Probable space group: P -1
;
_chemical_formula_sum "Si O2"
_cell_formula_units_Z 15
_cell_length_a 21.866772
_cell_length_b 22.384672
_cell_length_c 12.681615
_cell_angle_alpha 160.940219
_cell_angle_beta 150.270376
_cell_angle_gamma 18.931673
_cell_volume 638.055532
_symmetry_space_group_name_H-M "P -1"
_symmetry_group_IT_number 2
_symmetry_cell_setting 'triclinic'
loop_
_space_group_symop_operation_xyz
x,y,z
-x,-y,-z
loop_
_atom_site_type_symbol
_atom_site_label
_atom_site_fract_x
_atom_site_fract_y
_atom_site_fract_z
Si Si1 0.191912 0.016707 0.139188
Si Si2 0.613211 0.496508 0.576520
Si Si3 0.379140 0.991113 0.871012
Si Si4 0.884906 0.321424 0.858132
Si Si5 0.000000 0.000000 0.000000
Si Si6 0.320425 0.716279 0.173771
Si Si7 0.410623 0.271413 0.716799
Si Si8 0.834024 0.666858 0.686883
O O1 0.360384 0.976346 0.334174
O O2 0.268636 0.783422 0.782492
O O3 0.995139 0.337387 0.344027
O O4 0.149233 0.964816 0.098340
O O5 0.500000 0.500000 0.500000
O O6 0.485432 0.757218 0.735158
O O7 0.766833 0.452521 0.790690
O O8 0.313228 0.911457 0.556720
O O9 0.500000 0.000000 0.000000
O O10 0.225462 0.287128 0.202538
O O11 0.719609 0.543381 0.067510
O O12 0.000000 0.000000 0.500000
O O13 0.055400 0.270507 0.044850
O O14 0.880497 0.091145 0.864609
O O15 0.500000 0.500000 0.000000
O O16 0.362896 0.499239 0.952230
O O17 0.343980 0.166494 0.379740
#
# Coordination Sequence:
#
# PCOD9069787 Si02
#       8
#     2   2   2   2   1   2   2   2
#     4  12  27  47  79 116 150 216 267 333 402 488
#     4  12  25  51  83 114 157 219 271 329 421 484
#     4  12  29  51  78 117 168 211 267 343 408 490
#     4  12  27  49  78 115 160 209 269 341 406 489
#     4  12  26  42  82 108 152 202 276 310 406 480
#     4  12  23  49  77 107 147 210 262 330 398 475
#     4  12  24  49  76 105 161 201 265 331 408 472
#     4  12  29  47  76 117 156 204 270 338 395 487
#
# _framework density 23.508927
#
# number of rings (size 3 to 8) (size 9 to 14) (size 15 to 20)
#    0.000    0.000    5.333    3.600    5.600    1.600 
#    0.000    1.333    0.000    0.000    0.000    0.000 
#    0.000    0.000    0.000    0.000    0.000    0.000 
#
# Total GULP energy -83762.868249 kJ/mol
# GULP energy per Si atom -5584.191217 kJ/mol
# Density = 2.345542 g / cm^3
# Si number density = 23.508927 Si / 1000 Ang^3
#
#
#
# Elastic Constant Matrix: (Units=GPa)
#
#
# Indices 1 2 3 4 5 6 
#
# 1 122.6686 31.8213 25.5501 3.1981 12.9394 -12.1726
# 2 31.8213 138.0613 42.3438 -33.2993 -6.0650 -3.9114
# 3 25.5501 42.3438 94.4877 -16.3661 -3.5747 -1.6431
# 4 3.1981 -33.2993 -16.3661 41.7701 -6.6399 -0.7752
# 5 12.9394 -6.0650 -3.5747 -6.6399 36.7554 -1.9818
# 6 -12.1726 -3.9114 -1.6431 -0.7752 -1.9818 45.0341
#
#
#
# Elastic Compliance Matrix: (Units=1/GPa)
#
#
# Indices 1 2 3 4 5 6 
#
# 1 0.010316 -0.002968 -0.002465 -0.004898 -0.005131 0.002130
# 2 -0.002968 0.010968 -0.002441 0.008691 0.004209 0.000396
# 3 -0.002465 -0.002441 0.013079 0.003744 0.002401 -0.000231
# 4 -0.004898 0.008691 0.003744 0.034271 0.009745 0.000586
# 5 -0.005131 0.004209 0.002401 0.009745 0.031736 0.000631
# 6 0.002130 0.000396 -0.000231 0.000586 0.000631 0.022845
#
#
# Mechanical properties :
#
#
# Convention : Reuss Voigt Hill
#
# Bulk Modulus (GPa) = 53.71951 61.62756 57.67354
# Shear Modulus (GPa) = 34.44270 41.74541 38.09406
#
# Velocity S-wave (km/s) = 3.83180 4.21851 4.02980
# Velocity P-wave (km/s) = 6.51746 7.07101 6.79987
#
# Compressibility (1/GPa) = 0.01861521
#
# Stress axis : x y z
#
# Youngs Moduli (GPa) = 96.93987 91.17144 76.45664
#
# Poissons Ratio (x) = 0.27060 0.18844
# Poissons Ratio (y) = 0.28772 0.18665
# Poissons Ratio (z) = 0.23893 0.22258
#
# Static dielectric constant tensor:
#      x y z
#    x 1.910580 0.004930 0.028870 
#    y 0.004930 1.919530 0.011410 
#    z 0.028870 0.011410 1.917510 
# 
# From -- ./inp_files/472800.got.cif
#   From: 2010.05.17/outbox.cif.g08.bks.cpg/sg2_237_cif.got.tgz:472800.got - 2010.06.03 11:33:40.
