data_PCOD9069780
_publ_section_title
;
Structure prediction by ZEFSAII (Michael W. Deem and Ramdas Pophale) SiO2 
 PCOD9069780
Probable space group: P -1
;
_chemical_formula_sum "Si O2"
_cell_formula_units_Z 12
_cell_length_a 11.752168
_cell_length_b 7.753674
_cell_length_c 5.560768
_cell_angle_alpha 89.682679
_cell_angle_beta 79.188707
_cell_angle_gamma 80.759130
_cell_volume 491.099656
_symmetry_space_group_name_H-M "P -1"
_symmetry_group_IT_number 2
_symmetry_cell_setting 'triclinic'
loop_
_space_group_symop_operation_xyz
x,y,z
-x,-y,-z
loop_
_atom_site_type_symbol
_atom_site_label
_atom_site_fract_x
_atom_site_fract_y
_atom_site_fract_z
Si Si1 0.285906 0.921239 0.348166
Si Si2 0.482926 0.706802 0.956985
Si Si3 0.944236 0.073981 0.770324
Si Si4 0.104481 0.536858 0.128473
Si Si5 0.701376 0.377359 0.317576
Si Si6 0.284288 0.295843 0.369661
O O1 0.408056 0.825738 0.185691
O O2 0.190408 0.958978 0.174293
O O3 0.240250 0.773916 0.527628
O O4 0.281102 0.105683 0.482734
O O5 0.500000 0.500000 0.000000
O O6 0.405063 0.709375 0.747090
O O7 0.611669 0.750198 0.866584
O O8 0.947476 0.278585 0.741585
O O9 0.000000 0.000000 0.500000
O O10 0.000000 0.000000 0.000000
O O11 0.213784 0.579074 0.925894
O O12 0.163626 0.389505 0.292904
O O13 0.000000 0.500000 0.000000
O O14 0.674247 0.557956 0.475521
#
# Coordination Sequence:
#
# PCOD9069780 Si02
#       6
#     2   2   2   2   2   2
#     4  12  27  46  74 112 149 195 256 314 382 457
#     4  12  23  49  75 105 153 195 248 316 388 451
#     4  12  26  48  76 110 154 205 257 322 387 459
#     4  12  27  49  75 108 152 200 253 319 384 466
#     4  12  24  48  75 103 154 191 255 310 391 442
#     4  12  27  46  75 111 145 199 252 311 382 470
#
# _framework density 24.434961999999999
#
# number of rings (size 3 to 8) (size 9 to 14) (size 15 to 20)
#    0.000    0.000    6.667    3.000    2.333    2.667 
#    0.000    0.000    0.000    0.000    0.000    0.000 
#    0.000    0.000    0.000    0.000    0.000    0.000 
#
# Total GULP energy -67122.375400 kJ/mol
# GULP energy per Si atom -5593.531283 kJ/mol
# Density = 2.437935 g / cm^3
# Si number density = 24.434962 Si / 1000 Ang^3
#
#
#
# Elastic Constant Matrix: (Units=GPa)
#
#
# Indices 1 2 3 4 5 6 
#
# 1 61.3291 16.2787 7.6295 7.2275 5.2443 -12.6763
# 2 16.2787 170.7442 55.3334 30.8191 -1.2818 11.1443
# 3 7.6295 55.3334 95.2239 13.7206 -4.0224 -10.6134
# 4 7.2275 30.8191 13.7206 38.0535 -3.6629 7.0496
# 5 5.2443 -1.2818 -4.0224 -3.6629 36.7730 0.9129
# 6 -12.6763 11.1443 -10.6134 7.0496 0.9129 44.5449
#
#
#
# Elastic Compliance Matrix: (Units=1/GPa)
#
#
# Indices 1 2 3 4 5 6 
#
# 1 0.018800 -0.001764 0.000690 -0.003932 -0.003224 0.006644
# 2 -0.001764 0.008463 -0.004493 -0.004375 -0.000306 -0.002991
# 3 0.000690 -0.004493 0.013997 -0.002380 0.000915 0.005013
# 4 -0.003932 -0.004375 -0.002380 0.032857 0.003566 -0.005864
# 5 -0.003224 -0.000306 0.000915 0.003566 0.028142 -0.001764
# 6 0.006644 -0.002991 0.005013 -0.005864 -0.001764 0.027247
#
#
# Mechanical properties :
#
#
# Convention : Reuss Voigt Hill
#
# Bulk Modulus (GPa) = 33.19305 53.97560 43.58433
# Shear Modulus (GPa) = 33.18231 40.41132 36.79682
#
# Velocity S-wave (km/s) = 3.68908 4.07115 3.88481
# Velocity P-wave (km/s) = 5.63556 6.65105 6.16425
#
# Compressibility (1/GPa) = 0.03012679
#
# Stress axis : x y z
#
# Youngs Moduli (GPa) = 53.19088 118.15561 71.44283
#
# Poissons Ratio (x) = 0.20843 -0.04927
# Poissons Ratio (y) = 0.09383 0.32096
# Poissons Ratio (z) = -0.03668 0.53083
#
# Static dielectric constant tensor:
#      x y z
#    x 1.828080 -0.003630 -0.085660 
#    y -0.003630 1.977280 0.010820 
#    z -0.085660 0.010820 1.975870 
# 
# From -- ./inp_files/67628.got.cif
#   From: 2010.05.17/outbox.cif.g08.bks.cpg/sg2_34_cif.got.tgz:67628.got - 2010.06.03 11:33:40.
