data_PCOD9069520
_publ_section_title
;
Structure prediction by ZEFSAII (Michael W. Deem and Ramdas Pophale) SiO2 
 PCOD9069520
Probable space group: P -1
;
_chemical_formula_sum "Si O2"
_cell_formula_units_Z 16
_cell_length_a 10.528922
_cell_length_b 10.000283
_cell_length_c 11.292162
_cell_angle_alpha 50.132306
_cell_angle_beta 116.604740
_cell_angle_gamma 81.558889
_cell_volume 632.190660
_symmetry_space_group_name_H-M "P -1"
_symmetry_group_IT_number 2
_symmetry_cell_setting 'triclinic'
loop_
_space_group_symop_operation_xyz
x,y,z
-x,-y,-z
loop_
_atom_site_type_symbol
_atom_site_label
_atom_site_fract_x
_atom_site_fract_y
_atom_site_fract_z
Si Si1 0.836954 0.559074 0.992422
Si Si2 0.152684 0.192108 0.944561
Si Si3 0.114051 0.825407 0.417230
Si Si4 0.415266 0.691002 0.256588
Si Si5 0.243352 0.358294 0.658690
Si Si6 0.137940 0.159730 0.523742
Si Si7 0.890705 0.298778 0.943315
Si Si8 0.558878 0.295892 0.224257
O O1 0.791705 0.769798 0.927035
O O2 0.900503 0.457484 0.943331
O O3 0.981937 0.350327 0.260004
O O4 0.632010 0.639456 0.857034
O O5 0.940448 0.316155 0.820968
O O6 0.208663 0.280717 0.811844
O O7 0.260428 0.934070 0.109346
O O8 0.126169 0.625746 0.477318
O O9 0.309719 0.727343 0.606520
O O10 0.963684 0.916058 0.405668
O O11 0.037690 0.038475 0.185746
O O12 0.500000 0.500000 0.500000
O O13 0.556533 0.713086 0.240257
O O14 0.302735 0.645951 0.153829
O O15 0.198587 0.259610 0.588640
O O16 0.312857 0.945966 0.651260
O O17 0.500000 0.500000 0.000000
#
# Coordination Sequence:
#
# PCOD9069520 Si02
#       8
#     2   2   2   2   2   2   2   2
#     4  12  26  48  77 116 155 210 262 330 393 475
#     4  12  27  52  76 115 156 214 264 322 405 475
#     4  12  24  46  78 115 157 209 263 327 400 472
#     4  12  29  52  79 119 161 204 271 333 398 477
#     4  12  27  48  81 117 157 210 263 329 397 480
#     4  12  25  45  76 119 158 203 267 325 403 468
#     4  12  28  51  80 112 161 211 266 327 404 470
#     4  12  23  44  74 116 160 198 266 329 397 475
#
# _framework density 25.308820999999998
#
# number of rings (size 3 to 8) (size 9 to 14) (size 15 to 20)
#    0.000    0.000    3.750    5.625    3.500    2.000 
#    0.000    1.250    0.000    0.000    0.000    0.000 
#    0.000    0.000    0.000    0.000    0.000    0.000 
#
# Total GULP energy -89550.953391 kJ/mol
# GULP energy per Si atom -5596.934587 kJ/mol
# Density = 2.525122 g / cm^3
# Si number density = 25.308821 Si / 1000 Ang^3
#
#
#
# Elastic Constant Matrix: (Units=GPa)
#
#
# Indices 1 2 3 4 5 6 
#
# 1 132.3098 61.5527 43.1133 9.3835 -13.6003 -11.5809
# 2 61.5527 198.6574 52.5934 -1.7672 9.3295 1.3662
# 3 43.1133 52.5934 107.2169 7.7625 0.0583 6.8250
# 4 9.3835 -1.7672 7.7625 45.9959 3.1313 6.4675
# 5 -13.6003 9.3295 0.0583 3.1313 34.5759 -8.8117
# 6 -11.5809 1.3662 6.8250 6.4675 -8.8117 47.6594
#
#
#
# Elastic Compliance Matrix: (Units=1/GPa)
#
#
# Indices 1 2 3 4 5 6 
#
# 1 0.011379 -0.003071 -0.003168 -0.003074 0.006861 0.004992
# 2 -0.003071 0.006732 -0.002091 0.001696 -0.003564 -0.001529
# 3 -0.003168 -0.002091 0.011859 -0.000998 -0.001250 -0.002504
# 4 -0.003074 0.001696 -0.000998 0.023617 -0.005023 -0.004786
# 5 0.006861 -0.003564 -0.001250 -0.005023 0.035376 0.009171
# 6 0.004992 -0.001529 -0.002504 -0.004786 0.009171 0.024943
#
#
# Mechanical properties :
#
#
# Convention : Reuss Voigt Hill
#
# Bulk Modulus (GPa) = 75.13270 83.63367 79.38319
# Shear Modulus (GPa) = 37.03641 44.37457 40.70549
#
# Velocity S-wave (km/s) = 3.82956 4.19181 4.01478
# Velocity P-wave (km/s) = 7.02174 7.51967 7.27497
#
# Compressibility (1/GPa) = 0.01330978
#
# Stress axis : x y z
#
# Youngs Moduli (GPa) = 87.87948 148.54909 84.32495
#
# Poissons Ratio (x) = 0.45617 0.26717
# Poissons Ratio (y) = 0.26986 0.17631
# Poissons Ratio (z) = 0.27844 0.31059
#
# Static dielectric constant tensor:
#      x y z
#    x 1.958330 -0.019360 0.017670 
#    y -0.019360 1.990580 0.022480 
#    z 0.017670 0.022480 1.982860 
# 
# From -- ./inp_files/528299.got.cif
#   From: 2010.05.17/outbox.cif.g08.bks.cpg/sg2_265_cif.got.tgz:528299.got - 2010.06.03 11:33:40.
