data_PCOD9069163
_publ_section_title
;
Structure prediction by ZEFSAII (Michael W. Deem and Ramdas Pophale) SiO2 
 PCOD9069163
Probable space group: P -1
;
_chemical_formula_sum "Si O2"
_cell_formula_units_Z 12
_cell_length_a 6.692319
_cell_length_b 7.928628
_cell_length_c 11.754661
_cell_angle_alpha 59.738408
_cell_angle_beta 87.277315
_cell_angle_gamma 109.296036
_cell_volume 490.621408
_symmetry_space_group_name_H-M "P -1"
_symmetry_group_IT_number 2
_symmetry_cell_setting 'triclinic'
loop_
_space_group_symop_operation_xyz
x,y,z
-x,-y,-z
loop_
_atom_site_type_symbol
_atom_site_label
_atom_site_fract_x
_atom_site_fract_y
_atom_site_fract_z
Si Si1 0.949321 0.966812 0.645686
Si Si2 0.661804 0.068874 0.867948
Si Si3 0.614730 0.750444 0.326431
Si Si4 0.750700 0.664225 0.943331
Si Si5 0.789421 0.316779 0.507001
Si Si6 0.870512 0.567519 0.212461
O O1 0.853670 0.735184 0.789773
O O2 0.788943 0.090555 0.618491
O O3 0.000000 0.000000 0.500000
O O4 0.170314 0.111441 0.655845
O O5 0.495143 0.101147 0.774183
O O6 0.879477 0.283276 0.811171
O O7 0.752710 0.888863 0.907949
O O8 0.500000 0.000000 0.000000
O O9 0.413575 0.635636 0.460081
O O10 0.702859 0.654332 0.250394
O O11 0.500000 0.500000 0.000000
O O12 0.852481 0.577895 0.073107
O O13 0.809090 0.348181 0.359263
O O14 0.000000 0.500000 0.500000
#
# Coordination Sequence:
#
# PCOD9069163 Si02
#       6
#     2   2   2   2   2   2
#     4  12  29  48  70 104 152 191 236 298 371 428
#     4  12  23  44  78 105 139 187 245 298 360 426
#     4  12  22  43  80 100 144 184 245 290 361 419
#     4  12  27  48  70 107 147 191 239 299 363 425
#     4  12  24  44  74 114 135 186 247 294 358 433
#     4  12  25  45  78 111 142 184 251 300 356 432
#
# _framework density 24.458779
#
# number of rings (size 3 to 8) (size 9 to 14) (size 15 to 20)
#    0.000    0.000    8.333    2.000    2.333    3.333 
#    0.000    2.500    0.000    0.000    0.000    0.000 
#    0.000    0.000    0.000    0.000    0.000    0.000 
#
# Total GULP energy -66979.070898 kJ/mol
# GULP energy per Si atom -5581.589242 kJ/mol
# Density = 2.440311 g / cm^3
# Si number density = 24.458779 Si / 1000 Ang^3
#
#
#
# Elastic Constant Matrix: (Units=GPa)
#
#
# Indices 1 2 3 4 5 6 
#
# 1 138.3681 11.9932 61.2794 3.3634 -4.6798 1.8709
# 2 11.9932 22.8053 21.9425 5.0211 1.0396 14.3759
# 3 61.2794 21.9425 218.4296 18.1934 2.4610 7.8948
# 4 3.3634 5.0211 18.1934 34.3000 4.2244 -5.8402
# 5 -4.6798 1.0396 2.4610 4.2244 62.9772 3.3118
# 6 1.8709 14.3759 7.8948 -5.8402 3.3118 30.9307
#
#
#
# Elastic Compliance Matrix: (Units=1/GPa)
#
#
# Indices 1 2 3 4 5 6 
#
# 1 0.008491 -0.003947 -0.002163 0.001164 0.000596 0.002029
# 2 -0.003947 0.076642 -0.003984 -0.015287 0.001591 -0.037422
# 3 -0.002163 -0.003984 0.005768 -0.002224 -0.000177 0.000109
# 4 0.001164 -0.015287 -0.002224 0.035269 -0.002705 0.014551
# 5 0.000596 0.001591 -0.000177 -0.002705 0.016242 -0.002980
# 6 0.002029 -0.037422 0.000109 0.014551 -0.002980 0.052639
#
#
# Mechanical properties :
#
#
# Convention : Reuss Voigt Hill
#
# Bulk Modulus (GPa) = 14.14149 63.33702 38.73926
# Shear Modulus (GPa) = 20.93711 44.60077 32.76894
#
# Velocity S-wave (km/s) = 2.92895 4.27489 3.66425
# Velocity P-wave (km/s) = 4.15122 7.09351 5.81165
#
# Compressibility (1/GPa) = 0.07071391
#
# Stress axis : x y z
#
# Youngs Moduli (GPa) = 117.76513 13.04772 173.35921
#
# Poissons Ratio (x) = 0.05150 0.37493
# Poissons Ratio (y) = 0.46486 0.69062
# Poissons Ratio (z) = 0.25470 0.05198
#
# Static dielectric constant tensor:
#      x y z
#    x 1.857080 -0.102630 -0.011930 
#    y -0.102630 1.843140 0.063220 
#    z -0.011930 0.063220 2.156750 
# 
# From -- ./inp_files/27456.got.cif
#   From: 2010.05.17/outbox.cif.g08.bks.cpg/sg2_14_cif.got.tgz:27456.got - 2010.06.03 11:33:40.
