data_PCOD9069971
_publ_section_title
;
Structure prediction by ZEFSAII (Michael W. Deem and Ramdas Pophale) SiO2 
 PCOD9069971
Probable space group: P -1
;
_chemical_formula_sum "Si O2"
_cell_formula_units_Z 16
_cell_length_a 7.688286
_cell_length_b 20.745969
_cell_length_c 7.939656
_cell_angle_alpha 117.350973
_cell_angle_beta 65.073041
_cell_angle_gamma 141.938980
_cell_volume 689.310687
_symmetry_space_group_name_H-M "P -1"
_symmetry_group_IT_number 2
_symmetry_cell_setting 'triclinic'
loop_
_space_group_symop_operation_xyz
x,y,z
-x,-y,-z
loop_
_atom_site_type_symbol
_atom_site_label
_atom_site_fract_x
_atom_site_fract_y
_atom_site_fract_z
Si Si1 0.078292 0.963127 0.780175
Si Si2 0.901385 0.653052 0.430988
Si Si3 0.491859 0.568728 0.197553
Si Si4 0.443590 0.002557 0.217403
Si Si5 0.702504 0.737766 0.783070
Si Si6 0.524653 0.851493 0.422939
Si Si7 0.809246 0.790085 0.192113
Si Si8 0.065156 0.509460 0.782753
O O1 0.824718 0.833243 0.721057
O O2 0.343078 0.986127 0.749231
O O3 0.208665 0.044214 0.668995
O O4 0.000000 0.000000 0.000000
O O5 0.633358 0.589506 0.341995
O O6 0.845243 0.698494 0.650139
O O7 0.918415 0.571918 0.364299
O O8 0.211637 0.761645 0.358982
O O9 0.705433 0.683546 0.160150
O O10 0.183503 0.519869 0.254387
O O11 0.500000 0.500000 0.000000
O O12 0.121550 0.892696 0.251915
O O13 0.492578 0.100124 0.354396
O O14 0.500000 0.000000 0.000000
O O15 0.367502 0.632020 0.778021
O O16 0.782934 0.787630 0.997295
O O17 0.600402 0.790621 0.357949
O O18 0.000000 0.500000 0.000000
#
# Coordination Sequence:
#
# PCOD9069971 Si02
#       8
#     2   2   2   2   2   2   2   2
#     4  12  25  43  67 103 145 190 242 288 357 434
#     4  12  25  47  76 106 143 187 242 302 366 432
#     4  12  26  44  75 108 133 188 247 295 361 434
#     4  12  24  44  69 109 145 186 241 295 358 434
#     4  12  25  46  71 104 149 192 236 301 366 423
#     4  12  24  46  74 103 145 198 230 295 373 424
#     4  12  24  45  71 105 144 186 240 294 359 433
#     4  12  24  48  76 102 145 189 240 304 364 424
#
# _framework density 23.211592
#
# number of rings (size 3 to 8) (size 9 to 14) (size 15 to 20)
#    0.000    0.000    7.500    1.875    1.750    1.500 
#    0.000    0.000    0.000    0.000    0.000    0.000 
#    0.000    0.000    0.000    0.000    0.000    0.000 
#
# Total GULP energy -89565.555468 kJ/mol
# GULP energy per Si atom -5597.847217 kJ/mol
# Density = 2.315876 g / cm^3
# Si number density = 23.211592 Si / 1000 Ang^3
#
#
#
# Elastic Constant Matrix: (Units=GPa)
#
#
# Indices 1 2 3 4 5 6 
#
# 1 112.7904 62.0837 40.5656 9.6259 -26.2410 11.4815
# 2 62.0837 172.2117 26.1517 19.1802 -13.5130 33.7594
# 3 40.5656 26.1517 124.8232 28.2962 -29.9150 -2.3214
# 4 9.6259 19.1802 28.2962 35.4823 -6.0935 -16.0091
# 5 -26.2410 -13.5130 -29.9150 -6.0935 28.1228 3.6145
# 6 11.4815 33.7594 -2.3214 -16.0091 3.6145 40.9231
#
#
#
# Elastic Compliance Matrix: (Units=1/GPa)
#
#
# Indices 1 2 3 4 5 6 
#
# 1 0.013882 -0.003733 -0.001484 0.000403 0.009876 -0.001614
# 2 -0.003733 0.010852 0.002083 -0.011691 0.003037 -0.012629
# 3 -0.001484 0.002083 0.013724 -0.012478 0.012346 -0.006495
# 4 0.000403 -0.011691 -0.012478 0.057037 -0.010275 0.032044
# 5 0.009876 0.003037 0.012346 -0.010275 0.058912 -0.013798
# 6 -0.001614 -0.012629 -0.006495 0.032044 -0.013798 0.048693
#
#
# Mechanical properties :
#
#
# Convention : Reuss Voigt Hill
#
# Bulk Modulus (GPa) = 31.06555 74.15859 52.61207
# Shear Modulus (GPa) = 22.71714 39.64062 31.17888
#
# Velocity S-wave (km/s) = 3.13181 4.13703 3.66901
# Velocity P-wave (km/s) = 5.14688 7.40529 6.37686
#
# Compressibility (1/GPa) = 0.03218999
#
# Stress axis : x y z
#
# Youngs Moduli (GPa) = 72.03659 92.14679 72.86629
#
# Poissons Ratio (x) = 0.34395 0.10812
# Poissons Ratio (y) = 0.26889 -0.15175
# Poissons Ratio (z) = 0.10689 -0.19190
#
# Static dielectric constant tensor:
#      x y z
#    x 1.764060 0.023390 0.032000 
#    y 0.023390 1.880760 -0.035680 
#    z 0.032000 -0.035680 1.895080 
# 
# From -- ./inp_files/226449.got.cif
#   From: 2010.05.17/outbox.cif.g08.bks.cpg/sg2_114_cif.got.tgz:226449.got - 2010.06.03 11:33:40.
