data_PCOD9069474
_publ_section_title
;
Structure prediction by ZEFSAII (Michael W. Deem and Ramdas Pophale) SiO2 
 PCOD9069474
Probable space group: P -1
;
_chemical_formula_sum "Si O2"
_cell_formula_units_Z 10
_cell_length_a 14.909331
_cell_length_b 15.009825
_cell_length_c 11.439454
_cell_angle_alpha 150.019512
_cell_angle_beta 143.598393
_cell_angle_gamma 19.296128
_cell_volume 421.482494
_symmetry_space_group_name_H-M "P -1"
_symmetry_group_IT_number 2
_symmetry_cell_setting 'triclinic'
loop_
_space_group_symop_operation_xyz
x,y,z
-x,-y,-z
loop_
_atom_site_type_symbol
_atom_site_label
_atom_site_fract_x
_atom_site_fract_y
_atom_site_fract_z
Si Si1 0.562903 0.610033 0.771776
Si Si2 0.721366 0.235537 0.117359
Si Si3 0.222083 0.172281 0.430824
Si Si4 0.135279 0.185450 0.827124
Si Si5 0.763594 0.045795 0.586383
O O1 0.500000 0.500000 0.500000
O O2 0.445201 0.691488 0.868646
O O3 0.883955 0.328365 0.785791
O O4 0.388991 0.938622 0.901160
O O5 0.528001 0.584425 0.266562
O O6 0.998639 0.047392 0.242105
O O7 0.775913 0.030733 0.847319
O O8 0.000000 0.500000 0.500000
O O9 0.500000 0.000000 0.500000
O O10 0.182129 0.183982 0.540781
O O11 0.230998 0.998013 0.595023
O O12 0.000000 0.500000 0.000000
#
# Coordination Sequence:
#
# PCOD9069474 Si02
#       5
#     2   2   2   2   2
#     4  12  23  44  67 101 132 171 223 262 326 396
#     4  12  25  44  73  94 133 177 219 269 321 401
#     4  12  28  46  69  99 131 170 223 281 329 378
#     4  12  26  41  67 101 139 172 211 275 327 386
#     4  12  24  46  68  97 133 177 222 261 329 396
#
# _framework density 23.725777999999998
#
# number of rings (size 3 to 8) (size 9 to 14) (size 15 to 20)
#    0.000    0.000    4.000    6.000    5.600    0.000 
#    0.000    0.000    0.000    0.000    0.000    0.000 
#    0.000    0.000    0.000    0.000    0.000    0.000 
#
# Total GULP energy -56081.237150 kJ/mol
# GULP energy per Si atom -5608.123715 kJ/mol
# Density = 2.367178 g / cm^3
# Si number density = 23.725778 Si / 1000 Ang^3
#
#
#
# Elastic Constant Matrix: (Units=GPa)
#
#
# Indices 1 2 3 4 5 6 
#
# 1 123.9855 7.4107 -20.4774 -2.6543 -10.0903 18.4153
# 2 7.4107 124.2088 1.6758 19.6618 1.0997 11.3910
# 3 -20.4774 1.6758 46.0158 16.9249 2.0208 6.4482
# 4 -2.6543 19.6618 16.9249 35.4764 4.7753 11.7736
# 5 -10.0903 1.0997 2.0208 4.7753 32.5544 3.1858
# 6 18.4153 11.3910 6.4482 11.7736 3.1858 48.8948
#
#
#
# Elastic Compliance Matrix: (Units=1/GPa)
#
#
# Indices 1 2 3 4 5 6 
#
# 1 0.009817 -0.000193 0.005050 -0.000545 0.003246 -0.004399
# 2 -0.000193 0.009006 0.001755 -0.005590 0.000439 -0.000939
# 3 0.005050 0.001755 0.029348 -0.013881 0.002011 -0.002970
# 4 -0.000545 -0.005590 -0.013881 0.040500 -0.004460 -0.006123
# 5 0.003246 0.000439 0.002011 -0.004460 0.032496 -0.002633
# 6 -0.004399 -0.000939 -0.002970 -0.006123 -0.002633 0.024365
#
#
# Mechanical properties :
#
#
# Convention : Reuss Voigt Hill
#
# Bulk Modulus (GPa) = 16.28814 30.15869 23.22341
# Shear Modulus (GPa) = 32.72801 43.75854 38.24327
#
# Velocity S-wave (km/s) = 3.71809 4.29924 4.01919
# Velocity P-wave (km/s) = 5.03114 6.11421 5.59893
#
# Compressibility (1/GPa) = 0.06139435
#
# Stress axis : x y z
#
# Youngs Moduli (GPa) = 101.86553 111.03761 34.07340
#
# Poissons Ratio (x) = 0.02142 -0.17207
# Poissons Ratio (y) = 0.01965 -0.05979
# Poissons Ratio (z) = -0.51441 -0.19483
#
# Static dielectric constant tensor:
#      x y z
#    x 1.923750 0.031140 0.023210 
#    y 0.031140 1.843950 0.037250 
#    z 0.023210 0.037250 1.924400 
# 
# From -- ./inp_files/18231.got.cif
#   From: 2010.05.17/outbox.cif.g08.bks.cpg/sg2_10_cif.got.tgz:18231.got - 2010.06.03 11:33:40.
