data_PCOD9069129
_publ_section_title
;
Structure prediction by ZEFSAII (Michael W. Deem and Ramdas Pophale) SiO2 
 PCOD9069129
Probable space group: P -1
;
_chemical_formula_sum "Si O2"
_cell_formula_units_Z 16
_cell_length_a 10.423443
_cell_length_b 13.847041
_cell_length_c 9.333407
_cell_angle_alpha 114.301823
_cell_angle_beta 109.351394
_cell_angle_gamma 32.089708
_cell_volume 651.825174
_symmetry_space_group_name_H-M "P -1"
_symmetry_group_IT_number 2
_symmetry_cell_setting 'triclinic'
loop_
_space_group_symop_operation_xyz
x,y,z
-x,-y,-z
loop_
_atom_site_type_symbol
_atom_site_label
_atom_site_fract_x
_atom_site_fract_y
_atom_site_fract_z
Si Si1 0.385481 0.600247 0.172191
Si Si2 0.735218 0.887835 0.251191
Si Si3 0.366801 0.262447 0.717233
Si Si4 0.438802 0.243435 0.218887
Si Si5 0.925545 0.024795 0.153343
Si Si6 0.183580 0.513001 0.064747
Si Si7 0.257734 0.477653 0.568456
Si Si8 0.089393 0.122544 0.415258
O O1 0.337339 0.516792 0.172745
O O2 0.559966 0.562277 0.303900
O O3 0.500000 0.500000 0.000000
O O4 0.136225 0.819936 0.178828
O O5 0.686441 0.819405 0.292749
O O6 0.864878 0.889289 0.405779
O O7 0.915703 0.731658 0.100227
O O8 0.500778 0.091298 0.219356
O O9 0.229182 0.392330 0.605082
O O10 0.650818 0.076442 0.674071
O O11 0.293526 0.395049 0.890412
O O12 0.674818 0.124016 0.141054
O O13 0.212736 0.403609 0.128370
O O14 0.385422 0.357496 0.397830
O O15 0.916131 0.139631 0.310726
O O16 0.000000 0.000000 0.000000
O O17 0.021063 0.698306 0.580163
#
# Coordination Sequence:
#
# PCOD9069129 Si02
#       8
#     2   2   2   2   2   2   2   2
#     4  12  22  43  70 104 142 180 224 290 357 427
#     4  12  27  47  72 102 143 191 240 296 345 411
#     4  12  27  48  72 102 143 188 247 291 344 416
#     4  12  26  45  73 105 143 181 233 291 358 424
#     4  12  25  43  72 109 145 182 227 289 364 428
#     4  12  26  46  71 106 144 185 234 292 359 422
#     4  12  26  43  75 107 138 186 234 291 357 421
#     4  12  25  46  72 105 141 187 235 293 352 416
#
# _framework density 24.546458999999999
#
# number of rings (size 3 to 8) (size 9 to 14) (size 15 to 20)
#    0.000    0.000    6.250    3.750    1.750    5.000 
#    0.000    0.000    0.000    0.000    0.000    0.000 
#    0.000    0.000    0.000    0.000    0.000    0.000 
#
# Total GULP energy -89666.334494 kJ/mol
# GULP energy per Si atom -5604.145906 kJ/mol
# Density = 2.449059 g / cm^3
# Si number density = 24.546459 Si / 1000 Ang^3
#
#
#
# Elastic Constant Matrix: (Units=GPa)
#
#
# Indices 1 2 3 4 5 6 
#
# 1 69.7954 3.9544 13.8195 4.8584 5.5002 27.0370
# 2 3.9544 162.8385 26.0210 8.4732 -8.3527 24.3281
# 3 13.8195 26.0210 136.8914 12.6109 -4.8433 -3.1392
# 4 4.8584 8.4732 12.6109 39.8069 1.0637 -6.4900
# 5 5.5002 -8.3527 -4.8433 1.0637 30.1370 -6.7793
# 6 27.0370 24.3281 -3.1392 -6.4900 -6.7793 33.4498
#
#
#
# Elastic Compliance Matrix: (Units=1/GPa)
#
#
# Indices 1 2 3 4 5 6 
#
# 1 0.027660 0.004193 -0.003956 -0.007524 -0.010879 -0.029442
# 2 0.004193 0.007987 -0.001914 -0.003244 -0.001043 -0.010218
# 3 -0.003956 -0.001914 0.008385 -0.000900 0.002872 0.005784
# 4 -0.007524 -0.003244 -0.000900 0.029321 0.002572 0.014567
# 5 -0.010879 -0.001043 0.002872 0.002572 0.039365 0.018299
# 6 -0.029442 -0.010218 0.005784 0.014567 0.018299 0.068203
#
#
# Mechanical properties :
#
#
# Convention : Reuss Voigt Hill
#
# Bulk Modulus (GPa) = 24.58373 50.79055 37.68714
# Shear Modulus (GPa) = 25.27349 42.39410 33.83379
#
# Velocity S-wave (km/s) = 3.21225 4.16034 3.71665
# Velocity P-wave (km/s) = 4.87801 6.61925 5.81418
#
# Compressibility (1/GPa) = 0.04067731
#
# Stress axis : x y z
#
# Youngs Moduli (GPa) = 36.15361 125.20455 119.25460
#
# Poissons Ratio (x) = -0.52494 0.47179
# Poissons Ratio (y) = -0.15158 0.22824
# Poissons Ratio (z) = 0.14303 0.23963
#
# Static dielectric constant tensor:
#      x y z
#    x 2.027850 0.000680 0.006060 
#    y 0.000680 1.925160 -0.016960 
#    z 0.006060 -0.016960 1.895790 
# 
# From -- ./inp_files/225884.got.cif
#   From: 2010.05.17/outbox.cif.g08.bks.cpg/sg2_113_cif.got.tgz:225884.got - 2010.06.03 11:33:40.
