data_PCOD9069020
_publ_section_title
;
Structure prediction by ZEFSAII (Michael W. Deem and Ramdas Pophale) SiO2 
 PCOD9069020
Probable space group: P -1
;
_chemical_formula_sum "Si O2"
_cell_formula_units_Z 14
_cell_length_a 25.250142
_cell_length_b 24.819673
_cell_length_c 14.726630
_cell_angle_alpha 159.009377
_cell_angle_beta 20.495896
_cell_angle_gamma 168.926961
_cell_volume 606.288221
_symmetry_space_group_name_H-M "P -1"
_symmetry_group_IT_number 2
_symmetry_cell_setting 'triclinic'
loop_
_space_group_symop_operation_xyz
x,y,z
-x,-y,-z
loop_
_atom_site_type_symbol
_atom_site_label
_atom_site_fract_x
_atom_site_fract_y
_atom_site_fract_z
Si Si1 0.938317 0.531472 0.829963
Si Si2 0.725116 0.640702 0.437587
Si Si3 0.482668 0.078986 0.407781
Si Si4 0.250326 0.786329 0.991954
Si Si5 0.652485 0.296731 0.721093
Si Si6 0.884934 0.071479 0.099008
Si Si7 0.819712 0.921324 0.469299
O O1 0.739105 0.246405 0.755584
O O2 0.797043 0.428519 0.795888
O O3 0.909428 0.664284 0.134320
O O4 0.268851 0.757744 0.662064
O O5 0.500000 0.500000 0.500000
O O6 0.506209 0.398697 0.486356
O O7 0.968963 0.944767 0.574993
O O8 0.290925 0.048394 0.713210
O O9 0.648885 0.224821 0.275198
O O10 0.171302 0.891047 0.258170
O O11 0.000000 0.500000 0.000000
O O12 0.500000 0.000000 0.000000
O O13 0.908254 0.607555 0.745193
O O14 0.500000 0.000000 0.500000
O O15 0.369385 0.147900 0.912574
O O16 0.071091 0.080203 0.795598
#
# Coordination Sequence:
#
# PCOD9069020 Si02
#       7
#     2   2   2   2   2   2   2
#     4  12  22  40  65  98 143 187 245 282 328 410
#     4  12  23  41  67 102 148 193 235 281 346 425
#     4  12  25  43  70 100 136 180 237 296 353 423
#     4  12  26  50  78 104 132 181 246 310 376 424
#     4  12  25  41  62 103 151 202 243 272 329 427
#     4  12  26  43  66 102 151 190 230 291 354 411
#     4  12  25  47  69 105 144 185 236 297 360 425
#
# _framework density 23.091329000000002
#
# number of rings (size 3 to 8) (size 9 to 14) (size 15 to 20)
#    0.000    0.000    4.286    6.857    0.000    0.000 
#    0.000    1.429    0.000    0.000    0.000    0.000 
#    0.000    0.000    0.000    0.000    0.000    0.000 
#
# Total GULP energy -78137.731346 kJ/mol
# GULP energy per Si atom -5581.266525 kJ/mol
# Density = 2.303877 g / cm^3
# Si number density = 23.091329 Si / 1000 Ang^3
#
#
#
# Elastic Constant Matrix: (Units=GPa)
#
#
# Indices 1 2 3 4 5 6 
#
# 1 80.9557 33.4982 29.5405 -5.5358 20.9827 -0.1338
# 2 33.4982 168.6143 23.7745 -10.3529 12.9233 -4.7815
# 3 29.5405 23.7745 139.7464 -16.3790 30.4013 -10.1861
# 4 -5.5358 -10.3529 -16.3790 27.5185 0.9829 8.0846
# 5 20.9827 12.9233 30.4013 0.9829 32.4807 -3.7073
# 6 -0.1338 -4.7815 -10.1861 8.0846 -3.7073 42.1291
#
#
#
# Elastic Compliance Matrix: (Units=1/GPa)
#
#
# Indices 1 2 3 4 5 6 
#
# 1 0.016119 -0.002275 -0.000881 0.002689 -0.008961 -0.001725
# 2 -0.002275 0.006609 -0.000183 0.001883 -0.001017 0.000248
# 3 -0.000881 -0.000183 0.010029 0.005896 -0.008867 0.000490
# 4 0.002689 0.001883 0.005896 0.043706 -0.010199 -0.007637
# 5 -0.008961 -0.001017 -0.008867 -0.010199 0.046013 0.003719
# 6 -0.001725 0.000248 0.000490 -0.007637 0.003719 0.025670
#
#
# Mechanical properties :
#
#
# Convention : Reuss Voigt Hill
#
# Bulk Modulus (GPa) = 38.34751 62.54922 50.44837
# Shear Modulus (GPa) = 30.57748 40.59253 35.58501
#
# Velocity S-wave (km/s) = 3.64290 4.19730 3.92989
# Velocity P-wave (km/s) = 5.85980 7.11592 6.51819
#
# Compressibility (1/GPa) = 0.02607731
#
# Stress axis : x y z
#
# Youngs Moduli (GPa) = 62.03840 151.30577 99.71013
#
# Poissons Ratio (x) = 0.34423 0.08789
# Poissons Ratio (y) = 0.14114 0.01829
# Poissons Ratio (z) = 0.05468 0.02776
#
# Static dielectric constant tensor:
#      x y z
#    x 1.884660 0.001800 0.026300 
#    y 0.001800 1.822880 -0.018340 
#    z 0.026300 -0.018340 1.912530 
# 
# From -- ./inp_files/544589.got.cif
#   From: 2010.05.17/outbox.cif.g08.bks.cpg/sg2_273_cif.got.tgz:544589.got - 2010.06.03 11:33:40.
