data_PCOD9069038
_publ_section_title
;
Structure prediction by ZEFSAII (Michael W. Deem and Ramdas Pophale) SiO2 
 PCOD9069038
Probable space group: P -1
;
_chemical_formula_sum "Si O2"
_cell_formula_units_Z 14
_cell_length_a 11.181573
_cell_length_b 11.343894
_cell_length_c 7.588098
_cell_angle_alpha 87.768857
_cell_angle_beta 135.547448
_cell_angle_gamma 65.882446
_cell_volume 526.526696
_symmetry_space_group_name_H-M "P -1"
_symmetry_group_IT_number 2
_symmetry_cell_setting 'triclinic'
loop_
_space_group_symop_operation_xyz
x,y,z
-x,-y,-z
loop_
_atom_site_type_symbol
_atom_site_label
_atom_site_fract_x
_atom_site_fract_y
_atom_site_fract_z
Si Si1 0.794350 0.085778 0.647556
Si Si2 0.047085 0.104846 0.638034
Si Si3 0.721492 0.863115 0.641512
Si Si4 0.370044 0.353994 0.063147
Si Si5 0.485511 0.796625 0.158217
Si Si6 0.009487 0.646869 0.278272
Si Si7 0.493980 0.548724 0.291589
O O1 0.539009 0.229019 0.396275
O O2 0.790460 0.949552 0.596139
O O3 0.862682 0.162602 0.588568
O O4 0.000000 0.000000 0.000000
O O5 0.025478 0.254640 0.592039
O O6 0.299387 0.976461 0.957272
O O7 0.000000 0.000000 0.500000
O O8 0.675680 0.771557 0.475693
O O9 0.500000 0.000000 0.500000
O O10 0.896384 0.757343 0.982279
O O11 0.394129 0.483785 0.081904
O O12 0.448760 0.262654 0.967901
O O13 0.127773 0.412989 0.839674
O O14 0.377434 0.724309 0.130604
O O15 0.262704 0.524002 0.511778
O O16 0.500000 0.500000 0.500000
#
# Coordination Sequence:
#
# PCOD9069038 Si02
#       7
#     2   2   2   2   2   2   2
#     4  12  22  40  71 105 146 185 232 298 359 415
#     4  12  24  42  73 108 145 184 239 298 368 425
#     4  12  23  41  71 106 145 184 243 299 357 430
#     4  12  26  48  75 105 152 189 245 301 360 438
#     4  12  27  46  71 110 145 194 240 300 369 429
#     4  12  26  48  74 107 145 192 247 299 364 437
#     4  12  29  51  75 102 147 193 248 302 365 437
#
# _framework density 26.589343
#
# number of rings (size 3 to 8) (size 9 to 14) (size 15 to 20)
#    0.000    0.000    7.143    1.286    6.000    4.000 
#    0.000    0.000    0.000    0.000    0.000    0.000 
#    0.000    0.000    0.000    0.000    0.000    0.000 
#
# Total GULP energy -78271.998435 kJ/mol
# GULP energy per Si atom -5590.857031 kJ/mol
# Density = 2.652882 g / cm^3
# Si number density = 26.589343 Si / 1000 Ang^3
#
#
#
# Elastic Constant Matrix: (Units=GPa)
#
#
# Indices 1 2 3 4 5 6 
#
# 1 87.0682 28.7556 25.1738 9.5332 28.5525 11.3499
# 2 28.7556 138.5403 57.0793 36.5974 10.6269 16.0976
# 3 25.1738 57.0793 130.0019 17.8706 13.8002 -0.7372
# 4 9.5332 36.5974 17.8706 60.3551 11.1562 6.0753
# 5 28.5525 10.6269 13.8002 11.1562 40.5659 5.7397
# 6 11.3499 16.0976 -0.7372 6.0753 5.7397 42.0646
#
#
#
# Elastic Compliance Matrix: (Units=1/GPa)
#
#
# Indices 1 2 3 4 5 6 
#
# 1 0.016113 -0.002074 -0.001294 0.001248 -0.010370 -0.002342
# 2 -0.002074 0.010812 -0.003852 -0.005101 0.001786 -0.003153
# 3 -0.001294 -0.003852 0.009866 -0.000300 -0.001675 0.002268
# 4 0.001248 -0.005101 -0.000300 0.020545 -0.004994 -0.000676
# 5 -0.010370 0.001786 -0.001675 -0.004994 0.033679 -0.001789
# 6 -0.002342 -0.003153 0.002268 -0.000676 -0.001789 0.025993
#
#
# Mechanical properties :
#
#
# Convention : Reuss Voigt Hill
#
# Bulk Modulus (GPa) = 44.73693 64.18086 54.45890
# Shear Modulus (GPa) = 35.99765 44.90391 40.45078
#
# Velocity S-wave (km/s) = 3.68345 4.11395 3.90464
# Velocity P-wave (km/s) = 5.91202 6.83786 6.39173
#
# Compressibility (1/GPa) = 0.02235289
#
# Stress axis : x y z
#
# Youngs Moduli (GPa) = 62.05979 92.48619 101.35874
#
# Poissons Ratio (x) = 0.19177 0.13114
# Poissons Ratio (y) = 0.12868 0.39045
# Poissons Ratio (z) = 0.08030 0.35627
#
# Static dielectric constant tensor:
#      x y z
#    x 2.255300 -0.089830 -0.108000 
#    y -0.089830 2.182580 0.015470 
#    z -0.108000 0.015470 2.183080 
# 
# From -- ./inp_files/258664.got.cif
#   From: 2010.05.17/outbox.cif.g08.bks.cpg/sg2_130_cif.got.tgz:258664.got - 2010.06.03 11:33:40.
