data_PCOD9069962
_publ_section_title
;
Structure prediction by ZEFSAII (Michael W. Deem and Ramdas Pophale) SiO2 
 PCOD9069962
Probable space group: P -1
;
_chemical_formula_sum "Si O2"
_cell_formula_units_Z 12
_cell_length_a 27.511422
_cell_length_b 24.650511
_cell_length_c 22.675673
_cell_angle_alpha 11.638667
_cell_angle_beta 168.430605
_cell_angle_gamma 169.484293
_cell_volume 504.654985
_symmetry_space_group_name_H-M "P -1"
_symmetry_group_IT_number 2
_symmetry_cell_setting 'triclinic'
loop_
_space_group_symop_operation_xyz
x,y,z
-x,-y,-z
loop_
_atom_site_type_symbol
_atom_site_label
_atom_site_fract_x
_atom_site_fract_y
_atom_site_fract_z
Si Si1 0.453785 0.497886 0.596863
Si Si2 0.938878 0.349895 0.822574
Si Si3 0.862380 0.700679 0.109223
Si Si4 0.694305 0.391456 0.818558
Si Si5 0.274857 0.789459 0.162567
Si Si6 0.847011 0.864777 0.126143
O O1 0.261334 0.477692 0.334815
O O2 0.494596 0.756648 0.418110
O O3 0.783714 0.603506 0.862099
O O4 0.304739 0.129356 0.835167
O O5 0.713363 0.279348 0.682071
O O6 0.006275 0.677905 0.523095
O O7 0.851041 0.072460 0.965379
O O8 0.000000 0.500000 0.500000
O O9 0.505366 0.441441 0.972351
O O10 0.000000 0.000000 0.000000
O O11 0.985306 0.877547 0.002958
O O12 0.500000 0.500000 0.500000
O O13 0.971639 0.522228 0.051404
O O14 0.500000 0.000000 0.000000
#
# Coordination Sequence:
#
# PCOD9069962 Si02
#       6
#     2   2   2   2   2   2
#     4  12  26  45  71  97 142 194 253 306 379 434
#     4  12  28  46  70 110 154 191 240 307 368 456
#     4  12  26  52  82 114 152 195 246 299 360 440
#     4  12  24  44  68  97 135 188 256 321 366 431
#     4  12  26  45  71  97 142 194 253 306 379 434
#     4  12  28  47  80 117 156 195 246 301 370 447
#
# _framework density 23.778621999999999
#
# number of rings (size 3 to 8) (size 9 to 14) (size 15 to 20)
#    0.000    0.000    1.667    8.000    9.333    0.000 
#    0.000    0.000    0.000    0.000    0.000    0.000 
#    0.000    0.000    0.000    0.000    0.000    0.000 
#
# Total GULP energy -67147.080045 kJ/mol
# GULP energy per Si atom -5595.590004 kJ/mol
# Density = 2.372450 g / cm^3
# Si number density = 23.778622 Si / 1000 Ang^3
#
#
#
# Elastic Constant Matrix: (Units=GPa)
#
#
# Indices 1 2 3 4 5 6 
#
# 1 134.8311 16.8295 29.9248 -8.1733 -4.0440 -5.9327
# 2 16.8295 115.5024 23.6069 -2.2442 -1.8007 -12.8714
# 3 29.9248 23.6069 136.2925 -24.0511 10.3976 -2.6402
# 4 -8.1733 -2.2442 -24.0511 45.6903 11.1133 6.0423
# 5 -4.0440 -1.8007 10.3976 11.1133 39.1712 -14.0567
# 6 -5.9327 -12.8714 -2.6402 6.0423 -14.0567 46.8562
#
#
#
# Elastic Compliance Matrix: (Units=1/GPa)
#
#
# Indices 1 2 3 4 5 6 
#
# 1 0.007992 -0.000632 -0.001780 -0.000139 0.001770 0.001287
# 2 -0.000632 0.009542 -0.001961 -0.001774 0.002635 0.003450
# 3 -0.001780 -0.001961 0.009559 0.006334 -0.005583 -0.002717
# 4 -0.000139 -0.001774 0.006334 0.029270 -0.012875 -0.007785
# 5 0.001770 0.002635 -0.005583 -0.012875 0.035626 0.012981
# 6 0.001287 0.003450 -0.002717 -0.007785 0.012981 0.027198
#
#
# Mechanical properties :
#
#
# Convention : Reuss Voigt Hill
#
# Bulk Modulus (GPa) = 54.50821 58.59427 56.55124
# Shear Modulus (GPa) = 37.30004 47.42787 42.36395
#
# Velocity S-wave (km/s) = 3.96490 4.47089 4.22548
# Velocity P-wave (km/s) = 6.62824 7.16568 6.90219
#
# Compressibility (1/GPa) = 0.01834586
#
# Stress axis : x y z
#
# Youngs Moduli (GPa) = 125.12663 104.80121 104.61650
#
# Poissons Ratio (x) = 0.06628 0.18619
# Poissons Ratio (y) = 0.07914 0.20517
# Poissons Ratio (z) = 0.22269 0.20553
#
# Static dielectric constant tensor:
#      x y z
#    x 2.045500 0.165600 -0.142040 
#    y 0.165600 2.003730 -0.018670 
#    z -0.142040 -0.018670 1.987420 
# 
# From -- ./inp_files/102600.got.cif
#   From: 2010.05.17/outbox.cif.g08.bks.cpg/sg2_52_cif.got.tgz:102600.got - 2010.06.03 11:33:40.
