data_PCOD9069032
_publ_section_title
;
Structure prediction by ZEFSAII (Michael W. Deem and Ramdas Pophale) SiO2 
 PCOD9069032
Probable space group: P -1
;
_chemical_formula_sum "Si O2"
_cell_formula_units_Z 12
_cell_length_a 5.952755
_cell_length_b 15.841047
_cell_length_c 11.838264
_cell_angle_alpha 151.586225
_cell_angle_beta 83.821034
_cell_angle_gamma 105.850089
_cell_volume 489.085775
_symmetry_space_group_name_H-M "P -1"
_symmetry_group_IT_number 2
_symmetry_cell_setting 'triclinic'
loop_
_space_group_symop_operation_xyz
x,y,z
-x,-y,-z
loop_
_atom_site_type_symbol
_atom_site_label
_atom_site_fract_x
_atom_site_fract_y
_atom_site_fract_z
Si Si1 0.149647 0.147126 0.929647
Si Si2 0.226288 0.554464 0.372886
Si Si3 0.232828 0.939444 0.883517
Si Si4 0.402247 0.169016 0.712347
Si Si5 0.108196 0.497692 0.868999
Si Si6 0.713819 0.817562 0.527075
O O1 0.202439 0.120990 0.764076
O O2 0.282656 0.042131 0.878035
O O3 0.240281 0.371379 0.220111
O O4 0.856913 0.031499 0.815563
O O5 0.137718 0.707441 0.618272
O O6 0.477680 0.693837 0.465419
O O7 0.043491 0.452742 0.160805
O O8 0.500000 0.000000 0.000000
O O9 0.000000 0.000000 0.000000
O O10 0.339417 0.198855 0.622715
O O11 0.500000 0.000000 0.500000
O O12 0.615411 0.358217 0.969159
O O13 0.098645 0.288907 0.594322
O O14 0.000000 0.500000 0.000000
#
# Coordination Sequence:
#
# PCOD9069032 Si02
#       6
#     2   2   2   2   2   2
#     4  12  26  48  78 113 149 208 266 320 396 478
#     4  12  26  49  79 111 156 205 258 324 397 474
#     4  12  30  56  83 112 153 204 272 353 408 455
#     4  12  23  39  69 111 161 210 255 304 380 484
#     4  12  22  40  69 108 160 208 241 302 381 461
#     4  12  23  46  68 109 170 199 248 314 378 474
#
# _framework density 24.535572999999999
#
# number of rings (size 3 to 8) (size 9 to 14) (size 15 to 20)
#    0.000    0.000    5.000    6.000    0.000    2.667 
#    0.000    0.000    0.000    0.000    0.000    0.000 
#    0.000    0.000    0.000    0.000    0.000    0.000 
#
# Total GULP energy -67091.328259 kJ/mol
# GULP energy per Si atom -5590.944022 kJ/mol
# Density = 2.447973 g / cm^3
# Si number density = 24.535573 Si / 1000 Ang^3
#
#
#
# Elastic Constant Matrix: (Units=GPa)
#
#
# Indices 1 2 3 4 5 6 
#
# 1 114.9764 42.6588 49.4366 4.5580 8.1708 2.7366
# 2 42.6588 70.5421 41.2227 17.0228 11.0462 -3.8365
# 3 49.4366 41.2227 147.0410 27.0200 -6.1677 -10.0219
# 4 4.5580 17.0228 27.0200 40.5994 -2.6536 -4.0814
# 5 8.1708 11.0462 -6.1677 -2.6536 64.9233 -0.6501
# 6 2.7366 -3.8365 -10.0219 -4.0814 -0.6501 43.8660
#
#
#
# Elastic Compliance Matrix: (Units=1/GPa)
#
#
# Indices 1 2 3 4 5 6 
#
# 1 0.012372 -0.006434 -0.003079 0.003140 -0.000644 -0.001756
# 2 -0.006434 0.021937 -0.002829 -0.006718 -0.003456 0.000997
# 3 -0.003079 -0.002829 0.009665 -0.004619 0.001616 0.001747
# 4 0.003140 -0.006718 -0.004619 0.030373 0.001561 0.001010
# 5 -0.000644 -0.003456 0.001616 0.001561 0.016294 0.000494
# 6 -0.001756 0.000997 0.001747 0.001010 0.000494 0.023494
#
#
# Mechanical properties :
#
#
# Convention : Reuss Voigt Hill
#
# Bulk Modulus (GPa) = 51.84572 66.57729 59.21150
# Shear Modulus (GPa) = 34.42354 43.16052 38.79203
#
# Velocity S-wave (km/s) = 3.74973 4.19871 3.98056
# Velocity P-wave (km/s) = 6.31855 7.12036 6.73140
#
# Compressibility (1/GPa) = 0.01928800
#
# Stress axis : x y z
#
# Youngs Moduli (GPa) = 80.82871 45.58531 103.46751
#
# Poissons Ratio (x) = 0.29332 0.31860
# Poissons Ratio (y) = 0.52009 0.29272
# Poissons Ratio (z) = 0.24889 0.12897
#
# Static dielectric constant tensor:
#      x y z
#    x 2.084200 0.040550 0.010940 
#    y 0.040550 2.159850 -0.038630 
#    z 0.010940 -0.038630 2.229700 
# 
# From -- ./inp_files/41129.got.cif
#   From: 2010.05.17/outbox.cif.g08.bks.cpg/sg2_21_cif.got.tgz:41129.got - 2010.06.03 11:33:40.
