data_PCOD9069643
_publ_section_title
;
Structure prediction by ZEFSAII (Michael W. Deem and Ramdas Pophale) SiO2 
 PCOD9069643
Probable space group: P -1
;
_chemical_formula_sum "Si O2"
_cell_formula_units_Z 16
_cell_length_a 14.473509
_cell_length_b 11.697920
_cell_length_c 18.665852
_cell_angle_alpha 154.311629
_cell_angle_beta 29.971521
_cell_angle_gamma 136.275649
_cell_volume 659.382810
_symmetry_space_group_name_H-M "P -1"
_symmetry_group_IT_number 2
_symmetry_cell_setting 'triclinic'
loop_
_space_group_symop_operation_xyz
x,y,z
-x,-y,-z
loop_
_atom_site_type_symbol
_atom_site_label
_atom_site_fract_x
_atom_site_fract_y
_atom_site_fract_z
Si Si1 0.465041 0.122973 0.411250
Si Si2 0.152531 0.186944 0.937073
Si Si3 0.125661 0.403962 0.547285
Si Si4 0.393178 0.542980 0.910165
Si Si5 0.201634 0.718793 0.540011
Si Si6 0.745257 0.280632 0.050429
Si Si7 0.117814 0.886545 0.540849
Si Si8 0.510165 0.953866 0.813609
O O1 0.347930 0.420636 0.685989
O O2 0.508195 0.133975 0.304653
O O3 0.322421 0.930276 0.409258
O O4 0.662348 0.001324 0.252377
O O5 0.987287 0.326399 0.181957
O O6 0.222829 0.430853 0.990706
O O7 0.096359 0.003467 0.809406
O O8 0.196593 0.489478 0.471878
O O9 0.300949 0.242035 0.386637
O O10 0.977059 0.230313 0.527590
O O11 0.574954 0.292079 0.627406
O O12 0.336282 0.711001 0.970342
O O13 0.462383 0.742377 0.030281
O O14 0.130858 0.696131 0.494587
O O15 0.667913 0.073661 0.034689
O O16 0.972363 0.171833 0.825329
#
# Coordination Sequence:
#
# PCOD9069643 Si02
#       8
#     2   2   2   2   2   2   2   2
#     4  12  27  46  68 103 139 179 224 278 339 405
#     4  12  27  45  71 100 139 181 222 279 342 398
#     4  12  27  46  68 103 139 179 224 278 339 405
#     4  12  23  46  73  94 136 180 228 276 333 398
#     4  12  25  47  72 100 135 179 229 281 334 400
#     4  12  25  47  72 100 135 179 229 281 334 400
#     4  12  27  44  71 104 134 178 230 278 337 396
#     4  12  27  45  71 100 139 181 222 279 342 398
#
# _framework density 24.265115999999999
#
# number of rings (size 3 to 8) (size 9 to 14) (size 15 to 20)
#    0.000    0.000    5.000    4.500    7.000    2.000 
#    0.000    0.000    0.000    0.000    0.000    0.000 
#    0.000    0.000    0.000    0.000    0.000    0.000 
#
# Total GULP energy -89688.233546 kJ/mol
# GULP energy per Si atom -5605.514597 kJ/mol
# Density = 2.420989 g / cm^3
# Si number density = 24.265116 Si / 1000 Ang^3
#
#
#
# Elastic Constant Matrix: (Units=GPa)
#
#
# Indices 1 2 3 4 5 6 
#
# 1 90.6223 -9.6604 21.9251 -9.0826 7.6007 -9.0190
# 2 -9.6604 59.7230 2.4344 -10.3879 -2.9824 6.6948
# 3 21.9251 2.4344 93.7599 -0.7967 6.0904 -16.1278
# 4 -9.0826 -10.3879 -0.7967 36.8884 4.9292 5.9820
# 5 7.6007 -2.9824 6.0904 4.9292 29.1001 0.7071
# 6 -9.0190 6.6948 -16.1278 5.9820 0.7071 26.4541
#
#
#
# Elastic Compliance Matrix: (Units=1/GPa)
#
#
# Indices 1 2 3 4 5 6 
#
# 1 0.012735 0.002557 -0.002576 0.004022 -0.003238 0.001301
# 2 0.002557 0.019305 -0.002298 0.007054 0.000768 -0.007031
# 3 -0.002576 -0.002298 0.012830 -0.002028 -0.002100 0.008040
# 4 0.004022 0.007054 -0.002028 0.032152 -0.005136 -0.008783
# 5 -0.003238 0.000768 -0.002100 -0.005136 0.036656 -0.002397
# 6 0.001301 -0.007031 0.008040 -0.008783 -0.002397 0.046976
#
#
# Mechanical properties :
#
#
# Convention : Reuss Voigt Hill
#
# Bulk Modulus (GPa) = 24.85469 30.38926 27.62197
# Shear Modulus (GPa) = 27.97994 33.78227 30.88110
#
# Velocity S-wave (km/s) = 3.39941 3.73529 3.57130
# Velocity P-wave (km/s) = 5.06687 5.58159 5.33045
#
# Compressibility (1/GPa) = 0.04023386
#
# Stress axis : x y z
#
# Youngs Moduli (GPa) = 78.52530 51.80128 77.94431
#
# Poissons Ratio (x) = -0.13245 0.20078
# Poissons Ratio (y) = -0.20078 0.17915
# Poissons Ratio (z) = 0.20228 0.11906
#
# Static dielectric constant tensor:
#      x y z
#    x 1.883460 -0.000390 -0.015560 
#    y -0.000390 1.928060 0.041050 
#    z -0.015560 0.041050 1.913620 
# 
# From -- ./inp_files/573641.got.cif
#   From: 2010.05.17/outbox.cif.g08.bks.cpg/sg2_287_cif.got.tgz:573641.got - 2010.06.03 11:33:40.
