data_PCOD9069766
_publ_section_title
;
Structure prediction by ZEFSAII (Michael W. Deem and Ramdas Pophale) SiO2 
 PCOD9069766
Probable space group: P -1
;
_chemical_formula_sum "Si O2"
_cell_formula_units_Z 16
_cell_length_a 8.948181
_cell_length_b 9.080338
_cell_length_c 14.841647
_cell_angle_alpha 139.876867
_cell_angle_beta 111.088697
_cell_angle_gamma 66.211058
_cell_volume 708.403640
_symmetry_space_group_name_H-M "P -1"
_symmetry_group_IT_number 2
_symmetry_cell_setting 'triclinic'
loop_
_space_group_symop_operation_xyz
x,y,z
-x,-y,-z
loop_
_atom_site_type_symbol
_atom_site_label
_atom_site_fract_x
_atom_site_fract_y
_atom_site_fract_z
Si Si1 0.333120 0.970699 0.495932
Si Si2 0.194755 0.062153 0.325699
Si Si3 0.182763 0.044084 0.040784
Si Si4 0.823634 0.418889 0.669575
Si Si5 0.321242 0.663731 0.034522
Si Si6 0.326313 0.498584 0.505145
Si Si7 0.825857 0.092239 0.226114
Si Si8 0.166706 0.238845 0.754130
O O1 0.319049 0.703331 0.381930
O O2 0.500000 0.000000 0.500000
O O3 0.197549 0.069485 0.437240
O O4 0.294133 0.105372 0.644778
O O5 0.302722 0.240876 0.399524
O O6 0.011254 0.131906 0.281139
O O7 0.270555 0.806103 0.182309
O O8 0.216402 0.999688 0.922071
O O9 0.195488 0.307392 0.188622
O O10 0.301290 0.860600 0.044729
O O11 0.000000 0.000000 0.000000
O O12 0.812790 0.392506 0.547402
O O13 0.990600 0.284410 0.688823
O O14 0.500000 0.500000 0.000000
O O15 0.201407 0.490817 0.904408
O O16 0.500000 0.500000 0.500000
O O17 0.293544 0.664401 0.661471
O O18 0.822873 0.910898 0.222272
#
# Coordination Sequence:
#
# PCOD9069766 Si02
#       8
#     2   2   2   2   2   2   2   2
#     4  12  26  45  71 110 152 199 249 314 382 444
#     4  12  25  46  76 107 147 202 253 302 382 449
#     4  12  25  50  78 112 149 198 256 311 376 461
#     4  12  23  48  78 103 152 200 256 309 374 459
#     4  12  28  49  77 109 155 193 249 321 381 446
#     4  12  27  47  72 107 157 198 252 323 377 441
#     4  12  26  47  78 113 147 199 255 310 375 456
#     4  12  26  47  75 110 150 196 255 310 377 456
#
# _framework density 22.585992999999998
#
# number of rings (size 3 to 8) (size 9 to 14) (size 15 to 20)
#    0.000    0.000    6.250    3.000    5.250    1.000 
#    2.250    1.250    0.000    0.000    0.000    0.000 
#    0.000    0.000    0.000    0.000    0.000    0.000 
#
# Total GULP energy -89625.038910 kJ/mol
# GULP energy per Si atom -5601.564932 kJ/mol
# Density = 2.253459 g / cm^3
# Si number density = 22.585993 Si / 1000 Ang^3
#
#
#
# Elastic Constant Matrix: (Units=GPa)
#
#
# Indices 1 2 3 4 5 6 
#
# 1 98.5427 31.5986 38.9454 28.4634 -8.0710 13.4261
# 2 31.5986 97.5039 37.9862 -1.0635 -0.0453 9.6186
# 3 38.9454 37.9862 118.9754 19.1047 -14.5477 35.7696
# 4 28.4634 -1.0635 19.1047 50.7572 13.4577 1.8777
# 5 -8.0710 -0.0453 -14.5477 13.4577 37.1368 8.9167
# 6 13.4261 9.6186 35.7696 1.8777 8.9167 40.5617
#
#
#
# Elastic Compliance Matrix: (Units=1/GPa)
#
#
# Indices 1 2 3 4 5 6 
#
# 1 0.016887 -0.005654 0.002134 -0.013051 0.011143 -0.007976
# 2 -0.005654 0.014207 -0.006701 0.007924 -0.008107 0.005827
# 3 0.002134 -0.006701 0.020223 -0.012956 0.017946 -0.020296
# 4 -0.013051 0.007924 -0.012956 0.038314 -0.026066 0.017822
# 5 0.011143 -0.008107 0.017946 -0.026066 0.052521 -0.027931
# 6 -0.007976 0.005827 -0.020296 0.017822 -0.027931 0.049125
#
#
# Mechanical properties :
#
#
# Convention : Reuss Voigt Hill
#
# Bulk Modulus (GPa) = 32.39017 59.12028 45.75523
# Shear Modulus (GPa) = 22.52145 39.45726 30.98936
#
# Velocity S-wave (km/s) = 3.16118 4.18422 3.70815
# Velocity P-wave (km/s) = 5.26270 7.04103 6.21579
#
# Compressibility (1/GPa) = 0.03087356
#
# Stress axis : x y z
#
# Youngs Moduli (GPa) = 59.21853 70.38919 49.44923
#
# Poissons Ratio (x) = 0.39799 -0.10551
# Poissons Ratio (y) = 0.33483 0.33135
# Poissons Ratio (z) = -0.12635 0.47166
#
# Static dielectric constant tensor:
#      x y z
#    x 1.834890 -0.023300 0.026360 
#    y -0.023300 1.868890 -0.024490 
#    z 0.026360 -0.024490 1.801120 
# 
# From -- ./inp_files/495916.got.cif
#   From: 2010.05.17/outbox.cif.g08.bks.cpg/sg2_248_cif.got.tgz:495916.got - 2010.06.03 11:33:40.
