data_PCOD9069698
_publ_section_title
;
Structure prediction by ZEFSAII (Michael W. Deem and Ramdas Pophale) SiO2 
 PCOD9069698
Probable space group: P -1
;
_chemical_formula_sum "Si O2"
_cell_formula_units_Z 16
_cell_length_a 9.047104
_cell_length_b 17.312369
_cell_length_c 11.824544
_cell_angle_alpha 126.015027
_cell_angle_beta 95.515848
_cell_angle_gamma 40.410526
_cell_volume 720.464623
_symmetry_space_group_name_H-M "P -1"
_symmetry_group_IT_number 2
_symmetry_cell_setting 'triclinic'
loop_
_space_group_symop_operation_xyz
x,y,z
-x,-y,-z
loop_
_atom_site_type_symbol
_atom_site_label
_atom_site_fract_x
_atom_site_fract_y
_atom_site_fract_z
Si Si1 0.759963 0.995966 0.284313
Si Si2 0.375025 0.921311 0.215634
Si Si3 0.726697 0.223628 0.487021
Si Si4 0.338139 0.192721 0.633767
Si Si5 0.640614 0.587847 0.832406
Si Si6 0.217683 0.471189 0.471039
Si Si7 0.380689 0.551928 0.909211
Si Si8 0.617261 0.910516 0.809043
O O1 0.891988 0.027125 0.338506
O O2 0.529449 0.121705 0.480511
O O3 0.546820 0.094831 0.246426
O O4 0.018754 0.769832 0.092248
O O5 0.585178 0.796898 0.235769
O O6 0.449004 0.971806 0.188263
O O7 0.450987 0.784835 0.032795
O O8 0.015286 0.129942 0.403494
O O9 0.486286 0.340663 0.468531
O O10 0.528336 0.375055 0.708923
O O11 0.982758 0.392165 0.744409
O O12 0.500000 0.000000 0.500000
O O13 0.667493 0.587683 0.699983
O O14 0.478401 0.582377 0.857911
O O15 0.000000 0.500000 0.500000
O O16 0.978675 0.692613 0.655227
O O17 0.500000 0.500000 0.000000
O O18 0.500000 0.000000 0.000000
#
# Coordination Sequence:
#
# PCOD9069698 Si02
#       8
#     2   2   2   2   2   2   2   2
#     4  12  25  47  74 108 149 193 243 308 371 440
#     4  12  27  45  74 109 143 199 247 302 378 436
#     4  12  27  48  76 106 153 196 244 312 373 438
#     4  12  23  47  73 103 150 192 247 306 367 446
#     4  12  26  47  73 109 149 195 247 309 372 445
#     4  12  24  48  74 105 146 193 249 305 370 444
#     4  12  28  47  73 113 152 195 250 305 379 447
#     4  12  25  45  72 106 144 193 249 300 370 446
#
# _framework density 22.207892000000001
#
# number of rings (size 3 to 8) (size 9 to 14) (size 15 to 20)
#    0.000    0.000    5.000    4.875    1.750    5.500 
#    0.000    0.000    0.000    0.000    0.000    0.000 
#    0.000    0.000    0.000    0.000    0.000    0.000 
#
# Total GULP energy -89387.487230 kJ/mol
# GULP energy per Si atom -5586.717952 kJ/mol
# Density = 2.215735 g / cm^3
# Si number density = 22.207892 Si / 1000 Ang^3
#
#
#
# Elastic Constant Matrix: (Units=GPa)
#
#
# Indices 1 2 3 4 5 6 
#
# 1 4.9170 -63.8233 -63.4649 7.9532 35.6317 -4.5879
# 2 -63.8233 25.9256 -45.7333 5.9538 35.5586 -24.8998
# 3 -63.4649 -45.7333 57.9938 10.0566 52.7931 -4.5276
# 4 7.9532 5.9538 10.0566 51.5503 -16.1839 -5.9279
# 5 35.6317 35.5586 52.7931 -16.1839 10.1872 5.6516
# 6 -4.5879 -24.8998 -4.5276 -5.9279 5.6516 22.3395
#
#
#
# Elastic Compliance Matrix: (Units=1/GPa)
#
#
# Indices 1 2 3 4 5 6 
#
# 1 0.009292 -0.004547 -0.003845 0.002448 0.010479 -0.005940
# 2 -0.004547 0.010875 -0.005686 0.004716 0.010052 0.008744
# 3 -0.003845 -0.005686 0.006705 -0.000289 0.001549 -0.006237
# 4 0.002448 0.004716 -0.000289 0.021031 0.004216 0.010215
# 5 0.010479 0.010052 0.001549 0.004216 0.019643 0.009820
# 6 -0.005940 0.008744 -0.006237 0.010215 0.009820 0.052252
#
#
# Mechanical properties :
#
#
# Convention : Reuss Voigt Hill
#
# Bulk Modulus (GPa) = -779.33190 -28.57851 -403.95521
# Shear Modulus (GPa) = 33.89272 34.27259 34.08265
#
# Velocity S-wave (km/s) = 3.91084 3.93270 3.92179
# Velocity P-wave (km/s) = 18.20150 2.77938 12.71947
#
# Compressibility (1/GPa) = -0.00128315
#
# Stress axis : x y z
#
# Youngs Moduli (GPa) = 107.61800 91.95337 149.14706
#
# Poissons Ratio (x) = 0.41811 0.57341
# Poissons Ratio (y) = 0.48933 0.84806
# Poissons Ratio (z) = 0.41375 0.52285
#
# Static dielectric constant tensor:
#      x y z
#    x 1.936370 0.284710 0.222210 
#    y 0.284710 1.839890 -0.198530 
#    z 0.222210 -0.198530 1.371380 
# 
# From -- ./inp_files/242152.got.cif
#   From: 2010.05.17/outbox.cif.g08.bks.cpg/sg2_122_cif.got.tgz:242152.got - 2010.06.03 11:33:40.
