data_PCOD9069652
_publ_section_title
;
Structure prediction by ZEFSAII (Michael W. Deem and Ramdas Pophale) SiO2 
 PCOD9069652
Probable space group: P -1
;
_chemical_formula_sum "Si O2"
_cell_formula_units_Z 16
_cell_length_a 11.439362
_cell_length_b 4.979613
_cell_length_c 15.488349
_cell_angle_alpha 118.958736
_cell_angle_beta 122.912686
_cell_angle_gamma 81.539224
_cell_volume 639.935006
_symmetry_space_group_name_H-M "P -1"
_symmetry_group_IT_number 2
_symmetry_cell_setting 'triclinic'
loop_
_space_group_symop_operation_xyz
x,y,z
-x,-y,-z
loop_
_atom_site_type_symbol
_atom_site_label
_atom_site_fract_x
_atom_site_fract_y
_atom_site_fract_z
Si Si1 0.374490 0.677968 0.567775
Si Si2 0.510135 0.083915 0.116643
Si Si3 0.915312 0.728346 0.869399
Si Si4 0.432768 0.790558 0.346758
Si Si5 0.182748 0.111451 0.318327
Si Si6 0.721132 0.551827 0.911813
Si Si7 0.324888 0.259950 0.751307
Si Si8 0.109466 0.297127 0.820410
O O1 0.482642 0.480767 0.629349
O O2 0.248577 0.424254 0.442641
O O3 0.467481 0.876460 0.562476
O O4 0.314812 0.955071 0.638961
O O5 0.357545 0.153880 0.094344
O O6 0.627086 0.399789 0.218508
O O7 0.556232 0.802159 0.142284
O O8 0.500000 0.000000 0.000000
O O9 0.809120 0.825602 0.771628
O O10 0.846048 0.531292 0.891702
O O11 0.025114 0.583613 0.833258
O O12 0.000000 0.000000 0.000000
O O13 0.394697 0.717550 0.218161
O O14 0.287069 0.860965 0.341370
O O15 0.021197 0.979855 0.257398
O O16 0.782031 0.619306 0.042371
O O17 0.189074 0.261000 0.757904
#
# Coordination Sequence:
#
# PCOD9069652 Si02
#       8
#     2   2   2   2   2   2   2   2
#     4  12  27  50  77 108 148 198 251 310 363 438
#     4  12  26  46  75 109 150 196 244 315 367 435
#     4  12  26  46  73 107 151 195 241 307 377 446
#     4  12  25  47  78 110 145 193 249 312 372 430
#     4  12  28  48  73 108 151 197 251 303 373 444
#     4  12  23  46  75 109 148 184 251 303 384 425
#     4  12  27  48  72 112 149 195 253 298 374 439
#     4  12  28  44  72 111 150 199 243 303 373 454
#
# _framework density 25.002538999999999
#
# number of rings (size 3 to 8) (size 9 to 14) (size 15 to 20)
#    0.000    0.000    6.250    3.000    5.250    0.500 
#    0.000    0.625    0.000    0.000    0.000    0.000 
#    0.000    0.000    0.000    0.000    0.000    0.000 
#
# Total GULP energy -89413.442252 kJ/mol
# GULP energy per Si atom -5588.340141 kJ/mol
# Density = 2.494563 g / cm^3
# Si number density = 25.002539 Si / 1000 Ang^3
#
#
#
# Elastic Constant Matrix: (Units=GPa)
#
#
# Indices 1 2 3 4 5 6 
#
# 1 125.8545 25.4838 22.9087 9.9343 -8.9523 -20.3655
# 2 25.4838 103.6047 14.5318 6.1905 8.4348 -4.5619
# 3 22.9087 14.5318 156.7660 25.5494 8.0057 1.9694
# 4 9.9343 6.1905 25.5494 47.7044 -1.0153 -1.2725
# 5 -8.9523 8.4348 8.0057 -1.0153 38.7667 10.1359
# 6 -20.3655 -4.5619 1.9694 -1.2725 10.1359 39.4991
#
#
#
# Elastic Compliance Matrix: (Units=1/GPa)
#
#
# Indices 1 2 3 4 5 6 
#
# 1 0.009458 -0.002062 -0.001184 -0.000918 0.001750 0.004219
# 2 -0.002062 0.010542 -0.000414 -0.000755 -0.002941 0.000905
# 3 -0.001184 -0.000414 0.007275 -0.003650 -0.001590 -0.000730
# 4 -0.000918 -0.000755 -0.003650 0.023235 0.001305 0.000035
# 5 0.001750 -0.002941 -0.001590 0.001305 0.028967 -0.006749
# 6 0.004219 0.000905 -0.000730 0.000035 -0.006749 0.029366
#
#
# Mechanical properties :
#
#
# Convention : Reuss Voigt Hill
#
# Bulk Modulus (GPa) = 50.11088 56.89711 53.50399
# Shear Modulus (GPa) = 40.71151 46.74744 43.72948
#
# Velocity S-wave (km/s) = 4.03959 4.32870 4.18664
# Velocity P-wave (km/s) = 6.46866 6.91299 6.69451
#
# Compressibility (1/GPa) = 0.01995575
#
# Stress axis : x y z
#
# Youngs Moduli (GPa) = 105.72606 94.86037 137.44764
#
# Poissons Ratio (x) = 0.19563 0.16270
# Poissons Ratio (y) = 0.21804 0.05689
# Poissons Ratio (z) = 0.12515 0.03926
#
# Static dielectric constant tensor:
#      x y z
#    x 2.029350 -0.009230 0.011880 
#    y -0.009230 2.072300 0.105420 
#    z 0.011880 0.105420 2.149660 
# 
# From -- ./inp_files/564588.got.cif
#   From: 2010.05.17/outbox.cif.g08.bks.cpg/sg2_283_cif.got.tgz:564588.got - 2010.06.03 11:33:40.
