data_PCOD9069594
_publ_section_title
;
Structure prediction by ZEFSAII (Michael W. Deem and Ramdas Pophale) SiO2 
 PCOD9069594
Probable space group: P -1
;
_chemical_formula_sum "Si O2"
_cell_formula_units_Z 12
_cell_length_a 8.383489
_cell_length_b 7.530843
_cell_length_c 9.467678
_cell_angle_alpha 108.618846
_cell_angle_beta 90.158476
_cell_angle_gamma 106.589325
_cell_volume 539.966887
_symmetry_space_group_name_H-M "P -1"
_symmetry_group_IT_number 2
_symmetry_cell_setting 'triclinic'
loop_
_space_group_symop_operation_xyz
x,y,z
-x,-y,-z
loop_
_atom_site_type_symbol
_atom_site_label
_atom_site_fract_x
_atom_site_fract_y
_atom_site_fract_z
Si Si1 0.857296 0.570696 0.688590
Si Si2 0.636543 0.429672 0.399410
Si Si3 0.130055 0.414499 0.805930
Si Si4 0.944027 0.000921 0.162784
Si Si5 0.562363 0.008040 0.163281
Si Si6 0.363389 0.582393 0.096292
O O1 0.784156 0.449486 0.518543
O O2 0.995844 0.495094 0.747914
O O3 0.709500 0.538172 0.795028
O O4 0.938010 0.800728 0.717096
O O5 0.500000 0.500000 0.500000
O O6 0.720893 0.564314 0.301066
O O7 0.561565 0.209273 0.287077
O O8 0.052956 0.195358 0.807343
O O9 0.213809 0.548150 0.973581
O O10 0.752902 0.003607 0.163982
O O11 0.000000 0.000000 0.000000
O O12 0.445490 0.811376 0.185666
O O13 0.500000 0.000000 0.000000
O O14 0.500000 0.500000 0.000000
#
# Coordination Sequence:
#
# PCOD9069594 Si02
#       6
#     2   2   2   2   2   2
#     4  12  27  48  72 108 156 192 249 313 370 439
#     4  12  29  50  74 109 157 196 247 319 378 434
#     4  12  25  47  77 107 150 200 247 305 373 445
#     4  12  26  45  80 113 145 195 253 303 373 446
#     4  12  26  46  78 108 148 197 255 302 371 453
#     4  12  23  45  76 108 147 195 251 306 364 445
#
# _framework density 22.223583000000001
#
# number of rings (size 3 to 8) (size 9 to 14) (size 15 to 20)
#    0.000    0.000    6.667    2.000    4.667    1.333 
#    0.000    0.000    0.000    0.000    0.000    0.000 
#    0.000    0.000    0.000    0.000    0.000    0.000 
#
# Total GULP energy -67279.529027 kJ/mol
# GULP energy per Si atom -5606.627419 kJ/mol
# Density = 2.217300 g / cm^3
# Si number density = 22.223583 Si / 1000 Ang^3
#
#
#
# Elastic Constant Matrix: (Units=GPa)
#
#
# Indices 1 2 3 4 5 6 
#
# 1 95.6639 52.3919 35.6680 15.3218 -2.5928 22.0423
# 2 52.3919 140.0144 53.9888 32.4201 7.8755 33.5242
# 3 35.6680 53.9888 153.1200 19.5337 17.9056 12.5313
# 4 15.3218 32.4201 19.5337 42.1998 4.8085 3.7413
# 5 -2.5928 7.8755 17.9056 4.8085 43.0287 1.2435
# 6 22.0423 33.5242 12.5313 3.7413 1.2435 45.7006
#
#
#
# Elastic Compliance Matrix: (Units=1/GPa)
#
#
# Indices 1 2 3 4 5 6 
#
# 1 0.014250 -0.003490 -0.001881 -0.001583 0.002565 -0.003738
# 2 -0.003490 0.012309 -0.002099 -0.006590 -0.000674 -0.006213
# 3 -0.001881 -0.002099 0.008181 -0.001182 -0.003012 0.000383
# 4 -0.001583 -0.006590 -0.001182 0.029776 -0.001827 0.003534
# 5 0.002565 -0.000674 -0.003012 -0.001827 0.024989 -0.000447
# 6 -0.003738 -0.006213 0.000383 0.003534 -0.000447 0.027860
#
#
# Mechanical properties :
#
#
# Convention : Reuss Voigt Hill
#
# Bulk Modulus (GPa) = 50.50584 74.76619 62.63601
# Shear Modulus (GPa) = 35.99609 42.63581 39.31595
#
# Velocity S-wave (km/s) = 4.02895 4.38481 4.21064
# Velocity P-wave (km/s) = 6.66474 7.70397 7.20312
#
# Compressibility (1/GPa) = 0.01979969
#
# Stress axis : x y z
#
# Youngs Moduli (GPa) = 70.17499 81.24381 122.23634
#
# Poissons Ratio (x) = 0.28352 0.22994
# Poissons Ratio (y) = 0.24489 0.25659
# Poissons Ratio (z) = 0.13201 0.17054
#
# Static dielectric constant tensor:
#      x y z
#    x 2.039030 -0.044240 0.033360 
#    y -0.044240 1.802700 -0.014940 
#    z 0.033360 -0.014940 1.799630 
# 
# From -- ./inp_files/155240.got.cif
#   From: 2010.05.17/outbox.cif.g08.bks.cpg/sg2_78_cif.got.tgz:155240.got - 2010.06.03 11:33:40.
