data_PCOD9069413
_publ_section_title
;
Structure prediction by ZEFSAII (Michael W. Deem and Ramdas Pophale) SiO2 
 PCOD9069413
Probable space group: P -1
;
_chemical_formula_sum "Si O2"
_cell_formula_units_Z 16
_cell_length_a 8.614378
_cell_length_b 8.331421
_cell_length_c 24.336787
_cell_angle_alpha 62.618570
_cell_angle_beta 147.051383
_cell_angle_gamma 127.136320
_cell_volume 752.920346
_symmetry_space_group_name_H-M "P -1"
_symmetry_group_IT_number 2
_symmetry_cell_setting 'triclinic'
loop_
_space_group_symop_operation_xyz
x,y,z
-x,-y,-z
loop_
_atom_site_type_symbol
_atom_site_label
_atom_site_fract_x
_atom_site_fract_y
_atom_site_fract_z
Si Si1 0.681406 0.418571 0.883163
Si Si2 0.226187 0.615524 0.718324
Si Si3 0.262685 0.994095 0.882076
Si Si4 0.375732 0.970930 0.277438
Si Si5 0.843172 0.009719 0.590564
Si Si6 0.446138 0.684572 0.262066
Si Si7 0.008187 0.284913 0.251072
Si Si8 0.448022 0.697905 0.438671
O O1 0.525319 0.569416 0.820181
O O2 0.442908 0.200316 0.869566
O O3 0.712138 0.390629 0.832127
O O4 0.000000 0.500000 0.000000
O O5 0.140022 0.666772 0.745676
O O6 0.930484 0.409416 0.641137
O O7 0.333318 0.805804 0.679454
O O8 0.934518 0.996126 0.805317
O O9 0.197148 0.808405 0.850094
O O10 0.500000 0.000000 0.000000
O O11 0.347998 0.851451 0.231075
O O12 0.436627 0.825069 0.361572
O O13 0.899899 0.890326 0.676246
O O14 0.751816 0.866352 0.533365
O O15 0.500000 0.000000 0.500000
O O16 0.169148 0.209712 0.645743
O O17 0.312560 0.490913 0.292501
O O18 0.500000 0.500000 0.500000
#
# Coordination Sequence:
#
# PCOD9069413 Si02
#       8
#     2   2   2   2   2   2   2   2
#     4  12  25  46  72 105 139 184 236 289 353 419
#     4  12  24  46  70 103 146 184 232 294 341 420
#     4  12  25  46  72 105 139 184 235 289 354 419
#     4  12  24  45  72 103 145 186 230 294 342 418
#     4  12  25  42  68  97 139 184 233 290 344 406
#     4  12  24  46  70  99 141 182 231 290 347 413
#     4  12  24  47  68 101 142 181 231 291 345 417
#     4  12  23  43  69 101 138 185 232 281 350 404
#
# _framework density 21.250588
#
# number of rings (size 3 to 8) (size 9 to 14) (size 15 to 20)
#    0.000    0.000    6.250    3.750    0.000    4.500 
#    0.000    5.000    0.000    0.000    0.000    0.000 
#    0.000    0.000    0.000    0.000    0.000    0.000 
#
# Total GULP energy -89246.258644 kJ/mol
# GULP energy per Si atom -5577.891165 kJ/mol
# Density = 2.120222 g / cm^3
# Si number density = 21.250588 Si / 1000 Ang^3
#
#
#
# Elastic Constant Matrix: (Units=GPa)
#
#
# Indices 1 2 3 4 5 6 
#
# 1 79.6597 32.6952 29.1332 1.3033 -1.2577 13.8033
# 2 32.6952 135.3305 24.5875 6.1489 -2.0743 42.5572
# 3 29.1332 24.5875 120.9941 6.6374 -9.5443 3.2228
# 4 1.3033 6.1489 6.6374 45.9523 0.7049 0.1765
# 5 -1.2577 -2.0743 -9.5443 0.7049 27.3369 0.0789
# 6 13.8033 42.5572 3.2228 0.1765 0.0789 41.8201
#
#
#
# Elastic Compliance Matrix: (Units=1/GPa)
#
#
# Indices 1 2 3 4 5 6 
#
# 1 0.015063 -0.002360 -0.003152 0.000362 -0.000589 -0.002328
# 2 -0.002360 0.011767 -0.001431 -0.001264 0.000349 -0.011080
# 3 -0.003152 -0.001431 0.009577 -0.001157 0.003115 0.001757
# 4 0.000362 -0.001264 -0.001157 0.022099 -0.001056 0.001164
# 5 -0.000589 0.000349 0.003115 -0.001056 0.037696 -0.000468
# 6 -0.002328 -0.011080 0.001757 0.001164 -0.000468 0.035816
#
#
# Mechanical properties :
#
#
# Convention : Reuss Voigt Hill
#
# Bulk Modulus (GPa) = 44.40244 56.53511 50.46877
# Shear Modulus (GPa) = 32.59248 39.65975 36.12611
#
# Velocity S-wave (km/s) = 3.92052 4.32474 4.12759
# Velocity P-wave (km/s) = 6.43693 7.18329 6.82033
#
# Compressibility (1/GPa) = 0.02252129
#
# Stress axis : x y z
#
# Youngs Moduli (GPa) = 66.38907 84.98674 104.41859
#
# Poissons Ratio (x) = 0.20057 0.32908
# Poissons Ratio (y) = 0.15668 0.14941
# Poissons Ratio (z) = 0.20923 0.12160
#
# Static dielectric constant tensor:
#      x y z
#    x 1.989420 -0.066790 -0.085710 
#    y -0.066790 1.788500 0.047280 
#    z -0.085710 0.047280 1.786970 
# 
# From -- ./inp_files/447618.got.cif
#   From: 2010.05.17/outbox.cif.g08.bks.cpg/sg2_224_cif.got.tgz:447618.got - 2010.06.03 11:33:40.
