data_PCOD9069097
_publ_section_title
;
Structure prediction by ZEFSAII (Michael W. Deem and Ramdas Pophale) SiO2 
 PCOD9069097
Probable space group: P -1
;
_chemical_formula_sum "Si O2"
_cell_formula_units_Z 12
_cell_length_a 7.430182
_cell_length_b 10.190040
_cell_length_c 8.445689
_cell_angle_alpha 102.499067
_cell_angle_beta 123.939082
_cell_angle_gamma 78.586060
_cell_volume 515.589599
_symmetry_space_group_name_H-M "P -1"
_symmetry_group_IT_number 2
_symmetry_cell_setting 'triclinic'
loop_
_space_group_symop_operation_xyz
x,y,z
-x,-y,-z
loop_
_atom_site_type_symbol
_atom_site_label
_atom_site_fract_x
_atom_site_fract_y
_atom_site_fract_z
Si Si1 0.050068 0.633837 0.471699
Si Si2 0.667410 0.985656 0.220618
Si Si3 0.711275 0.835948 0.504103
Si Si4 0.930111 0.652572 0.058500
Si Si5 0.494684 0.727014 0.660116
Si Si6 0.077636 0.930130 0.184167
O O1 0.899654 0.951188 0.243523
O O2 0.930108 0.647430 0.247119
O O3 0.000000 0.500000 0.500000
O O4 0.307973 0.628222 0.563970
O O5 0.616318 0.874639 0.295272
O O6 0.637082 0.129201 0.328272
O O7 0.500000 0.000000 0.000000
O O8 0.699879 0.698955 0.871784
O O9 0.739043 0.977027 0.643799
O O10 0.948059 0.757139 0.563384
O O11 0.091898 0.768290 0.125236
O O12 0.000000 0.500000 0.000000
O O13 0.585737 0.742103 0.532372
O O14 0.000000 0.000000 0.000000
#
# Coordination Sequence:
#
# PCOD9069097 Si02
#       6
#     2   2   2   2   2   2
#     4  12  28  49  76 107 156 203 253 316 379 457
#     4  12  22  42  73 113 147 190 250 315 380 444
#     4  12  24  47  74 111 153 194 253 321 375 446
#     4  12  27  49  75 110 157 201 252 311 380 453
#     4  12  26  48  77 110 147 200 256 309 386 451
#     4  12  23  44  76 110 149 194 248 315 371 438
#
# _framework density 23.274325999999999
#
# number of rings (size 3 to 8) (size 9 to 14) (size 15 to 20)
#    0.000    0.000    6.667    3.000    0.000    4.667 
#    0.000    0.000    0.000    0.000    0.000    0.000 
#    0.000    0.000    0.000    0.000    0.000    0.000 
#
# Total GULP energy -67144.047515 kJ/mol
# GULP energy per Si atom -5595.337293 kJ/mol
# Density = 2.322135 g / cm^3
# Si number density = 23.274326 Si / 1000 Ang^3
#
#
#
# Elastic Constant Matrix: (Units=GPa)
#
#
# Indices 1 2 3 4 5 6 
#
# 1 149.5099 44.0915 48.6496 -2.5225 -4.4543 29.7082
# 2 44.0915 158.2614 38.1018 -4.4518 -6.8861 20.2481
# 3 48.6496 38.1018 141.8946 -25.2883 -4.7240 35.1480
# 4 -2.5225 -4.4518 -25.2883 37.3753 2.8668 -16.2196
# 5 -4.4543 -6.8861 -4.7240 2.8668 41.7491 -4.9204
# 6 29.7082 20.2481 35.1480 -16.2196 -4.9204 50.9462
#
#
#
# Elastic Compliance Matrix: (Units=1/GPa)
#
#
# Indices 1 2 3 4 5 6 
#
# 1 0.008498 -0.001456 -0.002050 -0.002644 0.000170 -0.003788
# 2 -0.001456 0.007198 -0.001202 -0.000690 0.000787 -0.001326
# 3 -0.002050 -0.001202 0.009813 0.004813 -0.000058 -0.003571
# 4 -0.002644 -0.000690 0.004813 0.033807 -0.001094 0.009153
# 5 0.000170 0.000787 -0.000058 -0.001094 0.024362 0.001633
# 6 -0.003788 -0.001326 -0.003571 0.009153 0.001633 0.027899
#
#
# Mechanical properties :
#
#
# Convention : Reuss Voigt Hill
#
# Bulk Modulus (GPa) = 62.13669 79.03907 70.58788
# Shear Modulus (GPa) = 39.56993 47.26898 43.41946
#
# Velocity S-wave (km/s) = 4.12777 4.51149 4.32389
# Velocity P-wave (km/s) = 7.03373 7.82123 7.43791
#
# Compressibility (1/GPa) = 0.01609355
#
# Stress axis : x y z
#
# Youngs Moduli (GPa) = 117.67311 138.92247 101.90253
#
# Poissons Ratio (x) = 0.20233 0.20888
# Poissons Ratio (y) = 0.17139 0.12247
# Poissons Ratio (z) = 0.24121 0.16696
#
# Static dielectric constant tensor:
#      x y z
#    x 1.946600 -0.042520 0.039470 
#    y -0.042520 1.908200 0.034030 
#    z 0.039470 0.034030 1.893370 
# 
# From -- ./inp_files/158920.got.cif
#   From: 2010.05.17/outbox.cif.g08.bks.cpg/sg2_80_cif.got.tgz:158920.got - 2010.06.03 11:33:40.
