data_PCOD9069136
_publ_section_title
;
Structure prediction by ZEFSAII (Michael W. Deem and Ramdas Pophale) SiO2 
 PCOD9069136
Probable space group: P -1
;
_chemical_formula_sum "Si O2"
_cell_formula_units_Z 16
_cell_length_a 5.119434
_cell_length_b 13.240153
_cell_length_c 13.352464
_cell_angle_alpha 120.304142
_cell_angle_beta 98.597442
_cell_angle_gamma 85.679870
_cell_volume 772.609519
_symmetry_space_group_name_H-M "P -1"
_symmetry_group_IT_number 2
_symmetry_cell_setting 'triclinic'
loop_
_space_group_symop_operation_xyz
x,y,z
-x,-y,-z
loop_
_atom_site_type_symbol
_atom_site_label
_atom_site_fract_x
_atom_site_fract_y
_atom_site_fract_z
Si Si1 0.721498 0.495738 0.925010
Si Si2 0.639856 0.234903 0.728774
Si Si3 0.182637 0.138454 0.791099
Si Si4 0.766875 0.262207 0.197935
Si Si5 0.641641 0.765135 0.493873
Si Si6 0.765994 0.737717 0.935575
Si Si7 0.184406 0.861695 0.652652
Si Si8 0.721493 0.504242 0.429264
O O1 0.693083 0.373702 0.804459
O O2 0.706891 0.607752 0.908923
O O3 0.500000 0.500000 0.000000
O O4 0.000000 0.500000 0.000000
O O5 0.435115 0.201479 0.787896
O O6 0.499213 0.201158 0.600565
O O7 0.918255 0.172262 0.732494
O O8 0.222660 0.000125 0.722263
O O9 0.153034 0.185682 0.925740
O O10 0.500910 0.216231 0.107798
O O11 0.845756 0.185595 0.260069
O O12 0.706904 0.392166 0.301124
O O13 0.001229 0.266629 0.133753
O O14 0.437797 0.799195 0.586927
O O15 0.693308 0.626237 0.430765
O O16 0.920777 0.827309 0.559706
O O17 0.500000 0.500000 0.500000
O O18 0.000000 0.500000 0.500000
#
# Coordination Sequence:
#
# PCOD9069136 Si02
#       8
#     2   2   2   2   2   2   2   2
#     4  12  22  43  71  99 139 176 216 283 350 406
#     4  12  25  45  72 102 137 181 229 283 348 407
#     4  12  27  47  69  99 140 185 234 285 331 400
#     4  12  25  43  71 102 136 177 224 278 344 406
#     4  12  25  45  72 102 137 181 229 283 348 407
#     4  12  25  43  71 102 136 177 224 278 344 406
#     4  12  27  47  69  99 140 185 234 285 331 400
#     4  12  22  43  71  99 139 176 216 283 350 406
#
# _framework density 20.709039000000001
#
# number of rings (size 3 to 8) (size 9 to 14) (size 15 to 20)
#    0.000    0.000    5.000    5.250    0.000    6.000 
#    0.000    0.000    0.000    0.000    0.000    0.000 
#    0.000    0.000    0.000    0.000    0.000    0.000 
#
# Total GULP energy -89648.998573 kJ/mol
# GULP energy per Si atom -5603.062411 kJ/mol
# Density = 2.066190 g / cm^3
# Si number density = 20.709039 Si / 1000 Ang^3
#
#
#
# Elastic Constant Matrix: (Units=GPa)
#
#
# Indices 1 2 3 4 5 6 
#
# 1 122.3476 1.6437 3.3181 -3.2361 9.4329 4.8702
# 2 1.6437 57.3798 36.8887 19.0813 15.5109 -12.1517
# 3 3.3181 36.8887 41.7909 -11.7715 14.3619 -2.1037
# 4 -3.2361 19.0813 -11.7715 22.1748 0.4640 -0.0288
# 5 9.4329 15.5109 14.3619 0.4640 58.8542 20.4374
# 6 4.8702 -12.1517 -2.1037 -0.0288 20.4374 81.3014
#
#
#
# Elastic Compliance Matrix: (Units=1/GPa)
#
#
# Indices 1 2 3 4 5 6 
#
# 1 0.008282 0.001171 -0.001399 -0.000515 -0.001278 -0.000036
# 2 0.001171 -0.044525 0.059330 0.070012 -0.001851 -0.004700
# 3 -0.001399 0.059330 -0.047021 -0.076068 -0.006590 0.009364
# 4 -0.000515 0.070012 -0.076068 -0.055540 -0.002545 0.009147
# 5 -0.001278 -0.001851 -0.006590 -0.002545 0.021300 -0.005726
# 6 -0.000036 -0.004700 0.009364 0.009147 -0.005726 0.013285
#
#
# Mechanical properties :
#
#
# Convention : Reuss Voigt Hill
#
# Bulk Modulus (GPa) = 28.62073 33.91323 31.26698
# Shear Modulus (GPa) = -23.72190 44.44394 10.36102
#
# Velocity S-wave (km/s) = -3.38817 4.63764 2.23920
# Velocity P-wave (km/s) = 1.20660 6.71480 4.67080
#
# Compressibility (1/GPa) = 0.03493971
#
# Stress axis : x y z
#
# Youngs Moduli (GPa) = 120.74372 -22.45922 -21.26722
#
# Poissons Ratio (x) = 0.02630 -0.02974
# Poissons Ratio (y) = -0.14137 1.26177
# Poissons Ratio (z) = 0.16887 1.33250
#
# Static dielectric constant tensor:
#      x y z
#    x 1.678550 -0.025150 0.055340 
#    y -0.025150 1.707820 0.025930 
#    z 0.055340 0.025930 1.656670 
# 
# From -- ./inp_files/365290.got.cif
#   From: 2010.05.17/outbox.cif.g08.bks.cpg/sg2_183_cif.got.tgz:365290.got - 2010.06.03 11:33:40.
