data_PCOD9069104
_publ_section_title
;
Structure prediction by ZEFSAII (Michael W. Deem and Ramdas Pophale) SiO2 
 PCOD9069104
Probable space group: P -1
;
_chemical_formula_sum "Si O2"
_cell_formula_units_Z 14
_cell_length_a 10.477625
_cell_length_b 6.984314
_cell_length_c 14.318060
_cell_angle_alpha 125.764935
_cell_angle_beta 56.612373
_cell_angle_gamma 95.625863
_cell_volume 670.108778
_symmetry_space_group_name_H-M "P -1"
_symmetry_group_IT_number 2
_symmetry_cell_setting 'triclinic'
loop_
_space_group_symop_operation_xyz
x,y,z
-x,-y,-z
loop_
_atom_site_type_symbol
_atom_site_label
_atom_site_fract_x
_atom_site_fract_y
_atom_site_fract_z
Si Si1 0.122233 0.067695 0.687949
Si Si2 0.645876 0.313046 0.649759
Si Si3 0.718681 0.737954 0.008522
Si Si4 0.413988 0.103955 0.162373
Si Si5 0.070001 0.989414 0.072764
Si Si6 0.265594 0.411802 0.838407
Si Si7 0.785195 0.205185 0.764686
O O1 0.188896 0.290474 0.754103
O O2 0.970257 0.160912 0.705258
O O3 0.262762 0.847163 0.519968
O O4 0.055748 0.977377 0.783249
O O5 0.459758 0.322814 0.731986
O O6 0.641148 0.599366 0.727977
O O7 0.742733 0.192682 0.670177
O O8 0.786927 0.678807 0.068160
O O9 0.555467 0.973350 0.142535
O O10 0.687318 0.488319 0.916679
O O11 0.273370 0.990485 0.209099
O O12 0.500000 0.000000 0.000000
O O13 0.160654 0.193660 0.091274
O O14 0.197960 0.710913 0.952039
O O15 0.000000 0.000000 0.000000
#
# Coordination Sequence:
#
# PCOD9069104 Si02
#       7
#     2   2   2   2   2   2   2
#     4  12  27  47  68 108 145 182 228 292 359 405
#     4  12  27  47  71 103 146 186 229 286 351 420
#     4  12  22  42  74 106 130 180 245 286 335 409
#     4  12  23  43  72 105 137 182 241 284 339 417
#     4  12  24  44  72 105 139 182 236 292 342 411
#     4  12  24  49  73  98 140 188 238 281 340 425
#     4  12  25  44  72 102 144 181 229 293 347 409
#
# _framework density 20.892132
#
# number of rings (size 3 to 8) (size 9 to 14) (size 15 to 20)
#    0.000    0.000    7.143    4.286    0.000    0.571 
#    5.143    1.429    0.000    0.000    0.000    0.000 
#    0.000    0.000    0.000    0.000    0.000    0.000 
#
# Total GULP energy -78358.328087 kJ/mol
# GULP energy per Si atom -5597.023435 kJ/mol
# Density = 2.084458 g / cm^3
# Si number density = 20.892132 Si / 1000 Ang^3
#
#
#
# Elastic Constant Matrix: (Units=GPa)
#
#
# Indices 1 2 3 4 5 6 
#
# 1 93.9668 41.8310 22.5230 -16.6499 -2.4055 6.6629
# 2 41.8310 123.5797 50.7024 -0.7188 -4.7044 14.1148
# 3 22.5230 50.7024 128.4888 -14.0492 7.3156 5.8499
# 4 -16.6499 -0.7188 -14.0492 22.1147 0.5068 2.8749
# 5 -2.4055 -4.7044 7.3156 0.5068 18.8014 6.2743
# 6 6.6629 14.1148 5.8499 2.8749 6.2743 48.4260
#
#
#
# Elastic Compliance Matrix: (Units=1/GPa)
#
#
# Indices 1 2 3 4 5 6 
#
# 1 0.014925 -0.005093 0.000707 0.011693 0.000518 -0.001416
# 2 -0.005093 0.012255 -0.004814 -0.006277 0.005327 -0.002607
# 3 0.000707 -0.004814 0.010651 0.007229 -0.005557 0.000310
# 4 0.011693 -0.006277 0.007229 0.058970 -0.003231 -0.003735
# 5 0.000518 0.005327 -0.005557 -0.003231 0.059670 -0.008492
# 6 -0.001416 -0.002607 0.000310 -0.003735 -0.008492 0.022889
#
#
# Mechanical properties :
#
#
# Convention : Reuss Voigt Hill
#
# Bulk Modulus (GPa) = 51.46291 64.01647 57.73969
# Shear Modulus (GPa) = 24.48118 33.26700 28.87409
#
# Velocity S-wave (km/s) = 3.42685 3.99472 3.72163
# Velocity P-wave (km/s) = 6.35169 7.21006 6.79444
#
# Compressibility (1/GPa) = 0.01943147
#
# Stress axis : x y z
#
# Youngs Moduli (GPa) = 67.00089 81.59898 93.88485
#
# Poissons Ratio (x) = 0.41556 -0.06636
# Poissons Ratio (y) = 0.34121 0.45198
# Poissons Ratio (z) = -0.04736 0.39283
#
# Static dielectric constant tensor:
#      x y z
#    x 1.833120 -0.010290 -0.011680 
#    y -0.010290 1.740490 -0.012480 
#    z -0.011680 -0.012480 1.706430 
# 
# From -- ./inp_files/511221.got.cif
#   From: 2010.05.17/outbox.cif.g08.bks.cpg/sg2_256_cif.got.tgz:511221.got - 2010.06.03 11:33:40.
