data_PCOD9069838
_publ_section_title
;
Structure prediction by ZEFSAII (Michael W. Deem and Ramdas Pophale) SiO2 
 PCOD9069838
Probable space group: P -1
;
_chemical_formula_sum "Si O2"
_cell_formula_units_Z 14
_cell_length_a 29.489348
_cell_length_b 29.957158
_cell_length_c 29.493631
_cell_angle_alpha 10.088422
_cell_angle_beta 169.930538
_cell_angle_gamma 170.047524
_cell_volume 687.043831
_symmetry_space_group_name_H-M "P -1"
_symmetry_group_IT_number 2
_symmetry_cell_setting 'triclinic'
loop_
_space_group_symop_operation_xyz
x,y,z
-x,-y,-z
loop_
_atom_site_type_symbol
_atom_site_label
_atom_site_fract_x
_atom_site_fract_y
_atom_site_fract_z
Si Si1 0.864258 0.682632 0.482169
Si Si2 0.483590 0.991708 0.046426
Si Si3 0.870258 0.685162 0.593400
Si Si4 0.151262 0.825597 0.344246
Si Si5 0.778225 0.638618 0.873712
Si Si6 0.822685 0.162247 0.534368
Si Si7 0.488187 0.493191 0.155704
O O1 0.912563 0.706261 0.559970
O O2 0.020967 0.510669 0.787731
O O3 0.509769 0.505402 0.299127
O O4 0.020560 0.011549 0.286580
O O5 0.310934 0.655517 0.229607
O O6 0.813282 0.156576 0.227698
O O7 0.500000 0.000000 0.000000
O O8 0.310876 0.155189 0.729902
O O9 0.000000 0.500000 0.500000
O O10 0.500000 0.000000 0.500000
O O11 0.121869 0.810770 0.384310
O O12 0.000000 0.000000 0.000000
O O13 0.642922 0.571578 0.857954
O O14 0.636571 0.820118 0.678760
O O15 0.149874 0.325918 0.669096
O O16 0.636749 0.318916 0.180331
#
# Coordination Sequence:
#
# PCOD9069838 Si02
#       7
#     2   2   2   2   2   2   2
#     4  12  25  43  66  94 127 168 213 264 319 380
#     4  12  24  42  66  96 130 170 214 264 319 380
#     4  12  24  43  65  94 129 168 213 264 319 380
#     4  12  24  43  67  96 130 169 213 262 316 378
#     4  12  24  42  64  92 124 165 211 262 318 379
#     4  12  25  43  66  96 129 169 212 262 318 378
#     4  12  24  42  64  92 127 165 210 262 317 379
#
# _framework density 20.377158000000001
#
# number of rings (size 3 to 8) (size 9 to 14) (size 15 to 20)
#    0.000    0.000    0.000   12.000    0.000    0.000 
#    0.000    0.000    0.000    0.000    0.000    0.000 
#    0.000    0.000    0.000    0.000    0.000    0.000 
#
# Total GULP energy -78501.839539 kJ/mol
# GULP energy per Si atom -5607.274253 kJ/mol
# Density = 2.033078 g / cm^3
# Si number density = 20.377158 Si / 1000 Ang^3
#
#
#
# Elastic Constant Matrix: (Units=GPa)
#
#
# Indices 1 2 3 4 5 6 
#
# 1 91.3389 -22.5856 -0.0219 -19.7206 -3.0312 -3.3323
# 2 -22.5856 116.5925 89.2471 -1.4447 4.5214 0.7321
# 3 -0.0219 89.2471 150.3323 -30.5378 7.3930 0.2284
# 4 -19.7206 -1.4447 -30.5378 42.0252 -1.6710 -2.8586
# 5 -3.0312 4.5214 7.3930 -1.6710 34.1736 6.9232
# 6 -3.3323 0.7321 0.2284 -2.8586 6.9232 40.5062
#
#
#
# Elastic Compliance Matrix: (Units=1/GPa)
#
#
# Indices 1 2 3 4 5 6 
#
# 1 0.013052 0.003082 -0.000685 0.005856 0.000926 0.001277
# 2 0.003082 0.018665 -0.012524 -0.007039 0.000282 -0.000558
# 3 -0.000685 -0.012524 0.016443 0.011209 -0.001646 0.001150
# 4 0.005856 -0.007039 0.011209 0.034653 0.000118 0.002971
# 5 0.000926 0.000282 -0.001646 0.000118 0.030715 -0.005161
# 6 0.001277 -0.000558 0.001150 0.002971 -0.005161 0.025888
#
#
# Mechanical properties :
#
#
# Convention : Reuss Voigt Hill
#
# Bulk Modulus (GPa) = 35.83558 54.61588 45.22573
# Shear Modulus (GPa) = 29.59070 42.78262 36.18666
#
# Velocity S-wave (km/s) = 3.81484 4.58704 4.21865
# Velocity P-wave (km/s) = 6.08509 7.41049 6.78025
#
# Compressibility (1/GPa) = 0.02790523
#
# Stress axis : x y z
#
# Youngs Moduli (GPa) = 76.61799 53.57483 60.81715
#
# Poissons Ratio (x) = -0.16510 0.04169
# Poissons Ratio (y) = -0.23611 0.76165
# Poissons Ratio (z) = 0.05252 0.67095
#
# Static dielectric constant tensor:
#      x y z
#    x 1.696700 0.001540 -0.000540 
#    y 0.001540 1.677670 0.004780 
#    z -0.000540 0.004780 1.672270 
# 
# From -- ./inp_files/14841.got.cif
#   From: 2010.05.17/outbox.cif.g08.bks.cpg/sg2_8_cif.got.tgz:14841.got - 2010.06.03 11:33:40.
