data_PCOD9069922
_publ_section_title
;
Structure prediction by ZEFSAII (Michael W. Deem and Ramdas Pophale) SiO2 
 PCOD9069922
Probable space group: P -1
;
_chemical_formula_sum "Si O2"
_cell_formula_units_Z 16
_cell_length_a 16.433127
_cell_length_b 9.236026
_cell_length_c 5.564353
_cell_angle_alpha 121.712862
_cell_angle_beta 68.133515
_cell_angle_gamma 92.077912
_cell_volume 653.002413
_symmetry_space_group_name_H-M "P -1"
_symmetry_group_IT_number 2
_symmetry_cell_setting 'triclinic'
loop_
_space_group_symop_operation_xyz
x,y,z
-x,-y,-z
loop_
_atom_site_type_symbol
_atom_site_label
_atom_site_fract_x
_atom_site_fract_y
_atom_site_fract_z
Si Si1 0.258300 0.522836 0.427484
Si Si2 0.035723 0.153071 0.216502
Si Si3 0.145167 0.694806 0.330690
Si Si4 0.567886 0.619389 0.117566
Si Si5 0.078236 0.383874 0.969050
Si Si6 0.307496 0.790643 0.983279
Si Si7 0.493650 0.202770 0.144829
Si Si8 0.792463 0.845299 0.710397
O O1 0.167956 0.649778 0.545307
O O2 0.302562 0.635310 0.666274
O O3 0.237703 0.335481 0.353609
O O4 0.330025 0.483167 0.097204
O O5 0.138292 0.101002 0.130311
O O6 0.955010 0.210281 0.543076
O O7 0.034923 0.319806 0.195991
O O8 0.000000 0.000000 0.000000
O O9 0.148915 0.505408 0.050685
O O10 0.220859 0.791221 0.242921
O O11 0.545473 0.699868 0.478184
O O12 0.500000 0.500000 0.000000
O O13 0.557608 0.747794 0.007891
O O14 0.138082 0.212635 0.635443
O O15 0.000000 0.500000 0.000000
O O16 0.406084 0.760425 0.958407
O O17 0.287210 0.989432 0.082166
O O18 0.500000 0.000000 0.000000
#
# Coordination Sequence:
#
# PCOD9069922 Si02
#       8
#     2   2   2   2   2   2   2   2
#     4  12  26  47  75 107 149 191 254 319 380 460
#     4  12  26  44  66  98 144 194 243 299 374 450
#     4  12  25  44  71 103 144 193 245 314 374 446
#     4  12  26  50  84 111 155 209 258 314 408 478
#     4  12  24  43  71  98 141 199 249 300 375 447
#     4  12  28  46  75 111 147 192 256 318 380 461
#     4  12  28  53  80 118 160 206 258 326 399 481
#     4  12  26  46  70 106 143 194 250 305 376 448
#
# _framework density 24.502208
#
# number of rings (size 3 to 8) (size 9 to 14) (size 15 to 20)
#    0.000    0.000    5.000    4.875    3.500    2.000 
#    2.250    0.000    0.000    0.000    0.000    0.000 
#    0.000    0.000    0.000    0.000    0.000    0.000 
#
# Total GULP energy -89405.503776 kJ/mol
# GULP energy per Si atom -5587.843986 kJ/mol
# Density = 2.444644 g / cm^3
# Si number density = 24.502208 Si / 1000 Ang^3
#
#
#
# Elastic Constant Matrix: (Units=GPa)
#
#
# Indices 1 2 3 4 5 6 
#
# 1 110.5031 4.9290 7.7323 3.5757 -14.5073 5.1835
# 2 4.9290 86.1568 18.4245 12.7459 1.5669 16.4439
# 3 7.7323 18.4245 85.3321 9.4890 -13.3929 8.6550
# 4 3.5757 12.7459 9.4890 38.9325 11.8323 1.4672
# 5 -14.5073 1.5669 -13.3929 11.8323 39.8979 0.6003
# 6 5.1835 16.4439 8.6550 1.4672 0.6003 48.3005
#
#
#
# Elastic Compliance Matrix: (Units=1/GPa)
#
#
# Indices 1 2 3 4 5 6 
#
# 1 0.009718 -0.000160 0.000158 -0.002129 0.004240 -0.001005
# 2 -0.000160 0.013378 -0.002076 -0.003666 -0.000132 -0.004052
# 3 0.000158 -0.002076 0.013788 -0.004492 0.006126 -0.001721
# 4 -0.002129 -0.003666 -0.004492 0.031628 -0.011540 0.001464
# 5 0.004240 -0.000132 0.006126 -0.011540 0.032113 -0.001556
# 6 -0.001005 -0.004052 -0.001721 0.001464 -0.001556 0.022474
#
#
# Mechanical properties :
#
#
# Convention : Reuss Voigt Hill
#
# Bulk Modulus (GPa) = 30.55454 38.24038 34.39746
# Shear Modulus (GPa) = 36.18845 42.15327 39.17086
#
# Velocity S-wave (km/s) = 3.84728 4.15225 4.00267
# Velocity P-wave (km/s) = 5.67737 6.21523 5.95238
#
# Compressibility (1/GPa) = 0.03272836
#
# Stress axis : x y z
#
# Youngs Moduli (GPa) = 102.89941 74.74918 72.52510
#
# Poissons Ratio (x) = 0.01197 -0.01146
# Poissons Ratio (y) = 0.01648 0.15057
# Poissons Ratio (z) = -0.01626 0.15519
#
# Static dielectric constant tensor:
#      x y z
#    x 1.986380 -0.066690 0.055950 
#    y -0.066690 2.024710 -0.046930 
#    z 0.055950 -0.046930 2.096840 
# 
# From -- ./inp_files/107486.got.cif
#   From: 2010.05.17/outbox.cif.g08.bks.cpg/sg2_54_cif.got.tgz:107486.got - 2010.06.03 11:33:40.
