data_PCOD9069588
_publ_section_title
;
Structure prediction by ZEFSAII (Michael W. Deem and Ramdas Pophale) SiO2 
 PCOD9069588
Probable space group: P -1
;
_chemical_formula_sum "Si O2"
_cell_formula_units_Z 16
_cell_length_a 11.643606
_cell_length_b 8.405979
_cell_length_c 26.069909
_cell_angle_alpha 147.693345
_cell_angle_beta 31.173716
_cell_angle_gamma 138.683517
_cell_volume 702.300697
_symmetry_space_group_name_H-M "P -1"
_symmetry_group_IT_number 2
_symmetry_cell_setting 'triclinic'
loop_
_space_group_symop_operation_xyz
x,y,z
-x,-y,-z
loop_
_atom_site_type_symbol
_atom_site_label
_atom_site_fract_x
_atom_site_fract_y
_atom_site_fract_z
Si Si1 0.923798 0.350069 0.875760
Si Si2 0.564031 0.728241 0.676632
Si Si3 0.290827 0.726942 0.885577
Si Si4 0.710938 0.698294 0.781899
Si Si5 0.077358 0.345881 0.145140
Si Si6 0.672687 0.568018 0.406225
Si Si7 0.940342 0.142021 0.505589
Si Si8 0.450588 0.599346 0.138571
O O1 0.009771 0.518443 0.836979
O O2 0.102530 0.448917 0.878127
O O3 0.870532 0.998348 0.793812
O O4 0.688176 0.479943 0.010094
O O5 0.450654 0.710364 0.770490
O O6 0.466725 0.479253 0.605767
O O7 0.830069 0.745333 0.579456
O O8 0.518169 0.057294 0.762673
O O9 0.459875 0.738607 0.871240
O O10 0.162260 0.024455 0.015394
O O11 0.798984 0.417611 0.643946
O O12 0.693414 0.609963 0.823735
O O13 0.295703 0.565089 0.138119
O O14 0.874169 0.356071 0.265297
O O15 0.500000 0.500000 0.500000
O O16 0.801415 0.889902 0.456506
O O17 0.000000 0.000000 0.500000
#
# Coordination Sequence:
#
# PCOD9069588 Si02
#       8
#     2   2   2   2   2   2   2   2
#     4  12  25  46  72 109 146 190 237 298 369 429
#     4  12  24  46  76 103 140 190 250 295 354 436
#     4  12  27  47  73 111 146 191 241 303 364 431
#     4  12  28  47  67 109 153 187 241 304 368 428
#     4  12  23  46  79 106 143 193 245 294 360 434
#     4  12  24  42  75 110 134 183 250 297 344 423
#     4  12  25  48  72 100 142 193 243 293 359 429
#     4  12  23  45  75 108 146 189 240 305 364 425
#
# _framework density 22.782263
#
# number of rings (size 3 to 8) (size 9 to 14) (size 15 to 20)
#    0.000    0.000    7.500    2.625    0.000    2.000 
#    4.500    1.250    0.000    0.000    0.000    0.000 
#    0.000    0.000    0.000    0.000    0.000    0.000 
#
# Total GULP energy -89589.092763 kJ/mol
# GULP energy per Si atom -5599.318298 kJ/mol
# Density = 2.273041 g / cm^3
# Si number density = 22.782263 Si / 1000 Ang^3
#
#
#
# Elastic Constant Matrix: (Units=GPa)
#
#
# Indices 1 2 3 4 5 6 
#
# 1 35.8683 43.9711 -5.9158 16.3153 5.5572 20.2892
# 2 43.9711 33.2526 28.6242 5.6196 -8.7971 44.3598
# 3 -5.9158 28.6242 93.7212 -16.0906 10.6422 4.0843
# 4 16.3153 5.6196 -16.0906 52.3079 2.7913 4.5006
# 5 5.5572 -8.7971 10.6422 2.7913 23.2425 3.6587
# 6 20.2892 44.3598 4.0843 4.5006 3.6587 47.3663
#
#
#
# Elastic Compliance Matrix: (Units=1/GPa)
#
#
# Indices 1 2 3 4 5 6 
#
# 1 0.019205 0.020224 -0.006539 -0.008481 0.011273 -0.026668
# 2 0.020224 -0.016128 0.007236 -0.002161 -0.015126 0.007192
# 3 -0.006539 0.007236 0.008984 0.004449 0.000474 -0.005210
# 4 -0.008481 -0.002161 0.004449 0.023295 -0.004157 0.003381
# 5 0.011273 -0.015126 0.000474 -0.004157 0.033772 0.007082
# 6 -0.026668 0.007192 -0.005210 0.003381 0.007082 0.025381
#
#
# Mechanical properties :
#
#
# Convention : Reuss Voigt Hill
#
# Bulk Modulus (GPa) = 18.55202 32.91124 25.73163
# Shear Modulus (GPa) = 70.78778 30.99419 50.89098
#
# Velocity S-wave (km/s) = 5.58022 3.69243 4.73144
# Velocity P-wave (km/s) = 7.04836 5.71455 6.41621
#
# Compressibility (1/GPa) = 0.05390248
#
# Stress axis : x y z
#
# Youngs Moduli (GPa) = 52.06975 -62.00218 111.30490
#
# Poissons Ratio (x) = 1.25392 0.72777
# Poissons Ratio (y) = -1.05305 -0.80535
# Poissons Ratio (z) = 0.34046 0.44862
#
# Static dielectric constant tensor:
#      x y z
#    x 1.869560 -0.016660 0.025920 
#    y -0.016660 1.835470 -0.016320 
#    z 0.025920 -0.016320 1.829650 
# 
# From -- ./inp_files/306303.got.cif
#   From: 2010.05.17/outbox.cif.g08.bks.cpg/sg2_154_cif.got.tgz:306303.got - 2010.06.03 11:33:40.
