data_PCOD9069205
_publ_section_title
;
Structure prediction by ZEFSAII (Michael W. Deem and Ramdas Pophale) SiO2 
 PCOD9069205
Probable space group: P -1
;
_chemical_formula_sum "Si O2"
_cell_formula_units_Z 16
_cell_length_a 18.085747
_cell_length_b 9.399756
_cell_length_c 20.889426
_cell_angle_alpha 145.509521
_cell_angle_beta 20.197658
_cell_angle_gamma 146.088249
_cell_volume 664.826913
_symmetry_space_group_name_H-M "P -1"
_symmetry_group_IT_number 2
_symmetry_cell_setting 'triclinic'
loop_
_space_group_symop_operation_xyz
x,y,z
-x,-y,-z
loop_
_atom_site_type_symbol
_atom_site_label
_atom_site_fract_x
_atom_site_fract_y
_atom_site_fract_z
Si Si1 0.720104 0.486479 0.778400
Si Si2 0.278190 0.761061 0.098571
Si Si3 0.483787 0.341547 0.727647
Si Si4 0.383794 0.025244 0.415021
Si Si5 0.908055 0.998742 0.146217
Si Si6 0.044922 0.469994 0.623016
Si Si7 0.898046 0.043637 0.805988
Si Si8 0.806748 0.242373 0.080768
O O1 0.674293 0.216909 0.677827
O O2 0.799633 0.733713 0.757694
O O3 0.918083 0.521523 0.681946
O O4 0.500000 0.500000 0.000000
O O5 0.133037 0.755537 0.277627
O O6 0.126859 0.781495 0.168345
O O7 0.350746 0.494040 0.936435
O O8 0.500000 0.000000 0.000000
O O9 0.539466 0.103104 0.632054
O O10 0.331575 0.218842 0.745100
O O11 0.714614 0.553187 0.599595
O O12 0.155834 0.100053 0.637953
O O13 0.585327 0.247230 0.300722
O O14 0.075060 0.916867 0.027875
O O15 0.894194 0.276345 0.285681
O O16 0.000000 0.000000 0.000000
O O17 0.752658 0.095949 0.002673
O O18 0.000000 0.500000 0.000000
#
# Coordination Sequence:
#
# PCOD9069205 Si02
#       8
#     2   2   2   2   2   2   2   2
#     4  12  22  45  76 102 140 182 238 289 344 420
#     4  12  28  45  67 105 151 187 225 290 360 414
#     4  12  25  46  77 104 138 191 239 289 350 418
#     4  12  25  45  77 107 137 186 241 291 346 421
#     4  12  22  46  74 100 141 182 240 294 346 413
#     4  12  26  46  73 105 135 190 241 286 346 426
#     4  12  26  45  70 107 142 183 234 293 354 411
#     4  12  26  45  69 104 146 188 230 288 360 417
#
# _framework density 24.066414999999999
#
# number of rings (size 3 to 8) (size 9 to 14) (size 15 to 20)
#    0.000    0.000    6.250    3.750    1.750    3.000 
#    0.000    0.000    0.000    0.000    0.000    0.000 
#    0.000    0.000    0.000    0.000    0.000    0.000 
#
# Total GULP energy -89647.684486 kJ/mol
# GULP energy per Si atom -5602.980280 kJ/mol
# Density = 2.401164 g / cm^3
# Si number density = 24.066415 Si / 1000 Ang^3
#
#
#
# Elastic Constant Matrix: (Units=GPa)
#
#
# Indices 1 2 3 4 5 6 
#
# 1 67.1946 -12.9029 -4.0461 11.0628 0.5215 -7.3710
# 2 -12.9029 81.2448 10.6379 -24.7308 7.1304 -0.1321
# 3 -4.0461 10.6379 102.6157 -25.5239 -0.0917 -11.6808
# 4 11.0628 -24.7308 -25.5239 38.5901 0.4201 1.6126
# 5 0.5215 7.1304 -0.0917 0.4201 37.2445 -1.4449
# 6 -7.3710 -0.1321 -11.6808 1.6126 -1.4449 47.5710
#
#
#
# Elastic Compliance Matrix: (Units=1/GPa)
#
#
# Indices 1 2 3 4 5 6 
#
# 1 0.016075 0.001416 -0.000200 -0.003937 -0.000353 0.002568
# 2 0.001416 0.015864 0.001019 0.010467 -0.003170 0.000063
# 3 -0.000200 0.001019 0.012067 0.008583 -0.000157 0.002639
# 4 -0.003937 0.010467 0.008583 0.039447 -0.002368 0.000117
# 5 -0.000353 -0.003170 -0.000157 -0.002368 0.027519 0.000814
# 6 0.002568 0.000063 0.002639 0.000117 0.000814 0.022088
#
#
# Mechanical properties :
#
#
# Convention : Reuss Voigt Hill
#
# Bulk Modulus (GPa) = 20.62925 26.49257 23.56091
# Shear Modulus (GPa) = 34.54255 41.83886 38.19071
#
# Velocity S-wave (km/s) = 3.79265 4.17403 3.98790
# Velocity P-wave (km/s) = 5.26966 5.85337 5.56917
#
# Compressibility (1/GPa) = 0.04847487
#
# Stress axis : x y z
#
# Youngs Moduli (GPa) = 62.21013 63.03468 82.87303
#
# Poissons Ratio (x) = -0.08925 0.01658
# Poissons Ratio (y) = -0.08808 -0.08444
# Poissons Ratio (z) = 0.01245 -0.06423
#
# Static dielectric constant tensor:
#      x y z
#    x 1.867390 -0.002680 -0.004700 
#    y -0.002680 1.908850 -0.041910 
#    z -0.004700 -0.041910 1.924270 
# 
# From -- ./inp_files/447129.got.cif
#   From: 2010.05.17/outbox.cif.g08.bks.cpg/sg2_224_cif.got.tgz:447129.got - 2010.06.03 11:33:40.
