data_PCOD9069775
_publ_section_title
;
Structure prediction by ZEFSAII (Michael W. Deem and Ramdas Pophale) SiO2 
 PCOD9069775
Probable space group: P -1
;
_chemical_formula_sum "Si O2"
_cell_formula_units_Z 14
_cell_length_a 5.333599
_cell_length_b 17.769442
_cell_length_c 8.430088
_cell_angle_alpha 125.075515
_cell_angle_beta 62.382296
_cell_angle_gamma 118.754465
_cell_volume 553.398033
_symmetry_space_group_name_H-M "P -1"
_symmetry_group_IT_number 2
_symmetry_cell_setting 'triclinic'
loop_
_space_group_symop_operation_xyz
x,y,z
-x,-y,-z
loop_
_atom_site_type_symbol
_atom_site_label
_atom_site_fract_x
_atom_site_fract_y
_atom_site_fract_z
Si Si1 0.221791 0.811126 0.665599
Si Si2 0.761231 0.011039 0.309213
Si Si3 0.218637 0.473776 0.278550
Si Si4 0.745998 0.093084 0.898838
Si Si5 0.607722 0.666298 0.748677
Si Si6 0.913331 0.290132 0.923639
Si Si7 0.425054 0.325173 0.603378
O O1 0.464286 0.762636 0.475914
O O2 0.950996 0.724360 0.704809
O O3 0.129598 0.878462 0.646781
O O4 0.325779 0.876670 0.868791
O O5 0.568126 0.950045 0.148311
O O6 0.033560 0.973311 0.236751
O O7 0.500000 0.000000 0.500000
O O8 0.439114 0.436092 0.279394
O O9 0.383490 0.571962 0.259384
O O10 0.000000 0.500000 0.500000
O O11 0.062403 0.384310 0.102711
O O12 0.927772 0.190537 0.873323
O O13 0.518470 0.666293 0.591373
O O14 0.431952 0.719104 0.976147
O O15 0.086710 0.308655 0.730767
#
# Coordination Sequence:
#
# PCOD9069775 Si02
#       7
#     2   2   2   2   2   2   2
#     4  12  26  48  75 108 149 201 251 310 388 457
#     4  12  29  47  78 115 153 197 260 319 384 461
#     4  12  23  49  70 106 151 196 249 315 379 451
#     4  12  25  50  75 111 154 203 250 320 383 457
#     4  12  24  46  73 102 153 190 254 305 384 441
#     4  12  27  45  75 109 150 194 257 310 378 452
#     4  12  27  45  75 107 148 199 252 311 380 455
#
# _framework density 25.298245999999999
#
# number of rings (size 3 to 8) (size 9 to 14) (size 15 to 20)
#    0.000    0.000    5.714    3.857    4.000    1.714 
#    0.000    0.000    0.000    0.000    0.000    0.000 
#    0.000    0.000    0.000    0.000    0.000    0.000 
#
# Total GULP energy -78432.525902 kJ/mol
# GULP energy per Si atom -5602.323279 kJ/mol
# Density = 2.524067 g / cm^3
# Si number density = 25.298246 Si / 1000 Ang^3
#
#
#
# Elastic Constant Matrix: (Units=GPa)
#
#
# Indices 1 2 3 4 5 6 
#
# 1 72.6212 -5.0002 19.0341 9.4532 -27.2718 -10.1460
# 2 -5.0002 81.8963 41.3834 3.3489 -23.4865 -16.1896
# 3 19.0341 41.3834 75.0796 1.2227 -32.7460 -1.6526
# 4 9.4532 3.3489 1.2227 42.6651 11.7621 -15.4915
# 5 -27.2718 -23.4865 -32.7460 11.7621 45.1418 15.0005
# 6 -10.1460 -16.1896 -1.6526 -15.4915 15.0005 44.6059
#
#
#
# Elastic Compliance Matrix: (Units=1/GPa)
#
#
# Indices 1 2 3 4 5 6 
#
# 1 0.024895 0.008233 0.000141 -0.014790 0.024892 -0.004851
# 2 0.008233 0.021366 -0.010397 -0.003260 0.007546 0.005572
# 3 0.000141 -0.010397 0.029432 -0.012179 0.024189 -0.015015
# 4 -0.014790 -0.003260 -0.012179 0.047452 -0.040130 0.024977
# 5 0.024892 0.007546 0.024189 -0.040130 0.079551 -0.031392
# 6 -0.004851 0.005572 -0.015015 0.024977 -0.031392 0.042012
#
#
# Mechanical properties :
#
#
# Convention : Reuss Voigt Hill
#
# Bulk Modulus (GPa) = 13.95732 37.82574 25.89153
# Shear Modulus (GPa) = 18.33946 38.09457 28.21702
#
# Velocity S-wave (km/s) = 2.69537 3.88470 3.34335
# Velocity P-wave (km/s) = 3.90074 5.92499 5.01604
#
# Compressibility (1/GPa) = 0.07164697
#
# Stress axis : x y z
#
# Youngs Moduli (GPa) = 40.16875 46.80364 33.97667
#
# Poissons Ratio (x) = -0.38532 -0.00480
# Poissons Ratio (y) = -0.33070 0.35326
# Poissons Ratio (z) = -0.00568 0.48662
#
# Static dielectric constant tensor:
#      x y z
#    x 2.025740 0.020420 0.056030 
#    y 0.020420 2.009080 0.045880 
#    z 0.056030 0.045880 2.010200 
# 
# From -- ./inp_files/52815.got.cif
#   From: 2010.05.17/outbox.cif.g08.bks.cpg/sg2_27_cif.got.tgz:52815.got - 2010.06.03 11:33:40.
