data_PCOD9069630
_publ_section_title
;
Structure prediction by ZEFSAII (Michael W. Deem and Ramdas Pophale) SiO2 
 PCOD9069630
Probable space group: P -1
;
_chemical_formula_sum "Si O2"
_cell_formula_units_Z 12
_cell_length_a 16.699981
_cell_length_b 13.624962
_cell_length_c 5.835807
_cell_angle_alpha 94.378824
_cell_angle_beta 102.205249
_cell_angle_gamma 25.812999
_cell_volume 544.488051
_symmetry_space_group_name_H-M "P -1"
_symmetry_group_IT_number 2
_symmetry_cell_setting 'triclinic'
loop_
_space_group_symop_operation_xyz
x,y,z
-x,-y,-z
loop_
_atom_site_type_symbol
_atom_site_label
_atom_site_fract_x
_atom_site_fract_y
_atom_site_fract_z
Si Si1 0.489702 0.623238 0.096792
Si Si2 0.418466 0.887317 0.784923
Si Si3 0.039525 0.406981 0.757233
Si Si4 0.815179 0.965425 0.681426
Si Si5 0.093114 0.790964 0.509167
Si Si6 0.149159 0.565956 0.160110
O O1 0.700853 0.426932 0.277162
O O2 0.327726 0.806521 0.228451
O O3 0.500000 0.500000 0.000000
O O4 0.425829 0.774236 0.899450
O O5 0.637943 0.684257 0.856004
O O6 0.265625 0.127051 0.850002
O O7 0.322888 0.966851 0.496287
O O8 0.000000 0.500000 0.500000
O O9 0.904648 0.455931 0.686294
O O10 0.000000 0.500000 0.000000
O O11 0.936034 0.892861 0.553892
O O12 0.978436 0.743435 0.904758
O O13 0.136952 0.690118 0.276122
O O14 0.000000 0.000000 0.500000
#
# Coordination Sequence:
#
# PCOD9069630 Si02
#       6
#     2   2   2   2   2   2
#     4  12  26  42  72 111 153 205 253 309 384 464
#     4  12  26  47  76 109 148 200 253 321 388 464
#     4  12  29  52  82 114 152 202 264 333 400 460
#     4  12  23  46  72 102 162 194 254 313 378 458
#     4  12  26  42  72 111 153 205 253 309 384 464
#     4  12  26  47  76 109 148 200 253 321 388 464
#
# _framework density 22.039052000000002
#
# number of rings (size 3 to 8) (size 9 to 14) (size 15 to 20)
#    0.000    0.000    6.667    3.000    2.333    4.000 
#    0.000    0.000    0.000    0.000    0.000    0.000 
#    0.000    0.000    0.000    0.000    0.000    0.000 
#
# Total GULP energy -67113.293746 kJ/mol
# GULP energy per Si atom -5592.774479 kJ/mol
# Density = 2.198889 g / cm^3
# Si number density = 22.039052 Si / 1000 Ang^3
#
#
#
# Elastic Constant Matrix: (Units=GPa)
#
#
# Indices 1 2 3 4 5 6 
#
# 1 45.1121 43.2021 9.4142 -3.8186 -5.3467 5.5179
# 2 43.2021 213.1841 60.0524 6.8545 3.4123 -14.1580
# 3 9.4142 60.0524 107.7664 -13.5209 12.0972 10.6272
# 4 -3.8186 6.8545 -13.5209 45.6301 -2.4949 6.0504
# 5 -5.3467 3.4123 12.0972 -2.4949 37.3582 -6.1747
# 6 5.5179 -14.1580 10.6272 6.0504 -6.1747 44.6577
#
#
#
# Elastic Compliance Matrix: (Units=1/GPa)
#
#
# Indices 1 2 3 4 5 6 
#
# 1 0.030730 -0.007675 0.002616 0.005635 0.003448 -0.007140
# 2 -0.007675 0.008101 -0.004904 -0.003992 0.000355 0.005273
# 3 0.002616 -0.004904 0.013606 0.005611 -0.004278 -0.006467
# 4 0.005635 -0.003992 0.005611 0.025543 -0.000058 -0.006766
# 5 0.003448 0.000355 -0.004278 -0.000058 0.029400 0.004777
# 6 -0.007140 0.005273 -0.006467 -0.006766 0.004777 0.028063
#
#
# Mechanical properties :
#
#
# Convention : Reuss Voigt Hill
#
# Bulk Modulus (GPa) = 30.75944 65.71110 48.23527
# Shear Modulus (GPa) = 30.08336 42.42210 36.25273
#
# Velocity S-wave (km/s) = 3.69860 4.39208 4.06018
# Velocity P-wave (km/s) = 5.67685 7.45661 6.62675
#
# Compressibility (1/GPa) = 0.03251034
#
# Stress axis : x y z
#
# Youngs Moduli (GPa) = 32.54144 123.44843 73.49922
#
# Poissons Ratio (x) = 0.94747 -0.19230
# Poissons Ratio (y) = 0.24976 0.36046
# Poissons Ratio (z) = -0.08514 0.60542
#
# Static dielectric constant tensor:
#      x y z
#    x 1.881310 0.109880 -0.008470 
#    y 0.109880 1.860200 0.033330 
#    z -0.008470 0.033330 1.858620 
# 
# From -- ./inp_files/55236.got.cif
#   From: 2010.05.17/outbox.cif.g08.bks.cpg/sg2_28_cif.got.tgz:55236.got - 2010.06.03 11:33:40.
