data_PCOD9069417
_publ_section_title
;
Structure prediction by ZEFSAII (Michael W. Deem and Ramdas Pophale) SiO2 
 PCOD9069417
Probable space group: P -1
;
_chemical_formula_sum "Si O2"
_cell_formula_units_Z 14
_cell_length_a 12.831535
_cell_length_b 19.214219
_cell_length_c 9.266891
_cell_angle_alpha 63.086992
_cell_angle_beta 134.412970
_cell_angle_gamma 153.564025
_cell_volume 608.150460
_symmetry_space_group_name_H-M "P -1"
_symmetry_group_IT_number 2
_symmetry_cell_setting 'triclinic'
loop_
_space_group_symop_operation_xyz
x,y,z
-x,-y,-z
loop_
_atom_site_type_symbol
_atom_site_label
_atom_site_fract_x
_atom_site_fract_y
_atom_site_fract_z
Si Si1 0.220612 0.046478 0.765807
Si Si2 0.464312 0.921771 0.167011
Si Si3 0.716742 0.032858 0.616788
Si Si4 0.740520 0.729143 0.835144
Si Si5 0.696331 0.327542 0.474121
Si Si6 0.793095 0.435258 0.997988
Si Si7 0.643990 0.537232 0.754949
O O1 0.437348 0.107093 0.797562
O O2 0.506619 0.232905 0.959801
O O3 0.000000 0.000000 0.500000
O O4 0.997799 0.882219 0.809171
O O5 0.720039 0.050862 0.431049
O O6 0.063771 0.738719 0.995529
O O7 0.500000 0.000000 0.000000
O O8 0.528422 0.856892 0.616081
O O9 0.500000 0.000000 0.500000
O O10 0.060301 0.194039 0.895722
O O11 0.520980 0.700321 0.677905
O O12 0.535328 0.551417 0.751328
O O13 0.000000 0.500000 0.500000
O O14 0.905458 0.405084 0.745559
O O15 0.577632 0.411824 0.799430
O O16 0.000000 0.500000 0.000000
O O17 0.500000 0.500000 0.500000
#
# Coordination Sequence:
#
# PCOD9069417 Si02
#       7
#     2   2   2   2   2   2   2
#     4  12  24  42  71 108 137 189 238 286 351 423
#     4  12  24  44  73 106 139 186 237 289 353 421
#     4  12  23  49  72 102 148 185 236 292 349 436
#     4  12  26  48  71 104 142 191 239 289 354 434
#     4  12  27  48  70 102 140 187 235 294 360 417
#     4  12  23  43  70 104 145 180 228 296 348 407
#     4  12  24  45  70 104 143 180 233 290 350 412
#
# _framework density 23.020617000000001
#
# number of rings (size 3 to 8) (size 9 to 14) (size 15 to 20)
#    0.000    0.000    5.714    4.714    0.000    1.143 
#    0.000    1.429    0.000    0.000    0.000    0.000 
#    0.000    0.000    0.000    0.000    0.000    0.000 
#
# Total GULP energy -78191.460712 kJ/mol
# GULP energy per Si atom -5585.104337 kJ/mol
# Density = 2.296822 g / cm^3
# Si number density = 23.020617 Si / 1000 Ang^3
#
#
#
# Elastic Constant Matrix: (Units=GPa)
#
#
# Indices 1 2 3 4 5 6 
#
# 1 147.4164 51.7134 40.9246 -12.1199 10.6846 -43.4116
# 2 51.7134 72.4294 12.9597 -17.3662 -6.2669 -12.1536
# 3 40.9246 12.9597 150.4889 -26.0374 -9.5579 -21.7790
# 4 -12.1199 -17.3662 -26.0374 36.8773 -7.3659 -1.8742
# 5 10.6846 -6.2669 -9.5579 -7.3659 55.5304 -8.1355
# 6 -43.4116 -12.1536 -21.7790 -1.8742 -8.1355 44.8123
#
#
#
# Elastic Compliance Matrix: (Units=1/GPa)
#
#
# Indices 1 2 3 4 5 6 
#
# 1 0.012687 -0.007624 -0.001781 -0.000706 -0.002399 0.008892
# 2 -0.007624 0.022240 0.002709 0.011188 0.006154 0.001547
# 3 -0.001781 0.002709 0.009238 0.008244 0.004002 0.004570
# 4 -0.000706 0.011188 0.008244 0.040392 0.009610 0.009791
# 5 -0.002399 0.006154 0.004002 0.009610 0.021960 0.005678
# 6 0.008892 0.001547 0.004570 0.009791 0.005678 0.035010
#
#
# Mechanical properties :
#
#
# Convention : Reuss Voigt Hill
#
# Bulk Modulus (GPa) = 32.49776 64.61447 48.55612
# Shear Modulus (GPa) = 30.27047 45.09313 37.68180
#
# Velocity S-wave (km/s) = 3.63013 4.43065 4.05022
# Velocity P-wave (km/s) = 5.63186 7.36907 6.55824
#
# Compressibility (1/GPa) = 0.03077135
#
# Stress axis : x y z
#
# Youngs Moduli (GPa) = 78.82125 44.96386 108.24742
#
# Poissons Ratio (x) = 0.34282 0.19281
# Poissons Ratio (y) = 0.60096 -0.29320
# Poissons Ratio (z) = 0.14039 -0.12179
#
# Static dielectric constant tensor:
#      x y z
#    x 1.923930 0.005010 -0.005950 
#    y 0.005010 1.945120 0.035490 
#    z -0.005950 0.035490 1.802050 
# 
# From -- ./inp_files/181759.got.cif
#   From: 2010.05.17/outbox.cif.g08.bks.cpg/sg2_91_cif.got.tgz:181759.got - 2010.06.03 11:33:40.
