data_PCOD9069470
_publ_section_title
;
Structure prediction by ZEFSAII (Michael W. Deem and Ramdas Pophale) SiO2 
 PCOD9069470
Probable space group: P -1
;
_chemical_formula_sum "Si O2"
_cell_formula_units_Z 16
_cell_length_a 9.562536
_cell_length_b 14.629572
_cell_length_c 5.326162
_cell_angle_alpha 84.280654
_cell_angle_beta 73.708122
_cell_angle_gamma 95.077140
_cell_volume 706.317914
_symmetry_space_group_name_H-M "P -1"
_symmetry_group_IT_number 2
_symmetry_cell_setting 'triclinic'
loop_
_space_group_symop_operation_xyz
x,y,z
-x,-y,-z
loop_
_atom_site_type_symbol
_atom_site_label
_atom_site_fract_x
_atom_site_fract_y
_atom_site_fract_z
Si Si1 0.266322 0.677932 0.959672
Si Si2 0.997210 0.230292 0.756233
Si Si3 0.290662 0.289080 0.876922
Si Si4 0.869548 0.020000 0.873122
Si Si5 0.588634 0.935004 0.313918
Si Si6 0.416725 0.753752 0.374824
Si Si7 0.785188 0.844378 0.644048
Si Si8 0.398131 0.494903 0.806326
O O1 0.313113 0.742287 0.675344
O O2 0.300532 0.578978 0.865180
O O3 0.104440 0.693798 0.131331
O O4 0.355759 0.703492 0.165583
O O5 0.133465 0.241768 0.876394
O O6 0.095303 0.225682 0.459109
O O7 0.898602 0.130914 0.807384
O O8 0.431843 0.288234 0.624835
O O9 0.295323 0.396879 0.898845
O O10 0.322241 0.218824 0.101231
O O11 0.868546 0.940826 0.681432
O O12 0.705055 0.993450 0.063857
O O13 0.000000 0.000000 0.000000
O O14 0.466142 0.861468 0.271999
O O15 0.691493 0.879778 0.455393
O O16 0.500000 0.000000 0.500000
O O17 0.500000 0.500000 0.500000
O O18 0.500000 0.500000 0.000000
#
# Coordination Sequence:
#
# PCOD9069470 Si02
#       8
#     2   2   2   2   2   2   2   2
#     4  12  28  48  76 112 149 192 250 316 374 444
#     4  12  28  45  72 105 150 195 244 309 373 448
#     4  12  25  46  79 102 145 193 247 300 383 446
#     4  12  23  44  65 101 139 197 247 296 370 443
#     4  12  27  41  70 106 146 198 260 311 360 438
#     4  12  24  49  73 109 150 192 250 308 373 433
#     4  12  24  44  71 100 151 196 249 296 380 436
#     4  12  26  49  81 111 145 191 250 312 383 449
#
# _framework density 22.652691999999998
#
# number of rings (size 3 to 8) (size 9 to 14) (size 15 to 20)
#    0.000    0.000    7.500    1.875    5.250    1.000 
#    0.000    0.625    0.000    0.000    0.000    0.000 
#    0.000    0.000    0.000    0.000    0.000    0.000 
#
# Total GULP energy -89235.125771 kJ/mol
# GULP energy per Si atom -5577.195361 kJ/mol
# Density = 2.260113 g / cm^3
# Si number density = 22.652692 Si / 1000 Ang^3
#
#
#
# Elastic Constant Matrix: (Units=GPa)
#
#
# Indices 1 2 3 4 5 6 
#
# 1 78.4468 17.2523 25.7198 17.2845 -10.2451 -10.8613
# 2 17.2523 118.3602 41.8142 15.6970 -11.0669 -0.4398
# 3 25.7198 41.8142 99.8948 22.2653 -7.9537 -0.9090
# 4 17.2845 15.6970 22.2653 44.4291 -6.1191 -12.8107
# 5 -10.2451 -11.0669 -7.9537 -6.1191 40.2627 21.8493
# 6 -10.8613 -0.4398 -0.9090 -12.8107 21.8493 33.6471
#
#
#
# Elastic Compliance Matrix: (Units=1/GPa)
#
#
# Indices 1 2 3 4 5 6 
#
# 1 0.015052 -0.000678 -0.002752 -0.003272 0.001061 0.002841
# 2 -0.000678 0.010352 -0.003444 -0.002120 0.003404 -0.003194
# 3 -0.002752 -0.003444 0.013517 -0.005364 0.002509 -0.004239
# 4 -0.003272 -0.002120 -0.005364 0.030474 -0.005363 0.013856
# 5 0.001061 0.003404 0.002509 -0.005363 0.041050 -0.028243
# 6 0.002841 -0.003194 -0.004239 0.013856 -0.028243 0.054097
#
#
# Mechanical properties :
#
#
# Convention : Reuss Voigt Hill
#
# Bulk Modulus (GPa) = 39.72580 51.80827 45.76704
# Shear Modulus (GPa) = 26.78364 37.79547 32.28955
#
# Velocity S-wave (km/s) = 3.44228 4.08913 3.77957
# Velocity P-wave (km/s) = 5.77702 6.72421 6.26853
#
# Compressibility (1/GPa) = 0.02517256
#
# Stress axis : x y z
#
# Youngs Moduli (GPa) = 66.43793 96.60115 73.97877
#
# Poissons Ratio (x) = 0.06550 0.20359
# Poissons Ratio (y) = 0.04505 0.25479
# Poissons Ratio (z) = 0.18283 0.33271
#
# Static dielectric constant tensor:
#      x y z
#    x 1.718650 -0.026780 -0.393980 
#    y -0.026780 1.885150 -0.059830 
#    z -0.393980 -0.059830 0.854190 
# 
# From -- ./inp_files/38535.got.cif
#   From: 2010.05.17/outbox.cif.g08.bks.cpg/sg2_20_cif.got.tgz:38535.got - 2010.06.03 11:33:40.
