data_PCOD9069247
_publ_section_title
;
Structure prediction by ZEFSAII (Michael W. Deem and Ramdas Pophale) SiO2 
 PCOD9069247
Probable space group: P -1
;
_chemical_formula_sum "Si O2"
_cell_formula_units_Z 14
_cell_length_a 11.215383
_cell_length_b 20.186637
_cell_length_c 8.386889
_cell_angle_alpha 43.462666
_cell_angle_beta 113.509814
_cell_angle_gamma 145.892122
_cell_volume 623.891956
_symmetry_space_group_name_H-M "P -1"
_symmetry_group_IT_number 2
_symmetry_cell_setting 'triclinic'
loop_
_space_group_symop_operation_xyz
x,y,z
-x,-y,-z
loop_
_atom_site_type_symbol
_atom_site_label
_atom_site_fract_x
_atom_site_fract_y
_atom_site_fract_z
Si Si1 0.315884 0.457488 0.073331
Si Si2 0.545984 0.047112 0.627638
Si Si3 0.382378 0.673390 0.282383
Si Si4 0.963478 0.296890 0.882056
Si Si5 0.302770 0.317451 0.605370
Si Si6 0.824895 0.074042 0.918240
Si Si7 0.709036 0.352065 0.098779
O O1 0.232847 0.336735 0.382618
O O2 0.500000 0.500000 0.000000
O O3 0.364048 0.591963 0.954425
O O4 0.117035 0.362209 0.002902
O O5 0.781681 0.137404 0.663819
O O6 0.572093 0.178548 0.421855
O O7 0.500000 0.000000 0.500000
O O8 0.311731 0.858415 0.929450
O O9 0.544865 0.679299 0.364267
O O10 0.115760 0.476804 0.558648
O O11 0.359675 0.687426 0.058340
O O12 0.558869 0.854238 0.164201
O O13 0.927691 0.186452 0.935488
O O14 0.500000 0.500000 0.500000
O O15 0.040303 0.137619 0.866895
O O16 0.000000 0.500000 0.000000
#
# Coordination Sequence:
#
# PCOD9069247 Si02
#       7
#     2   2   2   2   2   2   2
#     4  12  25  46  77 109 156 201 254 315 388 455
#     4  12  26  50  72 111 153 200 257 318 384 457
#     4  12  26  47  80 109 149 204 259 309 391 456
#     4  12  27  47  72 110 156 193 252 323 378 457
#     4  12  22  48  74 106 154 199 252 321 381 456
#     4  12  26  48  75 110 152 201 258 319 383 464
#     4  12  26  48  79 114 150 208 258 313 388 462
#
# _framework density 22.439782999999998
#
# number of rings (size 3 to 8) (size 9 to 14) (size 15 to 20)
#    0.000    0.000    5.714    4.286    2.000    0.571 
#    0.000    1.429    0.000    0.000    0.000    0.000 
#    0.000    0.000    0.000    0.000    0.000    0.000 
#
# Total GULP energy -78173.270289 kJ/mol
# GULP energy per Si atom -5583.805021 kJ/mol
# Density = 2.238871 g / cm^3
# Si number density = 22.439783 Si / 1000 Ang^3
#
#
#
# Elastic Constant Matrix: (Units=GPa)
#
#
# Indices 1 2 3 4 5 6 
#
# 1 118.1477 -3.0092 39.3933 -14.0641 -0.4238 9.2524
# 2 -3.0092 82.1059 31.7832 3.0696 0.4024 -17.2859
# 3 39.3933 31.7832 112.8993 -21.5254 -7.5439 -1.1840
# 4 -14.0641 3.0696 -21.5254 38.6083 6.4145 2.2581
# 5 -0.4238 0.4024 -7.5439 6.4145 44.7399 -2.4585
# 6 9.2524 -17.2859 -1.1840 2.2581 -2.4585 40.4120
#
#
#
# Elastic Compliance Matrix: (Units=1/GPa)
#
#
# Indices 1 2 3 4 5 6 
#
# 1 0.010071 0.001276 -0.003607 0.001824 -0.000897 -0.002022
# 2 0.001276 0.015997 -0.005719 -0.004365 -0.000106 0.006621
# 3 -0.003607 -0.005719 0.012987 0.006266 0.001225 -0.001515
# 4 0.001824 -0.004365 0.006266 0.031240 -0.003589 -0.004065
# 5 -0.000897 -0.000106 0.001225 -0.003589 0.023164 0.001805
# 6 -0.002022 0.006621 -0.001515 -0.004065 0.001805 0.028333
#
#
# Mechanical properties :
#
#
# Convention : Reuss Voigt Hill
#
# Bulk Modulus (GPa) = 43.56150 49.94306 46.75228
# Shear Modulus (GPa) = 34.35398 41.08440 37.71919
#
# Velocity S-wave (km/s) = 3.91697 4.28351 4.10433
# Velocity P-wave (km/s) = 6.31756 6.83882 6.58335
#
# Compressibility (1/GPa) = 0.02295605
#
# Stress axis : x y z
#
# Youngs Moduli (GPa) = 99.29233 62.51024 77.00293
#
# Poissons Ratio (x) = -0.07974 0.27772
# Poissons Ratio (y) = -0.12667 0.44035
# Poissons Ratio (z) = 0.35811 0.35747
#
# Static dielectric constant tensor:
#      x y z
#    x 1.968400 0.003420 0.050500 
#    y 0.003420 1.786340 -0.020760 
#    z 0.050500 -0.020760 1.875690 
# 
# From -- ./inp_files/282786.got.cif
#   From: 2010.05.17/outbox.cif.g08.bks.cpg/sg2_142_cif.got.tgz:282786.got - 2010.06.03 11:33:40.
