data_PCOD9069259
_publ_section_title
;
Structure prediction by ZEFSAII (Michael W. Deem and Ramdas Pophale) SiO2 
 PCOD9069259
Probable space group: P -1
;
_chemical_formula_sum "Si O2"
_cell_formula_units_Z 14
_cell_length_a 9.380345
_cell_length_b 15.584640
_cell_length_c 8.995860
_cell_angle_alpha 95.345898
_cell_angle_beta 128.477222
_cell_angle_gamma 47.566384
_cell_volume 626.769328
_symmetry_space_group_name_H-M "P -1"
_symmetry_group_IT_number 2
_symmetry_cell_setting 'triclinic'
loop_
_space_group_symop_operation_xyz
x,y,z
-x,-y,-z
loop_
_atom_site_type_symbol
_atom_site_label
_atom_site_fract_x
_atom_site_fract_y
_atom_site_fract_z
Si Si1 0.892995 0.689645 0.443787
Si Si2 0.702218 0.502355 0.074733
Si Si3 0.828068 0.732717 0.902324
Si Si4 0.771214 0.343166 0.592441
Si Si5 0.903082 0.935452 0.244405
Si Si6 0.486369 0.015784 0.744091
Si Si7 0.524272 0.231111 0.077519
O O1 0.711477 0.834649 0.429357
O O2 0.680496 0.725797 0.187405
O O3 0.057756 0.568549 0.649728
O O4 0.142157 0.647018 0.504888
O O5 0.487789 0.662657 0.928900
O O6 0.911852 0.400524 0.054210
O O7 0.500000 0.500000 0.000000
O O8 0.627082 0.883754 0.724789
O O9 0.630303 0.736666 0.861269
O O10 0.974285 0.726800 0.136441
O O11 0.500000 0.500000 0.500000
O O12 0.785758 0.233502 0.579920
O O13 0.713513 0.957039 0.253602
O O14 0.742034 0.973145 0.990687
O O15 0.836256 0.061746 0.244779
#
# Coordination Sequence:
#
# PCOD9069259 Si02
#       7
#     2   2   2   2   2   2   2
#     4   9  18  32  53  75  97 130 172 209 245 294
#     4  12  23  32  47  76 112 136 155 206 270 299
#     4   9  18  32  53  75  97 130 172 209 245 294
#     4   9  15  28  52  78 102 129 165 206 250 302
#     4   7  12  25  50  75  91 122 172 213 236 276
#     4   7  12  27  50  74  92 118 168 216 242 280
#     4   9  18  36  56  71  94 136 183 206 228 295
#
# _framework density 22.336766999999998
#
# number of rings (size 3 to 8) (size 9 to 14) (size 15 to 20)
#    0.000    3.143    0.000    5.143    0.000    0.571 
#    0.000    0.000    0.000   34.286    0.000    0.000 
#    0.000    0.000    0.000    0.000    0.000    0.000 
#
# Total GULP energy -77964.176794 kJ/mol
# GULP energy per Si atom -5568.869771 kJ/mol
# Density = 2.228593 g / cm^3
# Si number density = 22.336767 Si / 1000 Ang^3
#
#
#
# Elastic Constant Matrix: (Units=GPa)
#
#
# Indices 1 2 3 4 5 6 
#
# 1 46.6343 64.8980 10.4698 1.7197 -9.4002 12.0451
# 2 64.8980 185.0777 25.6240 -37.4291 -13.8244 22.3309
# 3 10.4698 25.6240 63.4145 5.4209 -7.4926 -1.9269
# 4 1.7197 -37.4291 5.4209 39.5292 -2.0833 -9.2349
# 5 -9.4002 -13.8244 -7.4926 -2.0833 18.8240 5.7835
# 6 12.0451 22.3309 -1.9269 -9.2349 5.7835 27.4680
#
#
#
# Elastic Compliance Matrix: (Units=1/GPa)
#
#
# Indices 1 2 3 4 5 6 
#
# 1 0.071522 -0.028381 0.004305 -0.035130 0.020081 -0.024027
# 2 -0.028381 0.020090 -0.005195 0.021679 -0.000022 0.003041
# 3 0.004305 -0.005195 0.018355 -0.007337 0.004782 0.000150
# 4 -0.035130 0.021679 -0.007337 0.051775 -0.003549 0.015420
# 5 0.020081 -0.000022 0.004782 -0.003549 0.072286 -0.024866
# 6 -0.024027 0.003041 0.000150 0.015420 -0.024866 0.054900
#
#
# Mechanical properties :
#
#
# Convention : Reuss Voigt Hill
#
# Bulk Modulus (GPa) = 19.44607 55.23444 37.34026
# Shear Modulus (GPa) = 13.71318 30.10655 21.90986
#
# Velocity S-wave (km/s) = 2.48045 3.67529 3.13531
# Velocity P-wave (km/s) = 4.11439 6.54156 5.46444
#
# Compressibility (1/GPa) = 0.05142426
#
# Stress axis : x y z
#
# Youngs Moduli (GPa) = 13.98162 49.77571 54.48238
#
# Poissons Ratio (x) = 1.41269 -0.23456
# Poissons Ratio (y) = 0.39681 0.28306
# Poissons Ratio (z) = -0.06019 0.25861
#
# Static dielectric constant tensor:
#      x y z
#    x 1.784410 0.002650 0.042550 
#    y 0.002650 1.922140 -0.050470 
#    z 0.042550 -0.050470 1.955730 
# 
# From -- ./inp_files/175921.got.cif
#   From: 2010.05.17/outbox.cif.g08.bks.cpg/sg2_88_cif.got.tgz:175921.got - 2010.06.03 11:33:40.
