data_PCOD9069668
_publ_section_title
;
Structure prediction by ZEFSAII (Michael W. Deem and Ramdas Pophale) SiO2 
 PCOD9069668
Probable space group: P -1
;
_chemical_formula_sum "Si O2"
_cell_formula_units_Z 15
_cell_length_a 9.586462
_cell_length_b 12.345766
_cell_length_c 9.142099
_cell_angle_alpha 120.258456
_cell_angle_beta 69.602933
_cell_angle_gamma 69.020064
_cell_volume 658.735330
_symmetry_space_group_name_H-M "P -1"
_symmetry_group_IT_number 2
_symmetry_cell_setting 'triclinic'
loop_
_space_group_symop_operation_xyz
x,y,z
-x,-y,-z
loop_
_atom_site_type_symbol
_atom_site_label
_atom_site_fract_x
_atom_site_fract_y
_atom_site_fract_z
Si Si1 0.488620 0.327988 0.155947
Si Si2 0.885946 0.501132 0.404576
Si Si3 0.500000 0.500000 0.000000
Si Si4 0.851095 0.820189 0.101829
Si Si5 0.881299 0.178169 0.584539
Si Si6 0.123531 0.260236 0.643079
Si Si7 0.504083 0.046771 0.863122
Si Si8 0.055461 0.960646 0.120466
O O1 0.329165 0.419827 0.406727
O O2 0.471443 0.457046 0.146497
O O3 0.439419 0.227006 0.017285
O O4 0.712373 0.184699 0.034027
O O5 0.876711 0.611657 0.357932
O O6 0.000000 0.500000 0.500000
O O7 0.003271 0.322540 0.166443
O O8 0.352017 0.702606 0.232552
O O9 0.831064 0.750810 0.210033
O O10 0.646376 0.947233 0.177958
O O11 0.939621 0.902073 0.177481
O O12 0.920841 0.293708 0.719758
O O13 0.000000 0.000000 0.500000
O O14 0.966075 0.126344 0.355265
O O15 0.286101 0.084809 0.381747
O O16 0.500000 0.000000 0.000000
O O17 0.000000 0.000000 0.000000
#
# Coordination Sequence:
#
# PCOD9069668 Si02
#       8
#     2   2   1   2   2   2   2   2
#     4  12  25  49  75 110 149 206 255 311 391 464
#     4  12  26  46  74 107 149 197 253 315 384 456
#     4  12  26  44  82 110 148 200 258 306 380 470
#     4  12  27  46  70 113 146 194 252 314 381 451
#     4  12  24  51  76 107 154 206 247 310 386 462
#     4  12  24  46  75 105 149 191 253 317 375 457
#     4  12  23  46  77 106 144 199 259 303 389 461
#     4  12  28  48  75 108 153 198 257 316 381 457
#
# _framework density 22.770904999999999
#
# number of rings (size 3 to 8) (size 9 to 14) (size 15 to 20)
#    0.000    0.000    6.667    2.400    3.733    0.533 
#    4.800    0.000    0.000    0.000    0.000    0.000 
#    0.000    0.000    0.000    0.000    0.000    0.000 
#
# Total GULP energy -83710.867996 kJ/mol
# GULP energy per Si atom -5580.724533 kJ/mol
# Density = 2.271908 g / cm^3
# Si number density = 22.770905 Si / 1000 Ang^3
#
#
#
# Elastic Constant Matrix: (Units=GPa)
#
#
# Indices 1 2 3 4 5 6 
#
# 1 82.2897 12.6603 8.1915 -16.6624 1.4386 -13.1075
# 2 12.6603 120.1626 19.4365 -26.4355 -4.6086 -2.9287
# 3 8.1915 19.4365 79.3645 -10.0788 8.3060 -16.7224
# 4 -16.6624 -26.4355 -10.0788 45.1481 1.3429 5.7635
# 5 1.4386 -4.6086 8.3060 1.3429 25.9079 -6.2146
# 6 -13.1075 -2.9287 -16.7224 5.7635 -6.2146 33.3912
#
#
#
# Elastic Compliance Matrix: (Units=1/GPa)
#
#
# Indices 1 2 3 4 5 6 
#
# 1 0.013824 -0.000433 0.000227 0.004291 0.000002 0.004762
# 2 -0.000433 0.009914 -0.002115 0.005228 0.001980 -0.000893
# 3 0.000227 -0.002115 0.015040 0.001486 -0.003732 0.006485
# 4 0.004291 0.005228 0.001486 0.027455 -0.001729 -0.002173
# 5 0.000002 0.001980 -0.003732 -0.001729 0.041766 0.006377
# 6 0.004762 -0.000893 0.006485 -0.002173 0.006377 0.036549
#
#
# Mechanical properties :
#
#
# Convention : Reuss Voigt Hill
#
# Bulk Modulus (GPa) = 29.29391 40.26594 34.77993
# Shear Modulus (GPa) = 31.13948 36.99134 34.06541
#
# Velocity S-wave (km/s) = 3.70200 4.03488 3.87202
# Velocity P-wave (km/s) = 5.58262 6.27921 5.94113
#
# Compressibility (1/GPa) = 0.03413679
#
# Stress axis : x y z
#
# Youngs Moduli (GPa) = 72.34056 100.86604 66.48811
#
# Poissons Ratio (x) = 0.04368 -0.01512
# Poissons Ratio (y) = 0.03133 0.14061
# Poissons Ratio (z) = -0.01645 0.21332
#
# Static dielectric constant tensor:
#      x y z
#    x 2.061810 -0.023400 -0.128350 
#    y -0.023400 1.882560 0.008960 
#    z -0.128350 0.008960 1.887250 
# 
# From -- ./inp_files/189877.got.cif
#   From: 2010.05.17/outbox.cif.g08.bks.cpg/sg2_95_cif.got.tgz:189877.got - 2010.06.03 11:33:40.
