data_PCOD9069626
_publ_section_title
;
Structure prediction by ZEFSAII (Michael W. Deem and Ramdas Pophale) SiO2 
 PCOD9069626
Probable space group: P -1
;
_chemical_formula_sum "Si O2"
_cell_formula_units_Z 16
_cell_length_a 9.264938
_cell_length_b 8.857260
_cell_length_c 16.108912
_cell_angle_alpha 87.785705
_cell_angle_beta 93.560234
_cell_angle_gamma 31.199876
_cell_volume 672.622315
_symmetry_space_group_name_H-M "P -1"
_symmetry_group_IT_number 2
_symmetry_cell_setting 'triclinic'
loop_
_space_group_symop_operation_xyz
x,y,z
-x,-y,-z
loop_
_atom_site_type_symbol
_atom_site_label
_atom_site_fract_x
_atom_site_fract_y
_atom_site_fract_z
Si Si1 0.959914 0.779962 0.317219
Si Si2 0.115692 0.873357 0.195501
Si Si3 0.538930 0.103079 0.565243
Si Si4 0.200084 0.449887 0.971217
Si Si5 0.491507 0.611554 0.914774
Si Si6 0.323432 0.982671 0.138255
Si Si7 0.611038 0.841971 0.727702
Si Si8 0.044549 0.779133 0.506925
O O1 0.150106 0.467318 0.304223
O O2 0.928381 0.826901 0.412939
O O3 0.110955 0.790673 0.283883
O O4 0.649406 0.033644 0.263015
O O5 0.254170 0.649163 0.133152
O O6 0.299254 0.860508 0.200235
O O7 0.790433 0.176475 0.149144
O O8 0.345846 0.423390 0.532542
O O9 0.500000 0.000000 0.500000
O O10 0.490509 0.074202 0.653904
O O11 0.857271 0.875534 0.570855
O O12 0.389088 0.259463 0.898955
O O13 0.438046 0.286977 0.048833
O O14 0.952016 0.793534 0.934894
O O15 0.000000 0.500000 0.000000
O O16 0.500000 0.500000 0.000000
O O17 0.278446 0.170980 0.187867
O O18 0.000000 0.000000 0.500000
#
# Coordination Sequence:
#
# PCOD9069626 Si02
#       8
#     2   2   2   2   2   2   2   2
#     4  12  26  47  68 106 143 186 235 292 358 434
#     4  12  26  44  71  99 139 183 232 290 363 421
#     4  12  23  48  75 102 141 196 239 291 358 431
#     4  12  27  44  71 101 138 178 239 297 349 419
#     4  12  23  46  71  95 131 186 232 288 351 424
#     4  12  26  48  65 105 140 182 234 291 358 426
#     4  12  27  45  73 101 146 188 235 290 358 435
#     4  12  26  46  74 109 145 184 247 302 353 424
#
# _framework density 23.787496000000001
#
# number of rings (size 3 to 8) (size 9 to 14) (size 15 to 20)
#    0.000    0.000    5.000    4.500    7.000    0.000 
#    2.250    0.000    0.000    0.000    0.000    0.000 
#    0.000    0.000    0.000    0.000    0.000    0.000 
#
# Total GULP energy -89484.182996 kJ/mol
# GULP energy per Si atom -5592.761437 kJ/mol
# Density = 2.373335 g / cm^3
# Si number density = 23.787496 Si / 1000 Ang^3
#
#
#
# Elastic Constant Matrix: (Units=GPa)
#
#
# Indices 1 2 3 4 5 6 
#
# 1 128.1534 19.5076 28.9764 20.9617 -15.7528 -3.8419
# 2 19.5076 95.8312 -1.0678 11.5358 7.1892 1.6009
# 3 28.9764 -1.0678 48.7687 1.3201 -11.8102 1.1828
# 4 20.9617 11.5358 1.3201 28.1325 0.6524 -1.5842
# 5 -15.7528 7.1892 -11.8102 0.6524 48.3548 3.6616
# 6 -3.8419 1.6009 1.1828 -1.5842 3.6616 31.0556
#
#
#
# Elastic Compliance Matrix: (Units=1/GPa)
#
#
# Indices 1 2 3 4 5 6 
#
# 1 0.010834 -0.001605 -0.005724 -0.007145 0.002391 0.000995
# 2 -0.001605 0.011347 0.000857 -0.003497 -0.001895 -0.000771
# 3 -0.005724 0.000857 0.024928 0.002530 0.004219 -0.002070
# 4 -0.007145 -0.003497 0.002530 0.042318 -0.001881 0.001580
# 5 0.002391 -0.001895 0.004219 -0.001881 0.022992 -0.002574
# 6 0.000995 -0.000771 -0.002070 0.001580 -0.002574 0.032826
#
#
# Mechanical properties :
#
#
# Convention : Reuss Voigt Hill
#
# Bulk Modulus (GPa) = 29.27020 40.84286 35.05653
# Shear Modulus (GPa) = 29.48482 36.53104 33.00793
#
# Velocity S-wave (km/s) = 3.52449 3.92308 3.72911
# Velocity P-wave (km/s) = 5.37534 6.14231 5.77158
#
# Compressibility (1/GPa) = 0.03416444
#
# Stress axis : x y z
#
# Youngs Moduli (GPa) = 92.30026 88.12694 40.11530
#
# Poissons Ratio (x) = 0.14145 0.22962
# Poissons Ratio (y) = 0.14815 -0.03436
# Poissons Ratio (z) = 0.52833 -0.07548
#
# Static dielectric constant tensor:
#      x y z
#    x 1.965930 0.064910 -0.019550 
#    y 0.064910 1.921500 -0.049630 
#    z -0.019550 -0.049630 1.891350 
# 
# From -- ./inp_files/222246.got.cif
#   From: 2010.05.17/outbox.cif.g08.bks.cpg/sg2_112_cif.got.tgz:222246.got - 2010.06.03 11:33:40.
