data_PCOD9069977
_publ_section_title
;
Structure prediction by ZEFSAII (Michael W. Deem and Ramdas Pophale) SiO2 
 PCOD9069977
Probable space group: P -1
;
_chemical_formula_sum "Si O2"
_cell_formula_units_Z 16
_cell_length_a 11.689036
_cell_length_b 26.573214
_cell_length_c 25.994195
_cell_angle_alpha 10.613829
_cell_angle_beta 151.922939
_cell_angle_gamma 152.175184
_cell_volume 686.102810
_symmetry_space_group_name_H-M "P -1"
_symmetry_group_IT_number 2
_symmetry_cell_setting 'triclinic'
loop_
_space_group_symop_operation_xyz
x,y,z
-x,-y,-z
loop_
_atom_site_type_symbol
_atom_site_label
_atom_site_fract_x
_atom_site_fract_y
_atom_site_fract_z
Si Si1 0.699925 0.888297 0.225333
Si Si2 0.244589 0.913251 0.790927
Si Si3 0.971203 0.512755 0.236652
Si Si4 0.519154 0.971354 0.337981
Si Si5 0.016305 0.144039 0.805551
Si Si6 0.956717 0.347990 0.279568
Si Si7 0.477830 0.525220 0.091490
Si Si8 0.658902 0.252650 0.684864
O O1 0.851121 0.668907 0.482407
O O2 0.541845 0.729336 0.369220
O O3 0.500000 0.000000 0.000000
O O4 0.889346 0.168611 0.035677
O O5 0.495063 0.080831 0.747770
O O6 0.028840 0.061969 0.577319
O O7 0.287448 0.937942 0.722394
O O8 0.184252 0.595127 0.104849
O O9 0.916806 0.372006 0.300428
O O10 0.726165 0.504893 0.179977
O O11 0.608075 0.756719 0.627374
O O12 0.477845 0.232482 0.092273
O O13 0.252073 0.839478 0.339648
O O14 0.187809 0.448616 0.570164
O O15 0.149624 0.941993 0.026732
O O16 0.000000 0.000000 0.000000
O O17 0.722511 0.407306 0.095882
#
# Coordination Sequence:
#
# PCOD9069977 Si02
#       8
#     2   2   2   2   2   2   2   2
#     4  12  27  44  73 109 145 185 231 293 364 416
#     4  12  25  45  77 102 145 181 243 294 350 426
#     4  12  25  50  72 105 143 187 240 293 353 434
#     4  12  28  46  67 109 144 188 231 295 358 429
#     4  12  26  42  72 101 143 189 231 275 351 434
#     4  12  25  49  76 103 131 192 245 300 354 414
#     4  12  29  47  72 102 146 186 238 301 361 410
#     4  12  24  44  70 106 141 188 232 290 347 429
#
# _framework density 23.320119999999999
#
# number of rings (size 3 to 8) (size 9 to 14) (size 15 to 20)
#    0.000    0.000    3.750    5.625    7.000    3.000 
#    0.000    3.750    0.000    0.000    0.000    0.000 
#    0.000    0.000    0.000    0.000    0.000    0.000 
#
# Total GULP energy -89723.295071 kJ/mol
# GULP energy per Si atom -5607.705942 kJ/mol
# Density = 2.326704 g / cm^3
# Si number density = 23.320120 Si / 1000 Ang^3
#
#
#
# Elastic Constant Matrix: (Units=GPa)
#
#
# Indices 1 2 3 4 5 6 
#
# 1 -67.3576 159.8492 -153.6294 84.5663 -88.3801 -48.4886
# 2 159.8492 -39.5646 137.9439 -67.8883 68.0494 31.8454
# 3 -153.6294 137.9439 -59.0777 81.2968 -81.1194 -32.6103
# 4 84.5663 -67.8883 81.2968 -2.0750 46.4330 19.8852
# 5 -88.3801 68.0494 -81.1194 46.4330 -7.1251 -14.6501
# 6 -48.4886 31.8454 -32.6103 19.8852 -14.6501 11.1596
#
#
#
# Elastic Compliance Matrix: (Units=1/GPa)
#
#
# Indices 1 2 3 4 5 6 
#
# 1 0.006859 0.001484 -0.003779 0.004142 -0.004213 0.001615
# 2 0.001484 0.009477 0.002509 -0.005001 0.005377 0.002707
# 3 -0.003779 0.002509 0.008925 0.002584 -0.002598 -0.005514
# 4 0.004142 -0.005001 0.002584 0.021185 0.001420 0.003932
# 5 -0.004213 0.005377 -0.002598 0.001420 0.024895 -0.011089
# 6 0.001615 0.002707 -0.005514 0.003932 -0.011089 0.051222
#
#
# Mechanical properties :
#
#
# Convention : Reuss Voigt Hill
#
# Bulk Modulus (GPa) = 38.92782 13.59194 26.25988
# Shear Modulus (GPa) = 38.25675 -20.28567 8.98554
#
# Velocity S-wave (km/s) = 4.05471 -2.95257 1.96507
# Velocity P-wave (km/s) = 6.21691 2.40468 4.05385
#
# Compressibility (1/GPa) = 0.02568857
#
# Stress axis : x y z
#
# Youngs Moduli (GPa) = 145.79774 105.52400 112.05051
#
# Poissons Ratio (x) = -0.15659 0.42340
# Poissons Ratio (y) = -0.21636 -0.28114
# Poissons Ratio (z) = 0.55092 -0.26477
#
# Static dielectric constant tensor:
#      x y z
#    x 1.892670 -0.029300 0.038110 
#    y -0.029300 1.900800 0.004820 
#    z 0.038110 0.004820 1.863550 
# 
# From -- ./inp_files/485923.got.cif
#   From: 2010.05.17/outbox.cif.g08.bks.cpg/sg2_243_cif.got.tgz:485923.got - 2010.06.03 11:33:40.
