data_PCOD9069225
_publ_section_title
;
Structure prediction by ZEFSAII (Michael W. Deem and Ramdas Pophale) SiO2 
 PCOD9069225
Probable space group: P -1
;
_chemical_formula_sum "Si O2"
_cell_formula_units_Z 15
_cell_length_a 9.149347
_cell_length_b 20.539276
_cell_length_c 11.710556
_cell_angle_alpha 149.497329
_cell_angle_beta 140.578659
_cell_angle_gamma 37.695329
_cell_volume 653.170882
_symmetry_space_group_name_H-M "P -1"
_symmetry_group_IT_number 2
_symmetry_cell_setting 'triclinic'
loop_
_space_group_symop_operation_xyz
x,y,z
-x,-y,-z
loop_
_atom_site_type_symbol
_atom_site_label
_atom_site_fract_x
_atom_site_fract_y
_atom_site_fract_z
Si Si1 0.706462 0.500543 0.535628
Si Si2 0.970187 0.623393 0.254552
Si Si3 0.500000 0.500000 0.000000
Si Si4 0.635945 0.782630 0.789268
Si Si5 0.826446 0.297804 0.092597
Si Si6 0.796502 0.275445 0.643434
Si Si7 0.537905 0.119212 0.630366
Si Si8 0.775024 0.950212 0.311649
O O1 0.500000 0.500000 0.500000
O O2 0.956326 0.436558 0.665244
O O3 0.674609 0.648209 0.688636
O O4 0.716105 0.398002 0.284016
O O5 0.147739 0.687750 0.395995
O O6 0.695608 0.739134 0.273521
O O7 0.000000 0.500000 0.000000
O O8 0.693016 0.378183 0.018398
O O9 0.356872 0.595528 0.171999
O O10 0.382542 0.809263 0.608281
O O11 0.880059 0.736244 0.787463
O O12 0.651431 0.902916 0.060847
O O13 0.775064 0.157159 0.859193
O O14 0.069350 0.188040 0.728164
O O15 0.500000 0.000000 0.500000
O O16 0.571875 0.065838 0.440756
O O17 0.000000 0.000000 0.500000
#
# Coordination Sequence:
#
# PCOD9069225 Si02
#       8
#     2   2   1   2   2   2   2   2
#     4  12  25  45  72 114 150 187 256 322 387 448
#     4  12  26  47  77 110 151 203 258 316 387 457
#     4  12  22  46  74 112 158 192 258 316 390 450
#     4  12  26  46  76 110 154 195 253 330 378 463
#     4  12  27  45  73 113 151 200 255 322 387 455
#     4  12  25  45  77 112 146 205 255 313 392 455
#     4  12  27  49  76 105 154 209 253 311 390 467
#     4  12  26  51  71 106 155 205 254 313 384 471
#
# _framework density 22.964894000000001
#
# number of rings (size 3 to 8) (size 9 to 14) (size 15 to 20)
#    0.000    0.000    6.667    2.800    3.733    1.600 
#    2.400    1.333    0.000    0.000    0.000    0.000 
#    0.000    0.000    0.000    0.000    0.000    0.000 
#
# Total GULP energy -83722.907462 kJ/mol
# GULP energy per Si atom -5581.527164 kJ/mol
# Density = 2.291263 g / cm^3
# Si number density = 22.964894 Si / 1000 Ang^3
#
#
#
# Elastic Constant Matrix: (Units=GPa)
#
#
# Indices 1 2 3 4 5 6 
#
# 1 125.8023 1.1559 44.7942 4.0259 -13.6402 -19.2530
# 2 1.1559 68.8522 9.9922 -7.1450 -2.7691 -5.8207
# 3 44.7942 9.9922 110.2056 -0.1626 -8.9242 -12.2021
# 4 4.0259 -7.1450 -0.1626 36.6937 -2.6711 -5.8937
# 5 -13.6402 -2.7691 -8.9242 -2.6711 54.7784 2.1987
# 6 -19.2530 -5.8207 -12.2021 -5.8937 2.1987 42.7162
#
#
#
# Elastic Compliance Matrix: (Units=1/GPa)
#
#
# Indices 1 2 3 4 5 6 
#
# 1 0.009943 0.000683 -0.003581 -0.000295 0.001775 0.003419
# 2 0.000683 0.015289 -0.001325 0.003345 0.000792 0.002433
# 3 -0.003581 -0.001325 0.010861 0.000453 0.000779 0.001330
# 4 -0.000295 0.003345 0.000453 0.028738 0.001396 0.004345
# 5 0.001775 0.000792 0.000779 0.001396 0.018919 0.000350
# 6 0.003419 0.002433 0.001330 0.004345 0.000350 0.026245
#
#
# Mechanical properties :
#
#
# Convention : Reuss Voigt Hill
#
# Bulk Modulus (GPa) = 36.17244 46.30500 41.23872
# Shear Modulus (GPa) = 39.16722 43.43219 41.29971
#
# Velocity S-wave (km/s) = 4.13428 4.35356 4.24534
# Velocity P-wave (km/s) = 6.21089 6.74377 6.48281
#
# Compressibility (1/GPa) = 0.02764536
#
# Stress axis : x y z
#
# Youngs Moduli (GPa) = 100.57109 65.40479 92.07349
#
# Poissons Ratio (x) = -0.04465 0.32976
# Poissons Ratio (y) = -0.06865 0.12202
# Poissons Ratio (z) = 0.36019 0.08668
#
# Static dielectric constant tensor:
#      x y z
#    x 1.868910 0.059380 0.049300 
#    y 0.059380 1.744600 0.077070 
#    z 0.049300 0.077070 1.822910 
# 
# From -- ./inp_files/333370.got.cif
#   From: 2010.05.17/outbox.cif.g08.bks.cpg/sg2_167_cif.got.tgz:333370.got - 2010.06.03 11:33:40.
