data_PCOD9069563
_publ_section_title
;
Structure prediction by ZEFSAII (Michael W. Deem and Ramdas Pophale) SiO2 
 PCOD9069563
Probable space group: P -1
;
_chemical_formula_sum "Si O2"
_cell_formula_units_Z 12
_cell_length_a 11.300030
_cell_length_b 9.774523
_cell_length_c 9.192439
_cell_angle_alpha 42.960190
_cell_angle_beta 119.093781
_cell_angle_gamma 94.603895
_cell_volume 535.993539
_symmetry_space_group_name_H-M "P -1"
_symmetry_group_IT_number 2
_symmetry_cell_setting 'triclinic'
loop_
_space_group_symop_operation_xyz
x,y,z
-x,-y,-z
loop_
_atom_site_type_symbol
_atom_site_label
_atom_site_fract_x
_atom_site_fract_y
_atom_site_fract_z
Si Si1 0.567826 0.796701 0.084335
Si Si2 0.675964 0.393783 0.960299
Si Si3 0.016943 0.704802 0.928366
Si Si4 0.906278 0.398772 0.609910
Si Si5 0.548439 0.108421 0.574112
Si Si6 0.794318 0.180834 0.489842
O O1 0.437983 0.716916 0.040255
O O2 0.728174 0.581331 0.384479
O O3 0.500000 0.000000 0.000000
O O4 0.602743 0.918865 0.875523
O O5 0.834287 0.283175 0.053623
O O6 0.590505 0.651711 0.652037
O O7 0.716936 0.377176 0.170059
O O8 0.027575 0.674719 0.132370
O O9 0.000000 0.500000 0.000000
O O10 0.872527 0.948162 0.627414
O O11 0.909210 0.213186 0.641781
O O12 0.000000 0.500000 0.500000
O O13 0.672536 0.171025 0.533372
O O14 0.500000 0.000000 0.500000
#
# Coordination Sequence:
#
# PCOD9069563 Si02
#       6
#     2   2   2   2   2   2
#     4  12  28  44  74 108 145 187 234 298 356 420
#     4  12  26  47  73 108 145 184 240 292 359 423
#     4  12  28  47  74 103 145 193 236 293 361 423
#     4  12  27  48  72 106 145 187 243 293 353 425
#     4  12  23  45  73 104 141 183 237 289 353 422
#     4  12  25  47  74 105 143 189 239 295 350 426
#
# _framework density 22.388328000000001
#
# number of rings (size 3 to 8) (size 9 to 14) (size 15 to 20)
#    0.000    0.000    3.333    6.500    7.000    1.333 
#    0.000    0.000    0.000    0.000    0.000    0.000 
#    0.000    0.000    0.000    0.000    0.000    0.000 
#
# Total GULP energy -67151.172058 kJ/mol
# GULP energy per Si atom -5595.931005 kJ/mol
# Density = 2.233737 g / cm^3
# Si number density = 22.388328 Si / 1000 Ang^3
#
#
#
# Elastic Constant Matrix: (Units=GPa)
#
#
# Indices 1 2 3 4 5 6 
#
# 1 98.4215 -0.0072 -5.9200 9.7655 -10.4846 2.6953
# 2 -0.0072 111.1252 1.6464 -6.3791 -5.4268 11.0393
# 3 -5.9200 1.6464 68.5196 -9.9616 -0.2358 6.7740
# 4 9.7655 -6.3791 -9.9616 32.3564 -12.5778 11.6366
# 5 -10.4846 -5.4268 -0.2358 -12.5778 42.7364 -10.2718
# 6 2.6953 11.0393 6.7740 11.6366 -10.2718 25.6949
#
#
#
# Elastic Compliance Matrix: (Units=1/GPa)
#
#
# Indices 1 2 3 4 5 6 
#
# 1 0.010640 -0.000136 0.000473 -0.002593 0.002025 0.000802
# 2 -0.000136 0.009972 0.001132 0.005130 0.001209 -0.006409
# 3 0.000473 0.001132 0.016703 0.008607 0.000842 -0.008501
# 4 -0.002593 0.005130 0.008607 0.046519 0.008497 -0.021872
# 5 0.002025 0.001209 0.000842 0.008497 0.028101 0.006432
# 6 0.000802 -0.006409 -0.008501 -0.021872 0.006432 0.056305
#
#
# Mechanical properties :
#
#
# Convention : Reuss Voigt Hill
#
# Bulk Modulus (GPa) = 24.84219 29.94495 27.39357
# Shear Modulus (GPa) = 27.97692 38.98068 33.47880
#
# Velocity S-wave (km/s) = 3.53883 4.17720 3.87119
# Velocity P-wave (km/s) = 5.27427 6.05554 5.67836
#
# Compressibility (1/GPa) = 0.04025409
#
# Stress axis : x y z
#
# Youngs Moduli (GPa) = 93.98559 100.27789 59.87044
#
# Poissons Ratio (x) = 0.01363 -0.02833
# Poissons Ratio (y) = 0.01278 -0.06779
# Poissons Ratio (z) = -0.04448 -0.11354
#
# Static dielectric constant tensor:
#      x y z
#    x 1.753360 -0.005180 0.038550 
#    y -0.005180 1.809830 -0.005110 
#    z 0.038550 -0.005110 1.784910 
# 
# From -- ./inp_files/17765.got.cif
#   From: 2010.05.17/outbox.cif.g08.bks.cpg/sg2_9_cif.got.tgz:17765.got - 2010.06.03 11:33:40.
