data_PCOD9069113
_publ_section_title
;
Structure prediction by ZEFSAII (Michael W. Deem and Ramdas Pophale) SiO2 
 PCOD9069113
Probable space group: P -1
;
_chemical_formula_sum "Si O2"
_cell_formula_units_Z 14
_cell_length_a 20.785046
_cell_length_b 12.828327
_cell_length_c 21.323883
_cell_angle_alpha 158.532592
_cell_angle_beta 18.959923
_cell_angle_gamma 148.536187
_cell_volume 658.192835
_symmetry_space_group_name_H-M "P -1"
_symmetry_group_IT_number 2
_symmetry_cell_setting 'triclinic'
loop_
_space_group_symop_operation_xyz
x,y,z
-x,-y,-z
loop_
_atom_site_type_symbol
_atom_site_label
_atom_site_fract_x
_atom_site_fract_y
_atom_site_fract_z
Si Si1 0.856230 0.178895 0.133289
Si Si2 0.343949 0.790413 0.283860
Si Si3 0.361327 0.212577 0.796223
Si Si4 0.084140 0.215202 0.371487
Si Si5 0.644269 0.184613 0.196387
Si Si6 0.235158 0.769208 0.505626
Si Si7 0.971368 0.696098 0.385941
O O1 0.763801 0.170465 0.144255
O O2 0.852542 0.502018 0.344143
O O3 0.744069 0.990492 0.176289
O O4 0.090516 0.000385 0.813238
O O5 0.238826 0.915542 0.516449
O O6 0.157212 0.752575 0.392759
O O7 0.484679 0.979931 0.230774
O O8 0.500000 0.500000 0.000000
O O9 0.533602 0.328858 0.740115
O O10 0.500000 0.000000 0.500000
O O11 0.190179 0.475009 0.072983
O O12 0.137172 0.488392 0.438610
O O13 0.133451 0.237361 0.411728
O O14 0.203619 0.926463 0.063668
O O15 0.500000 0.500000 0.500000
O O16 0.000000 0.000000 0.500000
#
# Coordination Sequence:
#
# PCOD9069113 Si02
#       7
#     2   2   2   2   2   2   2
#     4  12  25  50  73 106 144 193 246 299 359 437
#     4  12  23  43  75 109 138 183 244 296 358 427
#     4  12  24  44  76 106 141 195 252 293 354 443
#     4  12  26  45  74 108 147 187 240 305 357 431
#     4  12  29  46  74 110 150 191 238 303 374 432
#     4  12  22  42  79 110 136 183 252 301 351 423
#     4  12  29  48  73 107 152 195 237 306 377 429
#
# _framework density 21.270363
#
# number of rings (size 3 to 8) (size 9 to 14) (size 15 to 20)
#    0.000    0.000    7.143    3.429    2.000    2.857 
#    0.000    2.143    0.000    0.000    0.000    0.000 
#    0.000    0.000    0.000    0.000    0.000    0.000 
#
# Total GULP energy -78297.085335 kJ/mol
# GULP energy per Si atom -5592.648952 kJ/mol
# Density = 2.122195 g / cm^3
# Si number density = 21.270363 Si / 1000 Ang^3
#
#
#
# Elastic Constant Matrix: (Units=GPa)
#
#
# Indices 1 2 3 4 5 6 
#
# 1 71.4599 16.6835 34.3541 -10.3876 20.9223 12.2468
# 2 16.6835 101.0525 46.9235 -3.1156 -4.7618 17.4740
# 3 34.3541 46.9235 141.7261 1.3325 17.2338 -8.6337
# 4 -10.3876 -3.1156 1.3325 41.1374 -5.2386 2.5550
# 5 20.9223 -4.7618 17.2338 -5.2386 33.5722 -4.9304
# 6 12.2468 17.4740 -8.6337 2.5550 -4.9304 40.9617
#
#
#
# Elastic Compliance Matrix: (Units=1/GPa)
#
#
# Indices 1 2 3 4 5 6 
#
# 1 0.021937 -0.000519 -0.004259 0.004648 -0.012153 -0.008988
# 2 -0.000519 0.013906 -0.005436 0.002070 0.004453 -0.006516
# 3 -0.004259 -0.005436 0.010638 -0.002582 -0.003156 0.005616
# 4 0.004648 0.002070 -0.002582 0.026264 0.002205 -0.004190
# 5 -0.012153 0.004453 -0.003156 0.002205 0.040814 0.005844
# 6 -0.008988 -0.006516 0.005616 -0.004190 0.005844 0.032028
#
#
# Mechanical properties :
#
#
# Convention : Reuss Voigt Hill
#
# Bulk Modulus (GPa) = 38.38403 56.68452 47.53428
# Shear Modulus (GPa) = 28.62040 37.55278 33.08659
#
# Velocity S-wave (km/s) = 3.67216 4.20634 3.94829
# Velocity P-wave (km/s) = 6.00538 7.09214 6.57127
#
# Compressibility (1/GPa) = 0.02605250
#
# Stress axis : x y z
#
# Youngs Moduli (GPa) = 45.58562 71.91029 94.00096
#
# Poissons Ratio (x) = 0.03734 0.40034
# Poissons Ratio (y) = 0.02367 0.51100
# Poissons Ratio (z) = 0.19414 0.39091
#
# Static dielectric constant tensor:
#      x y z
#    x 1.886560 0.037770 0.053790 
#    y 0.037770 1.719380 -0.010160 
#    z 0.053790 -0.010160 1.775120 
# 
# From -- ./inp_files/28475.got.cif
#   From: 2010.05.17/outbox.cif.g08.bks.cpg/sg2_15_cif.got.tgz:28475.got - 2010.06.03 11:33:40.
