data_PCOD9069161
_publ_section_title
;
Structure prediction by ZEFSAII (Michael W. Deem and Ramdas Pophale) SiO2 
 PCOD9069161
Probable space group: P -1
;
_chemical_formula_sum "Si O2"
_cell_formula_units_Z 16
_cell_length_a 21.751855
_cell_length_b 17.828043
_cell_length_c 9.177616
_cell_angle_alpha 37.983127
_cell_angle_beta 37.486846
_cell_angle_gamma 19.021921
_cell_volume 692.849991
_symmetry_space_group_name_H-M "P -1"
_symmetry_group_IT_number 2
_symmetry_cell_setting 'triclinic'
loop_
_space_group_symop_operation_xyz
x,y,z
-x,-y,-z
loop_
_atom_site_type_symbol
_atom_site_label
_atom_site_fract_x
_atom_site_fract_y
_atom_site_fract_z
Si Si1 0.950199 0.334235 0.479353
Si Si2 0.011004 0.363282 0.781267
Si Si3 0.962880 0.179066 0.959672
Si Si4 0.503837 0.621312 0.218605
Si Si5 0.725410 0.546350 0.276055
Si Si6 0.631239 0.021803 0.855952
Si Si7 0.313887 0.183750 0.667649
Si Si8 0.193094 0.814149 0.322066
O O1 0.989152 0.173998 0.746564
O O2 0.846804 0.429871 0.372803
O O3 0.810989 0.564965 0.481880
O O4 0.153823 0.186443 0.289411
O O5 0.033342 0.229709 0.831906
O O6 0.000000 0.500000 0.500000
O O7 0.181945 0.212784 0.804892
O O8 0.834581 0.500747 0.006396
O O9 0.730043 0.405331 0.078241
O O10 0.100541 0.938370 0.148090
O O11 0.500000 0.500000 0.500000
O O12 0.431068 0.804779 0.180634
O O13 0.345655 0.758602 0.177360
O O14 0.513965 0.822029 0.244678
O O15 0.706489 0.420107 0.489066
O O16 0.625947 0.909487 0.139122
O O17 0.500000 0.000000 0.500000
O O18 0.000000 0.000000 0.500000
#
# Coordination Sequence:
#
# PCOD9069161 Si02
#       8
#     2   2   2   2   2   2   2   2
#     4  12  29  48  67 111 155 189 239 305 377 433
#     4  12  22  45  76 106 147 186 249 302 356 441
#     4  12  26  46  74 109 144 193 253 303 356 438
#     4  12  22  44  78 106 139 193 253 299 359 436
#     4  12  26  46  72 110 150 193 243 298 374 435
#     4  12  24  45  73 104 148 195 238 304 371 430
#     4  12  26  46  77 106 144 196 249 303 364 440
#     4  12  22  43  76 108 141 194 250 303 357 430
#
# _framework density 23.093022000000001
#
# number of rings (size 3 to 8) (size 9 to 14) (size 15 to 20)
#    0.000    0.000    7.500    3.375    0.000    3.000 
#    0.000    1.250    0.000    0.000    0.000    0.000 
#    0.000    0.000    0.000    0.000    0.000    0.000 
#
# Total GULP energy -89492.569506 kJ/mol
# GULP energy per Si atom -5593.285594 kJ/mol
# Density = 2.304046 g / cm^3
# Si number density = 23.093022 Si / 1000 Ang^3
#
#
#
# Elastic Constant Matrix: (Units=GPa)
#
#
# Indices 1 2 3 4 5 6 
#
# 1 86.2791 17.2106 31.2474 -12.5351 6.6249 -25.5289
# 2 17.2106 82.5088 27.6978 -11.4296 11.4432 -29.6105
# 3 31.2474 27.6978 125.9371 -20.8282 21.3959 -14.4429
# 4 -12.5351 -11.4296 -20.8282 39.9945 -8.5531 9.9993
# 5 6.6249 11.4432 21.3959 -8.5531 44.4088 -9.0295
# 6 -25.5289 -29.6105 -14.4429 9.9993 -9.0295 31.7498
#
#
#
# Elastic Compliance Matrix: (Units=1/GPa)
#
#
# Indices 1 2 3 4 5 6 
#
# 1 0.016499 0.002749 -0.003116 0.001022 0.001479 0.014511
# 2 0.002749 0.019264 -0.002689 0.000215 -0.000209 0.018826
# 3 -0.003116 -0.002689 0.010198 0.003414 -0.003601 -0.002474
# 4 0.001022 0.000215 0.003414 0.029184 0.002572 -0.005885
# 5 0.001479 -0.000209 -0.003601 0.002572 0.025776 0.005877
# 6 0.014511 0.018826 -0.002474 -0.005885 0.005877 0.063121
#
#
# Mechanical properties :
#
#
# Convention : Reuss Voigt Hill
#
# Bulk Modulus (GPa) = 25.09505 49.67074 37.38289
# Shear Modulus (GPa) = 27.25705 37.80189 32.52947
#
# Velocity S-wave (km/s) = 3.43930 4.05030 3.75724
# Velocity P-wave (km/s) = 5.16355 6.59006 5.91993
#
# Compressibility (1/GPa) = 0.03984849
#
# Stress axis : x y z
#
# Youngs Moduli (GPa) = 60.60888 51.90970 98.06070
#
# Poissons Ratio (x) = -0.14269 0.30560
# Poissons Ratio (y) = -0.16660 0.26366
# Poissons Ratio (z) = 0.18888 0.13957
#
# Static dielectric constant tensor:
#      x y z
#    x 1.948130 0.035580 -0.019990 
#    y 0.035580 1.951570 -0.083160 
#    z -0.019990 -0.083160 1.900460 
# 
# From -- ./inp_files/348816.got.cif
#   From: 2010.05.17/outbox.cif.g08.bks.cpg/sg2_175_cif.got.tgz:348816.got - 2010.06.03 11:33:40.
