data_PCOD9069646
_publ_section_title
;
Structure prediction by ZEFSAII (Michael W. Deem and Ramdas Pophale) SiO2 
 PCOD9069646
Probable space group: P -1
;
_chemical_formula_sum "Si O2"
_cell_formula_units_Z 14
_cell_length_a 9.918580
_cell_length_b 13.566778
_cell_length_c 8.124738
_cell_angle_alpha 109.644014
_cell_angle_beta 102.629451
_cell_angle_gamma 129.604267
_cell_volume 636.633745
_symmetry_space_group_name_H-M "P -1"
_symmetry_group_IT_number 2
_symmetry_cell_setting 'triclinic'
loop_
_space_group_symop_operation_xyz
x,y,z
-x,-y,-z
loop_
_atom_site_type_symbol
_atom_site_label
_atom_site_fract_x
_atom_site_fract_y
_atom_site_fract_z
Si Si1 0.991182 0.215082 0.448352
Si Si2 0.308214 0.468573 0.386780
Si Si3 0.124639 0.305038 0.892991
Si Si4 0.196636 0.697258 0.150656
Si Si5 0.013101 0.001962 0.204602
Si Si6 0.518328 0.796559 0.561770
Si Si7 0.496823 0.004221 0.811367
O O1 0.105532 0.323960 0.372173
O O2 0.154114 0.323109 0.710817
O O3 0.936056 0.062084 0.305657
O O4 0.757551 0.130361 0.379571
O O5 0.500000 0.500000 0.500000
O O6 0.381920 0.630612 0.531936
O O7 0.264656 0.432836 0.157307
O O8 0.911650 0.253580 0.819565
O O9 0.100270 0.169732 0.859748
O O10 0.369906 0.754107 0.355267
O O11 0.346250 0.809569 0.096845
O O12 0.000000 0.500000 0.000000
O O13 0.265734 0.136878 0.396312
O O14 0.000000 0.000000 0.000000
O O15 0.585776 0.942532 0.749685
O O16 0.500000 0.000000 0.000000
#
# Coordination Sequence:
#
# PCOD9069646 Si02
#       7
#     2   2   2   2   2   2   2
#     4  12  26  44  75 110 142 192 252 298 363 439
#     4  12  26  48  71 107 152 193 238 306 373 432
#     4  12  24  46  73 103 146 189 245 303 362 434
#     4  12  25  46  75 105 145 191 238 304 373 427
#     4  12  23  46  74 102 144 196 238 299 363 434
#     4  12  24  45  76  99 145 195 241 288 371 435
#     4  12  26  45  74 109 144 190 249 301 361 440
#
# _framework density 21.990666999999998
#
# number of rings (size 3 to 8) (size 9 to 14) (size 15 to 20)
#    0.000    0.000    7.143    3.429    0.000    2.286 
#    0.000    0.000    0.000    0.000    0.000    0.000 
#    0.000    0.000    0.000    0.000    0.000    0.000 
#
# Total GULP energy -78072.958382 kJ/mol
# GULP energy per Si atom -5576.639884 kJ/mol
# Density = 2.194062 g / cm^3
# Si number density = 21.990667 Si / 1000 Ang^3
#
#
#
# Elastic Constant Matrix: (Units=GPa)
#
#
# Indices 1 2 3 4 5 6 
#
# 1 75.5457 23.6656 -0.7421 -6.4256 5.9637 -14.6876
# 2 23.6656 131.3866 20.7146 11.0660 -17.0116 -10.9782
# 3 -0.7421 20.7146 101.9087 -27.2054 -0.2237 5.2308
# 4 -6.4256 11.0660 -27.2054 40.3237 -8.2099 1.7886
# 5 5.9637 -17.0116 -0.2237 -8.2099 32.2259 -0.8978
# 6 -14.6876 -10.9782 5.2308 1.7886 -0.8978 33.9146
#
#
#
# Elastic Compliance Matrix: (Units=1/GPa)
#
#
# Indices 1 2 3 4 5 6 
#
# 1 0.015945 -0.003436 0.001464 0.003480 -0.003721 0.005285
# 2 -0.003436 0.010018 -0.003465 -0.004785 0.004756 0.002667
# 3 0.001464 -0.003465 0.013507 0.010556 0.000596 -0.003112
# 4 0.003480 -0.004785 0.010556 0.035110 0.005754 -0.003369
# 5 -0.003721 0.004756 0.000596 0.005754 0.035713 0.000478
# 6 0.005285 0.002667 -0.003112 -0.003369 0.000478 0.033309
#
#
# Mechanical properties :
#
#
# Convention : Reuss Voigt Hill
#
# Bulk Modulus (GPa) = 34.97053 44.01300 39.49177
# Shear Modulus (GPa) = 30.48631 38.97302 34.72966
#
# Velocity S-wave (km/s) = 3.72738 4.21438 3.97834
# Velocity P-wave (km/s) = 5.87039 6.61356 6.25303
#
# Compressibility (1/GPa) = 0.02859550
#
# Stress axis : x y z
#
# Youngs Moduli (GPa) = 62.71538 99.82078 74.03633
#
# Poissons Ratio (x) = 0.34299 -0.10839
# Poissons Ratio (y) = 0.21549 0.25654
# Poissons Ratio (z) = -0.09181 0.34589
#
# Static dielectric constant tensor:
#      x y z
#    x 1.737990 0.016070 -0.007620 
#    y 0.016070 1.820020 0.010910 
#    z -0.007620 0.010910 1.869140 
# 
# From -- ./inp_files/189478.got.cif
#   From: 2010.05.17/outbox.cif.g08.bks.cpg/sg2_95_cif.got.tgz:189478.got - 2010.06.03 11:33:40.
