data_PCOD9069503
_publ_section_title
;
Structure prediction by ZEFSAII (Michael W. Deem and Ramdas Pophale) SiO2 
 PCOD9069503
Probable space group: P -1
;
_chemical_formula_sum "Si O2"
_cell_formula_units_Z 15
_cell_length_a 8.466363
_cell_length_b 15.090663
_cell_length_c 9.227745
_cell_angle_alpha 100.040752
_cell_angle_beta 65.356213
_cell_angle_gamma 54.871558
_cell_volume 727.691558
_symmetry_space_group_name_H-M "P -1"
_symmetry_group_IT_number 2
_symmetry_cell_setting 'triclinic'
loop_
_space_group_symop_operation_xyz
x,y,z
-x,-y,-z
loop_
_atom_site_type_symbol
_atom_site_label
_atom_site_fract_x
_atom_site_fract_y
_atom_site_fract_z
Si Si1 0.556560 0.139703 0.448767
Si Si2 0.000000 0.000000 0.000000
Si Si3 0.241740 0.426228 0.781170
Si Si4 0.143174 0.214111 0.419617
Si Si5 0.370712 0.786299 0.042176
Si Si6 0.915599 0.595656 0.690350
Si Si7 0.355559 0.625805 0.186598
Si Si8 0.228407 0.982043 0.372114
O O1 0.390131 0.283527 0.621353
O O2 0.376118 0.152883 0.414325
O O3 0.641890 0.051836 0.532295
O O4 0.798908 0.077264 0.242092
O O5 0.784564 0.126714 0.014033
O O6 0.449583 0.404965 0.782238
O O7 0.124048 0.518461 0.712694
O O8 0.000000 0.500000 0.000000
O O9 0.146485 0.280160 0.302637
O O10 0.881241 0.330335 0.633583
O O11 0.151752 0.103881 0.360820
O O12 0.252967 0.746337 0.161382
O O13 0.392410 0.862874 0.163735
O O14 0.654626 0.651777 0.861037
O O15 0.000000 0.500000 0.500000
O O16 0.500000 0.500000 0.000000
O O17 0.000000 0.000000 0.500000
#
# Coordination Sequence:
#
# PCOD9069503 Si02
#       8
#     2   1   2   2   2   2   2   2
#     4  12  23  44  72 105 142 192 241 289 365 434
#     4  12  24  42  72 102 140 194 228 286 370 424
#     4  12  23  46  78 102 142 197 238 292 373 431
#     4  12  25  42  70 107 142 184 241 300 352 434
#     4  12  24  46  70  97 142 190 227 297 359 420
#     4  12  24  46  71 106 147 185 235 304 361 422
#     4  12  25  44  72 106 139 188 246 299 357 437
#     4  12  23  45  70  97 142 186 241 291 355 425
#
# _framework density 20.613130999999999
#
# number of rings (size 3 to 8) (size 9 to 14) (size 15 to 20)
#    0.000    0.000    8.000    2.000    0.000    1.067 
#    2.400    0.000    0.000    0.000    0.000    0.000 
#    0.000    0.000    0.000    0.000    0.000    0.000 
#
# Total GULP energy -83585.456629 kJ/mol
# GULP energy per Si atom -5572.363775 kJ/mol
# Density = 2.056621 g / cm^3
# Si number density = 20.613131 Si / 1000 Ang^3
#
#
#
# Elastic Constant Matrix: (Units=GPa)
#
#
# Indices 1 2 3 4 5 6 
#
# 1 42.4351 25.6669 -2.2682 0.8083 3.1522 2.7901
# 2 25.6669 126.6884 -2.2326 -19.5573 20.1078 -10.4944
# 3 -2.2682 -2.2326 100.9958 15.4682 1.2252 9.7585
# 4 0.8083 -19.5573 15.4682 43.9348 -5.4669 7.4987
# 5 3.1522 20.1078 1.2252 -5.4669 32.6650 1.3144
# 6 2.7901 -10.4944 9.7585 7.4987 1.3144 39.5087
#
#
#
# Elastic Compliance Matrix: (Units=1/GPa)
#
#
# Indices 1 2 3 4 5 6 
#
# 1 0.027802 -0.006527 0.001288 -0.003171 0.000894 -0.003443
# 2 -0.006527 0.010952 -0.000747 0.004065 -0.005523 0.002967
# 3 0.001288 -0.000747 0.010720 -0.003834 -0.000620 -0.002189
# 4 -0.003171 0.004065 -0.003834 0.026794 0.002550 -0.002920
# 5 0.000894 -0.005523 -0.000620 0.002550 0.034499 -0.003009
# 6 -0.003443 0.002967 -0.002189 -0.002920 -0.003009 0.027537
#
#
# Mechanical properties :
#
#
# Convention : Reuss Voigt Hill
#
# Bulk Modulus (GPa) = 26.66436 34.71684 30.69060
# Shear Modulus (GPa) = 30.71689 39.81858 35.26774
#
# Velocity S-wave (km/s) = 3.86445 4.39989 4.14083
# Velocity P-wave (km/s) = 5.73373 6.53381 6.14680
#
# Compressibility (1/GPa) = 0.03750324
#
# Stress axis : x y z
#
# Youngs Moduli (GPa) = 35.96827 91.30402 93.28355
#
# Poissons Ratio (x) = 0.59591 -0.12012
# Poissons Ratio (y) = 0.23475 0.06965
# Poissons Ratio (z) = -0.04631 0.06817
#
# Static dielectric constant tensor:
#      x y z
#    x 1.710530 0.005530 -0.001720 
#    y 0.005530 1.731170 0.001510 
#    z -0.001720 0.001510 1.709460 
# 
# From -- ./inp_files/199358.got.cif
#   From: 2010.05.17/outbox.cif.g08.bks.cpg/sg2_100_cif.got.tgz:199358.got - 2010.06.03 11:33:40.
