data_PCOD9069041
_publ_section_title
;
Structure prediction by ZEFSAII (Michael W. Deem and Ramdas Pophale) SiO2 
 PCOD9069041
Probable space group: P -1
;
_chemical_formula_sum "Si O2"
_cell_formula_units_Z 14
_cell_length_a 17.730986
_cell_length_b 8.131211
_cell_length_c 8.552633
_cell_angle_alpha 147.643396
_cell_angle_beta 98.408345
_cell_angle_gamma 75.233431
_cell_volume 632.417074
_symmetry_space_group_name_H-M "P -1"
_symmetry_group_IT_number 2
_symmetry_cell_setting 'triclinic'
loop_
_space_group_symop_operation_xyz
x,y,z
-x,-y,-z
loop_
_atom_site_type_symbol
_atom_site_label
_atom_site_fract_x
_atom_site_fract_y
_atom_site_fract_z
Si Si1 0.792557 0.508796 0.965602
Si Si2 0.056000 0.862677 0.760870
Si Si3 0.055999 0.525361 0.183158
Si Si4 0.293788 0.772547 0.504726
Si Si5 0.436948 0.813053 0.781529
Si Si6 0.792555 0.406096 0.241847
Si Si7 0.706208 0.860138 0.798518
O O1 0.813099 0.436902 0.093453
O O2 0.766627 0.884626 0.226728
O O3 0.869092 0.361613 0.765970
O O4 0.721174 0.354534 0.772427
O O5 0.020782 0.729253 0.489631
O O6 0.130910 0.599810 0.635064
O O7 0.084203 0.165820 0.957928
O O8 0.000000 0.000000 0.000000
O O9 0.000000 0.500000 0.000000
O O10 0.374891 0.847083 0.645685
O O11 0.283442 0.466554 0.358280
O O12 0.500000 0.500000 0.500000
O O13 0.500000 0.000000 0.000000
O O14 0.374897 0.903126 0.979428
O O15 0.721172 0.703137 0.506406
O O16 0.766621 0.082138 0.006659
#
# Coordination Sequence:
#
# PCOD9069041 Si02
#       7
#     2   2   2   2   2   2   2
#     4  12  25  42  67 100 139 181 229 286 340 406
#     4  12  26  44  69  97 140 183 236 286 348 405
#     4  12  26  44  69  97 140 183 236 286 348 405
#     4  12  22  42  69 101 132 172 232 276 341 397
#     4  12  22  40  72 106 132 168 228 286 338 410
#     4  12  25  42  67 100 139 181 229 286 340 406
#     4  12  22  42  69 101 132 172 232 276 341 397
#
# _framework density 22.137291000000001
#
# number of rings (size 3 to 8) (size 9 to 14) (size 15 to 20)
#    0.000    0.000    4.286    6.857    0.000    2.286 
#    0.000    0.000    0.000   17.143    0.000    0.000 
#    0.000    0.000    0.000    0.000    0.000    0.000 
#
# Total GULP energy -78009.961431 kJ/mol
# GULP energy per Si atom -5572.140102 kJ/mol
# Density = 2.208691 g / cm^3
# Si number density = 22.137291 Si / 1000 Ang^3
#
#
#
# Elastic Constant Matrix: (Units=GPa)
#
#
# Indices 1 2 3 4 5 6 
#
# 1 109.9932 49.5804 47.6341 -8.8678 -2.9317 -8.1679
# 2 49.5804 81.3872 35.3111 -15.0913 -1.8027 -0.3995
# 3 47.6341 35.3111 179.6966 -11.6120 -1.2619 -3.1085
# 4 -8.8678 -15.0913 -11.6120 40.8937 -1.7667 0.8141
# 5 -2.9317 -1.8027 -1.2619 -1.7667 48.6262 -4.6413
# 6 -8.1679 -0.3995 -3.1085 0.8141 -4.6413 17.2390
#
#
#
# Elastic Compliance Matrix: (Units=1/GPa)
#
#
# Indices 1 2 3 4 5 6 
#
# 1 0.013878 -0.007572 -0.002103 -0.000461 0.001089 0.006336
# 2 -0.007572 0.018363 -0.001352 0.004824 0.000018 -0.003629
# 3 -0.002103 -0.001352 0.006447 0.000875 0.000032 0.000102
# 4 -0.000461 0.004824 0.000875 0.026446 0.001047 -0.000916
# 5 0.001089 0.000018 0.000032 0.001047 0.021262 0.006197
# 6 0.006336 -0.003629 0.000102 -0.000916 0.006197 0.062656
#
#
# Mechanical properties :
#
#
# Convention : Reuss Voigt Hill
#
# Bulk Modulus (GPa) = 60.12200 70.68091 65.40146
# Shear Modulus (GPa) = 28.30444 37.25521 32.77982
#
# Velocity S-wave (km/s) = 3.57961 4.10679 3.85223
# Velocity P-wave (km/s) = 6.65601 7.38142 7.02808
#
# Compressibility (1/GPa) = 0.01663285
#
# Stress axis : x y z
#
# Youngs Moduli (GPa) = 72.05735 54.45588 155.11726
#
# Poissons Ratio (x) = 0.41234 0.32627
# Poissons Ratio (y) = 0.54562 0.20976
# Poissons Ratio (z) = 0.15156 0.07364
#
# Static dielectric constant tensor:
#      x y z
#    x 1.749360 0.023500 -0.000400 
#    y 0.023500 1.849060 -0.019890 
#    z -0.000400 -0.019890 1.842590 
# 
# From -- ./inp_files/328235.got.cif
#   From: 2010.05.17/outbox.cif.g08.bks.cpg/sg2_165_cif.got.tgz:328235.got - 2010.06.03 11:33:40.
