data_PCOD9069749
_publ_section_title
;
Structure prediction by ZEFSAII (Michael W. Deem and Ramdas Pophale) SiO2 
 PCOD9069749
Probable space group: P -1
;
_chemical_formula_sum "Si O2"
_cell_formula_units_Z 13
_cell_length_a 16.021272
_cell_length_b 14.652921
_cell_length_c 8.589964
_cell_angle_alpha 32.832798
_cell_angle_beta 140.817776
_cell_angle_gamma 152.926714
_cell_volume 494.643353
_symmetry_space_group_name_H-M "P -1"
_symmetry_group_IT_number 2
_symmetry_cell_setting 'triclinic'
loop_
_space_group_symop_operation_xyz
x,y,z
-x,-y,-z
loop_
_atom_site_type_symbol
_atom_site_label
_atom_site_fract_x
_atom_site_fract_y
_atom_site_fract_z
Si Si1 0.849627 0.747155 0.715312
Si Si2 0.457870 0.452542 0.268348
Si Si3 0.500000 0.000000 0.000000
Si Si4 0.915799 0.242608 0.757568
Si Si5 0.809977 0.537421 0.664351
Si Si6 0.866687 0.021105 0.703733
Si Si7 0.456202 0.091907 0.164871
O O1 0.663941 0.689584 0.548569
O O2 0.842487 0.582152 0.830375
O O3 0.000000 0.000000 0.500000
O O4 0.922099 0.744528 0.987624
O O5 0.659214 0.553662 0.393692
O O6 0.676085 0.769000 0.727676
O O7 0.470939 0.665194 0.004919
O O8 0.693854 0.268264 0.847142
O O9 0.485095 0.907238 0.927346
O O10 0.821849 0.107150 0.655080
O O11 0.765317 0.093738 0.886750
O O12 0.000000 0.500000 0.500000
O O13 0.001101 0.756080 0.542647
O O14 0.000000 0.000000 0.000000
O O15 0.500000 0.000000 0.500000
#
# Coordination Sequence:
#
# PCOD9069749 Si02
#       7
#     2   2   1   2   2   2   2
#     4  12  23  48  75 109 155 201 260 328 393 473
#     4  12  26  48  81 112 158 207 272 327 404 479
#     4  12  30  48  78 118 162 206 278 324 412 480
#     4  12  28  50  78 112 162 212 260 334 410 479
#     4  12  28  48  80 116 158 209 266 335 397 488
#     4  12  26  49  77 118 155 210 270 325 402 485
#     4  12  29  53  78 117 166 212 267 342 407 491
#
# _framework density 26.281563999999999
#
# number of rings (size 3 to 8) (size 9 to 14) (size 15 to 20)
#    0.000    0.000    4.615    4.154    6.462    1.231 
#    0.000    2.308    0.000    0.000    0.000    0.000 
#    0.000    0.000    0.000    0.000    0.000    0.000 
#
# Total GULP energy -72412.311894 kJ/mol
# GULP energy per Si atom -5570.177838 kJ/mol
# Density = 2.622175 g / cm^3
# Si number density = 26.281564 Si / 1000 Ang^3
#
#
#
# Elastic Constant Matrix: (Units=GPa)
#
#
# Indices 1 2 3 4 5 6 
#
# 1 160.2338 56.9465 38.6418 -7.7355 -12.9238 -23.8950
# 2 56.9465 164.6953 59.7776 -28.0393 7.5146 -34.6141
# 3 38.6418 59.7776 85.1748 -22.1127 3.9548 -12.3258
# 4 -7.7355 -28.0393 -22.1127 52.4369 0.9290 19.2271
# 5 -12.9238 7.5146 3.9548 0.9290 22.0990 -5.0874
# 6 -23.8950 -34.6141 -12.3258 19.2271 -5.0874 54.5897
#
#
#
# Elastic Compliance Matrix: (Units=1/GPa)
#
#
# Indices 1 2 3 4 5 6 
#
# 1 0.008609 -0.001894 -0.003037 -0.002391 0.007102 0.003385
# 2 -0.001894 0.009585 -0.004831 0.001642 -0.002807 0.003318
# 3 -0.003037 -0.004831 0.017742 0.005522 -0.004167 -0.002720
# 4 -0.002391 0.001642 0.005522 0.025002 -0.005863 -0.008111
# 5 0.007102 -0.002807 -0.004167 -0.005863 0.053054 0.007397
# 6 0.003385 0.003318 -0.002720 -0.008111 0.007397 0.024836
#
#
# Mechanical properties :
#
#
# Convention : Reuss Voigt Hill
#
# Bulk Modulus (GPa) = 60.92935 80.09284 70.51109
# Shear Modulus (GPa) = 30.52087 42.80766 36.66427
#
# Velocity S-wave (km/s) = 3.41149 4.04023 3.73910
# Velocity P-wave (km/s) = 6.22505 7.23227 6.74748
#
# Compressibility (1/GPa) = 0.01641245
#
# Stress axis : x y z
#
# Youngs Moduli (GPa) = 116.16387 104.32861 56.36262
#
# Poissons Ratio (x) = 0.19758 0.17116
# Poissons Ratio (y) = 0.21999 0.27229
# Poissons Ratio (z) = 0.35277 0.50402
#
# Static dielectric constant tensor:
#      x y z
#    x 2.079930 -0.003070 0.009300 
#    y -0.003070 2.129090 0.069380 
#    z 0.009300 0.069380 2.142910 
# 
# From -- ./inp_files/314426.got.cif
#   From: 2010.05.17/outbox.cif.g08.bks.cpg/sg2_158_cif.got.tgz:314426.got - 2010.06.03 11:33:40.
