data_PCOD9069367
_publ_section_title
;
Structure prediction by ZEFSAII (Michael W. Deem and Ramdas Pophale) SiO2 
 PCOD9069367
Probable space group: P -1
;
_chemical_formula_sum "Si O2"
_cell_formula_units_Z 14
_cell_length_a 9.491530
_cell_length_b 17.189737
_cell_length_c 9.626737
_cell_angle_alpha 124.763864
_cell_angle_beta 149.696524
_cell_angle_gamma 61.498376
_cell_volume 650.636545
_symmetry_space_group_name_H-M "P -1"
_symmetry_group_IT_number 2
_symmetry_cell_setting 'triclinic'
loop_
_space_group_symop_operation_xyz
x,y,z
-x,-y,-z
loop_
_atom_site_type_symbol
_atom_site_label
_atom_site_fract_x
_atom_site_fract_y
_atom_site_fract_z
Si Si1 0.031510 0.089629 0.719535
Si Si2 0.207946 0.945561 0.220257
Si Si3 0.497158 0.748467 0.219363
Si Si4 0.942977 0.502512 0.620506
Si Si5 0.426879 0.620965 0.295893
Si Si6 0.404113 0.780963 0.660823
Si Si7 0.907250 0.292172 0.407647
O O1 0.941646 0.054012 0.758268
O O2 0.811939 0.164777 0.561472
O O3 0.000000 0.000000 0.500000
O O4 0.326827 0.147705 0.026391
O O5 0.305894 0.838558 0.171369
O O6 0.500000 0.000000 0.500000
O O7 0.000000 0.000000 0.000000
O O8 0.533640 0.690214 0.332515
O O9 0.814124 0.764435 0.449618
O O10 0.309456 0.694494 0.889480
O O11 0.626865 0.533764 0.395303
O O12 0.002646 0.400209 0.631058
O O13 0.000000 0.500000 0.500000
O O14 0.132273 0.580224 0.944463
O O15 0.444015 0.683082 0.513162
O O16 0.264672 0.758655 0.667666
#
# Coordination Sequence:
#
# PCOD9069367 Si02
#       7
#     2   2   2   2   2   2   2
#     4  12  28  50  73 101 145 187 230 296 362 421
#     4  12  28  46  75 109 137 178 241 295 349 418
#     4  12  24  45  71 103 141 190 230 294 353 416
#     4  12  23  42  71 110 140 183 240 297 347 404
#     4  12  24  44  74  98 144 191 232 290 356 419
#     4  12  28  49  69 104 144 193 233 283 364 428
#     4  12  27  43  73 105 145 186 241 288 348 423
#
# _framework density 21.517389999999999
#
# number of rings (size 3 to 8) (size 9 to 14) (size 15 to 20)
#    0.000    0.000    4.286    5.143    8.000    1.143 
#    0.000    0.000    0.000    0.000    0.000    0.000 
#    0.000    0.000    0.000    0.000    0.000    0.000 
#
# Total GULP energy -78262.481408 kJ/mol
# GULP energy per Si atom -5590.177243 kJ/mol
# Density = 2.146842 g / cm^3
# Si number density = 21.517390 Si / 1000 Ang^3
#
#
#
# Elastic Constant Matrix: (Units=GPa)
#
#
# Indices 1 2 3 4 5 6 
#
# 1 137.6821 47.0000 45.6925 5.6763 18.1674 7.4699
# 2 47.0000 88.9027 16.0330 -12.4127 -4.7837 -1.0208
# 3 45.6925 16.0330 135.3179 0.1813 20.6704 -3.7759
# 4 5.6763 -12.4127 0.1813 47.4851 -5.6640 6.3150
# 5 18.1674 -4.7837 20.6704 -5.6640 25.1130 9.6848
# 6 7.4699 -1.0208 -3.7759 6.3150 9.6848 39.0229
#
#
#
# Elastic Compliance Matrix: (Units=1/GPa)
#
#
# Indices 1 2 3 4 5 6 
#
# 1 0.011592 -0.006967 -0.001601 -0.004418 -0.009601 0.000541
# 2 -0.006967 0.016813 -0.001564 0.007008 0.012079 -0.002510
# 3 -0.001601 -0.001564 0.009572 -0.001798 -0.008841 0.003677
# 4 -0.004418 0.007008 -0.001798 0.026096 0.014592 -0.006989
# 5 -0.009601 0.012079 -0.008841 0.014592 0.066400 -0.017542
# 6 0.000541 -0.002510 0.003677 -0.006989 -0.017542 0.031297
#
#
# Mechanical properties :
#
#
# Convention : Reuss Voigt Hill
#
# Bulk Modulus (GPa) = 56.45765 64.37262 60.41513
# Shear Modulus (GPa) = 26.60432 39.20266 32.90349
#
# Velocity S-wave (km/s) = 3.52008 4.27301 3.91469
# Velocity P-wave (km/s) = 6.54342 7.37064 6.96931
#
# Compressibility (1/GPa) = 0.01771239
#
# Stress axis : x y z
#
# Youngs Moduli (GPa) = 86.26336 59.47725 104.47562
#
# Poissons Ratio (x) = 0.41437 0.16730
# Poissons Ratio (y) = 0.60099 0.16341
# Poissons Ratio (z) = 0.13814 0.09303
#
# Static dielectric constant tensor:
#      x y z
#    x 1.846950 -0.104440 -0.072960 
#    y -0.104440 1.867250 0.117300 
#    z -0.072960 0.117300 1.817600 
# 
# From -- ./inp_files/202365.got.cif
#   From: 2010.05.17/outbox.cif.g08.bks.cpg/sg2_102_cif.got.tgz:202365.got - 2010.06.03 11:33:40.
