data_PCOD9069768
_publ_section_title
;
Structure prediction by ZEFSAII (Michael W. Deem and Ramdas Pophale) SiO2 
 PCOD9069768
Probable space group: P -1
;
_chemical_formula_sum "Si O2"
_cell_formula_units_Z 16
_cell_length_a 8.587152
_cell_length_b 9.201373
_cell_length_c 12.377065
_cell_angle_alpha 78.243750
_cell_angle_beta 81.466156
_cell_angle_gamma 132.819768
_cell_volume 643.804540
_symmetry_space_group_name_H-M "P -1"
_symmetry_group_IT_number 2
_symmetry_cell_setting 'triclinic'
loop_
_space_group_symop_operation_xyz
x,y,z
-x,-y,-z
loop_
_atom_site_type_symbol
_atom_site_label
_atom_site_fract_x
_atom_site_fract_y
_atom_site_fract_z
Si Si1 0.752778 0.675567 0.503718
Si Si2 0.010226 0.110223 0.877578
Si Si3 0.993938 0.396446 0.623412
Si Si4 0.167973 0.023616 0.683850
Si Si5 0.309146 0.587199 0.767813
Si Si6 0.325110 0.427612 0.234286
Si Si7 0.579203 0.887644 0.037401
Si Si8 0.457540 0.007988 0.763979
O O1 0.500000 0.500000 0.500000
O O2 0.729316 0.576513 0.634288
O O3 0.947473 0.725179 0.409112
O O4 0.821004 0.893973 0.447932
O O5 0.161280 0.146000 0.760160
O O6 0.738323 0.945851 0.912847
O O7 0.104211 0.336938 0.866231
O O8 0.000000 0.000000 0.000000
O O9 0.000000 0.500000 0.500000
O O10 0.197396 0.560435 0.666959
O O11 0.732137 0.217620 0.722422
O O12 0.920910 0.776777 0.761822
O O13 0.376465 0.052342 0.665297
O O14 0.520427 0.615104 0.757235
O O15 0.376093 0.784137 0.790441
O O16 0.433966 0.640591 0.124952
O O17 0.684529 0.007590 0.124491
O O18 0.500000 0.000000 0.000000
#
# Coordination Sequence:
#
# PCOD9069768 Si02
#       8
#     2   2   2   2   2   2   2   2
#     4  12  23  48  79 106 150 205 252 310 380 457
#     4  12  24  51  75 106 151 203 254 314 378 451
#     4  12  26  47  78 109 156 198 250 317 379 448
#     4  12  27  48  77 114 155 200 257 315 379 460
#     4  12  27  49  76 110 154 198 256 315 380 454
#     4  12  27  49  78 115 148 205 258 310 386 459
#     4  12  28  49  80 108 156 199 255 321 383 452
#     4  12  29  48  73 116 153 197 256 315 383 448
#
# _framework density 24.852264999999999
#
# number of rings (size 3 to 8) (size 9 to 14) (size 15 to 20)
#    0.000    0.000    5.000    4.125    7.000    2.500 
#    0.000    0.000    0.000    0.000    0.000    0.000 
#    0.000    0.000    0.000    0.000    0.000    0.000 
#
# Total GULP energy -89226.146360 kJ/mol
# GULP energy per Si atom -5576.634147 kJ/mol
# Density = 2.479570 g / cm^3
# Si number density = 24.852265 Si / 1000 Ang^3
#
#
#
# Elastic Constant Matrix: (Units=GPa)
#
#
# Indices 1 2 3 4 5 6 
#
# 1 149.5942 26.2249 35.5987 -9.0877 13.8961 -2.6967
# 2 26.2249 90.7846 10.4166 -23.5812 -0.1476 -8.3761
# 3 35.5987 10.4166 97.6456 -21.3338 11.4949 -9.0639
# 4 -9.0877 -23.5812 -21.3338 28.8546 -4.2540 8.3690
# 5 13.8961 -0.1476 11.4949 -4.2540 60.1324 -4.0910
# 6 -2.6967 -8.3761 -9.0639 8.3690 -4.0910 36.6096
#
#
#
# Elastic Compliance Matrix: (Units=1/GPa)
#
#
# Indices 1 2 3 4 5 6 
#
# 1 0.007802 -0.002410 -0.002830 -0.001683 -0.001418 -0.000451
# 2 -0.002410 0.014897 0.002040 0.012826 0.001174 0.000935
# 3 -0.002830 0.002040 0.013542 0.010294 -0.001124 0.001132
# 4 -0.001683 0.012826 0.010294 0.054489 0.001839 -0.006892
# 5 -0.001418 0.001174 -0.001124 0.001839 0.017401 0.001410
# 6 -0.000451 0.000935 0.001132 -0.006892 0.001410 0.029509
#
#
# Mechanical properties :
#
#
# Convention : Reuss Voigt Hill
#
# Bulk Modulus (GPa) = 33.51116 53.61167 43.56142
# Shear Modulus (GPa) = 32.47028 42.83826 37.65427
#
# Velocity S-wave (km/s) = 3.61852 4.15627 3.89668
# Velocity P-wave (km/s) = 5.56522 6.68220 6.14912
#
# Compressibility (1/GPa) = 0.02984080
#
# Stress axis : x y z
#
# Youngs Moduli (GPa) = 128.17179 67.12833 73.84600
#
# Poissons Ratio (x) = 0.16179 0.20898
# Poissons Ratio (y) = 0.30891 -0.15066
# Poissons Ratio (z) = 0.36272 -0.13696
#
# Static dielectric constant tensor:
#      x y z
#    x 2.134310 0.051300 0.065880 
#    y 0.051300 2.042740 0.049510 
#    z 0.065880 0.049510 2.088910 
# 
# From -- ./inp_files/494663.got.cif
#   From: 2010.05.17/outbox.cif.g08.bks.cpg/sg2_248_cif.got.tgz:494663.got - 2010.06.03 11:33:40.
