data_PCOD9069505
_publ_section_title
;
Structure prediction by ZEFSAII (Michael W. Deem and Ramdas Pophale) SiO2 
 PCOD9069505
Probable space group: P -1
;
_chemical_formula_sum "Si O2"
_cell_formula_units_Z 16
_cell_length_a 11.303471
_cell_length_b 9.628276
_cell_length_c 8.609791
_cell_angle_alpha 130.836835
_cell_angle_beta 87.048991
_cell_angle_gamma 76.188876
_cell_volume 660.385309
_symmetry_space_group_name_H-M "P -1"
_symmetry_group_IT_number 2
_symmetry_cell_setting 'triclinic'
loop_
_space_group_symop_operation_xyz
x,y,z
-x,-y,-z
loop_
_atom_site_type_symbol
_atom_site_label
_atom_site_fract_x
_atom_site_fract_y
_atom_site_fract_z
Si Si1 0.026745 0.381134 0.570671
Si Si2 0.122345 0.034871 0.080271
Si Si3 0.279339 0.409705 0.608576
Si Si4 0.270740 0.076012 0.803664
Si Si5 0.370709 0.619291 0.509409
Si Si6 0.309989 0.696144 0.018455
Si Si7 0.376616 0.998602 0.416431
Si Si8 0.240631 0.513264 0.164918
O O1 0.135876 0.439401 0.690652
O O2 0.000000 0.500000 0.500000
O O3 0.897860 0.425507 0.703880
O O4 0.085696 0.163474 0.334252
O O5 0.232891 0.840617 0.993487
O O6 0.168593 0.117037 0.982595
O O7 0.000000 0.000000 0.000000
O O8 0.273955 0.536383 0.548196
O O9 0.343481 0.175427 0.422981
O O10 0.361786 0.484275 0.777649
O O11 0.353058 0.848871 0.677550
O O12 0.266644 0.047904 0.594509
O O13 0.297096 0.279095 0.958025
O O14 0.500000 0.500000 0.500000
O O15 0.343766 0.562197 0.297817
O O16 0.391799 0.801311 0.178391
O O17 0.220604 0.652792 0.119831
O O18 0.500000 0.000000 0.500000
#
# Coordination Sequence:
#
# PCOD9069505 Si02
#       8
#     2   2   2   2   2   2   2   2
#     4  12  23  44  72 106 150 189 242 307 362 444
#     4  12  25  45  76 107 148 194 245 301 368 445
#     4  12  25  46  72 108 146 191 245 305 372 434
#     4  12  25  48  72 105 143 193 247 293 371 440
#     4  12  26  46  74 106 143 192 252 308 364 436
#     4  12  27  47  71 107 145 189 246 302 366 436
#     4  12  28  50  73 105 148 193 249 311 367 438
#     4  12  27  46  74 107 150 194 243 302 377 442
#
# _framework density 24.228280000000002
#
# number of rings (size 3 to 8) (size 9 to 14) (size 15 to 20)
#    0.000    0.000    7.500    2.250    0.000    4.000 
#    0.000    0.000    0.000    0.000    0.000    0.000 
#    0.000    0.000    0.000    0.000    0.000    0.000 
#
# Total GULP energy -89209.132845 kJ/mol
# GULP energy per Si atom -5575.570803 kJ/mol
# Density = 2.417314 g / cm^3
# Si number density = 24.228280 Si / 1000 Ang^3
#
#
#
# Elastic Constant Matrix: (Units=GPa)
#
#
# Indices 1 2 3 4 5 6 
#
# 1 102.0317 14.6856 33.7622 -1.8132 29.3631 10.6405
# 2 14.6856 113.0427 17.1914 4.8022 2.4837 22.4190
# 3 33.7622 17.1914 131.9950 16.4337 27.7538 10.5564
# 4 -1.8132 4.8022 16.4337 51.9693 4.3688 -5.9894
# 5 29.3631 2.4837 27.7538 4.3688 38.9617 -9.3278
# 6 10.6405 22.4190 10.5564 -5.9894 -9.3278 31.1314
#
#
#
# Elastic Compliance Matrix: (Units=1/GPa)
#
#
# Indices 1 2 3 4 5 6 
#
# 1 0.014511 0.000137 -0.000448 0.000718 -0.012764 -0.008593
# 2 0.000137 0.010739 0.000106 -0.001823 -0.002816 -0.009011
# 3 -0.000448 0.000106 0.010350 -0.003361 -0.008232 -0.006546
# 4 0.000718 -0.001823 -0.003361 0.021163 0.001184 0.006633
# 5 -0.012764 -0.002816 -0.008232 0.001184 0.046806 0.023434
# 6 -0.008593 -0.009011 -0.006546 0.006633 0.023434 0.052065
#
#
# Mechanical properties :
#
#
# Convention : Reuss Voigt Hill
#
# Bulk Modulus (GPa) = 28.41747 53.14975 40.78361
# Shear Modulus (GPa) = 29.80201 43.17451 36.48826
#
# Velocity S-wave (km/s) = 3.51101 4.22594 3.88496
# Velocity P-wave (km/s) = 5.30950 6.76728 6.08222
#
# Compressibility (1/GPa) = 0.03518962
#
# Stress axis : x y z
#
# Youngs Moduli (GPa) = 68.91088 93.12203 96.62255
#
# Poissons Ratio (x) = -0.01276 0.04329
# Poissons Ratio (y) = -0.00944 -0.01024
# Poissons Ratio (z) = 0.03088 -0.00987
#
# Static dielectric constant tensor:
#      x y z
#    x 2.010680 -0.011840 -0.161730 
#    y -0.011840 1.978280 0.083650 
#    z -0.161730 0.083650 2.521310 
# 
# From -- ./inp_files/245948.got.cif
#   From: 2010.05.17/outbox.cif.g08.bks.cpg/sg2_123_cif.got.tgz:245948.got - 2010.06.03 11:33:40.
