data_PCOD9069891
_publ_section_title
;
Structure prediction by ZEFSAII (Michael W. Deem and Ramdas Pophale) SiO2 
 PCOD9069891
Probable space group: P -1
;
_chemical_formula_sum "Si O2"
_cell_formula_units_Z 14
_cell_length_a 11.799486
_cell_length_b 9.694254
_cell_length_c 8.998928
_cell_angle_alpha 135.247897
_cell_angle_beta 63.591809
_cell_angle_gamma 101.470676
_cell_volume 637.819578
_symmetry_space_group_name_H-M "P -1"
_symmetry_group_IT_number 2
_symmetry_cell_setting 'triclinic'
loop_
_space_group_symop_operation_xyz
x,y,z
-x,-y,-z
loop_
_atom_site_type_symbol
_atom_site_label
_atom_site_fract_x
_atom_site_fract_y
_atom_site_fract_z
Si Si1 0.887666 0.417873 0.088791
Si Si2 0.000387 0.016240 0.188722
Si Si3 0.543208 0.342115 0.494639
Si Si4 0.180142 0.330587 0.380664
Si Si5 0.650467 0.393008 0.991601
Si Si6 0.459607 0.094667 0.938890
Si Si7 0.226687 0.655209 0.428405
O O1 0.831269 0.569874 0.371879
O O2 0.775307 0.374537 0.010733
O O3 0.000000 0.500000 0.000000
O O4 0.955270 0.204802 0.948604
O O5 0.098490 0.155613 0.291646
O O6 0.857825 0.132139 0.401377
O O7 0.000000 0.000000 0.000000
O O8 0.500000 0.500000 0.500000
O O9 0.445108 0.420689 0.742304
O O10 0.684892 0.344564 0.477293
O O11 0.545209 0.107684 0.299619
O O12 0.136014 0.504007 0.417377
O O13 0.322472 0.234450 0.160711
O O14 0.568192 0.215664 0.914609
O O15 0.690973 0.420563 0.821232
O O16 0.500000 0.000000 0.000000
#
# Coordination Sequence:
#
# PCOD9069891 Si02
#       7
#     2   2   2   2   2   2   2
#     4  12  29  51  77 112 151 199 252 314 372 445
#     4  12  27  47  80 109 151 200 255 303 377 448
#     4  12  25  48  73 106 148 194 244 307 373 442
#     4  12  26  47  76 107 152 198 250 303 375 446
#     4  12  27  46  74 109 153 188 254 310 373 438
#     4  12  24  42  76 106 143 197 246 302 374 444
#     4  12  26  48  74 111 153 197 251 311 372 447
#
# _framework density 21.949780000000001
#
# number of rings (size 3 to 8) (size 9 to 14) (size 15 to 20)
#    0.000    0.000    4.286    5.143    2.000    5.143 
#    0.000    0.000    0.000    0.000    0.000    0.000 
#    0.000    0.000    0.000    0.000    0.000    0.000 
#
# Total GULP energy -78235.157290 kJ/mol
# GULP energy per Si atom -5588.225521 kJ/mol
# Density = 2.189982 g / cm^3
# Si number density = 21.949780 Si / 1000 Ang^3
#
#
#
# Elastic Constant Matrix: (Units=GPa)
#
#
# Indices 1 2 3 4 5 6 
#
# 1 138.7772 81.2524 61.8000 9.3980 -4.8851 13.8430
# 2 81.2524 134.5451 71.4615 6.9244 14.4573 17.1762
# 3 61.8000 71.4615 137.5391 8.2749 19.6675 31.0862
# 4 9.3980 6.9244 8.2749 50.5514 0.4563 -3.6028
# 5 -4.8851 14.4573 19.6675 0.4563 35.5092 -0.6466
# 6 13.8430 17.1762 31.0862 -3.6028 -0.6466 28.1765
#
#
#
# Elastic Compliance Matrix: (Units=1/GPa)
#
#
# Indices 1 2 3 4 5 6 
#
# 1 0.012854 -0.006765 -0.003544 -0.000816 0.006528 0.001764
# 2 -0.006765 0.013921 -0.003024 -0.000250 -0.004956 -0.001972
# 3 -0.003544 -0.003024 0.014564 -0.002165 -0.007531 -0.012934
# 4 -0.000816 -0.000250 -0.002165 0.020713 0.001025 0.005614
# 5 0.006528 -0.004956 -0.007531 0.001025 0.035401 0.009066
# 6 0.001764 -0.001972 -0.012934 0.005614 0.009066 0.051021
#
#
# Mechanical properties :
#
#
# Convention : Reuss Voigt Hill
#
# Bulk Modulus (GPa) = 68.14589 93.32105 80.73347
# Shear Modulus (GPa) = 27.77301 35.93726 31.85513
#
# Velocity S-wave (km/s) = 3.56096 4.05068 3.81369
# Velocity P-wave (km/s) = 6.92971 8.03028 7.50021
#
# Compressibility (1/GPa) = 0.01467440
#
# Stress axis : x y z
#
# Youngs Moduli (GPa) = 77.79832 71.83357 68.66040
#
# Poissons Ratio (x) = 0.48594 0.24332
# Poissons Ratio (y) = 0.52630 0.20761
# Poissons Ratio (z) = 0.27570 0.21721
#
# Static dielectric constant tensor:
#      x y z
#    x 1.909590 0.026390 -0.005640 
#    y 0.026390 1.747900 -0.079560 
#    z -0.005640 -0.079560 1.614720 
# 
# From -- ./inp_files/245760.got.cif
#   From: 2010.05.17/outbox.cif.g08.bks.cpg/sg2_123_cif.got.tgz:245760.got - 2010.06.03 11:33:40.
