data_PCOD9069262
_publ_section_title
;
Structure prediction by ZEFSAII (Michael W. Deem and Ramdas Pophale) SiO2 
 PCOD9069262
Probable space group: P -1
;
_chemical_formula_sum "Si O2"
_cell_formula_units_Z 16
_cell_length_a 11.440142
_cell_length_b 7.967879
_cell_length_c 11.009115
_cell_angle_alpha 63.100031
_cell_angle_beta 63.428912
_cell_angle_gamma 87.876435
_cell_volume 783.032101
_symmetry_space_group_name_H-M "P -1"
_symmetry_group_IT_number 2
_symmetry_cell_setting 'triclinic'
loop_
_space_group_symop_operation_xyz
x,y,z
-x,-y,-z
loop_
_atom_site_type_symbol
_atom_site_label
_atom_site_fract_x
_atom_site_fract_y
_atom_site_fract_z
Si Si1 0.937772 0.967253 0.236654
Si Si2 0.329684 0.915629 0.959170
Si Si3 0.796921 0.515149 0.184349
Si Si4 0.670368 0.768211 0.350435
Si Si5 0.201075 0.168407 0.126707
Si Si6 0.553796 0.719397 0.868360
Si Si7 0.539334 0.223570 0.377479
Si Si8 0.939651 0.287439 0.921280
O O1 0.784496 0.868899 0.360435
O O2 0.999026 0.804587 0.192019
O O3 0.046983 0.063522 0.251987
O O4 0.938787 0.133141 0.080548
O O5 0.465423 0.845855 0.941629
O O6 0.351682 0.065472 0.787296
O O7 0.214651 0.730255 0.034516
O O8 0.269668 0.025948 0.057975
O O9 0.732184 0.623747 0.285335
O O10 0.697164 0.312518 0.279200
O O11 0.950738 0.527250 0.148670
O O12 0.794684 0.644398 0.022266
O O13 0.538698 0.681211 0.514723
O O14 0.292576 0.219000 0.184684
O O15 0.519078 0.742743 0.737018
O O16 0.500000 0.500000 0.000000
O O17 0.500000 0.000000 0.500000
#
# Coordination Sequence:
#
# PCOD9069262 Si02
#       8
#     2   2   2   2   2   2   2   2
#     4   7  12  26  52  79 100 125 166 221 262 296
#     4   9  17  33  56  80 101 133 176 220 258 301
#     4   9  17  33  56  80 101 133 176 220 258 301
#     4   9  17  33  56  79 102 134 176 216 259 307
#     4   9  17  33  56  79 102 134 176 216 259 307
#     4  12  23  36  49  75 113 145 173 207 257 310
#     4  12  23  36  49  75 113 145 173 207 257 310
#     4   7  12  26  52  80 100 120 170 227 258 288
#
# _framework density 20.433388000000001
#
# number of rings (size 3 to 8) (size 9 to 14) (size 15 to 20)
#    0.000    2.750    2.500    3.750    0.000    0.000 
#    0.000    2.500    0.000    0.000    0.000    5.250 
#    0.000    0.000    0.000    0.000    0.000    0.000 
#
# Total GULP energy -89202.884806 kJ/mol
# GULP energy per Si atom -5575.180300 kJ/mol
# Density = 2.038688 g / cm^3
# Si number density = 20.433388 Si / 1000 Ang^3
#
#
#
# Elastic Constant Matrix: (Units=GPa)
#
#
# Indices 1 2 3 4 5 6 
#
# 1 87.0185 16.7092 12.1605 -21.2556 -6.5485 35.5437
# 2 16.7092 65.1500 21.1120 -9.1528 0.6059 11.1756
# 3 12.1605 21.1120 51.2347 -9.9222 -1.4160 13.0040
# 4 -21.2556 -9.1528 -9.9222 26.2084 3.9600 -13.4601
# 5 -6.5485 0.6059 -1.4160 3.9600 26.6211 -4.7659
# 6 35.5437 11.1756 13.0040 -13.4601 -4.7659 41.6011
#
#
#
# Elastic Compliance Matrix: (Units=1/GPa)
#
#
# Indices 1 2 3 4 5 6 
#
# 1 0.019360 -0.001886 0.001285 0.008368 0.001195 -0.013592
# 2 -0.001886 0.018424 -0.006558 0.002300 -0.001707 -0.000739
# 3 0.001285 -0.006558 0.024257 0.005251 0.000041 -0.005215
# 4 0.008368 0.002300 0.005251 0.051916 -0.004201 0.006907
# 5 0.001195 -0.001707 0.000041 -0.004201 0.038977 0.002530
# 6 -0.013592 -0.000739 -0.005215 0.006907 0.002530 0.040004
#
#
# Mechanical properties :
#
#
# Convention : Reuss Voigt Hill
#
# Bulk Modulus (GPa) = 20.95397 33.70738 27.33068
# Shear Modulus (GPa) = 22.40510 29.11423 25.75966
#
# Velocity S-wave (km/s) = 3.31493 3.77879 3.55444
# Velocity P-wave (km/s) = 4.99286 5.96415 5.49999
#
# Compressibility (1/GPa) = 0.04772365
#
# Stress axis : x y z
#
# Youngs Moduli (GPa) = 51.65273 54.27727 41.22508
#
# Poissons Ratio (x) = 0.10236 -0.05299
# Poissons Ratio (y) = 0.09741 0.27037
# Poissons Ratio (z) = -0.06640 0.35597
#
# Static dielectric constant tensor:
#      x y z
#    x 1.747470 0.012450 -0.043300 
#    y 0.012450 1.821800 0.007960 
#    z -0.043300 0.007960 1.676770 
# 
# From -- ./inp_files/181831.got.cif
#   From: 2010.05.17/outbox.cif.g08.bks.cpg/sg2_91_cif.got.tgz:181831.got - 2010.06.03 11:33:40.
