data_PCOD9069021
_publ_section_title
;
Structure prediction by ZEFSAII (Michael W. Deem and Ramdas Pophale) SiO2 
 PCOD9069021
Probable space group: P -1
;
_chemical_formula_sum "Si O2"
_cell_formula_units_Z 14
_cell_length_a 16.294907
_cell_length_b 9.143968
_cell_length_c 9.505179
_cell_angle_alpha 148.807426
_cell_angle_beta 122.334488
_cell_angle_gamma 59.009354
_cell_volume 614.424947
_symmetry_space_group_name_H-M "P -1"
_symmetry_group_IT_number 2
_symmetry_cell_setting 'triclinic'
loop_
_space_group_symop_operation_xyz
x,y,z
-x,-y,-z
loop_
_atom_site_type_symbol
_atom_site_label
_atom_site_fract_x
_atom_site_fract_y
_atom_site_fract_z
Si Si1 0.196898 0.423796 0.332696
Si Si2 0.067603 0.753843 0.276430
Si Si3 0.201469 0.086263 0.489605
Si Si4 0.310404 0.799176 0.923787
Si Si5 0.675444 0.430748 0.933498
Si Si6 0.061608 0.254109 0.267173
Si Si7 0.493390 0.686479 0.791060
O O1 0.169998 0.606938 0.319901
O O2 0.221780 0.644367 0.655975
O O3 0.092401 0.332181 0.205553
O O4 0.276036 0.140716 0.165332
O O5 0.111314 0.940430 0.348391
O O6 0.000000 0.000000 0.500000
O O7 0.000000 0.500000 0.000000
O O8 0.238280 0.363937 0.820065
O O9 0.164642 0.168140 0.367147
O O10 0.292953 0.846847 0.359543
O O11 0.336424 0.678280 0.005650
O O12 0.395103 0.701843 0.807581
O O13 0.579874 0.588990 0.901207
O O14 0.000000 0.500000 0.500000
O O15 0.000000 0.000000 0.000000
O O16 0.500000 0.500000 0.500000
O O17 0.500000 0.000000 0.000000
#
# Coordination Sequence:
#
# PCOD9069021 Si02
#       7
#     2   2   2   2   2   2   2
#     4  12  25  43  73 104 141 189 241 288 358 418
#     4  12  26  46  66 101 148 193 240 296 358 414
#     4  12  25  43  73 104 141 189 241 288 358 418
#     4  12  25  49  73 108 144 185 235 294 359 428
#     4  12  25  49  73 108 144 185 235 294 359 428
#     4  12  22  40  66 101 142 181 238 292 340 414
#     4  12  29  48  77 112 142 185 233 292 363 439
#
# _framework density 22.785533999999998
#
# number of rings (size 3 to 8) (size 9 to 14) (size 15 to 20)
#    0.000    0.000    2.857    7.286    6.000    0.000 
#    0.000    4.286    0.000    0.000    0.000    0.000 
#    0.000    0.000    0.000    0.000    0.000    0.000 
#
# Total GULP energy -78202.221521 kJ/mol
# GULP energy per Si atom -5585.872966 kJ/mol
# Density = 2.273367 g / cm^3
# Si number density = 22.785534 Si / 1000 Ang^3
#
#
#
# Elastic Constant Matrix: (Units=GPa)
#
#
# Indices 1 2 3 4 5 6 
#
# 1 92.5104 13.1993 8.9053 5.5640 -13.7061 19.8096
# 2 13.1993 143.4648 35.0277 0.6448 -5.6060 -2.0952
# 3 8.9053 35.0277 127.8269 23.7057 -6.6816 3.2037
# 4 5.5640 0.6448 23.7057 38.6877 -3.9655 -2.8306
# 5 -13.7061 -5.6060 -6.6816 -3.9655 37.3812 4.0017
# 6 19.8096 -2.0952 3.2037 -2.8306 4.0017 41.8647
#
#
#
# Elastic Compliance Matrix: (Units=1/GPa)
#
#
# Indices 1 2 3 4 5 6 
#
# 1 0.013371 -0.001169 0.000215 -0.002007 0.005307 -0.007045
# 2 -0.001169 0.007670 -0.002326 0.001588 0.000347 0.001189
# 3 0.000215 -0.002326 0.009627 -0.005896 0.000980 -0.001447
# 4 -0.002007 0.001588 -0.005896 0.030102 0.001279 0.003393
# 5 0.005307 0.000347 0.000980 0.001279 0.029629 -0.005314
# 6 -0.007045 0.001189 -0.001447 0.003393 -0.005314 0.028128
#
#
# Mechanical properties :
#
#
# Convention : Reuss Voigt Hill
#
# Bulk Modulus (GPa) = 41.48322 53.11854 47.30088
# Shear Modulus (GPa) = 37.55915 44.03140 40.79528
#
# Velocity S-wave (km/s) = 4.06443 4.40071 4.23591
# Velocity P-wave (km/s) = 6.34599 7.01318 6.68791
#
# Compressibility (1/GPa) = 0.02410613
#
# Stress axis : x y z
#
# Youngs Moduli (GPa) = 74.78736 130.38269 103.87911
#
# Poissons Ratio (x) = 0.15244 -0.02233
# Poissons Ratio (y) = 0.08744 0.24167
# Poissons Ratio (z) = -0.01608 0.30333
#
# Static dielectric constant tensor:
#      x y z
#    x 1.706660 0.037590 0.100710 
#    y 0.037590 1.875970 -0.016480 
#    z 0.100710 -0.016480 1.825590 
# 
# From -- ./inp_files/218158.got.cif
#   From: 2010.05.17/outbox.cif.g08.bks.cpg/sg2_110_cif.got.tgz:218158.got - 2010.06.03 11:33:40.
