data_PCOD9069494
_publ_section_title
;
Structure prediction by ZEFSAII (Michael W. Deem and Ramdas Pophale) SiO2 
 PCOD9069494
Probable space group: P -1
;
_chemical_formula_sum "Si O2"
_cell_formula_units_Z 13
_cell_length_a 9.358028
_cell_length_b 12.011442
_cell_length_c 9.008671
_cell_angle_alpha 38.394592
_cell_angle_beta 89.527648
_cell_angle_gamma 107.764902
_cell_volume 544.013744
_symmetry_space_group_name_H-M "P -1"
_symmetry_group_IT_number 2
_symmetry_cell_setting 'triclinic'
loop_
_space_group_symop_operation_xyz
x,y,z
-x,-y,-z
loop_
_atom_site_type_symbol
_atom_site_label
_atom_site_fract_x
_atom_site_fract_y
_atom_site_fract_z
Si Si1 0.442416 0.370376 0.789850
Si Si2 0.860059 0.330373 0.576691
Si Si3 0.347436 0.857418 0.953947
Si Si4 0.605991 0.318389 0.374255
Si Si5 0.841811 0.282875 0.184811
Si Si6 0.000000 0.000000 0.500000
Si Si7 0.068213 0.999285 0.165825
O O1 0.500000 0.500000 0.500000
O O2 0.550487 0.261932 0.924087
O O3 0.456576 0.518709 0.772933
O O4 0.253646 0.190975 0.967673
O O5 0.723371 0.157770 0.866434
O O6 0.759482 0.402974 0.399959
O O7 0.000000 0.500000 0.500000
O O8 0.935008 0.217743 0.600566
O O9 0.197674 0.738521 0.965995
O O10 0.461868 0.093501 0.658378
O O11 0.685467 0.284213 0.261795
O O12 0.876783 0.098978 0.421146
O O13 0.000000 0.500000 0.000000
O O14 0.983369 0.013614 0.302409
O O15 0.000000 0.000000 0.000000
#
# Coordination Sequence:
#
# PCOD9069494 Si02
#       7
#     2   2   2   2   2   1   2
#     4  12  25  45  75 107 149 197 250 309 381 452
#     4  12  23  44  71 101 144 187 245 308 368 441
#     4  12  26  46  72 107 143 197 249 309 381 450
#     4  12  24  46  70 102 148 188 240 311 372 448
#     4  12  27  46  73 105 149 192 250 311 378 452
#     4  12  26  50  74 108 154 194 252 316 384 444
#     4  12  26  46  76 112 150 201 258 311 379 459
#
# _framework density 23.896453000000001
#
# number of rings (size 3 to 8) (size 9 to 14) (size 15 to 20)
#    0.000    0.000    4.615    5.538    0.000    1.846 
#    0.000    0.000    0.000    0.000    0.000    0.000 
#    0.000    0.000    0.000    0.000    0.000    0.000 
#
# Total GULP energy -72546.522453 kJ/mol
# GULP energy per Si atom -5580.501727 kJ/mol
# Density = 2.384206 g / cm^3
# Si number density = 23.896453 Si / 1000 Ang^3
#
#
#
# Elastic Constant Matrix: (Units=GPa)
#
#
# Indices 1 2 3 4 5 6 
#
# 1 80.4104 48.8017 14.7895 -9.2539 13.3552 -21.6768
# 2 48.8017 132.2686 32.5765 15.1960 6.0512 -22.1381
# 3 14.7895 32.5765 54.6664 -10.2731 -4.2848 -7.9807
# 4 -9.2539 15.1960 -10.2731 53.7379 -7.3513 -3.5827
# 5 13.3552 6.0512 -4.2848 -7.3513 30.6735 5.8938
# 6 -21.6768 -22.1381 -7.9807 -3.5827 5.8938 53.6149
#
#
#
# Elastic Compliance Matrix: (Units=1/GPa)
#
#
# Indices 1 2 3 4 5 6 
#
# 1 0.019892 -0.006316 -0.000416 0.004521 -0.007641 0.006514
# 2 -0.006316 0.012708 -0.007020 -0.006269 -0.002530 0.001508
# 3 -0.000416 -0.007020 0.024591 0.007561 0.006745 0.000357
# 4 0.004521 -0.006269 0.007561 0.023472 0.005699 0.001307
# 5 -0.007641 -0.002530 0.006745 0.005699 0.040111 -0.007158
# 6 0.006514 0.001508 0.000357 0.001307 -0.007158 0.022835
#
#
# Mechanical properties :
#
#
# Convention : Reuss Voigt Hill
#
# Bulk Modulus (GPa) = 33.68668 51.07564 42.38116
# Shear Modulus (GPa) = 27.62294 39.01708 33.32001
#
# Velocity S-wave (km/s) = 3.40360 4.04512 3.73815
# Velocity P-wave (km/s) = 5.43816 6.57552 6.03370
#
# Compressibility (1/GPa) = 0.02968533
#
# Stress axis : x y z
#
# Youngs Moduli (GPa) = 50.27254 78.68919 40.66603
#
# Poissons Ratio (x) = 0.49702 0.01691
# Poissons Ratio (y) = 0.31754 0.28549
# Poissons Ratio (z) = 0.02090 0.55243
#
# Static dielectric constant tensor:
#      x y z
#    x 1.967080 0.004450 0.061730 
#    y 0.004450 1.902550 0.036010 
#    z 0.061730 0.036010 1.987020 
# 
# From -- ./inp_files/174689.got.cif
#   From: 2010.05.17/outbox.cif.g08.bks.cpg/sg2_88_cif.got.tgz:174689.got - 2010.06.03 11:33:40.
