data_PCOD9069276
_publ_section_title
;
Structure prediction by ZEFSAII (Michael W. Deem and Ramdas Pophale) SiO2 
 PCOD9069276
Probable space group: P -1
;
_chemical_formula_sum "Si O2"
_cell_formula_units_Z 16
_cell_length_a 5.615274
_cell_length_b 8.806335
_cell_length_c 19.806854
_cell_angle_alpha 125.947501
_cell_angle_beta 107.730015
_cell_angle_gamma 59.658935
_cell_volume 684.270017
_symmetry_space_group_name_H-M "P -1"
_symmetry_group_IT_number 2
_symmetry_cell_setting 'triclinic'
loop_
_space_group_symop_operation_xyz
x,y,z
-x,-y,-z
loop_
_atom_site_type_symbol
_atom_site_label
_atom_site_fract_x
_atom_site_fract_y
_atom_site_fract_z
Si Si1 0.930469 0.387421 0.235213
Si Si2 0.850078 0.737609 0.073827
Si Si3 0.753737 0.714987 0.515309
Si Si4 0.461051 0.492833 0.660386
Si Si5 0.173385 0.954592 0.072232
Si Si6 0.778167 0.793768 0.239408
Si Si7 0.586328 0.794021 0.667350
Si Si8 0.071314 0.927926 0.409697
O O1 0.113226 0.345787 0.309220
O O2 0.635119 0.428560 0.252722
O O3 0.849768 0.581981 0.229179
O O4 0.099509 0.181241 0.154903
O O5 0.510239 0.832855 0.059546
O O6 0.881579 0.753545 0.161570
O O7 0.020020 0.848773 0.079243
O O8 0.000000 0.500000 0.000000
O O9 0.659879 0.658504 0.422041
O O10 0.568188 0.754684 0.576157
O O11 0.000000 0.500000 0.500000
O O12 0.792895 0.922315 0.564008
O O13 0.409385 0.691636 0.663732
O O14 0.770922 0.320822 0.638468
O O15 0.000000 0.000000 0.000000
O O16 0.880140 0.932968 0.331379
O O17 0.463657 0.970726 0.257816
O O18 0.000000 0.000000 0.500000
#
# Coordination Sequence:
#
# PCOD9069276 Si02
#       8
#     2   2   2   2   2   2   2   2
#     4  12  26  47  73 108 147 195 254 313 387 469
#     4  12  28  52  85 124 164 209 267 325 401 485
#     4  12  23  39  66  96 140 192 251 318 382 449
#     4  12  24  44  69  99 144 197 254 325 386 466
#     4  12  28  53  85 120 167 205 259 332 404 482
#     4  12  26  47  75 108 150 203 252 320 388 469
#     4  12  24  46  67 101 146 188 254 309 386 452
#     4  12  25  43  68 105 148 200 261 318 389 466
#
# _framework density 23.382580999999998
#
# number of rings (size 3 to 8) (size 9 to 14) (size 15 to 20)
#    0.000    0.000    3.750    6.750    1.750    2.000 
#    0.000    0.000    0.000    0.000    0.000    0.000 
#    0.000    0.000    0.000    0.000    0.000    0.000 
#
# Total GULP energy -89126.640544 kJ/mol
# GULP energy per Si atom -5570.415034 kJ/mol
# Density = 2.332936 g / cm^3
# Si number density = 23.382581 Si / 1000 Ang^3
#
#
#
# Elastic Constant Matrix: (Units=GPa)
#
#
# Indices 1 2 3 4 5 6 
#
# 1 93.2491 61.0607 48.1861 3.0041 -17.2746 14.4759
# 2 61.0607 177.2418 45.9821 25.0944 -20.2014 12.8748
# 3 48.1861 45.9821 126.0949 1.0424 -33.4285 -14.2753
# 4 3.0041 25.0944 1.0424 49.1973 -7.3826 -10.9598
# 5 -17.2746 -20.2014 -33.4285 -7.3826 35.8996 -1.2673
# 6 14.4759 12.8748 -14.2753 -10.9598 -1.2673 36.2824
#
#
#
# Elastic Compliance Matrix: (Units=1/GPa)
#
#
# Indices 1 2 3 4 5 6 
#
# 1 0.017856 -0.003715 -0.006439 -0.000983 -0.000001 -0.008636
# 2 -0.003715 0.008412 -0.002069 -0.004884 -0.000119 -0.003796
# 3 -0.006439 -0.002069 0.015494 0.005423 0.011684 0.011445
# 4 -0.000983 -0.004884 0.005423 0.026737 0.007772 0.012607
# 5 -0.000001 -0.000119 0.011684 0.007772 0.040563 0.008404
# 6 -0.008636 -0.003796 0.011445 0.012607 0.008404 0.040959
#
#
# Mechanical properties :
#
#
# Convention : Reuss Voigt Hill
#
# Bulk Modulus (GPa) = 57.74502 78.56038 68.15270
# Shear Modulus (GPa) = 27.74102 40.36632 34.05367
#
# Velocity S-wave (km/s) = 3.44815 4.15943 3.82038
# Velocity P-wave (km/s) = 6.37199 7.53250 6.97642
#
# Compressibility (1/GPa) = 0.01731751
#
# Stress axis : x y z
#
# Youngs Moduli (GPa) = 56.00470 118.87565 64.54125
#
# Poissons Ratio (x) = 0.44157 0.41556
# Poissons Ratio (y) = 0.20803 0.13354
# Poissons Ratio (z) = 0.36059 0.24595
#
# Static dielectric constant tensor:
#      x y z
#    x 2.042160 -0.197500 -0.013140 
#    y -0.197500 2.432600 0.055070 
#    z -0.013140 0.055070 1.874090 
# 
# From -- ./inp_files/356056.got.cif
#   From: 2010.05.17/outbox.cif.g08.bks.cpg/sg2_179_cif.got.tgz:356056.got - 2010.06.03 11:33:40.
