data_PCOD9069711
_publ_section_title
;
Structure prediction by ZEFSAII (Michael W. Deem and Ramdas Pophale) SiO2 
 PCOD9069711
Probable space group: P -1
;
_chemical_formula_sum "Si O2"
_cell_formula_units_Z 16
_cell_length_a 14.690414
_cell_length_b 13.644166
_cell_length_c 13.319327
_cell_angle_alpha 31.859842
_cell_angle_beta 138.448826
_cell_angle_gamma 150.492347
_cell_volume 693.646280
_symmetry_space_group_name_H-M "P -1"
_symmetry_group_IT_number 2
_symmetry_cell_setting 'triclinic'
loop_
_space_group_symop_operation_xyz
x,y,z
-x,-y,-z
loop_
_atom_site_type_symbol
_atom_site_label
_atom_site_fract_x
_atom_site_fract_y
_atom_site_fract_z
Si Si1 0.301707 0.841724 0.025148
Si Si2 0.135262 0.241043 0.831745
Si Si3 0.590500 0.698429 0.611252
Si Si4 0.232276 0.458616 0.435800
Si Si5 0.595781 0.236835 0.298029
Si Si6 0.110932 0.783961 0.497747
Si Si7 0.378466 0.178632 0.978127
Si Si8 0.806519 0.919826 0.388105
O O1 0.319269 0.967086 0.035845
O O2 0.184849 0.863597 0.834440
O O3 0.240455 0.583140 0.232252
O O4 0.500000 0.000000 0.000000
O O5 0.315094 0.502609 0.800736
O O6 0.211479 0.167846 0.874653
O O7 0.007414 0.282498 0.640749
O O8 0.000000 0.000000 0.000000
O O9 0.402756 0.649410 0.486207
O O10 0.539195 0.448970 0.825397
O O11 0.682143 0.791076 0.496208
O O12 0.733753 0.919301 0.614015
O O13 0.267782 0.277679 0.590990
O O14 0.038235 0.329455 0.438338
O O15 0.774023 0.299720 0.339773
O O16 0.500000 0.000000 0.500000
O O17 0.452474 0.165448 0.155806
O O18 0.000000 0.000000 0.500000
#
# Coordination Sequence:
#
# PCOD9069711 Si02
#       8
#     2   2   2   2   2   2   2   2
#     4  12  26  44  77 112 150 203 250 305 382 451
#     4  12  26  48  73 106 149 192 257 317 382 457
#     4  12  23  47  75 104 153 196 248 309 378 443
#     4  12  25  47  74 107 154 197 252 309 373 451
#     4  12  28  48  75 112 151 195 257 322 386 455
#     4  12  26  45  75 108 141 193 247 315 381 447
#     4  12  26  46  79 106 148 203 249 306 387 453
#     4  12  25  46  71 110 153 201 251 308 369 454
#
# _framework density 23.066511999999999
#
# number of rings (size 3 to 8) (size 9 to 14) (size 15 to 20)
#    0.000    0.000    5.000    4.875    3.500    1.500 
#    0.000    0.000    0.000    0.000    0.000    0.000 
#    0.000    0.000    0.000    0.000    0.000    0.000 
#
# Total GULP energy -89571.411494 kJ/mol
# GULP energy per Si atom -5598.213218 kJ/mol
# Density = 2.301401 g / cm^3
# Si number density = 23.066512 Si / 1000 Ang^3
#
#
#
# Elastic Constant Matrix: (Units=GPa)
#
#
# Indices 1 2 3 4 5 6 
#
# 1 72.0171 0.1813 -8.3269 -7.6527 6.2028 1.2061
# 2 0.1813 84.5351 3.0715 11.9637 -4.4173 6.0284
# 3 -8.3269 3.0715 112.7724 13.0030 -20.1308 12.6651
# 4 -7.6527 11.9637 13.0030 40.2899 6.6265 3.2578
# 5 6.2028 -4.4173 -20.1308 6.6265 43.4055 3.4935
# 6 1.2061 6.0284 12.6651 3.2578 3.4935 34.7118
#
#
#
# Elastic Compliance Matrix: (Units=1/GPa)
#
#
# Indices 1 2 3 4 5 6 
#
# 1 0.014492 -0.000590 0.000344 0.003263 -0.002422 -0.000589
# 2 -0.000590 0.012730 0.000854 -0.004411 0.002639 -0.002353
# 3 0.000344 0.000854 0.010962 -0.004383 0.006142 -0.004367
# 4 0.003263 -0.004411 -0.004383 0.029370 -0.007452 0.000245
# 5 -0.002422 0.002639 0.006142 -0.007452 0.028021 -0.004736
# 6 -0.000589 -0.002353 -0.004367 0.000245 -0.004736 0.031285
#
#
# Mechanical properties :
#
#
# Convention : Reuss Voigt Hill
#
# Bulk Modulus (GPa) = 25.38195 28.79740 27.08968
# Shear Modulus (GPa) = 36.02907 41.97468 39.00187
#
# Velocity S-wave (km/s) = 3.95646 4.27045 4.11645
# Velocity P-wave (km/s) = 5.64793 6.06855 5.86201
#
# Compressibility (1/GPa) = 0.03939808
#
# Stress axis : x y z
#
# Youngs Moduli (GPa) = 69.00340 78.55687 91.22623
#
# Poissons Ratio (x) = 0.04634 -0.03135
# Poissons Ratio (y) = 0.04071 -0.07787
# Poissons Ratio (z) = -0.02371 -0.06706
#
# Static dielectric constant tensor:
#      x y z
#    x 1.889830 -0.074170 -0.011250 
#    y -0.074170 1.917390 -0.022710 
#    z -0.011250 -0.022710 1.849440 
# 
# From -- ./inp_files/534145.got.cif
#   From: 2010.05.17/outbox.cif.g08.bks.cpg/sg2_268_cif.got.tgz:534145.got - 2010.06.03 11:33:40.
