data_PCOD9069890
_publ_section_title
;
Structure prediction by ZEFSAII (Michael W. Deem and Ramdas Pophale) SiO2 
 PCOD9069890
Probable space group: P -1
;
_chemical_formula_sum "Si O2"
_cell_formula_units_Z 15
_cell_length_a 9.110020
_cell_length_b 14.542098
_cell_length_c 14.383389
_cell_angle_alpha 34.136906
_cell_angle_beta 69.323306
_cell_angle_gamma 48.392284
_cell_volume 706.417934
_symmetry_space_group_name_H-M "P -1"
_symmetry_group_IT_number 2
_symmetry_cell_setting 'triclinic'
loop_
_space_group_symop_operation_xyz
x,y,z
-x,-y,-z
loop_
_atom_site_type_symbol
_atom_site_label
_atom_site_fract_x
_atom_site_fract_y
_atom_site_fract_z
Si Si1 0.675895 0.576110 0.152016
Si Si2 0.963781 0.798391 0.479891
Si Si3 0.500000 0.000000 0.500000
Si Si4 0.207064 0.433978 0.061487
Si Si5 0.617835 0.973422 0.903117
Si Si6 0.931660 0.185955 0.079538
Si Si7 0.772438 0.261932 0.851160
Si Si8 0.191300 0.471266 0.522654
O O1 0.442190 0.692396 0.148704
O O2 0.872300 0.325478 0.363829
O O3 0.662840 0.577248 0.043190
O O4 0.712485 0.739215 0.031882
O O5 0.734293 0.883257 0.490446
O O6 0.101318 0.599541 0.535373
O O7 0.921286 0.011575 0.270388
O O8 0.649694 0.801783 0.715295
O O9 0.138279 0.628380 0.984602
O O10 0.000000 0.500000 0.000000
O O11 0.418823 0.202668 0.699840
O O12 0.815538 0.955653 0.886529
O O13 0.500000 0.000000 0.000000
O O14 0.787872 0.310263 0.913992
O O15 0.765761 0.410656 0.654203
O O16 0.000000 0.000000 0.000000
O O17 0.000000 0.500000 0.500000
#
# Coordination Sequence:
#
# PCOD9069890 Si02
#       8
#     2   2   1   2   2   2   2   2
#     4  12  26  50  74 109 152 198 250 315 376 457
#     4  12  27  48  75 110 151 197 258 312 376 455
#     4  12  28  50  78 106 152 198 260 312 372 442
#     4  12  27  52  78 109 148 201 254 311 377 443
#     4  12  24  42  76 104 149 192 241 303 378 446
#     4  12  27  49  75 114 147 197 251 313 375 452
#     4  12  26  45  73 108 153 190 247 310 382 451
#     4  12  27  43  72 111 148 198 244 308 388 449
#
# _framework density 21.233888
#
# number of rings (size 3 to 8) (size 9 to 14) (size 15 to 20)
#    0.000    0.000    5.333    4.000    3.733    3.733 
#    2.400    0.000    0.000    0.000    0.000    0.000 
#    0.000    0.000    0.000    0.000    0.000    0.000 
#
# Total GULP energy -83676.973424 kJ/mol
# GULP energy per Si atom -5578.464895 kJ/mol
# Density = 2.118556 g / cm^3
# Si number density = 21.233888 Si / 1000 Ang^3
#
#
#
# Elastic Constant Matrix: (Units=GPa)
#
#
# Indices 1 2 3 4 5 6 
#
# 1 71.0455 20.3854 11.3931 7.6355 2.8066 -20.9854
# 2 20.3854 108.6185 23.3036 27.9457 -8.6228 -8.9298
# 3 11.3931 23.3036 121.9290 31.5272 18.6132 -13.8496
# 4 7.6355 27.9457 31.5272 35.7347 -6.3133 -3.2614
# 5 2.8066 -8.6228 18.6132 -6.3133 31.4613 2.0926
# 6 -20.9854 -8.9298 -13.8496 -3.2614 2.0926 51.0510
#
#
#
# Elastic Compliance Matrix: (Units=1/GPa)
#
#
# Indices 1 2 3 4 5 6 
#
# 1 0.017072 -0.002478 0.000854 -0.002488 -0.003659 0.006807
# 2 -0.002478 0.012047 -0.000140 -0.008395 0.001892 0.000437
# 3 0.000854 -0.000140 0.013948 -0.014063 -0.011433 0.003681
# 4 -0.002488 -0.008395 -0.014063 0.050064 0.016539 -0.003786
# 5 -0.003659 0.001892 -0.011433 0.016539 0.043044 -0.004983
# 6 0.006807 0.000437 0.003681 -0.003786 -0.004983 0.023424
#
#
# Mechanical properties :
#
#
# Convention : Reuss Voigt Hill
#
# Bulk Modulus (GPa) = 25.29078 45.75078 35.52078
# Shear Modulus (GPa) = 28.35942 40.08347 34.22144
#
# Velocity S-wave (km/s) = 3.65851 4.34949 4.01888
# Velocity P-wave (km/s) = 5.45736 6.84230 6.18869
#
# Compressibility (1/GPa) = 0.03954009
#
# Stress axis : x y z
#
# Youngs Moduli (GPa) = 58.57461 83.00486 71.69423
#
# Poissons Ratio (x) = 0.20568 -0.06119
# Poissons Ratio (y) = 0.14514 0.01000
# Poissons Ratio (z) = -0.05000 0.01158
#
# Static dielectric constant tensor:
#      x y z
#    x 1.813960 0.066600 -0.061420 
#    y 0.066600 1.886800 -0.023520 
#    z -0.061420 -0.023520 1.765970 
# 
# From -- ./inp_files/342417.got.cif
#   From: 2010.05.17/outbox.cif.g08.bks.cpg/sg2_172_cif.got.tgz:342417.got - 2010.06.03 11:33:40.
