data_PCOD9069871
_publ_section_title
;
Structure prediction by ZEFSAII (Michael W. Deem and Ramdas Pophale) SiO2 
 PCOD9069871
Probable space group: P -1
;
_chemical_formula_sum "Si O2"
_cell_formula_units_Z 14
_cell_length_a 27.097269
_cell_length_b 5.459424
_cell_length_c 29.678777
_cell_angle_alpha 109.390815
_cell_angle_beta 170.764079
_cell_angle_gamma 69.946681
_cell_volume 661.356344
_symmetry_space_group_name_H-M "P -1"
_symmetry_group_IT_number 2
_symmetry_cell_setting 'triclinic'
loop_
_space_group_symop_operation_xyz
x,y,z
-x,-y,-z
loop_
_atom_site_type_symbol
_atom_site_label
_atom_site_fract_x
_atom_site_fract_y
_atom_site_fract_z
Si Si1 0.209840 0.307379 0.144629
Si Si2 0.541434 0.600859 0.778271
Si Si3 0.369345 0.942608 0.829621
Si Si4 0.319791 0.002159 0.384890
Si Si5 0.575788 0.329113 0.961743
Si Si6 0.260260 0.493745 0.424353
Si Si7 0.308731 0.207618 0.616860
O O1 0.435867 0.403108 0.317216
O O2 0.439010 0.155554 0.375850
O O3 0.000000 0.500000 0.000000
O O4 0.983197 0.133575 0.905249
O O5 0.378547 0.464738 0.580725
O O6 0.482299 0.408187 0.754738
O O7 0.383895 0.899332 0.655148
O O8 0.911505 0.633763 0.115083
O O9 0.468419 0.636271 0.890763
O O10 0.491956 0.140112 0.915458
O O11 0.000000 0.000000 0.500000
O O12 0.500000 0.000000 0.000000
O O13 0.227408 0.258772 0.345594
O O14 0.500000 0.000000 0.500000
O O15 0.411072 0.244184 0.762784
O O16 0.945458 0.288352 0.287713
#
# Coordination Sequence:
#
# PCOD9069871 Si02
#       7
#     2   2   2   2   2   2   2
#     4  12  26  44  69  98 135 174 224 275 360 462
#     4  12  28  47  72 102 139 179 246 312 351 414
#     4  12  24  42  70 114 152 186 233 288 347 410
#     4  12  26  44  69  98 135 174 224 275 360 462
#     4  12  24  45  74 100 147 198 235 288 347 412
#     4  12  28  45  69 100 134 181 221 304 376 416
#     4  12  26  49  71 102 136 194 251 290 349 412
#
# _framework density 21.168617000000001
#
# number of rings (size 3 to 8) (size 9 to 14) (size 15 to 20)
#    0.000    0.000    1.429    8.571    8.000    0.000 
#    0.000    0.000    0.000    0.000    0.000    0.000 
#    0.000    0.000    0.000    0.000    0.000    0.000 
#
# Total GULP energy -78210.475528 kJ/mol
# GULP energy per Si atom -5586.462538 kJ/mol
# Density = 2.112044 g / cm^3
# Si number density = 21.168617 Si / 1000 Ang^3
#
#
#
# Elastic Constant Matrix: (Units=GPa)
#
#
# Indices 1 2 3 4 5 6 
#
# 1 99.1944 39.6547 1.3936 8.1545 -9.9125 6.3025
# 2 39.6547 128.6127 39.2227 5.9721 17.4985 9.2681
# 3 1.3936 39.2227 148.3751 5.2640 -2.7484 -3.2095
# 4 8.1545 5.9721 5.2640 45.2464 -7.3953 -7.3346
# 5 -9.9125 17.4985 -2.7484 -7.3953 44.6263 6.0100
# 6 6.3025 9.2681 -3.2095 -7.3346 6.0100 28.4060
#
#
#
# Elastic Compliance Matrix: (Units=1/GPa)
#
#
# Indices 1 2 3 4 5 6 
#
# 1 0.012704 -0.004694 0.001207 -0.001432 0.004842 -0.002545
# 2 -0.004694 0.011115 -0.002989 -0.001528 -0.005549 -0.002143
# 3 0.001207 -0.002989 0.007583 -0.000240 0.001714 0.001140
# 4 -0.001432 -0.001528 -0.000240 0.024170 0.003422 0.006306
# 5 0.004842 -0.005549 0.001714 0.003422 0.026853 -0.003868
# 6 -0.002545 -0.002143 0.001140 0.006306 -0.003868 0.039043
#
#
# Mechanical properties :
#
#
# Convention : Reuss Voigt Hill
#
# Bulk Modulus (GPa) = 54.20087 59.63604 56.91845
# Shear Modulus (GPa) = 35.56928 43.38315 39.47621
#
# Velocity S-wave (km/s) = 4.10357 4.53195 4.32307
# Velocity P-wave (km/s) = 6.93631 7.45774 7.20174
#
# Compressibility (1/GPa) = 0.01844989
#
# Stress axis : x y z
#
# Youngs Moduli (GPa) = 78.71509 89.97245 131.86712
#
# Poissons Ratio (x) = 0.42233 -0.15916
# Poissons Ratio (y) = 0.36949 0.39415
# Poissons Ratio (z) = -0.09501 0.26892
#
# Static dielectric constant tensor:
#      x y z
#    x 1.703620 0.039810 0.003510 
#    y 0.039810 1.794090 0.020560 
#    z 0.003510 0.020560 1.699360 
# 
# From -- ./inp_files/114801.got.cif
#   From: 2010.05.17/outbox.cif.g08.bks.cpg/sg2_58_cif.got.tgz:114801.got - 2010.06.03 11:33:40.
