data_PCOD9069455
_publ_section_title
;
Structure prediction by ZEFSAII (Michael W. Deem and Ramdas Pophale) SiO2 
 PCOD9069455
Probable space group: P -1
;
_chemical_formula_sum "Si O2"
_cell_formula_units_Z 12
_cell_length_a 11.531600
_cell_length_b 14.960206
_cell_length_c 8.512515
_cell_angle_alpha 125.107906
_cell_angle_beta 140.001360
_cell_angle_gamma 31.007011
_cell_volume 471.309173
_symmetry_space_group_name_H-M "P -1"
_symmetry_group_IT_number 2
_symmetry_cell_setting 'triclinic'
loop_
_space_group_symop_operation_xyz
x,y,z
-x,-y,-z
loop_
_atom_site_type_symbol
_atom_site_label
_atom_site_fract_x
_atom_site_fract_y
_atom_site_fract_z
Si Si1 0.928198 0.050578 0.796323
Si Si2 0.333405 0.704754 0.667805
Si Si3 0.049725 0.373528 0.540542
Si Si4 0.366844 0.316663 0.329687
Si Si5 0.753031 0.376605 0.002067
Si Si6 0.784283 0.800514 0.159108
O O1 0.625761 0.136156 0.517382
O O2 0.856081 0.213254 0.872654
O O3 0.182817 0.874952 0.780609
O O4 0.000000 0.000000 0.000000
O O5 0.466477 0.693203 0.639020
O O6 0.070609 0.742529 0.406564
O O7 0.601981 0.524176 0.863153
O O8 0.798214 0.524730 0.561187
O O9 0.019860 0.293660 0.300059
O O10 0.000000 0.500000 0.500000
O O11 0.281870 0.220172 0.757439
O O12 0.174094 0.318611 0.042464
O O13 0.500000 0.500000 0.000000
O O14 0.500000 0.000000 0.000000
#
# Coordination Sequence:
#
# PCOD9069455 Si02
#       6
#     2   2   2   2   2   2
#     4  12  23  43  75 109 151 194 252 313 370 457
#     4  12  26  51  78 114 158 199 262 320 385 463
#     4  12  27  52  77 112 156 201 265 324 383 471
#     4  12  27  49  76 113 151 204 256 321 390 457
#     4  12  23  47  78 107 146 209 255 304 387 457
#     4  12  26  47  76 117 156 198 254 318 394 461
#
# _framework density 25.460993999999999
#
# number of rings (size 3 to 8) (size 9 to 14) (size 15 to 20)
#    0.000    0.000    6.667    2.000    0.000    4.000 
#    0.000    0.833    0.000    0.000    0.000    0.000 
#    0.000    0.000    0.000    0.000    0.000    0.000 
#
# Total GULP energy -67131.846278 kJ/mol
# GULP energy per Si atom -5594.320523 kJ/mol
# Density = 2.540304 g / cm^3
# Si number density = 25.460994 Si / 1000 Ang^3
#
#
#
# Elastic Constant Matrix: (Units=GPa)
#
#
# Indices 1 2 3 4 5 6 
#
# 1 142.1021 52.5234 70.0291 2.2037 -25.4386 0.4910
# 2 52.5234 187.9973 64.3551 18.5787 -22.7127 10.9736
# 3 70.0291 64.3551 206.8569 9.5842 -27.3453 4.8346
# 4 2.2037 18.5787 9.5842 57.7667 11.0141 -20.5867
# 5 -25.4386 -22.7127 -27.3453 11.0141 43.2947 -5.8952
# 6 0.4910 10.9736 4.8346 -20.5867 -5.8952 30.2526
#
#
#
# Elastic Compliance Matrix: (Units=1/GPa)
#
#
# Indices 1 2 3 4 5 6 
#
# 1 0.009331 -0.001580 -0.002297 0.000546 0.003310 0.001805
# 2 -0.001580 0.007127 -0.001030 -0.004262 0.002592 -0.004791
# 3 -0.002297 -0.001030 0.006337 -0.001491 0.002333 -0.001162
# 4 0.000546 -0.004262 -0.001491 0.026944 -0.007164 0.018715
# 5 0.003310 0.002592 0.002333 -0.007164 0.029635 -0.000467
# 6 0.001805 -0.004791 -0.001162 0.018715 -0.000467 0.047593
#
#
# Mechanical properties :
#
#
# Convention : Reuss Voigt Hill
#
# Bulk Modulus (GPa) = 77.03918 101.19684 89.11801
# Shear Modulus (GPa) = 35.43332 49.59940 42.51636
#
# Velocity S-wave (km/s) = 3.73456 4.41847 4.09083
# Velocity P-wave (km/s) = 6.99423 8.11558 7.57568
#
# Compressibility (1/GPa) = 0.01298041
#
# Stress axis : x y z
#
# Youngs Moduli (GPa) = 107.16823 140.30396 157.79599
#
# Poissons Ratio (x) = 0.22167 0.36251
# Poissons Ratio (y) = 0.16932 0.16260
# Poissons Ratio (z) = 0.24620 0.14457
#
# Static dielectric constant tensor:
#      x y z
#    x 2.026820 0.087250 0.115460 
#    y 0.087250 2.099730 -0.014150 
#    z 0.115460 -0.014150 2.201330 
# 
# From -- ./inp_files/269087.got.cif
#   From: 2010.05.17/outbox.cif.g08.bks.cpg/sg2_135_cif.got.tgz:269087.got - 2010.06.03 11:33:40.
