data_PCOD9069571
_publ_section_title
;
Structure prediction by ZEFSAII (Michael W. Deem and Ramdas Pophale) SiO2 
 PCOD9069571
Probable space group: P -1
;
_chemical_formula_sum "Si O2"
_cell_formula_units_Z 14
_cell_length_a 12.943094
_cell_length_b 8.711677
_cell_length_c 9.328933
_cell_angle_alpha 132.368311
_cell_angle_beta 117.939127
_cell_angle_gamma 78.088427
_cell_volume 676.884614
_symmetry_space_group_name_H-M "P -1"
_symmetry_group_IT_number 2
_symmetry_cell_setting 'triclinic'
loop_
_space_group_symop_operation_xyz
x,y,z
-x,-y,-z
loop_
_atom_site_type_symbol
_atom_site_label
_atom_site_fract_x
_atom_site_fract_y
_atom_site_fract_z
Si Si1 0.609649 0.015147 0.188334
Si Si2 0.288423 0.301751 0.341742
Si Si3 0.701029 0.612332 0.942085
Si Si4 0.841861 0.321287 0.422072
Si Si5 0.055074 0.467423 0.862559
Si Si6 0.530232 0.203045 0.546991
Si Si7 0.889534 0.122873 0.027477
O O1 0.730527 0.147411 0.287296
O O2 0.576293 0.124433 0.378295
O O3 0.500000 0.000000 0.000000
O O4 0.632439 0.779784 0.075721
O O5 0.297940 0.355909 0.211267
O O6 0.210497 0.459403 0.465021
O O7 0.416786 0.313200 0.504421
O O8 0.223938 0.061055 0.164641
O O9 0.633482 0.379619 0.785376
O O10 0.833673 0.647155 0.109945
O O11 0.886903 0.249492 0.254330
O O12 0.952301 0.348175 0.619303
O O13 0.101919 0.697720 0.973171
O O14 0.000000 0.500000 0.000000
O O15 0.500000 0.000000 0.500000
O O16 0.000000 0.000000 0.000000
#
# Coordination Sequence:
#
# PCOD9069571 Si02
#       7
#     2   2   2   2   2   2   2
#     4  12  24  44  73 101 137 186 233 279 347 412
#     4  12  23  45  74 100 139 181 231 291 347 408
#     4  12  24  45  69 102 140 183 227 291 339 406
#     4  12  25  44  73 105 134 189 233 279 355 409
#     4  12  25  45  67 103 145 178 233 285 343 417
#     4  12  26  45  71 106 139 179 231 287 346 412
#     4  12  25  46  70 102 139 181 234 286 344 411
#
# _framework density 20.682991999999999
#
# number of rings (size 3 to 8) (size 9 to 14) (size 15 to 20)
#    0.000    0.000    7.143    2.571    0.000    2.286 
#    2.571    0.000    0.000    0.000    0.000    0.000 
#    0.000    0.000    0.000    0.000    0.000    0.000 
#
# Total GULP energy -78354.739429 kJ/mol
# GULP energy per Si atom -5596.767102 kJ/mol
# Density = 2.063592 g / cm^3
# Si number density = 20.682992 Si / 1000 Ang^3
#
#
#
# Elastic Constant Matrix: (Units=GPa)
#
#
# Indices 1 2 3 4 5 6 
#
# 1 100.7047 35.8303 51.9151 -12.2947 3.1210 -20.2777
# 2 35.8303 86.5898 38.0111 -4.2518 8.2852 2.0676
# 3 51.9151 38.0111 111.3533 13.6914 4.4755 -10.6954
# 4 -12.2947 -4.2518 13.6914 30.9150 -4.6809 11.1326
# 5 3.1210 8.2852 4.4755 -4.6809 46.1970 6.4656
# 6 -20.2777 2.0676 -10.6954 11.1326 6.4656 57.8317
#
#
#
# Elastic Compliance Matrix: (Units=1/GPa)
#
#
# Indices 1 2 3 4 5 6 
#
# 1 0.016470 -0.003311 -0.007336 0.008418 0.000647 0.002844
# 2 -0.003311 0.015190 -0.004324 0.003590 -0.001291 -0.003051
# 3 -0.007336 -0.004324 0.015688 -0.011810 -0.001860 0.002965
# 4 0.008418 0.003590 -0.011810 0.045442 0.005761 -0.008753
# 5 0.000647 -0.001291 -0.001860 0.005761 0.023125 -0.003765
# 6 0.002844 -0.003051 0.002965 -0.008753 -0.003765 0.021052
#
#
# Mechanical properties :
#
#
# Convention : Reuss Voigt Hill
#
# Bulk Modulus (GPa) = 57.45318 61.12896 59.29107
# Shear Modulus (GPa) = 28.94982 38.51484 33.73233
#
# Velocity S-wave (km/s) = 3.74530 4.31995 4.04285
# Velocity P-wave (km/s) = 6.82212 7.38254 7.10786
#
# Compressibility (1/GPa) = 0.01740548
#
# Stress axis : x y z
#
# Youngs Moduli (GPa) = 60.71465 65.83450 63.74177
#
# Poissons Ratio (x) = 0.21800 0.46763
# Poissons Ratio (y) = 0.20105 0.27561
# Poissons Ratio (z) = 0.44542 0.28465
#
# Static dielectric constant tensor:
#      x y z
#    x 1.654990 0.040140 0.048990 
#    y 0.040140 1.707480 0.004220 
#    z 0.048990 0.004220 1.731960 
# 
# From -- ./inp_files/180805.got.cif
#   From: 2010.05.17/outbox.cif.g08.bks.cpg/sg2_91_cif.got.tgz:180805.got - 2010.06.03 11:33:40.
