data_PCOD9069583
_publ_section_title
;
Structure prediction by ZEFSAII (Michael W. Deem and Ramdas Pophale) SiO2 
 PCOD9069583
Probable space group: P -1
;
_chemical_formula_sum "Si O2"
_cell_formula_units_Z 16
_cell_length_a 17.940751
_cell_length_b 12.285997
_cell_length_c 8.838371
_cell_angle_alpha 127.748904
_cell_angle_beta 126.990249
_cell_angle_gamma 30.427947
_cell_volume 766.784672
_symmetry_space_group_name_H-M "P -1"
_symmetry_group_IT_number 2
_symmetry_cell_setting 'triclinic'
loop_
_space_group_symop_operation_xyz
x,y,z
-x,-y,-z
loop_
_atom_site_type_symbol
_atom_site_label
_atom_site_fract_x
_atom_site_fract_y
_atom_site_fract_z
Si Si1 0.903008 0.222189 0.986727
Si Si2 0.523602 0.126523 0.074160
Si Si3 0.586792 0.481559 0.220631
Si Si4 0.082353 0.999508 0.720280
Si Si5 0.376844 0.581736 0.288575
Si Si6 0.936055 0.429746 0.418667
Si Si7 0.194966 0.035189 0.627381
Si Si8 0.586607 0.779776 0.333375
O O1 0.740239 0.345183 0.911164
O O2 0.931238 0.334346 0.189850
O O3 0.959882 0.165960 0.838789
O O4 0.000000 0.000000 0.000000
O O5 0.435160 0.364784 0.234945
O O6 0.689271 0.976538 0.206309
O O7 0.480221 0.168653 0.876111
O O8 0.500000 0.000000 0.000000
O O9 0.763640 0.244243 0.238333
O O10 0.507324 0.516021 0.306496
O O11 0.568727 0.661891 0.310489
O O12 0.500000 0.500000 0.000000
O O13 0.133569 0.070262 0.747490
O O14 0.000000 0.000000 0.500000
O O15 0.282965 0.800117 0.461616
O O16 0.761597 0.624359 0.417972
O O17 0.000000 0.500000 0.500000
O O18 0.055194 0.233498 0.518532
O O19 0.500000 0.000000 0.500000
#
# Coordination Sequence:
#
# PCOD9069583 Si02
#       8
#     2   2   2   2   2   2   2   2
#     4  12  23  45  75 105 140 187 242 299 360 430
#     4  12  27  48  70 107 150 189 236 301 363 429
#     4  12  24  44  73 105 144 184 247 297 355 428
#     4  12  24  42  71 109 144 178 236 313 357 418
#     4  12  24  44  78 104 140 193 245 295 361 426
#     4  12  27  49  73 104 147 198 243 291 366 443
#     4  12  26  46  73 111 143 188 247 297 368 429
#     4  12  28  49  72 107 145 195 243 297 361 434
#
# _framework density 20.866353
#
# number of rings (size 3 to 8) (size 9 to 14) (size 15 to 20)
#    0.000    0.000    6.250    3.375    3.500    1.000 
#    2.250    1.250    0.000    0.000    0.000    0.000 
#    0.000    0.000    0.000    0.000    0.000    0.000 
#
# Total GULP energy -89263.699562 kJ/mol
# GULP energy per Si atom -5578.981223 kJ/mol
# Density = 2.081886 g / cm^3
# Si number density = 20.866353 Si / 1000 Ang^3
#
#
#
# Elastic Constant Matrix: (Units=GPa)
#
#
# Indices 1 2 3 4 5 6 
#
# 1 132.5099 52.1465 57.4383 20.9531 28.6182 10.0686
# 2 52.1465 131.5133 75.8310 -7.0416 7.2304 -0.4558
# 3 57.4383 75.8310 139.4572 -5.5340 26.0134 -6.7337
# 4 20.9531 -7.0416 -5.5340 44.4591 -2.4709 8.0182
# 5 28.6182 7.2304 26.0134 -2.4709 48.1962 -1.7976
# 6 10.0686 -0.4558 -6.7337 8.0182 -1.7976 38.2214
#
#
#
# Elastic Compliance Matrix: (Units=1/GPa)
#
#
# Indices 1 2 3 4 5 6 
#
# 1 0.012611 -0.003586 -0.002513 -0.006674 -0.006036 -0.002691
# 2 -0.003586 0.012338 -0.005788 0.003199 0.003550 -0.000432
# 3 -0.002513 -0.005788 0.012279 0.001148 -0.004122 0.002321
# 4 -0.006674 0.003199 0.001148 0.027149 0.004125 -0.003503
# 5 -0.006036 0.003550 -0.004122 0.004125 0.026284 0.001277
# 6 -0.002691 -0.000432 0.002321 -0.003503 0.001277 0.028071
#
#
# Mechanical properties :
#
#
# Convention : Reuss Voigt Hill
#
# Bulk Modulus (GPa) = 74.32737 86.03464 80.18101
# Shear Modulus (GPa) = 34.01616 40.71299 37.36458
#
# Velocity S-wave (km/s) = 4.04194 4.42195 4.23621
# Velocity P-wave (km/s) = 7.58163 8.20928 7.90169
#
# Compressibility (1/GPa) = 0.01345399
#
# Stress axis : x y z
#
# Youngs Moduli (GPa) = 79.29883 81.05295 81.43817
#
# Poissons Ratio (x) = 0.29067 0.20463
# Poissons Ratio (y) = 0.28438 0.47135
# Poissons Ratio (z) = 0.19926 0.46912
#
# Static dielectric constant tensor:
#      x y z
#    x 1.469380 0.108480 -0.085080 
#    y 0.108480 1.743760 0.000400 
#    z -0.085080 0.000400 1.732900 
# 
# From -- ./inp_files/333832.got.cif
#   From: 2010.05.17/outbox.cif.g08.bks.cpg/sg2_167_cif.got.tgz:333832.got - 2010.06.03 11:33:40.
