data_PCOD9069511
_publ_section_title
;
Structure prediction by ZEFSAII (Michael W. Deem and Ramdas Pophale) SiO2 
 PCOD9069511
Probable space group: P -1
;
_chemical_formula_sum "Si O2"
_cell_formula_units_Z 16
_cell_length_a 9.083384
_cell_length_b 14.844747
_cell_length_c 9.355035
_cell_angle_alpha 67.712894
_cell_angle_beta 109.551689
_cell_angle_gamma 138.719594
_cell_volume 767.503772
_symmetry_space_group_name_H-M "P -1"
_symmetry_group_IT_number 2
_symmetry_cell_setting 'triclinic'
loop_
_space_group_symop_operation_xyz
x,y,z
-x,-y,-z
loop_
_atom_site_type_symbol
_atom_site_label
_atom_site_fract_x
_atom_site_fract_y
_atom_site_fract_z
Si Si1 0.174662 0.271497 0.659918
Si Si2 0.167126 0.027447 0.155566
Si Si3 0.007657 0.619757 0.945014
Si Si4 0.302606 0.445980 0.866774
Si Si5 0.500370 0.108610 0.987721
Si Si6 0.448585 0.721856 0.665596
Si Si7 0.527480 0.282491 0.646610
Si Si8 0.039458 0.401513 0.366506
O O1 0.243198 0.334590 0.804127
O O2 0.379700 0.311440 0.620598
O O3 0.087626 0.331730 0.524702
O O4 0.981186 0.104574 0.709066
O O5 0.346324 0.169542 0.222056
O O6 0.319708 0.032663 0.098215
O O7 0.000000 0.000000 0.000000
O O8 0.903774 0.608917 0.769439
O O9 0.262658 0.762689 0.944450
O O10 0.000000 0.500000 0.000000
O O11 0.894017 0.609197 0.056617
O O12 0.381492 0.578355 0.732112
O O13 0.500000 0.500000 0.000000
O O14 0.473213 0.176717 0.812082
O O15 0.500000 0.000000 0.000000
O O16 0.517570 0.775854 0.492606
O O17 0.218280 0.676971 0.657083
O O18 0.787614 0.433043 0.645610
#
# Coordination Sequence:
#
# PCOD9069511 Si02
#       8
#     2   2   2   2   2   2   2   2
#     4  12  28  46  72 105 150 194 234 297 364 431
#     4  12  26  52  70 102 150 191 237 299 360 429
#     4  12  23  44  73 105 142 187 240 299 354 415
#     4  12  25  43  72 109 140 189 249 293 355 426
#     4  12  26  46  74 104 139 190 243 293 356 431
#     4  12  27  45  73 107 144 192 236 296 366 426
#     4  12  26  48  73 106 149 186 240 303 361 423
#     4  12  25  45  75 107 145 183 241 304 356 424
#
# _framework density 20.846803000000001
#
# number of rings (size 3 to 8) (size 9 to 14) (size 15 to 20)
#    0.000    0.000    6.250    3.000    5.250    2.000 
#    0.000    0.000    0.000    0.000    0.000    0.000 
#    0.000    0.000    0.000    0.000    0.000    0.000 
#
# Total GULP energy -89447.015741 kJ/mol
# GULP energy per Si atom -5590.438484 kJ/mol
# Density = 2.079935 g / cm^3
# Si number density = 20.846803 Si / 1000 Ang^3
#
#
#
# Elastic Constant Matrix: (Units=GPa)
#
#
# Indices 1 2 3 4 5 6 
#
# 1 88.4721 37.0169 3.0098 14.1976 -11.8225 5.5812
# 2 37.0169 92.7722 2.7425 16.6723 2.9588 5.6541
# 3 3.0098 2.7425 81.3551 12.8208 -3.0056 2.0945
# 4 14.1976 16.6723 12.8208 35.4959 -7.3868 -1.7724
# 5 -11.8225 2.9588 -3.0056 -7.3868 43.2611 0.6970
# 6 5.5812 5.6541 2.0945 -1.7724 0.6970 31.0771
#
#
#
# Elastic Compliance Matrix: (Units=1/GPa)
#
#
# Indices 1 2 3 4 5 6 
#
# 1 0.014620 -0.005367 0.000260 -0.002694 0.003951 -0.001909
# 2 -0.005367 0.014102 0.000507 -0.005439 -0.003295 -0.001872
# 3 0.000260 0.000507 0.013110 -0.005123 0.000094 -0.001317
# 4 -0.002694 -0.005439 -0.005123 0.034918 0.005183 0.003694
# 5 0.003951 -0.003295 0.000094 0.005183 0.025318 -0.000389
# 6 -0.001909 -0.001872 -0.001317 0.003694 -0.000389 0.033170
#
#
# Mechanical properties :
#
#
# Convention : Reuss Voigt Hill
#
# Bulk Modulus (GPa) = 30.64504 38.68200 34.66352
# Shear Modulus (GPa) = 32.19232 36.62217 34.40725
#
# Velocity S-wave (km/s) = 3.93394 4.19588 4.06702
# Velocity P-wave (km/s) = 5.94697 6.48610 6.22238
#
# Compressibility (1/GPa) = 0.03263171
#
# Stress axis : x y z
#
# Youngs Moduli (GPa) = 68.39739 70.91064 76.27861
#
# Poissons Ratio (x) = 0.38057 -0.01981
# Poissons Ratio (y) = 0.36708 -0.03866
# Poissons Ratio (z) = -0.01776 -0.03594
#
# Static dielectric constant tensor:
#      x y z
#    x 1.708560 0.022450 -0.005380 
#    y 0.022450 1.709550 -0.006310 
#    z -0.005380 -0.006310 1.799340 
# 
# From -- ./inp_files/187822.got.cif
#   From: 2010.05.17/outbox.cif.g08.bks.cpg/sg2_94_cif.got.tgz:187822.got - 2010.06.03 11:33:40.
