data_PCOD9069359
_publ_section_title
;
Structure prediction by ZEFSAII (Michael W. Deem and Ramdas Pophale) SiO2 
 PCOD9069359
Probable space group: P -1
;
_chemical_formula_sum "Si O2"
_cell_formula_units_Z 14
_cell_length_a 10.444594
_cell_length_b 10.101552
_cell_length_c 11.263398
_cell_angle_alpha 60.853624
_cell_angle_beta 103.686485
_cell_angle_gamma 135.489865
_cell_volume 715.603607
_symmetry_space_group_name_H-M "P -1"
_symmetry_group_IT_number 2
_symmetry_cell_setting 'triclinic'
loop_
_space_group_symop_operation_xyz
x,y,z
-x,-y,-z
loop_
_atom_site_type_symbol
_atom_site_label
_atom_site_fract_x
_atom_site_fract_y
_atom_site_fract_z
Si Si1 0.369907 0.182031 0.348157
Si Si2 0.013521 0.363543 0.977180
Si Si3 0.720943 0.304227 0.278118
Si Si4 0.190538 0.745918 0.429908
Si Si5 0.401920 0.083306 0.918858
Si Si6 0.535099 0.871204 0.346778
Si Si7 0.384468 0.489848 0.082746
O O1 0.556834 0.289329 0.269271
O O2 0.407278 0.175138 0.500406
O O3 0.339979 0.332275 0.245574
O O4 0.211513 0.945317 0.355446
O O5 0.082181 0.472224 0.814458
O O6 0.000000 0.500000 0.000000
O O7 0.187748 0.402163 0.038778
O O8 0.818391 0.121468 0.032506
O O9 0.720894 0.221048 0.438664
O O10 0.664829 0.125918 0.254313
O O11 0.330268 0.777702 0.356389
O O12 0.000000 0.500000 0.500000
O O13 0.446701 0.186970 0.752252
O O14 0.486113 0.269508 0.948372
O O15 0.500000 0.000000 0.000000
O O16 0.500000 0.500000 0.000000
#
# Coordination Sequence:
#
# PCOD9069359 Si02
#       7
#     2   2   2   2   2   2   2
#     4   9  20  41  63  89 136 169 204 284 333 371
#     4  12  23  42  70  97 133 172 227 270 326 402
#     4   9  17  37  63  89 125 169 210 271 318 385
#     4   9  19  32  64  96 120 168 223 263 318 399
#     4  12  26  42  70  98 131 184 223 267 331 403
#     4   9  19  39  61  91 128 168 218 260 330 389
#     4  12  26  45  67  99 138 174 217 283 338 382
#
# _framework density 19.563904999999998
#
# number of rings (size 3 to 8) (size 9 to 14) (size 15 to 20)
#    0.000    1.714    4.286    1.714    4.000    1.143 
#    5.143    0.714    0.000    0.000    0.000    0.000 
#    0.000    0.000    0.000    0.000    0.000    0.000 
#
# Total GULP energy -77952.848106 kJ/mol
# GULP energy per Si atom -5568.060579 kJ/mol
# Density = 1.951938 g / cm^3
# Si number density = 19.563905 Si / 1000 Ang^3
#
#
#
# Elastic Constant Matrix: (Units=GPa)
#
#
# Indices 1 2 3 4 5 6 
#
# 1 94.0286 58.4004 38.8234 -6.8616 1.5328 5.8543
# 2 58.4004 129.6806 24.1630 -22.3250 -8.8416 8.4961
# 3 38.8234 24.1630 92.4300 -9.5848 -5.5945 -0.9404
# 4 -6.8616 -22.3250 -9.5848 31.7737 1.8028 -7.2445
# 5 1.5328 -8.8416 -5.5945 1.8028 37.1304 -5.3343
# 6 5.8543 8.4961 -0.9404 -7.2445 -5.3343 31.2063
#
#
#
# Elastic Compliance Matrix: (Units=1/GPa)
#
#
# Indices 1 2 3 4 5 6 
#
# 1 0.017885 -0.007621 -0.006173 -0.003825 -0.003727 -0.002991
# 2 -0.007621 0.012414 0.000896 0.007237 0.003095 0.000286
# 3 -0.006173 0.000896 0.013777 0.003914 0.002743 0.002707
# 4 -0.003825 0.007237 0.003914 0.038669 0.001763 0.008144
# 5 -0.003727 0.003095 0.002743 0.001763 0.028911 0.005290
# 6 -0.002991 0.000286 0.002707 0.008144 0.005290 0.035405
#
#
# Mechanical properties :
#
#
# Convention : Reuss Voigt Hill
#
# Bulk Modulus (GPa) = 54.69891 62.10142 58.40017
# Shear Modulus (GPa) = 27.94114 33.00558 30.47336
#
# Velocity S-wave (km/s) = 3.78325 4.11185 3.95097
# Velocity P-wave (km/s) = 6.86322 7.37257 7.12245
#
# Compressibility (1/GPa) = 0.01828190
#
# Stress axis : x y z
#
# Youngs Moduli (GPa) = 55.91391 80.55230 72.58585
#
# Poissons Ratio (x) = 0.61386 0.44804
# Poissons Ratio (y) = 0.42610 -0.06506
# Poissons Ratio (z) = 0.34513 -0.07220
#
# Static dielectric constant tensor:
#      x y z
#    x 1.704530 0.000720 0.026880 
#    y 0.000720 1.806090 0.037010 
#    z 0.026880 0.037010 1.754400 
# 
# From -- ./inp_files/178456.got.cif
#   From: 2010.05.17/outbox.cif.g08.bks.cpg/sg2_90_cif.got.tgz:178456.got - 2010.06.03 11:33:40.
