data_PCOD9069509
_publ_section_title
;
Structure prediction by ZEFSAII (Michael W. Deem and Ramdas Pophale) SiO2 
 PCOD9069509
Probable space group: P -1
;
_chemical_formula_sum "Si O2"
_cell_formula_units_Z 15
_cell_length_a 8.398530
_cell_length_b 12.597151
_cell_length_c 9.252560
_cell_angle_alpha 74.038868
_cell_angle_beta 66.779324
_cell_angle_gamma 44.582623
_cell_volume 631.437275
_symmetry_space_group_name_H-M "P -1"
_symmetry_group_IT_number 2
_symmetry_cell_setting 'triclinic'
loop_
_space_group_symop_operation_xyz
x,y,z
-x,-y,-z
loop_
_atom_site_type_symbol
_atom_site_label
_atom_site_fract_x
_atom_site_fract_y
_atom_site_fract_z
Si Si1 0.261396 0.052797 0.632411
Si Si2 0.052673 0.322760 0.833906
Si Si3 0.798418 0.542292 0.450288
Si Si4 0.371065 0.648508 0.748079
Si Si5 0.016034 0.223432 0.381658
Si Si6 0.643902 0.837085 0.942099
Si Si7 0.726461 0.140942 0.079900
Si Si8 0.500000 0.500000 0.000000
O O1 0.152813 0.180494 0.747640
O O2 0.082198 0.122947 0.534718
O O3 0.500000 0.000000 0.500000
O O4 0.310521 0.915217 0.741844
O O5 0.186444 0.374097 0.710996
O O6 0.769295 0.444073 0.884085
O O7 0.140739 0.274908 0.984456
O O8 0.561388 0.630200 0.593291
O O9 0.863622 0.393446 0.425888
O O10 0.000000 0.500000 0.500000
O O11 0.131203 0.764563 0.701289
O O12 0.333488 0.707316 0.909130
O O13 0.459364 0.493372 0.833518
O O14 0.251662 0.170870 0.245424
O O15 0.456242 0.821889 0.986912
O O16 0.500000 0.000000 0.000000
O O17 0.000000 0.000000 0.000000
#
# Coordination Sequence:
#
# PCOD9069509 Si02
#       8
#     2   2   2   2   2   2   2   1
#     4  12  23  44  73 101 137 188 232 288 358 419
#     4  12  25  44  74 106 144 186 238 289 360 425
#     4  12  24  43  70 101 138 182 233 288 348 420
#     4  12  26  45  68 103 142 183 236 297 348 420
#     4  12  25  44  72 102 139 185 236 290 353 422
#     4  12  24  45  71 104 139 183 236 292 353 423
#     4  12  26  43  72 103 143 184 236 297 357 419
#     4  12  24  44  70  98 150 188 226 286 358 416
#
# _framework density 23.755330000000001
#
# number of rings (size 3 to 8) (size 9 to 14) (size 15 to 20)
#    0.000    0.000    6.667    3.600    0.000    3.200 
#    0.000    0.000    0.000    0.000    0.000    0.000 
#    0.000    0.000    0.000    0.000    0.000    0.000 
#
# Total GULP energy -83723.955638 kJ/mol
# GULP energy per Si atom -5581.597043 kJ/mol
# Density = 2.370126 g / cm^3
# Si number density = 23.755330 Si / 1000 Ang^3
#
#
#
# Elastic Constant Matrix: (Units=GPa)
#
#
# Indices 1 2 3 4 5 6 
#
# 1 98.4444 25.3470 27.6174 9.9620 5.7612 -29.0263
# 2 25.3470 70.2991 26.8742 9.5630 2.8133 -9.9406
# 3 27.6174 26.8742 123.1982 -8.9191 -17.6581 -12.3888
# 4 9.9620 9.5630 -8.9191 62.0910 -9.3557 3.4147
# 5 5.7612 2.8133 -17.6581 -9.3557 56.7027 -4.1916
# 6 -29.0263 -9.9406 -12.3888 3.4147 -4.1916 43.4680
#
#
#
# Elastic Compliance Matrix: (Units=1/GPa)
#
#
# Indices 1 2 3 4 5 6 
#
# 1 0.014366 -0.002636 -0.002292 -0.002978 -0.001914 0.008386
# 2 -0.002636 0.017224 -0.003577 -0.003130 -0.002129 0.001200
# 3 -0.002292 -0.003577 0.010300 0.002985 0.004166 0.000754
# 4 -0.002978 -0.003130 0.002985 0.018284 0.004191 -0.002886
# 5 -0.001914 -0.002129 0.004166 0.004191 0.020000 0.001022
# 6 0.008386 0.001200 0.000754 -0.002886 0.001022 0.029420
#
#
# Mechanical properties :
#
#
# Convention : Reuss Voigt Hill
#
# Bulk Modulus (GPa) = 40.19449 50.17985 45.18717
# Shear Modulus (GPa) = 37.06522 46.59256 41.82889
#
# Velocity S-wave (km/s) = 3.95434 4.43352 4.20077
# Velocity P-wave (km/s) = 6.14866 6.88314 6.52624
#
# Compressibility (1/GPa) = 0.02487903
#
# Stress axis : x y z
#
# Youngs Moduli (GPa) = 69.61033 58.06001 97.08554
#
# Poissons Ratio (x) = 0.15305 0.22251
# Poissons Ratio (y) = 0.18349 0.34730
# Poissons Ratio (z) = 0.15954 0.20770
#
# Static dielectric constant tensor:
#      x y z
#    x 1.986060 0.130070 0.018990 
#    y 0.130070 1.868470 0.022100 
#    z 0.018990 0.022100 1.938960 
# 
# From -- ./inp_files/176598.got.cif
#   From: 2010.05.17/outbox.cif.g08.bks.cpg/sg2_89_cif.got.tgz:176598.got - 2010.06.03 11:33:40.
