data_PCOD9069086
_publ_section_title
;
Structure prediction by ZEFSAII (Michael W. Deem and Ramdas Pophale) SiO2 
 PCOD9069086
Probable space group: P -1
;
_chemical_formula_sum "Si O2"
_cell_formula_units_Z 14
_cell_length_a 12.306337
_cell_length_b 11.024402
_cell_length_c 7.767383
_cell_angle_alpha 127.661740
_cell_angle_beta 119.900331
_cell_angle_gamma 37.368421
_cell_volume 506.138493
_symmetry_space_group_name_H-M "P -1"
_symmetry_group_IT_number 2
_symmetry_cell_setting 'triclinic'
loop_
_space_group_symop_operation_xyz
x,y,z
-x,-y,-z
loop_
_atom_site_type_symbol
_atom_site_label
_atom_site_fract_x
_atom_site_fract_y
_atom_site_fract_z
Si Si1 0.308794 0.427552 0.033564
Si Si2 0.000000 0.500000 0.000000
Si Si3 0.000000 0.000000 0.000000
Si Si4 0.198654 0.801805 0.427151
Si Si5 0.561756 0.744098 0.377152
Si Si6 0.179348 0.098827 0.476236
Si Si7 0.896973 0.578188 0.670096
Si Si8 0.360993 0.651008 0.773411
O O1 0.202467 0.683694 0.166544
O O2 0.506755 0.322815 0.131477
O O3 0.203068 0.408089 0.057841
O O4 0.332944 0.332796 0.785323
O O5 0.919086 0.681126 0.925743
O O6 0.189178 0.848800 0.916315
O O7 0.945111 0.891828 0.740946
O O8 0.303299 0.643073 0.532462
O O9 0.261120 0.914372 0.522345
O O10 0.000000 0.000000 0.500000
O O11 0.700374 0.691248 0.578082
O O12 0.551350 0.569501 0.249823
O O13 0.361998 0.988325 0.429141
O O14 0.042551 0.334538 0.671536
O O15 0.000000 0.500000 0.500000
#
# Coordination Sequence:
#
# PCOD9069086 Si02
#       8
#     2   1   1   2   2   2   2   2
#     4  12  25  44  74 105 152 203 247 312 376 452
#     4  12  28  52  74 106 150 210 262 294 380 462
#     4  12  22  42  70 114 152 178 248 306 382 448
#     4  12  24  40  69 112 152 188 245 319 383 445
#     4  12  24  47  76 110 147 195 260 311 384 454
#     4  12  26  44  75 114 147 192 251 315 385 454
#     4  12  28  54  77 103 153 207 253 315 380 457
#     4  12  24  41  72 115 150 195 244 318 387 443
#
# _framework density 27.660413999999999
#
# number of rings (size 3 to 8) (size 9 to 14) (size 15 to 20)
#    0.000    0.000    7.143    3.429    2.000    0.571 
#    2.571    0.714    0.000    0.000    0.000    0.000 
#    0.000    0.000    0.000    0.000    0.000    0.000 
#
# Total GULP energy -77938.817342 kJ/mol
# GULP energy per Si atom -5567.058382 kJ/mol
# Density = 2.759746 g / cm^3
# Si number density = 27.660414 Si / 1000 Ang^3
#
#
#
# Elastic Constant Matrix: (Units=GPa)
#
#
# Indices 1 2 3 4 5 6 
#
# 1 179.2285 59.2459 39.5677 -1.7691 -11.7297 -42.1571
# 2 59.2459 80.8293 39.5789 12.8377 3.5277 -29.3567
# 3 39.5677 39.5789 115.3556 -15.3957 5.0358 -19.3190
# 4 -1.7691 12.8377 -15.3957 57.6080 -14.6306 1.7016
# 5 -11.7297 3.5277 5.0358 -14.6306 55.9337 -2.1428
# 6 -42.1571 -29.3567 -19.3190 1.7016 -2.1428 74.2647
#
#
#
# Elastic Compliance Matrix: (Units=1/GPa)
#
#
# Indices 1 2 3 4 5 6 
#
# 1 0.008218 -0.005339 -0.000431 0.001940 0.002701 0.002476
# 2 -0.005339 0.022130 -0.005921 -0.007783 -0.003855 0.004244
# 3 -0.000431 -0.005921 0.011479 0.004474 0.000432 0.000310
# 4 0.001940 -0.007783 0.004474 0.021955 0.006194 -0.001136
# 5 0.002701 -0.003855 0.000432 0.006194 0.020291 0.000565
# 6 0.002476 0.004244 0.000310 -0.001136 0.000565 0.016671
#
#
# Mechanical properties :
#
#
# Convention : Reuss Voigt Hill
#
# Bulk Modulus (GPa) = 54.21958 72.46649 63.34303
# Shear Modulus (GPa) = 38.38022 53.36267 45.87144
#
# Velocity S-wave (km/s) = 3.72903 4.39704 4.07674
# Velocity P-wave (km/s) = 6.17942 7.21347 6.71637
#
# Compressibility (1/GPa) = 0.01844352
#
# Stress axis : x y z
#
# Youngs Moduli (GPa) = 121.68684 45.18685 87.11766
#
# Poissons Ratio (x) = 0.24126 0.03758
# Poissons Ratio (y) = 0.64969 0.51585
# Poissons Ratio (z) = 0.05249 0.26756
#
# Static dielectric constant tensor:
#      x y z
#    x 1.987260 0.283700 -0.908340 
#    y 0.283700 2.292750 0.312010 
#    z -0.908340 0.312010 -1.062030 
# 
# From -- ./inp_files/263548.got.cif
#   From: 2010.05.17/outbox.cif.g08.bks.cpg/sg2_132_cif.got.tgz:263548.got - 2010.06.03 11:33:40.
