data_PCOD9069156
_publ_section_title
;
Structure prediction by ZEFSAII (Michael W. Deem and Ramdas Pophale) SiO2 
 PCOD9069156
Probable space group: P -1
;
_chemical_formula_sum "Si O2"
_cell_formula_units_Z 16
_cell_length_a 6.612780
_cell_length_b 22.891781
_cell_length_c 14.389161
_cell_angle_alpha 148.614965
_cell_angle_beta 121.524337
_cell_angle_gamma 81.184521
_cell_volume 726.230883
_symmetry_space_group_name_H-M "P -1"
_symmetry_group_IT_number 2
_symmetry_cell_setting 'triclinic'
loop_
_space_group_symop_operation_xyz
x,y,z
-x,-y,-z
loop_
_atom_site_type_symbol
_atom_site_label
_atom_site_fract_x
_atom_site_fract_y
_atom_site_fract_z
Si Si1 0.481695 0.613558 0.100586
Si Si2 0.233880 0.610437 0.369895
Si Si3 0.224842 0.238346 0.819030
Si Si4 0.703534 0.574743 0.743694
Si Si5 0.500588 0.000614 0.745254
Si Si6 0.678293 0.806099 0.575490
Si Si7 0.292010 0.862982 0.834056
Si Si8 0.377968 0.856476 0.216421
O O1 0.594295 0.646024 0.066413
O O2 0.688171 0.760538 0.411835
O O3 0.500000 0.500000 0.000000
O O4 0.125291 0.541795 0.931140
O O5 0.388865 0.561072 0.400245
O O6 0.389714 0.680174 0.402177
O O7 0.229079 0.724390 0.582102
O O8 0.343945 0.148040 0.727182
O O9 0.853315 0.128932 0.555714
O O10 0.322345 0.327487 0.059887
O O11 0.500000 0.500000 0.500000
O O12 0.071304 0.698980 0.970009
O O13 0.641400 0.926757 0.714650
O O14 0.693359 0.116191 0.865004
O O15 0.520971 0.087698 0.957475
O O16 0.975850 0.838046 0.737615
O O17 0.500000 0.000000 0.000000
O O18 0.500000 0.000000 0.500000
#
# Coordination Sequence:
#
# PCOD9069156 Si02
#       8
#     2   2   2   2   2   2   2   2
#     4  12  22  43  75 102 142 188 238 302 367 435
#     4  12  26  47  71 109 147 190 251 297 371 446
#     4  12  26  51  72 110 147 192 257 305 367 443
#     4  12  30  48  77 110 148 200 246 311 376 440
#     4  12  26  45  78 103 146 199 241 309 372 434
#     4  12  25  47  72 108 146 189 243 303 374 443
#     4  12  27  47  70 112 149 192 243 305 374 440
#     4  12  27  51  76 109 146 197 257 304 366 448
#
# _framework density 22.031562000000001
#
# number of rings (size 3 to 8) (size 9 to 14) (size 15 to 20)
#    0.000    0.000    5.000    4.875    3.500    0.500 
#    0.000    0.000    0.000    0.000    0.000    0.000 
#    0.000    0.000    0.000    0.000    0.000    0.000 
#
# Total GULP energy -89480.472732 kJ/mol
# GULP energy per Si atom -5592.529546 kJ/mol
# Density = 2.198142 g / cm^3
# Si number density = 22.031562 Si / 1000 Ang^3
#
#
#
# Elastic Constant Matrix: (Units=GPa)
#
#
# Indices 1 2 3 4 5 6 
#
# 1 89.6208 26.4391 31.6254 -5.3010 -11.2459 1.5712
# 2 26.4391 94.0708 15.1813 8.1196 -18.5428 17.2821
# 3 31.6254 15.1813 87.6812 -20.6019 -17.1741 -3.7049
# 4 -5.3010 8.1196 -20.6019 42.0031 14.4682 -5.4075
# 5 -11.2459 -18.5428 -17.1741 14.4682 31.8579 8.0670
# 6 1.5712 17.2821 -3.7049 -5.4075 8.0670 49.4346
#
#
#
# Elastic Compliance Matrix: (Units=1/GPa)
#
#
# Indices 1 2 3 4 5 6 
#
# 1 0.013640 -0.003052 -0.004243 0.000019 0.000691 0.000205
# 2 -0.003052 0.017888 -0.002016 -0.011713 0.016156 -0.010225
# 3 -0.004243 -0.002016 0.015410 0.007122 0.001773 0.002484
# 4 0.000019 -0.011713 0.007122 0.039569 -0.024210 0.012907
# 5 0.000691 0.016156 0.001773 -0.024210 0.057433 -0.017558
# 6 0.000205 -0.010225 0.002484 0.012907 -0.017558 0.028260
#
#
# Mechanical properties :
#
#
# Convention : Reuss Voigt Hill
#
# Bulk Modulus (GPa) = 35.31621 46.42936 40.87279
# Shear Modulus (GPa) = 24.96756 37.86759 31.41758
#
# Velocity S-wave (km/s) = 3.37005 4.15032 3.78037
# Velocity P-wave (km/s) = 5.58638 6.63978 6.13573
#
# Compressibility (1/GPa) = 0.02831561
#
# Stress axis : x y z
#
# Youngs Moduli (GPa) = 73.31418 55.90485 64.89307
#
# Poissons Ratio (x) = 0.17061 0.27534
# Poissons Ratio (y) = 0.22374 0.13083
# Poissons Ratio (z) = 0.31107 0.11271
#
# Static dielectric constant tensor:
#      x y z
#    x 1.816170 0.003520 -0.007230 
#    y 0.003520 1.733160 0.016750 
#    z -0.007230 0.016750 1.817710 
# 
# From -- ./inp_files/363880.got.cif
#   From: 2010.05.17/outbox.cif.g08.bks.cpg/sg2_182_cif.got.tgz:363880.got - 2010.06.03 11:33:40.
