data_PCOD9069070
_publ_section_title
;
Structure prediction by ZEFSAII (Michael W. Deem and Ramdas Pophale) SiO2 
 PCOD9069070
Probable space group: P -1
;
_chemical_formula_sum "Si O2"
_cell_formula_units_Z 14
_cell_length_a 12.002025
_cell_length_b 5.466412
_cell_length_c 11.230489
_cell_angle_alpha 116.050279
_cell_angle_beta 115.319899
_cell_angle_gamma 55.663367
_cell_volume 530.275795
_symmetry_space_group_name_H-M "P -1"
_symmetry_group_IT_number 2
_symmetry_cell_setting 'triclinic'
loop_
_space_group_symop_operation_xyz
x,y,z
-x,-y,-z
loop_
_atom_site_type_symbol
_atom_site_label
_atom_site_fract_x
_atom_site_fract_y
_atom_site_fract_z
Si Si1 0.869997 0.482062 0.381148
Si Si2 0.594688 0.024198 0.786139
Si Si3 0.563534 0.285928 0.224336
Si Si4 0.684892 0.579891 0.517265
Si Si5 0.844994 0.122974 0.906732
Si Si6 0.057039 0.811761 0.279930
Si Si7 0.815113 0.701777 0.130814
O O1 0.736030 0.673021 0.440125
O O2 0.839642 0.588019 0.255033
O O3 0.000000 0.500000 0.500000
O O4 0.928475 0.116652 0.337269
O O5 0.512938 0.390292 0.809482
O O6 0.752598 0.963125 0.871332
O O7 0.526477 0.884290 0.816228
O O8 0.600901 0.856355 0.627280
O O9 0.614322 0.379507 0.390967
O O10 0.691058 0.045730 0.152279
O O11 0.828562 0.371582 0.609176
O O12 0.863239 0.105538 0.769058
O O13 0.774898 0.474283 0.992232
O O14 0.000000 0.000000 0.000000
O O15 0.967235 0.655867 0.152097
#
# Coordination Sequence:
#
# PCOD9069070 Si02
#       7
#     2   2   2   2   2   2   2
#     4  12  22  41  72 114 160 188 247 320 392 451
#     4  12  29  52  76 113 154 210 264 317 383 469
#     4  12  28  50  79 112 159 211 256 318 389 467
#     4  12  24  48  79 116 157 200 257 325 390 459
#     4  12  27  51  80 109 152 200 262 326 387 459
#     4  12  24  46  76 115 150 198 256 322 389 453
#     4  12  26  47  75 115 155 207 255 315 388 461
#
# _framework density 26.401354999999999
#
# number of rings (size 3 to 8) (size 9 to 14) (size 15 to 20)
#    0.000    0.000    4.286    6.000    0.000    4.571 
#    0.000    0.000    0.000    0.000    0.000    0.000 
#    0.000    0.000    0.000    0.000    0.000    0.000 
#
# Total GULP energy -78526.225075 kJ/mol
# GULP energy per Si atom -5609.016077 kJ/mol
# Density = 2.634126 g / cm^3
# Si number density = 26.401355 Si / 1000 Ang^3
#
#
#
# Elastic Constant Matrix: (Units=GPa)
#
#
# Indices 1 2 3 4 5 6 
#
# 1 176.4703 47.3898 31.5512 1.0863 34.8961 13.1426
# 2 47.3898 148.0338 29.9389 12.3365 0.9105 -16.8692
# 3 31.5512 29.9389 73.3006 10.0802 24.1129 -10.7459
# 4 1.0863 12.3365 10.0802 42.4731 4.9694 -3.6810
# 5 34.8961 0.9105 24.1129 4.9694 51.7597 8.3456
# 6 13.1426 -16.8692 -10.7459 -3.6810 8.3456 40.4342
#
#
#
# Elastic Compliance Matrix: (Units=1/GPa)
#
#
# Indices 1 2 3 4 5 6 
#
# 1 0.007635 -0.002549 -0.001520 0.001114 -0.004014 -0.003019
# 2 -0.002549 0.008564 -0.002488 -0.001847 0.002408 0.003075
# 3 -0.001520 -0.002488 0.019421 -0.002284 -0.008762 0.006218
# 4 0.001114 -0.001847 -0.002284 0.024938 -0.002208 0.000987
# 5 -0.004014 0.002408 -0.008762 -0.002208 0.027219 -0.005838
# 6 -0.003019 0.003075 0.006218 0.000987 -0.005838 0.029943
#
#
# Mechanical properties :
#
#
# Convention : Reuss Voigt Hill
#
# Bulk Modulus (GPa) = 44.43501 68.39608 56.41555
# Shear Modulus (GPa) = 36.14360 46.19504 41.16932
#
# Velocity S-wave (km/s) = 3.70402 4.18751 3.95316
# Velocity P-wave (km/s) = 5.92960 7.02444 6.50011
#
# Compressibility (1/GPa) = 0.02250478
#
# Stress axis : x y z
#
# Youngs Moduli (GPa) = 130.97959 116.76946 51.49003
#
# Poissons Ratio (x) = 0.29762 0.07829
# Poissons Ratio (y) = 0.33384 0.12812
# Poissons Ratio (z) = 0.19915 0.29056
#
# Static dielectric constant tensor:
#      x y z
#    x 2.048280 0.022130 0.053070 
#    y 0.022130 2.141220 0.067550 
#    z 0.053070 0.067550 2.140500 
# 
# From -- ./inp_files/411324.got.cif
#   From: 2010.05.17/outbox.cif.g08.bks.cpg/sg2_206_cif.got.tgz:411324.got - 2010.06.03 11:33:40.
