data_PCOD9069953
_publ_section_title
;
Structure prediction by ZEFSAII (Michael W. Deem and Ramdas Pophale) SiO2 
 PCOD9069953
Probable space group: P -1
;
_chemical_formula_sum "Si O2"
_cell_formula_units_Z 12
_cell_length_a 11.497664
_cell_length_b 8.113724
_cell_length_c 9.783639
_cell_angle_alpha 88.530035
_cell_angle_beta 56.424489
_cell_angle_gamma 49.343942
_cell_volume 489.388166
_symmetry_space_group_name_H-M "P -1"
_symmetry_group_IT_number 2
_symmetry_cell_setting 'triclinic'
loop_
_space_group_symop_operation_xyz
x,y,z
-x,-y,-z
loop_
_atom_site_type_symbol
_atom_site_label
_atom_site_fract_x
_atom_site_fract_y
_atom_site_fract_z
Si Si1 0.878862 0.905679 0.307425
Si Si2 0.055304 0.791930 0.642335
Si Si3 0.428550 0.733740 0.110942
Si Si4 0.123098 0.225905 0.971647
Si Si5 0.440258 0.969947 0.310036
Si Si6 0.760216 0.577344 0.715533
O O1 0.912294 0.871809 0.124914
O O2 0.073110 0.641392 0.273076
O O3 0.851925 0.117889 0.368912
O O4 0.670004 0.984285 0.479363
O O5 0.204253 0.562969 0.441297
O O6 0.828056 0.042433 0.712597
O O7 0.976934 0.751273 0.822586
O O8 0.514755 0.731903 0.195682
O O9 0.500000 0.500000 0.000000
O O10 0.528731 0.767470 0.935533
O O11 0.369731 0.069740 0.810408
O O12 0.000000 0.500000 0.000000
O O13 0.248343 0.226266 0.335231
#
# Coordination Sequence:
#
# PCOD9069953 Si02
#       6
#     2   2   2   2   2   2
#     4  12  25  46  73 108 148 190 236 299 360 431
#     4  12  26  48  74 109 145 193 242 296 361 429
#     4  12  24  43  76 109 144 186 245 302 355 422
#     4  12  28  48  70 105 152 192 239 296 366 431
#     4  12  26  46  76 110 142 191 246 298 359 429
#     4  12  24  45  79 110 141 185 250 300 351 423
#
# _framework density 24.520412
#
# number of rings (size 3 to 8) (size 9 to 14) (size 15 to 20)
#    0.000    0.000    5.000    5.500    2.333    0.000 
#    0.000    1.667    0.000    0.000    0.000    0.000 
#    0.000    0.000    0.000    0.000    0.000    0.000 
#
# Total GULP energy -67089.909957 kJ/mol
# GULP energy per Si atom -5590.825830 kJ/mol
# Density = 2.446460 g / cm^3
# Si number density = 24.520412 Si / 1000 Ang^3
#
#
#
# Elastic Constant Matrix: (Units=GPa)
#
#
# Indices 1 2 3 4 5 6 
#
# 1 94.2793 14.4694 17.2188 -0.0992 17.8689 3.9905
# 2 14.4694 48.9588 3.3878 1.7237 -2.6261 3.0792
# 3 17.2188 3.3878 124.8844 -7.9076 6.3713 -14.4847
# 4 -0.0992 1.7237 -7.9076 41.4041 9.3563 5.5289
# 5 17.8689 -2.6261 6.3713 9.3563 51.6837 0.0560
# 6 3.9905 3.0792 -14.4847 5.5289 0.0560 26.5287
#
#
#
# Elastic Compliance Matrix: (Units=1/GPa)
#
#
# Indices 1 2 3 4 5 6 
#
# 1 0.012430 -0.003687 -0.001603 0.001239 -0.004509 -0.002566
# 2 -0.003687 0.021871 -0.000541 -0.001366 0.002702 -0.002001
# 3 -0.001603 -0.000541 0.008934 0.001250 -0.000806 0.004923
# 4 0.001239 -0.001366 0.001250 0.026317 -0.005411 -0.004819
# 5 -0.004509 0.002702 -0.000806 -0.005411 0.022122 0.001005
# 6 -0.002566 -0.002001 0.004923 -0.004819 0.001005 0.042004
#
#
# Mechanical properties :
#
#
# Convention : Reuss Voigt Hill
#
# Bulk Modulus (GPa) = 31.67223 37.58606 34.62914
# Shear Modulus (GPa) = 32.07911 39.45971 35.76941
#
# Velocity S-wave (km/s) = 3.62091 4.01591 3.82352
# Velocity P-wave (km/s) = 5.51598 6.07167 5.80048
#
# Compressibility (1/GPa) = 0.03157340
#
# Stress axis : x y z
#
# Youngs Moduli (GPa) = 80.45205 45.72214 111.92677
#
# Poissons Ratio (x) = 0.16856 0.17941
# Poissons Ratio (y) = 0.29660 0.06060
# Poissons Ratio (z) = 0.12896 0.02475
#
# Static dielectric constant tensor:
#      x y z
#    x 2.446950 -0.122890 -0.079640 
#    y -0.122890 2.008720 0.022950 
#    z -0.079640 0.022950 1.957940 
# 
# From -- ./inp_files/157757.got.cif
#   From: 2010.05.17/outbox.cif.g08.bks.cpg/sg2_79_cif.got.tgz:157757.got - 2010.06.03 11:33:40.
