data_PCOD9069495
_publ_section_title
;
Structure prediction by ZEFSAII (Michael W. Deem and Ramdas Pophale) SiO2 
 PCOD9069495
Probable space group: P -1
;
_chemical_formula_sum "Si O2"
_cell_formula_units_Z 16
_cell_length_a 12.476632
_cell_length_b 9.344666
_cell_length_c 10.907958
_cell_angle_alpha 85.193309
_cell_angle_beta 132.414462
_cell_angle_gamma 125.683935
_cell_volume 653.100287
_symmetry_space_group_name_H-M "P -1"
_symmetry_group_IT_number 2
_symmetry_cell_setting 'triclinic'
loop_
_space_group_symop_operation_xyz
x,y,z
-x,-y,-z
loop_
_atom_site_type_symbol
_atom_site_label
_atom_site_fract_x
_atom_site_fract_y
_atom_site_fract_z
Si Si1 0.104725 0.791166 0.840749
Si Si2 0.790448 0.947801 0.336579
Si Si3 0.904394 0.728741 0.149546
Si Si4 0.206117 0.090621 0.088789
Si Si5 0.209768 0.612705 0.077606
Si Si6 0.345974 0.636159 0.550547
Si Si7 0.348555 0.982720 0.542553
Si Si8 0.670211 0.569884 0.219941
O O1 0.858190 0.581719 0.650702
O O2 0.185374 0.945546 0.779212
O O3 0.214994 0.717018 0.952032
O O4 0.161704 0.908102 0.004018
O O5 0.714869 0.009330 0.371508
O O6 0.656929 0.709329 0.277435
O O7 0.000000 0.000000 0.500000
O O8 0.794213 0.801046 0.034097
O O9 0.816474 0.561253 0.990114
O O10 0.855441 0.662506 0.259392
O O11 0.155618 0.906656 0.319359
O O12 0.421787 0.247302 0.316920
O O13 0.000000 0.000000 0.000000
O O14 0.000000 0.500000 0.000000
O O15 0.415637 0.790608 0.304320
O O16 0.339861 0.804575 0.532253
O O17 0.343024 0.574806 0.692186
O O18 0.500000 0.500000 0.000000
#
# Coordination Sequence:
#
# PCOD9069495 Si02
#       8
#     2   2   2   2   2   2   2   2
#     4  12  24  47  72 104 146 183 239 296 354 425
#     4  12  23  44  71 106 145 176 226 295 358 436
#     4  12  25  45  75 104 138 190 231 295 361 420
#     4  12  27  48  71 102 142 186 245 299 347 419
#     4  12  29  48  69 102 144 192 249 295 348 420
#     4  12  26  45  75 107 143 188 233 291 365 429
#     4  12  27  46  74 106 144 187 234 295 364 424
#     4  12  23  44  72 106 145 182 231 288 365 436
#
# _framework density 24.498532000000001
#
# number of rings (size 3 to 8) (size 9 to 14) (size 15 to 20)
#    0.000    0.000    7.500    1.500    1.750    3.500 
#    0.000    0.000    0.000    0.000    0.000    0.000 
#    0.000    0.000    0.000    0.000    0.000    0.000 
#
# Total GULP energy -89207.486460 kJ/mol
# GULP energy per Si atom -5575.467904 kJ/mol
# Density = 2.444277 g / cm^3
# Si number density = 24.498532 Si / 1000 Ang^3
#
#
#
# Elastic Constant Matrix: (Units=GPa)
#
#
# Indices 1 2 3 4 5 6 
#
# 1 76.6947 14.0332 3.9036 17.7251 7.5753 13.0317
# 2 14.0332 82.4668 19.5046 0.8036 -0.6491 -4.2928
# 3 3.9036 19.5046 134.1647 12.6734 32.3080 -8.5162
# 4 17.7251 0.8036 12.6734 44.0135 -1.2769 -3.4684
# 5 7.5753 -0.6491 32.3080 -1.2769 36.2005 2.1967
# 6 13.0317 -4.2928 -8.5162 -3.4684 2.1967 34.3010
#
#
#
# Elastic Compliance Matrix: (Units=1/GPa)
#
#
# Indices 1 2 3 4 5 6 
#
# 1 0.017145 -0.003600 0.001491 -0.007967 -0.004834 -0.007090
# 2 -0.003600 0.013514 -0.002735 0.002277 0.003372 0.002394
# 3 0.001491 -0.002735 0.010754 -0.003783 -0.010216 0.002033
# 4 -0.007967 0.002277 -0.003783 0.027521 0.005765 0.004786
# 5 -0.004834 0.003372 -0.010216 0.005765 0.038146 -0.002138
# 6 -0.007090 0.002394 0.002033 0.004786 -0.002138 0.033273
#
#
# Mechanical properties :
#
#
# Convention : Reuss Voigt Hill
#
# Bulk Modulus (GPa) = 31.51947 40.91211 36.21579
# Shear Modulus (GPa) = 31.13008 39.96198 35.54603
#
# Velocity S-wave (km/s) = 3.56854 4.04319 3.81326
# Velocity P-wave (km/s) = 5.46563 6.20746 5.84832
#
# Compressibility (1/GPa) = 0.03172643
#
# Stress axis : x y z
#
# Youngs Moduli (GPa) = 58.32616 73.99469 92.98692
#
# Poissons Ratio (x) = 0.26636 -0.13865
# Poissons Ratio (y) = 0.20995 0.25432
# Poissons Ratio (z) = -0.08697 0.20237
#
# Static dielectric constant tensor:
#      x y z
#    x 1.951630 0.094830 -0.036820 
#    y 0.094830 2.315390 0.331050 
#    z -0.036820 0.331050 2.352860 
# 
# From -- ./inp_files/419496.got.cif
#   From: 2010.05.17/outbox.cif.g08.bks.cpg/sg2_210_cif.got.tgz:419496.got - 2010.06.03 11:33:40.
