data_PCOD9069010
_publ_section_title
;
Structure prediction by ZEFSAII (Michael W. Deem and Ramdas Pophale) SiO2 
 PCOD9069010
Probable space group: P -1
;
_chemical_formula_sum "Si O2"
_cell_formula_units_Z 16
_cell_length_a 18.444929
_cell_length_b 8.195441
_cell_length_c 11.528983
_cell_angle_alpha 138.381633
_cell_angle_beta 148.112591
_cell_angle_gamma 52.727065
_cell_volume 609.331114
_symmetry_space_group_name_H-M "P -1"
_symmetry_group_IT_number 2
_symmetry_cell_setting 'triclinic'
loop_
_space_group_symop_operation_xyz
x,y,z
-x,-y,-z
loop_
_atom_site_type_symbol
_atom_site_label
_atom_site_fract_x
_atom_site_fract_y
_atom_site_fract_z
Si Si1 0.433848 0.761097 0.049542
Si Si2 0.970799 0.408028 0.722807
Si Si3 0.289561 0.893963 0.701699
Si Si4 0.086354 0.223302 0.543467
Si Si5 0.736405 0.496583 0.737253
Si Si6 0.334436 0.866082 0.364834
Si Si7 0.118661 0.190415 0.314863
Si Si8 0.779616 0.042221 0.995532
O O1 0.524372 0.964161 0.355164
O O2 0.285069 0.755190 0.904367
O O3 0.500000 0.500000 0.000000
O O4 0.405469 0.872513 0.943677
O O5 0.865593 0.184487 0.499848
O O6 0.051385 0.355361 0.685693
O O7 0.866010 0.613556 0.662980
O O8 0.097051 0.508688 0.028135
O O9 0.314886 0.698104 0.533345
O O10 0.245402 0.153769 0.735618
O O11 0.089204 0.317277 0.463902
O O12 0.943264 0.045981 0.237481
O O13 0.668189 0.395695 0.712280
O O14 0.720303 0.773355 0.819451
O O15 0.244466 0.026930 0.412437
O O16 0.261991 0.882082 0.150337
O O17 0.000000 0.000000 0.000000
#
# Coordination Sequence:
#
# PCOD9069010 Si02
#       8
#     2   2   2   2   2   2   2   2
#     4  12  28  52  74 104 147 201 248 292 361 443
#     4  12  22  39  67 105 146 185 234 300 367 424
#     4  12  24  44  73 105 143 188 239 300 365 428
#     4  12  23  41  71 111 147 181 239 308 368 427
#     4  12  25  44  74 112 143 188 241 306 366 430
#     4  12  27  48  73 108 150 196 242 296 361 443
#     4  12  22  41  66 107 146 185 240 299 369 425
#     4  12  25  48  79 107 145 194 248 301 364 431
#
# _framework density 26.258302
#
# number of rings (size 3 to 8) (size 9 to 14) (size 15 to 20)
#    0.000    0.000    6.250    4.500    0.000    1.000 
#    0.000    0.000    0.000    0.000    0.000    0.000 
#    0.000    0.000    0.000    0.000    0.000    0.000 
#
# Total GULP energy -89400.759848 kJ/mol
# GULP energy per Si atom -5587.547490 kJ/mol
# Density = 2.619854 g / cm^3
# Si number density = 26.258302 Si / 1000 Ang^3
#
#
#
# Elastic Constant Matrix: (Units=GPa)
#
#
# Indices 1 2 3 4 5 6 
#
# 1 56.0954 33.4355 6.2045 6.8422 -16.1777 4.4872
# 2 33.4355 122.1919 14.0901 -20.3000 -3.1711 0.8245
# 3 6.2045 14.0901 97.1177 -20.0021 -13.3093 9.0268
# 4 6.8422 -20.3000 -20.0021 33.9466 8.1704 0.1814
# 5 -16.1777 -3.1711 -13.3093 8.1704 43.5060 -2.9246
# 6 4.4872 0.8245 9.0268 0.1814 -2.9246 32.9725
#
#
#
# Elastic Compliance Matrix: (Units=1/GPa)
#
#
# Indices 1 2 3 4 5 6 
#
# 1 0.030113 -0.010415 -0.001851 -0.016463 0.012823 -0.002103
# 2 -0.010415 0.012702 0.000394 0.011098 -0.004877 0.000498
# 3 -0.001851 0.000394 0.012409 0.007573 0.001508 -0.003063
# 4 -0.016463 0.011098 0.007573 0.046740 -0.011869 -0.001420
# 5 0.012823 -0.004877 0.001508 -0.011869 0.030136 0.000702
# 6 -0.002103 0.000498 -0.003063 -0.001420 0.000702 0.031511
#
#
# Mechanical properties :
#
#
# Convention : Reuss Voigt Hill
#
# Bulk Modulus (GPa) = 31.76535 42.54058 37.15296
# Shear Modulus (GPa) = 25.27192 36.86335 31.06764
#
# Velocity S-wave (km/s) = 3.10568 3.75090 3.44343
# Velocity P-wave (km/s) = 4.99839 5.91565 5.47626
#
# Compressibility (1/GPa) = 0.03148084
#
# Stress axis : x y z
#
# Youngs Moduli (GPa) = 33.20780 78.72754 80.58562
#
# Poissons Ratio (x) = 0.81992 0.14915
# Poissons Ratio (y) = 0.34585 -0.03171
# Poissons Ratio (z) = 0.06146 -0.03098
#
# Static dielectric constant tensor:
#      x y z
#    x 2.192080 -0.004220 0.115040 
#    y -0.004220 2.247840 -0.014790 
#    z 0.115040 -0.014790 2.125140 
# 
# From -- ./inp_files/332691.got.cif
#   From: 2010.05.17/outbox.cif.g08.bks.cpg/sg2_167_cif.got.tgz:332691.got - 2010.06.03 11:33:40.
