data_PCOD9069003
_publ_section_title
;
Structure prediction by ZEFSAII (Michael W. Deem and Ramdas Pophale) SiO2 
 PCOD9069003
Probable space group: P -1
;
_chemical_formula_sum "Si O2"
_cell_formula_units_Z 14
_cell_length_a 8.840932
_cell_length_b 5.315772
_cell_length_c 17.850190
_cell_angle_alpha 75.930616
_cell_angle_beta 118.487652
_cell_angle_gamma 126.282540
_cell_volume 593.452287
_symmetry_space_group_name_H-M "P -1"
_symmetry_group_IT_number 2
_symmetry_cell_setting 'triclinic'
loop_
_space_group_symop_operation_xyz
x,y,z
-x,-y,-z
loop_
_atom_site_type_symbol
_atom_site_label
_atom_site_fract_x
_atom_site_fract_y
_atom_site_fract_z
Si Si1 0.811313 0.355305 0.158924
Si Si2 0.765346 0.021742 0.746424
Si Si3 0.558341 0.670768 0.870935
Si Si4 0.039773 0.970127 0.711274
Si Si5 0.757692 0.280927 0.977442
Si Si6 0.831547 0.734251 0.533955
Si Si7 0.233326 0.860409 0.422878
O O1 0.681472 0.480472 0.155501
O O2 0.775588 0.057723 0.217564
O O3 0.051387 0.644181 0.201042
O O4 0.743926 0.249357 0.066061
O O5 0.671604 0.054284 0.644404
O O6 0.609661 0.814199 0.789514
O O7 0.888771 0.873989 0.754104
O O8 0.646945 0.457830 0.916899
O O9 0.669531 0.959863 0.935283
O O10 0.942072 0.729118 0.636853
O O11 0.003144 0.225571 0.646791
O O12 0.000000 0.500000 0.000000
O O13 0.748153 0.391672 0.511235
O O14 0.691100 0.846739 0.525148
O O15 0.000000 0.000000 0.500000
#
# Coordination Sequence:
#
# PCOD9069003 Si02
#       7
#     2   2   2   2   2   2   2
#     4  12  22  39  60  79 121 143 195 243 278 343
#     4   9  20  38  57  79 117 145 188 234 284 328
#     4  12  27  39  60  88 103 157 197 232 293 334
#     4   8  19  32  58  79 113 152 180 227 290 321
#     4  12  26  42  60  80 116 151 191 243 291 330
#     4   9  15  28  50  85 113 138 184 224 265 335
#     4   8  17  28  51  75 111 145 178 220 280 321
#
# _framework density 23.590774
#
# number of rings (size 3 to 8) (size 9 to 14) (size 15 to 20)
#    1.714    0.000    2.857    2.571    4.000    0.000 
#    0.000    0.000    0.000    0.000    0.000    5.000 
#    0.000    0.000    0.000    0.000    0.000    0.000 
#
# Total GULP energy -77934.710112 kJ/mol
# GULP energy per Si atom -5566.765008 kJ/mol
# Density = 2.353708 g / cm^3
# Si number density = 23.590774 Si / 1000 Ang^3
#
#
#
# Elastic Constant Matrix: (Units=GPa)
#
#
# Indices 1 2 3 4 5 6 
#
# 1 93.5125 36.2289 34.2214 -12.2737 5.8920 -12.3238
# 2 36.2289 92.0272 34.5891 -6.5801 13.8813 -27.5209
# 3 34.2214 34.5891 67.9169 -5.0045 -11.0572 -2.9514
# 4 -12.2737 -6.5801 -5.0045 20.7276 -8.3879 1.9420
# 5 5.8920 13.8813 -11.0572 -8.3879 39.8270 -5.1602
# 6 -12.3238 -27.5209 -2.9514 1.9420 -5.1602 37.7050
#
#
#
# Elastic Compliance Matrix: (Units=1/GPa)
#
#
# Indices 1 2 3 4 5 6 
#
# 1 0.014972 -0.002260 -0.006131 0.005804 -0.001617 0.002244
# 2 -0.002260 0.020422 -0.010239 -0.001892 -0.008430 0.012310
# 3 -0.006131 -0.010239 0.024960 0.004390 0.011530 -0.006171
# 4 0.005804 -0.001892 0.004390 0.057463 0.013082 -0.000309
# 5 -0.001617 -0.008430 0.011530 0.013082 0.034009 -0.001798
# 6 0.002244 0.012310 -0.006171 -0.000309 -0.001798 0.035527
#
#
# Mechanical properties :
#
#
# Convention : Reuss Voigt Hill
#
# Bulk Modulus (GPa) = 43.30009 51.50394 47.40202
# Shear Modulus (GPa) = 21.52288 29.54640 25.53464
#
# Velocity S-wave (km/s) = 3.02378 3.54284 3.29355
# Velocity P-wave (km/s) = 5.53042 6.21412 5.88221
#
# Compressibility (1/GPa) = 0.02309464
#
# Stress axis : x y z
#
# Youngs Moduli (GPa) = 66.78967 48.96752 40.06403
#
# Poissons Ratio (x) = 0.11066 0.24564
# Poissons Ratio (y) = 0.15094 0.41020
# Poissons Ratio (z) = 0.40950 0.50136
#
# Static dielectric constant tensor:
#      x y z
#    x 1.921560 -0.011260 0.036670 
#    y -0.011260 2.026880 0.054870 
#    z 0.036670 0.054870 1.903730 
# 
# From -- ./inp_files/44410.got.cif
#   From: 2010.05.17/outbox.cif.g08.bks.cpg/sg2_23_cif.got.tgz:44410.got - 2010.06.03 11:33:40.
