data_PCOD9069444
_publ_section_title
;
Structure prediction by ZEFSAII (Michael W. Deem and Ramdas Pophale) SiO2 
 PCOD9069444
Probable space group: P -1
;
_chemical_formula_sum "Si O2"
_cell_formula_units_Z 16
_cell_length_a 10.769331
_cell_length_b 10.281816
_cell_length_c 20.509470
_cell_angle_alpha 141.923040
_cell_angle_beta 28.123850
_cell_angle_gamma 137.664336
_cell_volume 652.245709
_symmetry_space_group_name_H-M "P -1"
_symmetry_group_IT_number 2
_symmetry_cell_setting 'triclinic'
loop_
_space_group_symop_operation_xyz
x,y,z
-x,-y,-z
loop_
_atom_site_type_symbol
_atom_site_label
_atom_site_fract_x
_atom_site_fract_y
_atom_site_fract_z
Si Si1 0.834141 0.324140 0.461485
Si Si2 0.094703 0.942203 0.136767
Si Si3 0.744416 0.431301 0.401561
Si Si4 0.441780 0.386710 0.759503
Si Si5 0.248504 0.640130 0.052795
Si Si6 0.710251 0.294102 0.150210
Si Si7 0.307341 0.666171 0.179187
Si Si8 0.714597 0.055539 0.178237
O O1 0.719090 0.420189 0.487192
O O2 0.622055 0.234051 0.579806
O O3 0.000000 0.500000 0.500000
O O4 0.010328 0.156549 0.286230
O O5 0.839377 0.763514 0.169853
O O6 0.238210 0.830419 0.082725
O O7 0.250340 0.926669 0.991586
O O8 0.500000 0.500000 0.500000
O O9 0.756881 0.189246 0.277114
O O10 0.029852 0.567743 0.302567
O O11 0.435046 0.575923 0.783989
O O12 0.468142 0.507570 0.865213
O O13 0.246437 0.742577 0.165137
O O14 0.980640 0.462183 0.105733
O O15 0.611880 0.210142 0.232896
O O16 0.491260 0.850315 0.205829
O O17 0.500000 0.500000 0.000000
O O18 0.000000 0.000000 0.000000
#
# Coordination Sequence:
#
# PCOD9069444 Si02
#       8
#     2   2   2   2   2   2   2   2
#     4  12  27  44  66  99 151 191 243 298 367 442
#     4   9  20  38  67 102 131 185 239 289 366 433
#     4  12  29  52  74 108 158 198 244 311 379 444
#     4   9  20  39  66  96 133 185 225 296 356 437
#     4   9  19  39  72 103 137 172 246 311 354 426
#     4   9  17  38  67  99 135 175 233 296 367 420
#     4  12  26  45  78 111 144 194 258 310 364 445
#     4  12  23  43  74 105 142 192 247 304 368 438
#
# _framework density 24.530632000000001
#
# number of rings (size 3 to 8) (size 9 to 14) (size 15 to 20)
#    0.000    1.500    2.500    3.375    3.500    3.500 
#    2.250    2.500    0.000    0.000    0.000    0.000 
#    0.000    0.000    0.000    0.000    0.000    0.000 
#
# Total GULP energy -89300.148771 kJ/mol
# GULP energy per Si atom -5581.259298 kJ/mol
# Density = 2.447480 g / cm^3
# Si number density = 24.530632 Si / 1000 Ang^3
#
#
#
# Elastic Constant Matrix: (Units=GPa)
#
#
# Indices 1 2 3 4 5 6 
#
# 1 71.4950 28.0671 16.6245 8.5220 10.6335 3.8013
# 2 28.0671 104.7133 25.2815 -5.8114 -2.3865 16.1165
# 3 16.6245 25.2815 97.3715 15.7109 19.6319 12.7238
# 4 8.5220 -5.8114 15.7109 43.0459 -1.5462 -2.0290
# 5 10.6335 -2.3865 19.6319 -1.5462 42.1775 -0.8487
# 6 3.8013 16.1165 12.7238 -2.0290 -0.8487 42.0933
#
#
#
# Elastic Compliance Matrix: (Units=1/GPa)
#
#
# Indices 1 2 3 4 5 6 
#
# 1 0.017136 -0.004941 -0.000010 -0.004224 -0.004749 0.000048
# 2 -0.004941 0.012445 -0.003334 0.003860 0.003581 -0.003053
# 3 -0.000010 -0.003334 0.013939 -0.005944 -0.006960 -0.003363
# 4 -0.004224 0.003860 -0.005944 0.027040 0.005084 0.002106
# 5 -0.004749 0.003581 -0.006960 0.005084 0.028575 0.001982
# 6 0.000048 -0.003053 -0.003363 0.002106 0.001982 0.026079
#
#
# Mechanical properties :
#
#
# Convention : Reuss Voigt Hill
#
# Bulk Modulus (GPa) = 37.10430 45.94734 41.52582
# Shear Modulus (GPa) = 33.16395 39.03714 36.10054
#
# Velocity S-wave (km/s) = 3.68086 3.99352 3.84037
# Velocity P-wave (km/s) = 5.76399 6.32736 6.05223
#
# Compressibility (1/GPa) = 0.02695105
#
# Stress axis : x y z
#
# Youngs Moduli (GPa) = 58.35586 80.35548 71.74182
#
# Poissons Ratio (x) = 0.39702 0.00072
# Poissons Ratio (y) = 0.28832 0.23915
# Poissons Ratio (z) = 0.00059 0.26787
#
# Static dielectric constant tensor:
#      x y z
#    x 2.641170 0.317470 -0.189650 
#    y 0.317470 1.698330 0.187610 
#    z -0.189650 0.187610 1.883690 
# 
# From -- ./inp_files/595149.got.cif
#   From: 2010.05.17/outbox.cif.g08.bks.cpg/sg2_298_cif.got.tgz:595149.got - 2010.06.03 11:33:40.
