data_PCOD9069591
_publ_section_title
;
Structure prediction by ZEFSAII (Michael W. Deem and Ramdas Pophale) SiO2 
 PCOD9069591
Probable space group: P -1
;
_chemical_formula_sum "Si O2"
_cell_formula_units_Z 12
_cell_length_a 17.481862
_cell_length_b 11.673140
_cell_length_c 8.905865
_cell_angle_alpha 50.339093
_cell_angle_beta 129.280473
_cell_angle_gamma 158.564423
_cell_volume 506.366281
_symmetry_space_group_name_H-M "P -1"
_symmetry_group_IT_number 2
_symmetry_cell_setting 'triclinic'
loop_
_space_group_symop_operation_xyz
x,y,z
-x,-y,-z
loop_
_atom_site_type_symbol
_atom_site_label
_atom_site_fract_x
_atom_site_fract_y
_atom_site_fract_z
Si Si1 0.269001 0.744124 0.474251
Si Si2 0.910629 0.262534 0.967396
Si Si3 0.933556 0.817189 0.427193
Si Si4 0.412399 0.414751 0.800239
Si Si5 0.220518 0.263542 0.142407
Si Si6 0.309106 0.704911 0.898187
O O1 0.215581 0.823178 0.251770
O O2 0.106872 0.407476 0.481354
O O3 0.268298 0.738555 0.661718
O O4 0.500000 0.000000 0.500000
O O5 0.102498 0.440163 0.968129
O O6 0.000000 0.500000 0.000000
O O7 0.770675 0.953983 0.138877
O O8 0.698313 0.574315 0.327248
O O9 0.000000 0.000000 0.500000
O O10 0.128153 0.121740 0.309371
O O11 0.617452 0.655469 0.752980
O O12 0.500000 0.500000 0.000000
O O13 0.345763 0.582248 0.001462
O O14 0.000000 0.000000 0.000000
O O15 0.500000 0.000000 0.000000
#
# Coordination Sequence:
#
# PCOD9069591 Si02
#       6
#     2   2   2   2   2   2
#     4  12  26  45  68 106 142 183 237 291 349 418
#     4  12  25  46  71 103 141 186 235 287 355 420
#     4  12  27  46  72 103 144 181 235 296 347 418
#     4  12  23  45  75  99 134 189 231 284 353 418
#     4  12  23  46  73 102 137 186 237 285 355 415
#     4  12  25  45  73 103 142 187 233 294 351 418
#
# _framework density 23.698263000000001
#
# number of rings (size 3 to 8) (size 9 to 14) (size 15 to 20)
#    0.000    0.000    5.000    5.500    2.333    0.667 
#    3.000    0.000    0.000    0.000    0.000    0.000 
#    0.000    0.000    0.000    0.000    0.000    0.000 
#
# Total GULP energy -66941.903919 kJ/mol
# GULP energy per Si atom -5578.491993 kJ/mol
# Density = 2.364432 g / cm^3
# Si number density = 23.698263 Si / 1000 Ang^3
#
#
#
# Elastic Constant Matrix: (Units=GPa)
#
#
# Indices 1 2 3 4 5 6 
#
# 1 116.0733 22.3110 26.3746 -6.6733 -19.5624 31.3020
# 2 22.3110 93.7709 16.4699 7.0571 -7.2603 -6.9816
# 3 26.3746 16.4699 63.8481 -6.4495 -4.9388 0.7150
# 4 -6.6733 7.0571 -6.4495 29.9941 3.4411 -1.4549
# 5 -19.5624 -7.2603 -4.9388 3.4411 56.6373 0.5184
# 6 31.3020 -6.9816 0.7150 -1.4549 0.5184 70.8621
#
#
#
# Elastic Compliance Matrix: (Units=1/GPa)
#
#
# Indices 1 2 3 4 5 6 
#
# 1 0.012167 -0.002495 -0.003869 0.001792 0.003487 -0.005570
# 2 -0.002495 0.012213 -0.002488 -0.003936 0.000705 0.002244
# 3 -0.003869 -0.002488 0.018242 0.003748 -0.000305 0.001359
# 4 0.001792 -0.003936 0.003748 0.035645 -0.001720 -0.000473
# 5 0.003487 0.000705 -0.000305 -0.001720 0.019044 -0.001642
# 6 -0.005570 0.002244 0.001359 -0.000473 -0.001642 0.016782
#
#
# Mechanical properties :
#
#
# Convention : Reuss Voigt Hill
#
# Bulk Modulus (GPa) = 40.13205 44.88925 42.51065
# Shear Modulus (GPa) = 35.68823 45.40116 40.54470
#
# Velocity S-wave (km/s) = 3.88486 4.38174 4.14076
# Velocity P-wave (km/s) = 6.09050 6.67702 6.39049
#
# Compressibility (1/GPa) = 0.02491774
#
# Stress axis : x y z
#
# Youngs Moduli (GPa) = 82.19114 81.88162 54.81844
#
# Poissons Ratio (x) = 0.20428 0.21211
# Poissons Ratio (y) = 0.20505 0.13638
# Poissons Ratio (z) = 0.31802 0.20371
#
# Static dielectric constant tensor:
#      x y z
#    x 1.809600 -0.382530 -0.190430 
#    y -0.382530 -0.823400 -2.188810 
#    z -0.190430 -2.188810 0.288960 
# 
# From -- ./inp_files/149004.got.cif
#   From: 2010.05.17/outbox.cif.g08.bks.cpg/sg2_75_cif.got.tgz:149004.got - 2010.06.03 11:33:40.
