data_PCOD9069517
_publ_section_title
;
Structure prediction by ZEFSAII (Michael W. Deem and Ramdas Pophale) SiO2 
 PCOD9069517
Probable space group: P -1
;
_chemical_formula_sum "Si O2"
_cell_formula_units_Z 16
_cell_length_a 8.576454
_cell_length_b 17.846884
_cell_length_c 14.876737
_cell_angle_alpha 24.385707
_cell_angle_beta 132.417080
_cell_angle_gamma 133.023918
_cell_volume 676.602270
_symmetry_space_group_name_H-M "P -1"
_symmetry_group_IT_number 2
_symmetry_cell_setting 'triclinic'
loop_
_space_group_symop_operation_xyz
x,y,z
-x,-y,-z
loop_
_atom_site_type_symbol
_atom_site_label
_atom_site_fract_x
_atom_site_fract_y
_atom_site_fract_z
Si Si1 0.389727 0.909749 0.966127
Si Si2 0.892889 0.743272 0.976183
Si Si3 0.399772 0.415685 0.646614
Si Si4 0.521270 0.856696 0.425530
Si Si5 0.072260 0.657377 0.525251
Si Si6 0.281455 0.420203 0.253441
Si Si7 0.451508 0.789706 0.827488
Si Si8 0.887850 0.145710 0.494947
O O1 0.153604 0.800164 0.026047
O O2 0.380384 0.060759 0.721260
O O3 0.531905 0.782016 0.112078
O O4 0.500000 0.000000 0.000000
O O5 0.692011 0.750689 0.957349
O O6 0.874908 0.927237 0.708392
O O7 0.872150 0.519133 0.206287
O O8 0.500000 0.500000 0.500000
O O9 0.528022 0.537332 0.643523
O O10 0.144608 0.398023 0.557531
O O11 0.271558 0.753460 0.436150
O O12 0.649173 0.698071 0.671515
O O13 0.542969 0.021835 0.323267
O O14 0.049477 0.809436 0.425868
O O15 0.065200 0.297185 0.345192
O O16 0.288505 0.624571 0.996593
O O17 0.343047 0.809486 0.667674
#
# Coordination Sequence:
#
# PCOD9069517 Si02
#       8
#     2   2   2   2   2   2   2   2
#     4  12  25  45  75 103 144 192 237 291 359 426
#     4  12  25  46  72 105 144 188 240 288 359 426
#     4  12  23  44  74 106 143 180 236 293 351 434
#     4  12  27  46  69 107 145 183 241 294 350 419
#     4  12  27  45  75 108 145 189 235 293 362 424
#     4  12  25  48  72 106 143 188 239 296 362 420
#     4  12  28  48  70 107 146 188 244 297 347 425
#     4  12  26  48  75 102 145 192 240 295 355 422
#
# _framework density 23.647570000000002
#
# number of rings (size 3 to 8) (size 9 to 14) (size 15 to 20)
#    0.000    0.000    7.500    2.250    0.000    4.000 
#    0.000    0.000    0.000    0.000    0.000    0.000 
#    0.000    0.000    0.000    0.000    0.000    0.000 
#
# Total GULP energy -89278.473383 kJ/mol
# GULP energy per Si atom -5579.904586 kJ/mol
# Density = 2.359375 g / cm^3
# Si number density = 23.647570 Si / 1000 Ang^3
#
#
#
# Elastic Constant Matrix: (Units=GPa)
#
#
# Indices 1 2 3 4 5 6 
#
# 1 81.1376 42.9767 9.2200 -10.0419 6.9942 27.2146
# 2 42.9767 82.9866 46.0137 -12.3708 3.7613 5.9476
# 3 9.2200 46.0137 99.4975 -21.6265 8.1807 0.2430
# 4 -10.0419 -12.3708 -21.6265 35.5978 0.8026 -4.6111
# 5 6.9942 3.7613 8.1807 0.8026 44.9355 -10.7384
# 6 27.2146 5.9476 0.2430 -4.6111 -10.7384 31.1319
#
#
#
# Elastic Compliance Matrix: (Units=1/GPa)
#
#
# Indices 1 2 3 4 5 6 
#
# 1 0.031011 -0.016737 0.006659 0.003696 -0.011225 -0.027288
# 2 -0.016737 0.025580 -0.010984 -0.001138 0.005223 0.011463
# 3 0.006659 -0.010984 0.016540 0.007663 -0.004266 -0.004189
# 4 0.003696 -0.001138 0.007663 0.033592 -0.002202 0.001143
# 5 -0.011225 0.005223 -0.004266 -0.002202 0.028790 0.018453
# 6 -0.027288 0.011463 -0.004189 0.001143 0.018453 0.060353
#
#
# Mechanical properties :
#
#
# Convention : Reuss Voigt Hill
#
# Bulk Modulus (GPa) = 32.24915 51.11583 41.68249
# Shear Modulus (GPa) = 20.13501 33.36046 26.74774
#
# Velocity S-wave (km/s) = 2.92115 3.76005 3.36683
# Velocity P-wave (km/s) = 5.00445 6.36500 5.72528
#
# Compressibility (1/GPa) = 0.03100857
#
# Stress axis : x y z
#
# Youngs Moduli (GPa) = 32.24660 39.09317 60.46118
#
# Poissons Ratio (x) = 0.65430 -0.40264
# Poissons Ratio (y) = 0.53971 0.66408
# Poissons Ratio (z) = -0.21474 0.42938
#
# Static dielectric constant tensor:
#      x y z
#    x 1.884990 0.015270 0.054820 
#    y 0.015270 1.867220 0.035560 
#    z 0.054820 0.035560 2.158050 
# 
# From -- ./inp_files/447126.got.cif
#   From: 2010.05.17/outbox.cif.g08.bks.cpg/sg2_224_cif.got.tgz:447126.got - 2010.06.03 11:33:40.
