data_PCOD9069254
_publ_section_title
;
Structure prediction by ZEFSAII (Michael W. Deem and Ramdas Pophale) SiO2 
 PCOD9069254
Probable space group: P -1
;
_chemical_formula_sum "Si O2"
_cell_formula_units_Z 11
_cell_length_a 16.963508
_cell_length_b 4.954089
_cell_length_c 19.030879
_cell_angle_alpha 98.434289
_cell_angle_beta 15.167163
_cell_angle_gamma 99.084482
_cell_volume 413.092823
_symmetry_space_group_name_H-M "P -1"
_symmetry_group_IT_number 2
_symmetry_cell_setting 'triclinic'
loop_
_space_group_symop_operation_xyz
x,y,z
-x,-y,-z
loop_
_atom_site_type_symbol
_atom_site_label
_atom_site_fract_x
_atom_site_fract_y
_atom_site_fract_z
Si Si1 0.332357 0.023584 0.858887
Si Si2 0.500000 0.000000 0.500000
Si Si3 0.500000 0.500000 0.500000
Si Si4 0.000000 0.000000 0.000000
Si Si5 0.836528 0.648664 0.356714
Si Si6 0.397239 0.460853 0.930168
Si Si7 0.643426 0.018609 0.800325
O O1 0.533679 0.766069 0.835503
O O2 0.070784 0.869109 0.125011
O O3 0.187759 0.114368 0.914114
O O4 0.586657 0.817333 0.615231
O O5 0.247357 0.218880 0.736439
O O6 0.685864 0.213568 0.297503
O O7 0.689036 0.460051 0.414401
O O8 0.466616 0.286715 0.795163
O O9 0.038850 0.488771 0.230519
O O10 0.524164 0.288663 0.878050
O O11 0.000000 0.000000 0.500000
O O12 0.500000 0.000000 0.000000
#
# Coordination Sequence:
#
# PCOD9069254 Si02
#       7
#     2   1   1   1   2   2   2
#     4  12  27  50  77 119 167 223 275 337 389 479
#     4  12  26  42  72  94 152 200 294 320 388 428
#     4  12  26  50  70 114 154 230 272 324 378 458
#     4  12  22  50  70 114 154 230 272 324 378 458
#     4  12  29  47  80 114 172 218 280 332 394 474
#     4  12  29  56  85 128 166 207 274 336 417 479
#     4  12  30  57  93 121 160 207 262 342 430 514
#
# _framework density 26.628397
#
# number of rings (size 3 to 8) (size 9 to 14) (size 15 to 20)
#    0.000    0.000    5.455    2.182    2.545    8.727 
#    0.000    0.000    0.000    0.000    0.000    0.000 
#    0.000    0.000    0.000    0.000    0.000    0.000 
#
# Total GULP energy -61324.080268 kJ/mol
# GULP energy per Si atom -5574.916388 kJ/mol
# Density = 2.656779 g / cm^3
# Si number density = 26.628397 Si / 1000 Ang^3
#
#
#
# Elastic Constant Matrix: (Units=GPa)
#
#
# Indices 1 2 3 4 5 6 
#
# 1 139.4203 -4.8761 25.6888 0.8148 -27.4521 1.1546
# 2 -4.8761 109.1466 19.7114 6.9557 -12.5345 -22.2889
# 3 25.6888 19.7114 203.1226 0.8006 -0.1115 0.2984
# 4 0.8148 6.9557 0.8006 48.6060 -2.3469 -1.4619
# 5 -27.4521 -12.5345 -0.1115 -2.3469 43.7106 18.6174
# 6 1.1546 -22.2889 0.2984 -1.4619 18.6174 76.0915
#
#
#
# Elastic Compliance Matrix: (Units=1/GPa)
#
#
# Indices 1 2 3 4 5 6 
#
# 1 0.008689 0.001053 -0.001196 -0.000012 0.006339 -0.001370
# 2 0.001053 0.010265 -0.001126 -0.001275 0.002532 0.002351
# 3 -0.001196 -0.001126 0.005183 0.000044 -0.001024 -0.000081
# 4 -0.000012 -0.001275 0.000044 0.020790 0.000817 -0.000174
# 5 0.006339 0.002532 -0.001024 0.000817 0.030524 -0.006803
# 6 -0.001370 0.002351 -0.000081 -0.000174 -0.006803 0.015513
#
#
# Mechanical properties :
#
#
# Convention : Reuss Voigt Hill
#
# Bulk Modulus (GPa) = 46.29789 59.19310 52.74550
# Shear Modulus (GPa) = 49.65196 61.09263 55.37229
#
# Velocity S-wave (km/s) = 4.32281 4.79505 4.56504
# Velocity P-wave (km/s) = 6.50692 7.27559 6.90196
#
# Compressibility (1/GPa) = 0.02159925
#
# Stress axis : x y z
#
# Youngs Moduli (GPa) = 115.08479 97.42205 192.93758
#
# Poissons Ratio (x) = -0.10259 0.23067
# Poissons Ratio (y) = -0.12119 0.21731
# Poissons Ratio (z) = 0.13759 0.10973
#
# Static dielectric constant tensor:
#      x y z
#    x 1.816200 -0.332700 0.037510 
#    y -0.332700 1.982860 -0.072010 
#    z 0.037510 -0.072010 2.281370 
# 
# From -- ./inp_files/574649.got.cif
#   From: 2010.05.17/outbox.cif.g08.bks.cpg/sg2_288_cif.got.tgz:574649.got - 2010.06.03 11:33:40.
