data_PCOD9069747
_publ_section_title
;
Structure prediction by ZEFSAII (Michael W. Deem and Ramdas Pophale) SiO2 
 PCOD9069747
Probable space group: P -1
;
_chemical_formula_sum "Si O2"
_cell_formula_units_Z 14
_cell_length_a 19.394400
_cell_length_b 15.966536
_cell_length_c 6.221389
_cell_angle_alpha 126.633896
_cell_angle_beta 140.369065
_cell_angle_gamma 28.960558
_cell_volume 576.131694
_symmetry_space_group_name_H-M "P -1"
_symmetry_group_IT_number 2
_symmetry_cell_setting 'triclinic'
loop_
_space_group_symop_operation_xyz
x,y,z
-x,-y,-z
loop_
_atom_site_type_symbol
_atom_site_label
_atom_site_fract_x
_atom_site_fract_y
_atom_site_fract_z
Si Si1 0.760873 0.441813 0.644597
Si Si2 0.115651 0.204562 0.402733
Si Si3 0.564277 0.333230 0.470963
Si Si4 0.877168 0.157523 0.269217
Si Si5 0.319456 0.141581 0.426600
Si Si6 0.139029 0.481865 0.382013
Si Si7 0.235486 0.994860 0.741794
O O1 0.600491 0.583955 0.651067
O O2 0.736984 0.347664 0.337024
O O3 0.783459 0.511666 0.620107
O O4 0.960662 0.277572 0.988806
O O5 0.249282 0.177484 0.554465
O O6 0.984048 0.358885 0.502486
O O7 0.250771 0.024372 0.581180
O O8 0.500000 0.500000 0.500000
O O9 0.617265 0.215532 0.217700
O O10 0.750742 0.197147 0.854371
O O11 0.000000 0.000000 0.500000
O O12 0.032121 0.104728 0.441843
O O13 0.283667 0.294447 0.556215
O O14 0.500000 0.000000 0.500000
O O15 0.241552 0.091308 0.058859
O O16 0.000000 0.500000 0.000000
#
# Coordination Sequence:
#
# PCOD9069747 Si02
#       7
#     2   2   2   2   2   2   2
#     4  12  26  45  75 110 148 194 249 316 371 455
#     4  12  23  48  74  99 153 196 243 299 383 436
#     4  12  29  47  77 114 150 199 255 319 385 441
#     4  12  24  50  78 104 150 199 253 313 381 445
#     4  12  29  44  74 109 147 195 247 311 372 452
#     4  12  24  47  72 108 146 198 250 297 379 454
#     4  12  26  49  71 109 148 194 252 306 377 455
#
# _framework density 24.300001000000002
#
# number of rings (size 3 to 8) (size 9 to 14) (size 15 to 20)
#    0.000    0.000    5.714    3.857    4.000    0.571 
#    0.000    0.000    0.000    0.000    0.000    0.000 
#    0.000    0.000    0.000    0.000    0.000    0.000 
#
# Total GULP energy -78066.970330 kJ/mol
# GULP energy per Si atom -5576.212166 kJ/mol
# Density = 2.424469 g / cm^3
# Si number density = 24.300001 Si / 1000 Ang^3
#
#
#
# Elastic Constant Matrix: (Units=GPa)
#
#
# Indices 1 2 3 4 5 6 
#
# 1 161.2221 45.3027 15.5245 -6.7286 1.9866 -4.5090
# 2 45.3027 126.6883 2.5625 22.7061 -0.0764 3.6924
# 3 15.5245 2.5625 62.7489 14.1146 12.3333 4.6353
# 4 -6.7286 22.7061 14.1146 35.2225 -3.0480 4.2122
# 5 1.9866 -0.0764 12.3333 -3.0480 29.1504 -9.8571
# 6 -4.5090 3.6924 4.6353 4.2122 -9.8571 57.8213
#
#
#
# Elastic Compliance Matrix: (Units=1/GPa)
#
#
# Indices 1 2 3 4 5 6 
#
# 1 0.007792 -0.003689 -0.003388 0.005255 0.001793 0.001038
# 2 -0.003689 0.010779 0.002992 -0.008933 -0.002241 -0.000947
# 3 -0.003388 0.002992 0.021799 -0.011901 -0.011334 -0.003268
# 4 0.005255 -0.008933 -0.011901 0.040646 0.009080 0.000521
# 5 0.001793 -0.002241 -0.011334 0.009080 0.042554 0.007784
# 6 0.001038 -0.000947 -0.003268 0.000521 0.007784 0.018987
#
#
# Mechanical properties :
#
#
# Convention : Reuss Voigt Hill
#
# Bulk Modulus (GPa) = 31.05600 53.04876 42.05238
# Shear Modulus (GPa) = 30.96750 43.59012 37.27881
#
# Velocity S-wave (km/s) = 3.57372 4.23996 3.92102
# Velocity P-wave (km/s) = 5.46229 6.77110 6.15160
#
# Compressibility (1/GPa) = 0.03219990
#
# Stress axis : x y z
#
# Youngs Moduli (GPa) = 128.34220 92.77070 45.87428
#
# Poissons Ratio (x) = 0.34221 0.15544
# Poissons Ratio (y) = 0.47342 -0.13726
# Poissons Ratio (z) = 0.43486 -0.27759
#
# Static dielectric constant tensor:
#      x y z
#    x 1.703950 -0.056170 1.324620 
#    y -0.056170 1.677100 1.076800 
#    z 1.324620 1.076800 -7.467780 
# 
# From -- ./inp_files/37656.got.cif
#   From: 2010.05.17/outbox.cif.g08.bks.cpg/sg2_19_cif.got.tgz:37656.got - 2010.06.03 11:33:40.
