data_PCOD9069101
_publ_section_title
;
Structure prediction by ZEFSAII (Michael W. Deem and Ramdas Pophale) SiO2 
 PCOD9069101
Probable space group: P -1
;
_chemical_formula_sum "Si O2"
_cell_formula_units_Z 16
_cell_length_a 9.326226
_cell_length_b 22.525773
_cell_length_c 12.644541
_cell_angle_alpha 29.785351
_cell_angle_beta 143.239051
_cell_angle_gamma 146.009161
_cell_volume 705.192508
_symmetry_space_group_name_H-M "P -1"
_symmetry_group_IT_number 2
_symmetry_cell_setting 'triclinic'
loop_
_space_group_symop_operation_xyz
x,y,z
-x,-y,-z
loop_
_atom_site_type_symbol
_atom_site_label
_atom_site_fract_x
_atom_site_fract_y
_atom_site_fract_z
Si Si1 0.507615 0.615082 0.400100
Si Si2 0.189703 0.762666 0.893302
Si Si3 0.522923 0.186150 0.545513
Si Si4 0.202948 0.982803 0.828093
Si Si5 0.687552 0.446010 0.383454
Si Si6 0.020942 0.837934 0.459279
Si Si7 0.220097 0.287678 0.081247
Si Si8 0.258412 0.970336 0.199198
O O1 0.500000 0.500000 0.500000
O O2 0.428185 0.569426 0.544231
O O3 0.801688 0.735805 0.406185
O O4 0.302573 0.659861 0.153707
O O5 0.087938 0.767389 0.707069
O O6 0.946893 0.731203 0.879688
O O7 0.457551 0.902407 0.851454
O O8 0.260441 0.059291 0.631166
O O9 0.591493 0.303559 0.489656
O O10 0.447923 0.242389 0.309741
O O11 0.746271 0.138858 0.719446
O O12 0.100369 0.065692 0.714493
O O13 0.996919 0.827151 0.943428
O O14 0.500000 0.000000 0.000000
O O15 0.000000 0.500000 0.500000
O O16 0.658189 0.561451 0.121609
O O17 0.267491 0.921769 0.398695
O O18 0.000000 0.000000 0.000000
#
# Coordination Sequence:
#
# PCOD9069101 Si02
#       8
#     2   2   2   2   2   2   2   2
#     4  12  28  49  72 104 152 197 242 301 372 442
#     4  12  24  48  74 107 147 191 245 308 365 436
#     4  12  25  45  75 104 145 194 249 301 366 431
#     4  12  22  42  74 102 140 192 238 301 365 428
#     4  12  26  45  72 108 143 193 250 298 360 443
#     4  12  26  46  72 107 148 188 247 305 369 441
#     4  12  24  45  76 109 145 188 250 310 359 428
#     4  12  26  45  74 111 150 191 244 306 372 442
#
# _framework density 22.688841
#
# number of rings (size 3 to 8) (size 9 to 14) (size 15 to 20)
#    0.000    0.000    6.250    4.125    1.750    2.500 
#    0.000    0.000    0.000    0.000    0.000    0.000 
#    0.000    0.000    0.000    0.000    0.000    0.000 
#
# Total GULP energy -89480.002850 kJ/mol
# GULP energy per Si atom -5592.500178 kJ/mol
# Density = 2.263720 g / cm^3
# Si number density = 22.688841 Si / 1000 Ang^3
#
#
#
# Elastic Constant Matrix: (Units=GPa)
#
#
# Indices 1 2 3 4 5 6 
#
# 1 138.6720 46.9584 62.8331 -26.1460 -0.5487 -22.7698
# 2 46.9584 93.5073 35.5728 -4.4020 15.4965 -23.2722
# 3 62.8331 35.5728 149.9210 -3.7031 0.4908 -17.1796
# 4 -26.1460 -4.4020 -3.7031 37.1669 1.4316 -3.2862
# 5 -0.5487 15.4965 0.4908 1.4316 38.7984 -5.8409
# 6 -22.7698 -23.2722 -17.1796 -3.2862 -5.8409 34.6268
#
#
#
# Elastic Compliance Matrix: (Units=1/GPa)
#
#
# Indices 1 2 3 4 5 6 
#
# 1 0.012488 -0.003572 -0.003592 0.008380 0.002119 0.005182
# 2 -0.003572 0.015511 -0.001425 -0.000042 -0.005251 0.006479
# 3 -0.003592 -0.001425 0.008567 -0.001789 0.000606 0.000863
# 4 0.008380 -0.000042 -0.001789 0.033301 0.000099 0.007772
# 5 0.002119 -0.005251 0.000606 0.000099 0.028335 0.002954
# 6 0.005182 0.006479 0.000863 0.007772 0.002954 0.038305
#
#
# Mechanical properties :
#
#
# Convention : Reuss Voigt Hill
#
# Bulk Modulus (GPa) = 51.58012 74.75875 63.16944
# Shear Modulus (GPa) = 31.22138 37.90082 34.56110
#
# Velocity S-wave (km/s) = 3.71356 4.09156 3.90714
# Velocity P-wave (km/s) = 6.41642 7.43924 6.94668
#
# Compressibility (1/GPa) = 0.01938732
#
# Stress axis : x y z
#
# Youngs Moduli (GPa) = 80.07823 64.47111 116.73332
#
# Poissons Ratio (x) = 0.23027 0.41935
# Poissons Ratio (y) = 0.28601 0.16632
# Poissons Ratio (z) = 0.28767 0.09186
#
# Static dielectric constant tensor:
#      x y z
#    x 1.777740 -0.060840 -0.040120 
#    y -0.060840 1.803980 -0.006900 
#    z -0.040120 -0.006900 1.754890 
# 
# From -- ./inp_files/404641.got.cif
#   From: 2010.05.17/outbox.cif.g08.bks.cpg/sg2_203_cif.got.tgz:404641.got - 2010.06.03 11:33:40.
