data_PCOD9069489
_publ_section_title
;
Structure prediction by ZEFSAII (Michael W. Deem and Ramdas Pophale) SiO2 
 PCOD9069489
Probable space group: P -1
;
_chemical_formula_sum "Si O2"
_cell_formula_units_Z 16
_cell_length_a 12.704695
_cell_length_b 14.770024
_cell_length_c 11.912245
_cell_angle_alpha 100.997725
_cell_angle_beta 99.393951
_cell_angle_gamma 18.977797
_cell_volume 712.544653
_symmetry_space_group_name_H-M "P -1"
_symmetry_group_IT_number 2
_symmetry_cell_setting 'triclinic'
loop_
_space_group_symop_operation_xyz
x,y,z
-x,-y,-z
loop_
_atom_site_type_symbol
_atom_site_label
_atom_site_fract_x
_atom_site_fract_y
_atom_site_fract_z
Si Si1 0.323850 0.794510 0.999862
Si Si2 0.394011 0.970926 0.751168
Si Si3 0.481186 0.905059 0.490748
Si Si4 0.064592 0.708710 0.889041
Si Si5 0.826923 0.446265 0.379653
Si Si6 0.623312 0.295856 0.477477
Si Si7 0.379546 0.400911 0.227346
Si Si8 0.164508 0.295356 0.068032
O O1 0.501137 0.644823 0.874255
O O2 0.583197 0.544102 0.073780
O O3 0.000000 0.000000 0.000000
O O4 0.209650 0.992242 0.059695
O O5 0.478945 0.884361 0.616495
O O6 0.007173 0.308480 0.768580
O O7 0.429784 0.850594 0.802010
O O8 0.693898 0.787281 0.806545
O O9 0.129964 0.171045 0.443383
O O10 0.500000 0.000000 0.500000
O O11 0.744414 0.623348 0.411599
O O12 0.084330 0.662944 0.752791
O O13 0.021741 0.648077 0.935704
O O14 0.526202 0.641193 0.431809
O O15 0.500000 0.500000 0.500000
O O16 0.503075 0.348511 0.351194
O O17 0.000000 0.000000 0.500000
O O18 0.000000 0.500000 0.000000
O O19 0.500000 0.000000 0.000000
#
# Coordination Sequence:
#
# PCOD9069489 Si02
#       8
#     2   2   2   2   2   2   2   2
#     4  12  28  48  71 101 137 189 237 292 351 408
#     4  12  23  44  70 104 139 180 226 291 347 419
#     4  12  24  44  69 106 144 188 228 276 353 420
#     4  12  27  48  70 104 143 184 235 290 350 421
#     4  12  26  47  69 105 146 182 232 290 350 420
#     4  12  26  44  74 102 138 187 235 293 356 408
#     4  12  25  46  73 103 141 178 239 292 346 420
#     4  12  25  43  71 102 137 184 230 281 347 415
#
# _framework density 22.454733000000001
#
# number of rings (size 3 to 8) (size 9 to 14) (size 15 to 20)
#    0.000    0.000    2.500    8.250    3.500    2.000 
#    0.000    0.000    0.000    0.000    0.000    0.000 
#    0.000    0.000    0.000    0.000    0.000    0.000 
#
# Total GULP energy -89423.168744 kJ/mol
# GULP energy per Si atom -5588.948046 kJ/mol
# Density = 2.240363 g / cm^3
# Si number density = 22.454733 Si / 1000 Ang^3
#
#
#
# Elastic Constant Matrix: (Units=GPa)
#
#
# Indices 1 2 3 4 5 6 
#
# 1 70.5261 9.9374 21.1582 6.0082 2.4623 3.5837
# 2 9.9374 143.5992 31.5309 -14.5525 11.2593 10.2264
# 3 21.1582 31.5309 94.2692 10.1229 5.2924 -8.3677
# 4 6.0082 -14.5525 10.1229 38.7694 -3.4686 4.0972
# 5 2.4623 11.2593 5.2924 -3.4686 25.8102 3.6042
# 6 3.5837 10.2264 -8.3677 4.0972 3.6042 45.1825
#
#
#
# Elastic Compliance Matrix: (Units=1/GPa)
#
#
# Indices 1 2 3 4 5 6 
#
# 1 0.015448 -0.000343 -0.003288 -0.001556 -0.000641 -0.001564
# 2 -0.000343 0.008507 -0.003351 0.004228 -0.002040 -0.002739
# 3 -0.003288 -0.003351 0.013486 -0.004906 -0.002227 0.004139
# 4 -0.001556 0.004228 -0.004906 0.029761 0.003974 -0.004758
# 5 -0.000641 -0.002040 -0.002227 0.003974 0.041181 -0.003545
# 6 -0.001564 -0.002739 0.004139 -0.004758 -0.003545 0.024357
#
#
# Mechanical properties :
#
#
# Convention : Reuss Voigt Hill
#
# Bulk Modulus (GPa) = 42.59568 48.18306 45.38937
# Shear Modulus (GPa) = 32.35573 38.33696 35.34635
#
# Velocity S-wave (km/s) = 3.80008 4.13643 3.97182
# Velocity P-wave (km/s) = 6.18586 6.65717 6.42584
#
# Compressibility (1/GPa) = 0.02347656
#
# Stress axis : x y z
#
# Youngs Moduli (GPa) = 64.73146 117.55102 74.15020
#
# Poissons Ratio (x) = 0.04033 0.24383
# Poissons Ratio (y) = 0.02221 0.24848
# Poissons Ratio (z) = 0.21286 0.39392
#
# Static dielectric constant tensor:
#      x y z
#    x 1.876450 -0.045370 0.049390 
#    y -0.045370 1.496810 -0.042430 
#    z 0.049390 -0.042430 1.827850 
# 
# From -- ./inp_files/434136.got.cif
#   From: 2010.05.17/outbox.cif.g08.bks.cpg/sg2_218_cif.got.tgz:434136.got - 2010.06.03 11:33:40.
