data_PCOD9069212
_publ_section_title
;
Structure prediction by ZEFSAII (Michael W. Deem and Ramdas Pophale) SiO2 
 PCOD9069212
Probable space group: P -1
;
_chemical_formula_sum "Si O2"
_cell_formula_units_Z 15
_cell_length_a 18.701085
_cell_length_b 11.809786
_cell_length_c 12.471860
_cell_angle_alpha 33.507251
_cell_angle_beta 151.613724
_cell_angle_gamma 155.277253
_cell_volume 539.276603
_symmetry_space_group_name_H-M "P -1"
_symmetry_group_IT_number 2
_symmetry_cell_setting 'triclinic'
loop_
_space_group_symop_operation_xyz
x,y,z
-x,-y,-z
loop_
_atom_site_type_symbol
_atom_site_label
_atom_site_fract_x
_atom_site_fract_y
_atom_site_fract_z
Si Si1 0.623340 0.906939 0.010750
Si Si2 0.677124 0.207345 0.153665
Si Si3 0.647737 0.437197 0.250206
Si Si4 0.885094 0.294226 0.751197
Si Si5 0.028792 0.050001 0.232387
Si Si6 0.703319 0.893735 0.623841
Si Si7 0.252200 0.342673 0.505710
Si Si8 0.000000 0.500000 0.000000
O O1 0.740274 0.797887 0.269240
O O2 0.431706 0.706834 0.995015
O O3 0.503265 0.842585 0.795331
O O4 0.777784 0.229774 0.976021
O O5 0.702996 0.063080 0.395200
O O6 0.894599 0.435465 0.209952
O O7 0.500000 0.000000 0.000000
O O8 0.735109 0.350780 0.517341
O O9 0.500000 0.500000 0.000000
O O10 0.853130 0.723166 0.249133
O O11 0.796384 0.066621 0.720154
O O12 0.929112 0.191428 0.995265
O O13 0.167790 0.146458 0.443802
O O14 0.161711 0.158252 0.214886
O O15 0.476924 0.620417 0.560731
O O16 0.104689 0.398130 0.275373
#
# Coordination Sequence:
#
# PCOD9069212 Si02
#       8
#     2   2   2   2   2   2   2   1
#     4  12  26  48  73 104 145 191 242 300 363 428
#     4  12  23  43  76 108 144 182 236 304 369 421
#     4  12  27  48  70 103 146 197 245 293 352 433
#     4  12  25  45  74 105 147 191 237 302 363 431
#     4  12  26  43  73 107 143 188 244 299 369 426
#     4  12  22  46  71 105 149 186 238 300 367 432
#     4  12  26  45  71 106 146 188 243 300 358 432
#     4  12  26  46  72 100 144 196 242 288 360 426
#
# _framework density 27.815038000000001
#
# number of rings (size 3 to 8) (size 9 to 14) (size 15 to 20)
#    0.000    0.000    4.000    6.400    0.000    1.600 
#    0.000    0.000    0.000    0.000    0.000    0.000 
#    0.000    0.000    0.000    0.000    0.000    0.000 
#
# Total GULP energy -83792.955385 kJ/mol
# GULP energy per Si atom -5586.197026 kJ/mol
# Density = 2.775173 g / cm^3
# Si number density = 27.815038 Si / 1000 Ang^3
#
#
#
# Elastic Constant Matrix: (Units=GPa)
#
#
# Indices 1 2 3 4 5 6 
#
# 1 58.6148 21.4763 46.6152 31.3231 -3.2329 5.8707
# 2 21.4763 167.0711 61.7053 42.3480 -12.7819 32.1447
# 3 46.6152 61.7053 227.2594 1.4594 -8.6848 -7.6952
# 4 31.3231 42.3480 1.4594 72.1198 -2.1399 1.3688
# 5 -3.2329 -12.7819 -8.6848 -2.1399 59.9066 2.0692
# 6 5.8707 32.1447 -7.6952 1.3688 2.0692 39.7739
#
#
#
# Elastic Compliance Matrix: (Units=1/GPa)
#
#
# Indices 1 2 3 4 5 6 
#
# 1 0.031150 0.004939 -0.007902 -0.016046 0.001349 -0.009636
# 2 0.004939 0.011232 -0.004283 -0.008393 0.002104 -0.010456
# 3 -0.007902 -0.004283 0.007336 0.005679 -0.000277 0.005866
# 4 -0.016046 -0.008393 0.005679 0.025432 -0.001251 0.009440
# 5 0.001349 0.002104 -0.000277 -0.001251 0.017226 -0.002806
# 6 -0.009636 -0.010456 0.005866 0.009440 -0.002806 0.035971
#
#
# Mechanical properties :
#
#
# Convention : Reuss Voigt Hill
#
# Bulk Modulus (GPa) = 28.38821 79.17100 53.77961
# Shear Modulus (GPa) = 32.34554 55.90329 44.12442
#
# Velocity S-wave (km/s) = 3.41380 4.48797 3.98722
# Velocity P-wave (km/s) = 5.07611 7.44184 6.36977
#
# Compressibility (1/GPa) = 0.03522589
#
# Stress axis : x y z
#
# Youngs Moduli (GPa) = 32.10300 89.02773 136.32295
#
# Poissons Ratio (x) = -0.43969 1.07723
# Poissons Ratio (y) = -0.15855 0.58382
# Poissons Ratio (z) = 0.25368 0.38127
#
# Static dielectric constant tensor:
#      x y z
#    x 2.858090 -0.294440 -0.103230 
#    y -0.294440 1.925320 0.075110 
#    z -0.103230 0.075110 2.157530 
# 
# From -- ./inp_files/447989.got.cif
#   From: 2010.05.17/outbox.cif.g08.bks.cpg/sg2_224_cif.got.tgz:447989.got - 2010.06.03 11:33:40.
