data_PCOD9069074
_publ_section_title
;
Structure prediction by ZEFSAII (Michael W. Deem and Ramdas Pophale) SiO2 
 PCOD9069074
Probable space group: P -1
;
_chemical_formula_sum "Si O2"
_cell_formula_units_Z 14
_cell_length_a 17.225585
_cell_length_b 6.866214
_cell_length_c 11.423469
_cell_angle_alpha 68.219498
_cell_angle_beta 141.944480
_cell_angle_gamma 133.318991
_cell_volume 561.182712
_symmetry_space_group_name_H-M "P -1"
_symmetry_group_IT_number 2
_symmetry_cell_setting 'triclinic'
loop_
_space_group_symop_operation_xyz
x,y,z
-x,-y,-z
loop_
_atom_site_type_symbol
_atom_site_label
_atom_site_fract_x
_atom_site_fract_y
_atom_site_fract_z
Si Si1 0.904492 0.307422 0.545112
Si Si2 0.861567 0.754353 0.800923
Si Si3 0.377410 0.220155 0.120123
Si Si4 0.654442 0.834562 0.634484
Si Si5 0.738035 0.384994 0.529929
Si Si6 0.760822 0.363640 0.981780
Si Si7 0.519535 0.809350 0.138583
O O1 0.827603 0.405998 0.514226
O O2 0.000000 0.500000 0.500000
O O3 0.066879 0.390830 0.792122
O O4 0.723617 0.996653 0.353240
O O5 0.738067 0.086777 0.011208
O O6 0.766575 0.868237 0.653499
O O7 0.773992 0.476459 0.842432
O O8 0.000000 0.000000 0.000000
O O9 0.305404 0.161350 0.181274
O O10 0.570119 0.339484 0.331254
O O11 0.411309 0.482065 0.041187
O O12 0.500000 0.500000 0.500000
O O13 0.666346 0.094566 0.574863
O O14 0.876686 0.661240 0.716202
O O15 0.584367 0.252776 0.852090
O O16 0.500000 0.000000 0.000000
#
# Coordination Sequence:
#
# PCOD9069074 Si02
#       7
#     2   2   2   2   2   2   2
#     4  12  28  52  78 109 156 205 265 334 383 463
#     4  12  27  43  74 118 166 205 251 321 397 475
#     4  12  25  45  80 116 151 205 259 322 394 472
#     4  12  22  41  73 110 154 200 248 311 390 469
#     4  12  26  45  75 116 157 205 261 311 398 475
#     4  12  26  50  78 115 157 203 264 322 391 469
#     4  12  27  54  80 107 152 210 267 327 392 465
#
# _framework density 24.947313000000001
#
# number of rings (size 3 to 8) (size 9 to 14) (size 15 to 20)
#    0.000    0.000    7.143    3.000    4.000    1.714 
#    0.000    1.429    0.000    0.000    0.000    0.000 
#    0.000    0.000    0.000    0.000    0.000    0.000 
#
# Total GULP energy -78104.262229 kJ/mol
# GULP energy per Si atom -5578.875874 kJ/mol
# Density = 2.489053 g / cm^3
# Si number density = 24.947313 Si / 1000 Ang^3
#
#
#
# Elastic Constant Matrix: (Units=GPa)
#
#
# Indices 1 2 3 4 5 6 
#
# 1 85.4896 17.9441 -10.2330 9.4068 8.6696 5.7090
# 2 17.9441 143.5535 30.9605 -5.0796 5.7146 -17.3612
# 3 -10.2330 30.9605 66.5736 -0.7349 -5.2867 5.0386
# 4 9.4068 -5.0796 -0.7349 58.0613 -1.5290 -2.4121
# 5 8.6696 5.7146 -5.2867 -1.5290 23.8302 -1.6372
# 6 5.7090 -17.3612 5.0386 -2.4121 -1.6372 52.8400
#
#
#
# Elastic Compliance Matrix: (Units=1/GPa)
#
#
# Indices 1 2 3 4 5 6 
#
# 1 0.013516 -0.002662 0.003192 -0.002606 -0.003936 -0.002880
# 2 -0.002662 0.008944 -0.004990 0.001253 -0.001949 0.003699
# 3 0.003192 -0.004990 0.018403 -0.000772 0.003817 -0.003656
# 4 -0.002606 0.001253 -0.000772 0.017859 0.001734 0.001636
# 5 -0.003936 -0.001949 0.003817 0.001734 0.044882 0.000891
# 6 -0.002880 0.003699 -0.003656 0.001636 0.000891 0.020902
#
#
# Mechanical properties :
#
#
# Convention : Reuss Voigt Hill
#
# Bulk Modulus (GPa) = 31.30343 41.44000 36.37172
# Shear Modulus (GPa) = 34.70435 44.07597 39.39016
#
# Velocity S-wave (km/s) = 3.73380 4.20785 3.97789
# Velocity P-wave (km/s) = 5.58242 6.34469 5.97572
#
# Compressibility (1/GPa) = 0.03194538
#
# Stress axis : x y z
#
# Youngs Moduli (GPa) = 73.98453 111.80496 54.33780
#
# Poissons Ratio (x) = 0.29761 -0.17346
# Poissons Ratio (y) = 0.19694 0.27112
# Poissons Ratio (z) = -0.23617 0.55786
#
# Static dielectric constant tensor:
#      x y z
#    x 2.001730 0.087120 -0.037730 
#    y 0.087120 2.080810 -0.002740 
#    z -0.037730 -0.002740 2.028520 
# 
# From -- ./inp_files/576875.got.cif
#   From: 2010.05.17/outbox.cif.g08.bks.cpg/sg2_289_cif.got.tgz:576875.got - 2010.06.03 11:33:40.
