data_PCOD9069375
_publ_section_title
;
Structure prediction by ZEFSAII (Michael W. Deem and Ramdas Pophale) SiO2 
 PCOD9069375
Probable space group: P -1
;
_chemical_formula_sum "Si O2"
_cell_formula_units_Z 16
_cell_length_a 9.062704
_cell_length_b 14.200186
_cell_length_c 9.138945
_cell_angle_alpha 113.750303
_cell_angle_beta 132.729724
_cell_angle_gamma 92.032992
_cell_volume 702.449405
_symmetry_space_group_name_H-M "P -1"
_symmetry_group_IT_number 2
_symmetry_cell_setting 'triclinic'
loop_
_space_group_symop_operation_xyz
x,y,z
-x,-y,-z
loop_
_atom_site_type_symbol
_atom_site_label
_atom_site_fract_x
_atom_site_fract_y
_atom_site_fract_z
Si Si1 0.572940 0.134801 0.170079
Si Si2 0.493089 0.806317 0.506044
Si Si3 0.882205 0.880942 0.257900
Si Si4 0.329019 0.368611 0.525139
Si Si5 0.926108 0.702869 0.396911
Si Si6 0.841232 0.556798 0.981932
Si Si7 0.935413 0.288125 0.021085
Si Si8 0.138506 0.955799 0.170361
O O1 0.584441 0.165038 0.371592
O O2 0.818813 0.220256 0.326888
O O3 0.374097 0.155445 0.981391
O O4 0.500000 0.000000 0.000000
O O5 0.643554 0.740118 0.591950
O O6 0.625534 0.929513 0.593791
O O7 0.297586 0.724030 0.210956
O O8 0.888184 0.787385 0.312814
O O9 0.025090 0.914841 0.225588
O O10 0.000000 0.000000 0.500000
O O11 0.257667 0.339542 0.626492
O O12 0.115397 0.375800 0.311650
O O13 0.573799 0.476341 0.736719
O O14 0.903375 0.596618 0.215262
O O15 0.910867 0.668623 0.995024
O O16 0.000000 0.500000 0.000000
O O17 0.861245 0.160800 0.957656
O O18 0.000000 0.000000 0.000000
#
# Coordination Sequence:
#
# PCOD9069375 Si02
#       8
#     2   2   2   2   2   2   2   2
#     4  12  25  43  69 105 153 195 236 300 364 443
#     4  12  25  46  74 108 149 193 248 298 367 446
#     4  12  24  43  69 104 152 195 232 291 374 433
#     4  12  27  48  78 106 146 192 251 310 358 439
#     4  12  27  49  72 112 148 191 249 303 370 439
#     4  12  25  54  80 104 146 195 254 308 367 431
#     4  12  25  46  76 105 144 197 238 304 376 425
#     4  12  23  42  72 106 145 189 240 296 358 444
#
# _framework density 22.777439000000001
#
# number of rings (size 3 to 8) (size 9 to 14) (size 15 to 20)
#    0.000    0.000    7.500    1.875    1.750    2.000 
#    2.250    0.625    0.000    0.000    0.000    0.000 
#    0.000    0.000    0.000    0.000    0.000    0.000 
#
# Total GULP energy -89378.785781 kJ/mol
# GULP energy per Si atom -5586.174111 kJ/mol
# Density = 2.272560 g / cm^3
# Si number density = 22.777439 Si / 1000 Ang^3
#
#
#
# Elastic Constant Matrix: (Units=GPa)
#
#
# Indices 1 2 3 4 5 6 
#
# 1 93.5704 24.0597 27.1212 3.0423 -4.9099 14.9006
# 2 24.0597 64.6501 21.2193 -0.2659 9.1163 20.0927
# 3 27.1212 21.2193 136.0478 -1.2406 28.3373 2.6849
# 4 3.0423 -0.2659 -1.2406 42.2818 5.4126 1.8801
# 5 -4.9099 9.1163 28.3373 5.4126 51.3620 7.5642
# 6 14.9006 20.0927 2.6849 1.8801 7.5642 32.6564
#
#
#
# Elastic Compliance Matrix: (Units=1/GPa)
#
#
# Indices 1 2 3 4 5 6 
#
# 1 0.013413 -0.003103 -0.003016 -0.001415 0.004367 -0.004893
# 2 -0.003103 0.020951 -0.002151 0.000950 -0.001301 -0.011051
# 3 -0.003016 -0.002151 0.009418 0.001066 -0.005683 0.003181
# 4 -0.001415 0.000950 0.001066 0.024248 -0.003352 -0.000646
# 5 0.004367 -0.001301 -0.005683 -0.003352 0.024522 -0.006212
# 6 -0.004893 -0.011051 0.003181 -0.000646 -0.006212 0.040869
#
#
# Mechanical properties :
#
#
# Convention : Reuss Voigt Hill
#
# Bulk Modulus (GPa) = 36.70828 48.78542 42.74685
# Shear Modulus (GPa) = 31.43851 40.05123 35.74487
#
# Velocity S-wave (km/s) = 3.71920 4.19784 3.96575
# Velocity P-wave (km/s) = 5.88169 6.70527 6.30694
#
# Compressibility (1/GPa) = 0.02724181
#
# Stress axis : x y z
#
# Youngs Moduli (GPa) = 74.55202 47.73119 106.18161
#
# Poissons Ratio (x) = 0.14810 0.32023
# Poissons Ratio (y) = 0.23132 0.22844
# Poissons Ratio (z) = 0.22484 0.10269
#
# Static dielectric constant tensor:
#      x y z
#    x 1.872000 -0.042290 -0.028400 
#    y -0.042290 1.847170 0.017320 
#    z -0.028400 0.017320 1.945410 
# 
# From -- ./inp_files/208560.got.cif
#   From: 2010.05.17/outbox.cif.g08.bks.cpg/sg2_105_cif.got.tgz:208560.got - 2010.06.03 11:33:40.
