data_PCOD9069462
_publ_section_title
;
Structure prediction by ZEFSAII (Michael W. Deem and Ramdas Pophale) SiO2 
 PCOD9069462
Probable space group: P -1
;
_chemical_formula_sum "Si O2"
_cell_formula_units_Z 14
_cell_length_a 11.688624
_cell_length_b 17.654641
_cell_length_c 17.885602
_cell_angle_alpha 149.694327
_cell_angle_beta 149.421106
_cell_angle_gamma 22.119029
_cell_volume 663.994304
_symmetry_space_group_name_H-M "P -1"
_symmetry_group_IT_number 2
_symmetry_cell_setting 'triclinic'
loop_
_space_group_symop_operation_xyz
x,y,z
-x,-y,-z
loop_
_atom_site_type_symbol
_atom_site_label
_atom_site_fract_x
_atom_site_fract_y
_atom_site_fract_z
Si Si1 0.168087 0.895606 0.927989
Si Si2 0.133872 0.700310 0.439521
Si Si3 0.849601 0.719730 0.140503
Si Si4 0.222732 0.246980 0.579489
Si Si5 0.226836 0.518432 0.605062
Si Si6 0.064520 0.863022 0.274827
Si Si7 0.686155 0.285596 0.874297
O O1 0.219758 0.691796 0.779731
O O2 0.494669 0.834959 0.059782
O O3 0.933968 0.071884 0.882127
O O4 0.000000 0.000000 0.000000
O O5 0.500000 0.500000 0.500000
O O6 0.048914 0.688274 0.297121
O O7 0.883177 0.728354 0.374556
O O8 0.070440 0.905114 0.597799
O O9 0.850438 0.849332 0.189195
O O10 0.000000 0.500000 0.000000
O O11 0.387270 0.323876 0.718528
O O12 0.902739 0.392898 0.475393
O O13 0.500000 0.000000 0.500000
O O14 0.589522 0.293059 0.623544
O O15 0.000000 0.500000 0.500000
O O16 0.132786 0.770213 0.149854
O O17 0.500000 0.500000 0.000000
#
# Coordination Sequence:
#
# PCOD9069462 Si02
#       7
#     2   2   2   2   2   2   2
#     4  12  27  47  74 108 148 192 248 311 376 434
#     4  12  28  50  77 106 149 200 252 301 371 451
#     4  12  29  49  74 109 154 195 244 309 381 440
#     4  12  23  46  76 106 145 192 250 311 361 438
#     4  12  23  43  76 107 145 189 246 304 369 435
#     4  12  26  49  74 109 148 198 251 303 372 456
#     4  12  27  44  73 113 148 191 251 308 374 437
#
# _framework density 21.084517999999999
#
# number of rings (size 3 to 8) (size 9 to 14) (size 15 to 20)
#    0.000    0.000    5.714    3.000    6.000    1.714 
#    0.000    0.000    0.000    0.000    0.000    0.000 
#    0.000    0.000    0.000    0.000    0.000    0.000 
#
# Total GULP energy -78232.888148 kJ/mol
# GULP energy per Si atom -5588.063439 kJ/mol
# Density = 2.103653 g / cm^3
# Si number density = 21.084518 Si / 1000 Ang^3
#
#
#
# Elastic Constant Matrix: (Units=GPa)
#
#
# Indices 1 2 3 4 5 6 
#
# 1 162.6606 30.1640 43.2615 -4.4912 -2.4577 -13.0530
# 2 30.1640 147.4216 38.2491 4.0297 -6.3094 -3.7686
# 3 43.2615 38.2491 103.8473 7.2831 -3.6278 -7.6313
# 4 -4.4912 4.0297 7.2831 38.2783 -0.7943 3.0695
# 5 -2.4577 -6.3094 -3.6278 -0.7943 46.0376 -8.0412
# 6 -13.0530 -3.7686 -7.6313 3.0695 -8.0412 33.7206
#
#
#
# Elastic Compliance Matrix: (Units=1/GPa)
#
#
# Indices 1 2 3 4 5 6 
#
# 1 0.007200 -0.000749 -0.002642 0.001267 0.000462 0.002100
# 2 -0.000749 0.007618 -0.002415 -0.000433 0.000851 0.000257
# 3 -0.002642 -0.002415 0.011951 -0.002460 0.000744 0.001813
# 4 0.001267 -0.000433 -0.002460 0.026993 -0.000176 -0.002614
# 5 0.000462 0.000851 0.000744 -0.000176 0.022954 0.005932
# 6 0.002100 0.000257 0.001813 -0.002614 0.005932 0.032560
#
#
# Mechanical properties :
#
#
# Convention : Reuss Voigt Hill
#
# Bulk Modulus (GPa) = 65.97267 70.80875 68.39071
# Shear Modulus (GPa) = 39.70138 43.75763 41.72950
#
# Velocity S-wave (km/s) = 4.34402 4.56054 4.45359
# Velocity P-wave (km/s) = 7.51786 7.83502 7.67808
#
# Compressibility (1/GPa) = 0.01515779
#
# Stress axis : x y z
#
# Youngs Moduli (GPa) = 138.89247 131.27012 83.67284
#
# Poissons Ratio (x) = 0.09830 0.22106
# Poissons Ratio (y) = 0.10401 0.20205
# Poissons Ratio (z) = 0.36694 0.31699
#
# Static dielectric constant tensor:
#      x y z
#    x 1.722260 0.055660 0.022470 
#    y 0.055660 1.702750 -0.047370 
#    z 0.022470 -0.047370 1.667840 
# 
# From -- ./inp_files/173302.got.cif
#   From: 2010.05.17/outbox.cif.g08.bks.cpg/sg2_87_cif.got.tgz:173302.got - 2010.06.03 11:33:40.
