data_PCOD9069657
_publ_section_title
;
Structure prediction by ZEFSAII (Michael W. Deem and Ramdas Pophale) SiO2 
 PCOD9069657
Probable space group: P -1
;
_chemical_formula_sum "Si O2"
_cell_formula_units_Z 16
_cell_length_a 10.819716
_cell_length_b 15.821065
_cell_length_c 18.339360
_cell_angle_alpha 157.820618
_cell_angle_beta 43.116974
_cell_angle_gamma 144.217926
_cell_volume 689.721187
_symmetry_space_group_name_H-M "P -1"
_symmetry_group_IT_number 2
_symmetry_cell_setting 'triclinic'
loop_
_space_group_symop_operation_xyz
x,y,z
-x,-y,-z
loop_
_atom_site_type_symbol
_atom_site_label
_atom_site_fract_x
_atom_site_fract_y
_atom_site_fract_z
Si Si1 0.563782 0.596609 0.968325
Si Si2 0.905206 0.888735 0.722854
Si Si3 0.668842 0.138996 0.972898
Si Si4 0.022301 0.865782 0.954942
Si Si5 0.770765 0.885412 0.355825
Si Si6 0.630229 0.288587 0.354351
Si Si7 0.426401 0.993694 0.342832
Si Si8 0.965559 0.672358 0.210667
O O1 0.569036 0.866199 0.175041
O O2 0.500000 0.500000 0.000000
O O3 0.381685 0.407554 0.840750
O O4 0.786461 0.625506 0.880177
O O5 0.922309 0.941503 0.844519
O O6 0.718619 0.594779 0.547082
O O7 0.865795 0.114376 0.891554
O O8 0.104022 0.942854 0.631178
O O9 0.563251 0.944251 0.794219
O O10 0.760098 0.446294 0.163783
O O11 0.500000 0.000000 0.000000
O O12 0.184433 0.769742 0.792165
O O13 0.000000 0.000000 0.000000
O O14 0.615660 0.960793 0.520670
O O15 0.916572 0.867033 0.342006
O O16 0.551454 0.241897 0.434369
O O17 0.185838 0.814542 0.273027
O O18 0.000000 0.500000 0.000000
#
# Coordination Sequence:
#
# PCOD9069657 Si02
#       8
#     2   2   2   2   2   2   2   2
#     4  12  26  48  73  99 140 189 245 290 342 414
#     4  12  27  46  73 110 141 182 237 293 354 424
#     4  12  25  44  76 106 143 187 230 288 363 419
#     4  12  28  50  71 101 142 191 239 290 350 414
#     4  12  27  46  75 107 141 185 237 293 353 418
#     4  12  27  46  72 107 144 185 232 293 358 420
#     4  12  27  46  74 106 141 187 235 290 358 419
#     4  12  23  46  76 101 144 186 233 289 352 422
#
# _framework density 23.197780000000002
#
# number of rings (size 3 to 8) (size 9 to 14) (size 15 to 20)
#    0.000    0.000    7.500    0.750    7.000    2.000 
#    0.000    0.000    0.000    0.000    0.000    0.000 
#    0.000    0.000    0.000    0.000    0.000    0.000 
#
# Total GULP energy -89399.609988 kJ/mol
# GULP energy per Si atom -5587.475624 kJ/mol
# Density = 2.314498 g / cm^3
# Si number density = 23.197780 Si / 1000 Ang^3
#
#
#
# Elastic Constant Matrix: (Units=GPa)
#
#
# Indices 1 2 3 4 5 6 
#
# 1 74.1382 5.8767 6.6324 -4.7892 8.1244 1.2837
# 2 5.8767 135.5364 18.4133 -6.7124 12.8603 -13.4023
# 3 6.6324 18.4133 55.0883 -6.3787 -7.2375 -6.0727
# 4 -4.7892 -6.7124 -6.3787 35.9608 -10.8322 -1.3056
# 5 8.1244 12.8603 -7.2375 -10.8322 3.8057 -6.5096
# 6 1.2837 -13.4023 -6.0727 -1.3056 -6.5096 31.3714
#
#
#
# Elastic Compliance Matrix: (Units=1/GPa)
#
#
# Indices 1 2 3 4 5 6 
#
# 1 0.011389 -0.002258 0.003750 0.008577 0.022119 0.004242
# 2 -0.002258 0.006635 0.001858 0.006676 0.017099 0.007112
# 3 0.003750 0.001858 0.008338 -0.012578 -0.048472 -0.008327
# 4 0.008577 0.006676 -0.012578 0.007512 -0.066290 -0.013376
# 5 0.022119 0.017099 -0.048472 -0.066290 -0.206055 -0.048498
# 6 0.004242 0.007112 -0.008327 -0.013376 -0.048498 0.022509
#
#
# Mechanical properties :
#
#
# Convention : Reuss Voigt Hill
#
# Bulk Modulus (GPa) = 30.24670 36.28976 33.26823
# Shear Modulus (GPa) = -34.39925 29.81693 -2.29116
#
# Velocity S-wave (km/s) = -3.85498 3.58905 -0.99489
# Velocity P-wave (km/s) = 2.59761 5.73172 3.61283
#
# Compressibility (1/GPa) = 0.03306146
#
# Stress axis : x y z
#
# Youngs Moduli (GPa) = 87.80778 150.71290 119.93810
#
# Poissons Ratio (x) = 0.34028 -0.44981
# Poissons Ratio (y) = 0.19825 -0.22279
# Poissons Ratio (z) = -0.32931 -0.27996
#
# Static dielectric constant tensor:
#      x y z
#    x 1.908180 -0.023900 0.001970 
#    y -0.023900 1.904370 -0.005980 
#    z 0.001970 -0.005980 1.865690 
# 
# From -- ./inp_files/596044.got.cif
#   From: 2010.05.17/outbox.cif.g08.bks.cpg/sg2_299_cif.got.tgz:596044.got - 2010.06.03 11:33:40.
