data_PCOD9069916
_publ_section_title
;
Structure prediction by ZEFSAII (Michael W. Deem and Ramdas Pophale) SiO2 
 PCOD9069916
Probable space group: P -1
;
_chemical_formula_sum "Si O2"
_cell_formula_units_Z 16
_cell_length_a 13.934574
_cell_length_b 13.162435
_cell_length_c 9.247161
_cell_angle_alpha 87.186150
_cell_angle_beta 113.950675
_cell_angle_gamma 147.631314
_cell_volume 663.575207
_symmetry_space_group_name_H-M "P -1"
_symmetry_group_IT_number 2
_symmetry_cell_setting 'triclinic'
loop_
_space_group_symop_operation_xyz
x,y,z
-x,-y,-z
loop_
_atom_site_type_symbol
_atom_site_label
_atom_site_fract_x
_atom_site_fract_y
_atom_site_fract_z
Si Si1 0.560630 0.825565 0.386873
Si Si2 0.384058 0.466504 0.306170
Si Si3 0.550757 0.199238 0.117235
Si Si4 0.124330 0.533889 0.959144
Si Si5 0.948891 0.127204 0.244754
Si Si6 0.079466 0.295287 0.626921
Si Si7 0.235562 0.257089 0.926012
Si Si8 0.393868 0.003174 0.346927
O O1 0.583340 0.726434 0.370029
O O2 0.520851 0.820486 0.529947
O O3 0.806267 0.100958 0.477407
O O4 0.342578 0.672411 0.166682
O O5 0.500000 0.500000 0.500000
O O6 0.158132 0.333932 0.241397
O O7 0.280537 0.312546 0.119652
O O8 0.736004 0.304939 0.111389
O O9 0.487941 0.086017 0.234455
O O10 0.706059 0.436558 0.236765
O O11 0.290807 0.011051 0.906247
O O12 0.899849 0.262520 0.807612
O O13 0.000000 0.500000 0.000000
O O14 0.081520 0.247582 0.472647
O O15 0.870034 0.943884 0.168082
O O16 0.086837 0.218487 0.764371
O O17 0.500000 0.500000 0.000000
O O18 0.500000 0.000000 0.500000
#
# Coordination Sequence:
#
# PCOD9069916 Si02
#       8
#     2   2   2   2   2   2   2   2
#     4  12  25  48  75 106 155 198 254 322 385 455
#     4  12  27  45  72 113 157 206 259 313 381 464
#     4  12  27  47  80 110 153 199 259 316 394 470
#     4  12  26  53  77 114 151 194 254 327 396 467
#     4  12  25  45  71 109 153 203 258 315 382 454
#     4  12  24  46  74 108 151 204 256 315 384 455
#     4  12  24  43  71 104 157 199 258 312 372 452
#     4  12  28  50  76 111 149 199 258 324 393 463
#
# _framework density 24.111810999999999
#
# number of rings (size 3 to 8) (size 9 to 14) (size 15 to 20)
#    0.000    0.000    5.000    5.250    3.500    1.000 
#    0.000    0.000    0.000    0.000    0.000    0.000 
#    0.000    0.000    0.000    0.000    0.000    0.000 
#
# Total GULP energy -89551.822041 kJ/mol
# GULP energy per Si atom -5596.988878 kJ/mol
# Density = 2.405693 g / cm^3
# Si number density = 24.111811 Si / 1000 Ang^3
#
#
#
# Elastic Constant Matrix: (Units=GPa)
#
#
# Indices 1 2 3 4 5 6 
#
# 1 72.1905 9.2757 26.9369 -12.2069 -10.3481 14.2189
# 2 9.2757 91.5272 26.5854 -7.5965 10.8393 25.9103
# 3 26.9369 26.5854 146.6312 -6.9994 0.1483 7.6085
# 4 -12.2069 -7.5965 -6.9994 51.4982 8.2051 -4.8387
# 5 -10.3481 10.8393 0.1483 8.2051 53.4486 -1.4662
# 6 14.2189 25.9103 7.6085 -4.8387 -1.4662 43.9579
#
#
#
# Elastic Compliance Matrix: (Units=1/GPa)
#
#
# Indices 1 2 3 4 5 6 
#
# 1 0.016596 0.000374 -0.002742 0.002760 0.002592 -0.004724
# 2 0.000374 0.014350 -0.002165 0.001675 -0.003312 -0.008130
# 3 -0.002742 -0.002165 0.007681 0.000173 -0.000116 0.000849
# 4 0.002760 0.001675 0.000173 0.020847 -0.002998 0.000285
# 5 0.002592 -0.003312 -0.000116 -0.002998 0.020384 0.001484
# 6 -0.004724 -0.008130 0.000849 0.000285 0.001484 0.029003
#
#
# Mechanical properties :
#
#
# Convention : Reuss Voigt Hill
#
# Bulk Modulus (GPa) = 33.83068 48.43830 41.13449
# Shear Modulus (GPa) = 39.12942 46.28433 42.70687
#
# Velocity S-wave (km/s) = 4.03281 4.38604 4.21313
# Velocity P-wave (km/s) = 5.97879 6.76628 6.38469
#
# Compressibility (1/GPa) = 0.02955897
#
# Stress axis : x y z
#
# Youngs Moduli (GPa) = 60.25546 69.68845 130.19982
#
# Poissons Ratio (x) = -0.02607 0.35706
# Poissons Ratio (y) = -0.02254 0.28191
# Poissons Ratio (z) = 0.16524 0.15089
#
# Static dielectric constant tensor:
#      x y z
#    x 2.017190 0.017280 -0.034010 
#    y 0.017280 1.981140 -0.013580 
#    z -0.034010 -0.013580 1.964530 
# 
# From -- ./inp_files/315321.got.cif
#   From: 2010.05.17/outbox.cif.g08.bks.cpg/sg2_158_cif.got.tgz:315321.got - 2010.06.03 11:33:40.
