data_PCOD9069846
_publ_section_title
;
Structure prediction by ZEFSAII (Michael W. Deem and Ramdas Pophale) SiO2 
 PCOD9069846
Probable space group: P -1
;
_chemical_formula_sum "Si O2"
_cell_formula_units_Z 16
_cell_length_a 8.090356
_cell_length_b 27.490889
_cell_length_c 8.524872
_cell_angle_alpha 137.967467
_cell_angle_beta 145.801823
_cell_angle_gamma 42.860928
_cell_volume 677.122455
_symmetry_space_group_name_H-M "P -1"
_symmetry_group_IT_number 2
_symmetry_cell_setting 'triclinic'
loop_
_space_group_symop_operation_xyz
x,y,z
-x,-y,-z
loop_
_atom_site_type_symbol
_atom_site_label
_atom_site_fract_x
_atom_site_fract_y
_atom_site_fract_z
Si Si1 0.181884 0.571002 0.435399
Si Si2 0.253027 0.455001 0.711380
Si Si3 0.793386 0.945028 0.684540
Si Si4 0.692967 0.184401 0.687860
Si Si5 0.392068 0.337686 0.993582
Si Si6 0.482674 0.696835 0.632819
Si Si7 0.938542 0.788065 0.243879
Si Si8 0.708553 0.915714 0.908582
O O1 0.500000 0.500000 0.500000
O O2 0.933638 0.544199 0.274614
O O3 0.954506 0.613808 0.217323
O O4 0.331481 0.630700 0.776943
O O5 0.383766 0.367891 0.547175
O O6 0.000000 0.500000 0.500000
O O7 0.500000 0.500000 0.000000
O O8 0.739582 0.917379 0.749272
O O9 0.897674 0.871929 0.478572
O O10 0.500000 0.000000 0.500000
O O11 0.000000 0.000000 0.000000
O O12 0.489179 0.250735 0.800627
O O13 0.856891 0.220681 0.772432
O O14 0.472661 0.143515 0.333936
O O15 0.955783 0.118368 0.829529
O O16 0.437432 0.339988 0.221524
O O17 0.124355 0.731987 0.392376
O O18 0.634960 0.765037 0.912192
O O19 0.500000 0.000000 0.000000
#
# Coordination Sequence:
#
# PCOD9069846 Si02
#       8
#     2   2   2   2   2   2   2   2
#     4  12  26  46  71 102 139 181 229 286 349 418
#     4  12  26  47  71 101 137 180 227 282 345 416
#     4  12  24  42  65  96 134 176 223 278 336 403
#     4  12  24  43  68  97 134 178 226 282 342 411
#     4  12  25  45  69 102 137 180 229 286 348 417
#     4  12  25  44  69  99 134 176 225 281 340 410
#     4  12  24  43  67  98 132 177 226 279 340 407
#     4  12  24  42  65  97 134 178 227 282 342 408
#
# _framework density 23.629404000000001
#
# number of rings (size 3 to 8) (size 9 to 14) (size 15 to 20)
#    0.000    0.000    0.000   11.250    0.000    2.000 
#    0.000    0.000    0.000    0.000    0.000    0.000 
#    0.000    0.000    0.000    0.000    0.000    0.000 
#
# Total GULP energy -89575.326920 kJ/mol
# GULP energy per Si atom -5598.457933 kJ/mol
# Density = 2.357562 g / cm^3
# Si number density = 23.629404 Si / 1000 Ang^3
#
#
#
# Elastic Constant Matrix: (Units=GPa)
#
#
# Indices 1 2 3 4 5 6 
#
# 1 103.8770 22.5402 18.5813 -3.9271 1.1411 0.0403
# 2 22.5402 147.2054 43.6776 -13.0619 -15.3924 -23.3315
# 3 18.5813 43.6776 136.6298 -3.0430 22.5447 -14.0629
# 4 -3.9271 -13.0619 -3.0430 62.8699 7.3136 -9.3577
# 5 1.1411 -15.3924 22.5447 7.3136 41.5509 6.0258
# 6 0.0403 -23.3315 -14.0629 -9.3577 6.0258 43.2760
#
#
#
# Elastic Compliance Matrix: (Units=1/GPa)
#
#
# Indices 1 2 3 4 5 6 
#
# 1 0.010122 -0.001418 -0.001006 0.000148 -0.000131 -0.001051
# 2 -0.001418 0.009071 -0.002974 0.001720 0.004171 0.003716
# 3 -0.001006 -0.002974 0.009878 0.001032 -0.007022 0.002808
# 4 0.000148 0.001720 0.001032 0.017603 -0.003838 0.005603
# 5 -0.000131 0.004171 -0.007022 -0.003838 0.030850 -0.005158
# 6 -0.001051 0.003716 0.002808 0.005603 -0.005158 0.027954
#
#
# Mechanical properties :
#
#
# Convention : Reuss Voigt Hill
#
# Bulk Modulus (GPa) = 54.72877 61.92336 58.32607
# Shear Modulus (GPa) = 40.86101 49.73355 45.29728
#
# Velocity S-wave (km/s) = 4.16293 4.59271 4.38309
# Velocity P-wave (km/s) = 6.80575 7.37475 7.09596
#
# Compressibility (1/GPa) = 0.01827193
#
# Stress axis : x y z
#
# Youngs Moduli (GPa) = 98.79459 110.24486 101.24008
#
# Poissons Ratio (x) = 0.15638 0.10189
# Poissons Ratio (y) = 0.14014 0.30112
# Poissons Ratio (z) = 0.09943 0.32790
#
# Static dielectric constant tensor:
#      x y z
#    x 3.258530 -0.294280 -0.145840 
#    y -0.294280 1.932300 0.021590 
#    z -0.145840 0.021590 1.818920 
# 
# From -- ./inp_files/228015.got.cif
#   From: 2010.05.17/outbox.cif.g08.bks.cpg/sg2_115_cif.got.tgz:228015.got - 2010.06.03 11:33:40.
