data_PCOD9069299
_publ_section_title
;
Structure prediction by ZEFSAII (Michael W. Deem and Ramdas Pophale) SiO2 
 PCOD9069299
Probable space group: P -1
;
_chemical_formula_sum "Si O2"
_cell_formula_units_Z 14
_cell_length_a 11.388607
_cell_length_b 9.805716
_cell_length_c 14.549984
_cell_angle_alpha 133.788775
_cell_angle_beta 149.239998
_cell_angle_gamma 55.327451
_cell_volume 598.445153
_symmetry_space_group_name_H-M "P -1"
_symmetry_group_IT_number 2
_symmetry_cell_setting 'triclinic'
loop_
_space_group_symop_operation_xyz
x,y,z
-x,-y,-z
loop_
_atom_site_type_symbol
_atom_site_label
_atom_site_fract_x
_atom_site_fract_y
_atom_site_fract_z
Si Si1 0.052426 0.888778 0.350825
Si Si2 0.064471 0.415147 0.732554
Si Si3 0.339999 0.002438 0.982801
Si Si4 0.415902 0.188617 0.792767
Si Si5 0.217035 0.653007 0.203060
Si Si6 0.466638 0.604369 0.626639
Si Si7 0.166081 0.835527 0.062260
O O1 0.231153 0.776264 0.361379
O O2 0.893180 0.724214 0.217316
O O3 0.203147 0.028993 0.582246
O O4 0.909378 0.998644 0.231354
O O5 0.269683 0.373282 0.781956
O O6 0.796005 0.360822 0.509234
O O7 0.070551 0.634363 0.862699
O O8 0.388758 0.193989 0.166449
O O9 0.408941 0.834155 0.016068
O O10 0.500000 0.000000 0.000000
O O11 0.573502 0.144074 0.791563
O O12 0.438768 0.533924 0.297093
O O13 0.179456 0.789494 0.157157
O O14 0.000000 0.500000 0.000000
O O15 0.500000 0.500000 0.500000
O O16 0.000000 0.000000 0.000000
#
# Coordination Sequence:
#
# PCOD9069299 Si02
#       7
#     2   2   2   2   2   2   2
#     4  12  23  43  78 110 144 191 258 302 374 450
#     4  12  24  47  72 103 149 202 241 305 375 452
#     4  12  23  40  74 112 146 192 255 309 367 459
#     4  12  27  48  71 111 158 194 242 320 391 440
#     4  12  23  45  76 105 140 194 257 307 367 453
#     4  12  23  41  77 112 144 193 259 315 366 440
#     4  12  29  49  74 106 152 199 248 315 388 446
#
# _framework density 23.393954999999998
#
# number of rings (size 3 to 8) (size 9 to 14) (size 15 to 20)
#    0.000    0.000    7.143    2.571    4.000    0.571 
#    2.571    0.714    0.000    0.000    0.000    0.000 
#    0.000    0.000    0.000    0.000    0.000    0.000 
#
# Total GULP energy -78172.818387 kJ/mol
# GULP energy per Si atom -5583.772742 kJ/mol
# Density = 2.334071 g / cm^3
# Si number density = 23.393955 Si / 1000 Ang^3
#
#
#
# Elastic Constant Matrix: (Units=GPa)
#
#
# Indices 1 2 3 4 5 6 
#
# 1 113.1891 46.6720 7.7542 -2.9580 7.8527 -11.6875
# 2 46.6720 154.2523 35.1335 -28.4400 -2.8811 -14.5530
# 3 7.7542 35.1335 68.2211 -11.9611 6.8640 -1.8372
# 4 -2.9580 -28.4400 -11.9611 43.9335 -10.1214 9.1421
# 5 7.8527 -2.8811 6.8640 -10.1214 34.8716 -1.0493
# 6 -11.6875 -14.5530 -1.8372 9.1421 -1.0493 37.5021
#
#
#
# Elastic Compliance Matrix: (Units=1/GPa)
#
#
# Indices 1 2 3 4 5 6 
#
# 1 0.010785 -0.003774 0.000642 -0.002907 -0.003634 0.002535
# 2 -0.003774 0.009769 -0.003988 0.005697 0.004130 0.001146
# 3 0.000642 -0.003988 0.017233 0.001565 -0.003441 -0.000981
# 4 -0.002907 0.005697 0.001565 0.030017 0.009359 -0.005674
# 5 -0.003634 0.004130 -0.003441 0.009359 0.033198 -0.001051
# 6 0.002535 0.001146 -0.000981 -0.005674 -0.001051 0.029206
#
#
# Mechanical properties :
#
#
# Convention : Reuss Voigt Hill
#
# Bulk Modulus (GPa) = 42.46787 57.19799 49.83293
# Shear Modulus (GPa) = 32.83083 39.66830 36.24956
#
# Velocity S-wave (km/s) = 3.75025 4.12231 3.94067
# Velocity P-wave (km/s) = 6.07826 6.86738 6.48483
#
# Compressibility (1/GPa) = 0.02354722
#
# Stress axis : x y z
#
# Youngs Moduli (GPa) = 92.72219 102.36783 58.02787
#
# Poissons Ratio (x) = 0.38635 -0.03726
# Poissons Ratio (y) = 0.34994 0.23140
# Poissons Ratio (z) = -0.05953 0.40821
#
# Static dielectric constant tensor:
#      x y z
#    x 1.938200 -0.026040 -0.001450 
#    y -0.026040 1.977180 0.031280 
#    z -0.001450 0.031280 1.950890 
# 
# From -- ./inp_files/516324.got.cif
#   From: 2010.05.17/outbox.cif.g08.bks.cpg/sg2_259_cif.got.tgz:516324.got - 2010.06.03 11:33:40.
