data_PCOD9069575
_publ_section_title
;
Structure prediction by ZEFSAII (Michael W. Deem and Ramdas Pophale) SiO2 
 PCOD9069575
Probable space group: P -1
;
_chemical_formula_sum "Si O2"
_cell_formula_units_Z 16
_cell_length_a 16.646581
_cell_length_b 9.938262
_cell_length_c 8.783263
_cell_angle_alpha 75.194836
_cell_angle_beta 65.082215
_cell_angle_gamma 34.922914
_cell_volume 743.019480
_symmetry_space_group_name_H-M "P -1"
_symmetry_group_IT_number 2
_symmetry_cell_setting 'triclinic'
loop_
_space_group_symop_operation_xyz
x,y,z
-x,-y,-z
loop_
_atom_site_type_symbol
_atom_site_label
_atom_site_fract_x
_atom_site_fract_y
_atom_site_fract_z
Si Si1 0.274166 0.930674 0.724673
Si Si2 0.656179 0.841620 0.337451
Si Si3 0.081028 0.990237 0.064422
Si Si4 0.553282 0.932648 0.806845
Si Si5 0.045837 0.692934 0.628279
Si Si6 0.544053 0.439355 0.802915
Si Si7 0.249975 0.588644 0.270971
Si Si8 0.749274 0.954700 0.636107
O O1 0.407721 0.651811 0.738020
O O2 0.325606 0.016456 0.715678
O O3 0.238240 0.991883 0.557071
O O4 0.140724 0.045721 0.905270
O O5 0.807360 0.583182 0.359722
O O6 0.500000 0.000000 0.500000
O O7 0.608364 0.842885 0.213345
O O8 0.000364 0.155575 0.231974
O O9 0.205788 0.727257 0.113768
O O10 0.000000 0.000000 0.000000
O O11 0.632009 0.685976 0.773042
O O12 0.680492 0.888465 0.687706
O O13 0.500000 0.000000 0.000000
O O14 0.103385 0.714955 0.436722
O O15 0.906773 0.775620 0.653498
O O16 0.669925 0.398706 0.691644
O O17 0.622164 0.196584 0.766096
O O18 0.500000 0.500000 0.000000
#
# Coordination Sequence:
#
# PCOD9069575 Si02
#       8
#     2   2   2   2   2   2   2   2
#     4  12  25  46  74 107 149 189 248 297 368 440
#     4  12  25  52  74 106 144 194 245 304 369 443
#     4  12  29  45  71 111 145 195 245 302 366 439
#     4  12  28  47  78 109 145 191 251 298 368 438
#     4  12  27  48  75 104 151 193 246 303 375 429
#     4  12  23  45  74 104 147 189 243 299 363 432
#     4  12  24  48  75  99 152 191 239 302 361 439
#     4  12  27  46  74 112 145 195 242 306 369 434
#
# _framework density 21.533757000000001
#
# number of rings (size 3 to 8) (size 9 to 14) (size 15 to 20)
#    0.000    0.000    6.250    2.250    5.250    3.500 
#    0.000    0.000    0.000    0.000    0.000    0.000 
#    0.000    0.000    0.000    0.000    0.000    0.000 
#
# Total GULP energy -89413.699725 kJ/mol
# GULP energy per Si atom -5588.356233 kJ/mol
# Density = 2.148474 g / cm^3
# Si number density = 21.533757 Si / 1000 Ang^3
#
#
#
# Elastic Constant Matrix: (Units=GPa)
#
#
# Indices 1 2 3 4 5 6 
#
# 1 133.0514 46.7117 35.8497 -3.5859 1.9620 -11.4811
# 2 46.7117 109.7974 20.8867 -16.4950 4.5891 -14.6591
# 3 35.8497 20.8867 118.6174 -20.2407 4.5602 -11.0654
# 4 -3.5859 -16.4950 -20.2407 19.6686 -3.4264 5.0079
# 5 1.9620 4.5891 4.5602 -3.4264 40.4845 -12.6538
# 6 -11.4811 -14.6591 -11.0654 5.0079 -12.6538 41.1613
#
#
#
# Elastic Compliance Matrix: (Units=1/GPa)
#
#
# Indices 1 2 3 4 5 6 
#
# 1 0.009749 -0.004201 -0.002973 -0.005045 0.000261 0.001118
# 2 -0.004201 0.012550 0.001023 0.010247 0.000288 0.002414
# 3 -0.002973 0.001023 0.011233 0.011595 0.000113 0.001179
# 4 -0.005045 0.010247 0.011595 0.071598 0.003085 -0.002403
# 5 0.000261 0.000288 0.000113 0.003085 0.027493 0.008282
# 6 0.001118 0.002414 0.001179 -0.002403 0.008282 0.028622
#
#
# Mechanical properties :
#
#
# Convention : Reuss Voigt Hill
#
# Bulk Modulus (GPa) = 47.10737 63.15140 55.12938
# Shear Modulus (GPa) = 27.68178 37.46408 32.57293
#
# Velocity S-wave (km/s) = 3.58929 4.17560 3.89349
# Velocity P-wave (km/s) = 6.25307 7.25519 6.77269
#
# Compressibility (1/GPa) = 0.02122810
#
# Stress axis : x y z
#
# Youngs Moduli (GPa) = 102.57830 79.67913 89.02235
#
# Poissons Ratio (x) = 0.33477 0.26468
# Poissons Ratio (y) = 0.43098 -0.09103
# Poissons Ratio (z) = 0.30498 -0.08148
#
# Static dielectric constant tensor:
#      x y z
#    x 1.738000 -0.003950 -0.081420 
#    y -0.003950 1.783480 0.022930 
#    z -0.081420 0.022930 1.722010 
# 
# From -- ./inp_files/298198.got.cif
#   From: 2010.05.17/outbox.cif.g08.bks.cpg/sg2_150_cif.got.tgz:298198.got - 2010.06.03 11:33:40.
