data_PCOD9069269
_publ_section_title
;
Structure prediction by ZEFSAII (Michael W. Deem and Ramdas Pophale) SiO2 
 PCOD9069269
Probable space group: P -1
;
_chemical_formula_sum "Si O2"
_cell_formula_units_Z 12
_cell_length_a 10.934257
_cell_length_b 9.792270
_cell_length_c 10.131905
_cell_angle_alpha 74.544167
_cell_angle_beta 102.818916
_cell_angle_gamma 40.284686
_cell_volume 494.305590
_symmetry_space_group_name_H-M "P -1"
_symmetry_group_IT_number 2
_symmetry_cell_setting 'triclinic'
loop_
_space_group_symop_operation_xyz
x,y,z
-x,-y,-z
loop_
_atom_site_type_symbol
_atom_site_label
_atom_site_fract_x
_atom_site_fract_y
_atom_site_fract_z
Si Si1 0.640913 0.731967 0.031604
Si Si2 0.802608 0.967812 0.296258
Si Si3 0.658093 0.259584 0.448272
Si Si4 0.141700 0.156160 0.185750
Si Si5 0.935567 0.213318 0.865755
Si Si6 0.666392 0.586765 0.349479
O O1 0.642354 0.615332 0.179113
O O2 0.936448 0.462019 0.127251
O O3 0.500000 0.000000 0.000000
O O4 0.460999 0.854957 0.838763
O O5 0.893762 0.936467 0.185131
O O6 0.052726 0.632472 0.489013
O O7 0.764739 0.119367 0.363897
O O8 0.366769 0.485555 0.318732
O O9 0.647855 0.438376 0.420871
O O10 0.822672 0.013233 0.661789
O O11 0.436591 0.900213 0.284181
O O12 0.016028 0.239829 0.994199
O O13 0.000000 0.000000 0.000000
#
# Coordination Sequence:
#
# PCOD9069269 Si02
#       6
#     2   2   2   2   2   2
#     4  12  29  48  67  96 137 186 238 282 324 388
#     4  12  25  43  69 103 137 178 225 275 341 405
#     4  12  24  40  72 110 142 170 213 279 355 415
#     4  12  24  44  69 100 141 177 218 282 338 403
#     4  12  23  38  67 106 145 174 214 272 349 419
#     4  12  25  43  71 105 138 174 223 278 346 411
#
# _framework density 24.276478000000001
#
# number of rings (size 3 to 8) (size 9 to 14) (size 15 to 20)
#    0.000    0.000    8.333    2.000    2.333    2.667 
#    0.000    0.833    0.000    0.000    0.000    0.000 
#    0.000    0.000    0.000    0.000    0.000    0.000 
#
# Total GULP energy -67167.363040 kJ/mol
# GULP energy per Si atom -5597.280253 kJ/mol
# Density = 2.422122 g / cm^3
# Si number density = 24.276478 Si / 1000 Ang^3
#
#
#
# Elastic Constant Matrix: (Units=GPa)
#
#
# Indices 1 2 3 4 5 6 
#
# 1 43.3006 20.7026 31.0496 -5.4794 -8.1129 -4.2348
# 2 20.7026 189.7034 50.3454 -7.2088 -9.3442 -26.2093
# 3 31.0496 50.3454 148.7067 2.0125 15.7171 -7.5624
# 4 -5.4794 -7.2088 2.0125 53.7506 -15.4202 6.9822
# 5 -8.1129 -9.3442 15.7171 -15.4202 5.6680 -3.9269
# 6 -4.2348 -26.2093 -7.5624 6.9822 -3.9269 34.0184
#
#
#
# Elastic Compliance Matrix: (Units=1/GPa)
#
#
# Indices 1 2 3 4 5 6 
#
# 1 0.010664 -0.006289 0.005158 -0.013753 -0.050552 -0.005384
# 2 -0.006289 0.005140 0.001260 -0.004395 -0.014086 0.002733
# 3 0.005158 0.001260 0.002056 0.008913 0.030623 0.003776
# 4 -0.013753 -0.004395 0.008913 0.003708 -0.048090 -0.009429
# 5 -0.050552 -0.014086 0.030623 -0.048090 -0.146977 -0.017434
# 6 -0.005384 0.002733 0.003776 -0.009429 -0.017434 0.031594
#
#
# Mechanical properties :
#
#
# Convention : Reuss Voigt Hill
#
# Bulk Modulus (GPa) = 55.19377 65.10065 60.14721
# Shear Modulus (GPa) = -56.79646 37.32827 -9.73410
#
# Velocity S-wave (km/s) = -4.84216 3.92552 -2.00459
# Velocity P-wave (km/s) = 2.91155 6.88628 4.41269
#
# Compressibility (1/GPa) = 0.01811799
#
# Stress axis : x y z
#
# Youngs Moduli (GPa) = 93.77167 194.54808 486.40911
#
# Poissons Ratio (x) = 1.22355 -2.50884
# Poissons Ratio (y) = 0.58975 -0.61297
# Poissons Ratio (z) = -0.48366 -0.24517
#
# Static dielectric constant tensor:
#      x y z
#    x 1.820620 -0.005590 -0.067590 
#    y -0.005590 1.942310 -0.013540 
#    z -0.067590 -0.013540 1.933740 
# 
# From -- ./inp_files/261879.got.cif
#   From: 2010.05.17/outbox.cif.g08.bks.cpg/sg2_131_cif.got.tgz:261879.got - 2010.06.03 11:33:40.
