data_PCOD9069061
_publ_section_title
;
Structure prediction by ZEFSAII (Michael W. Deem and Ramdas Pophale) SiO2 
 PCOD9069061
Probable space group: P -1
;
_chemical_formula_sum "Si O2"
_cell_formula_units_Z 14
_cell_length_a 19.223432
_cell_length_b 6.698893
_cell_length_c 8.443685
_cell_angle_alpha 76.253575
_cell_angle_beta 42.468647
_cell_angle_gamma 99.025788
_cell_volume 614.904502
_symmetry_space_group_name_H-M "P -1"
_symmetry_group_IT_number 2
_symmetry_cell_setting 'triclinic'
loop_
_space_group_symop_operation_xyz
x,y,z
-x,-y,-z
loop_
_atom_site_type_symbol
_atom_site_label
_atom_site_fract_x
_atom_site_fract_y
_atom_site_fract_z
Si Si1 0.978091 0.786208 0.188367
Si Si2 0.955483 0.089690 0.416693
Si Si3 0.696993 0.001817 0.855110
Si Si4 0.375785 0.277015 0.306453
Si Si5 0.254609 0.582506 0.481553
Si Si6 0.617441 0.981260 0.327366
Si Si7 0.170073 0.636627 0.935943
O O1 0.882950 0.542213 0.315697
O O2 0.095990 0.775226 0.027987
O O3 0.920662 0.859479 0.409596
O O4 0.000000 0.000000 0.000000
O O5 0.068765 0.356450 0.146964
O O6 0.836521 0.100178 0.634813
O O7 0.000000 0.000000 0.500000
O O8 0.668543 0.869026 0.757636
O O9 0.673364 0.216715 0.808375
O O10 0.632322 0.879615 0.151617
O O11 0.290946 0.384083 0.468100
O O12 0.387116 0.158382 0.475041
O O13 0.500000 0.500000 0.000000
O O14 0.255308 0.685188 0.632894
O O15 0.500000 0.000000 0.500000
O O16 0.737340 0.244226 0.097475
#
# Coordination Sequence:
#
# PCOD9069061 Si02
#       7
#     2   2   2   2   2   2   2
#     4  12  22  41  70 109 144 193 249 295 374 447
#     4  12  27  42  71 113 158 199 247 310 381 455
#     4  12  27  51  77 112 155 196 253 317 377 448
#     4  12  29  52  80 110 147 205 259 310 381 455
#     4  12  24  45  78 108 149 197 251 312 376 449
#     4  12  30  52  77 112 152 199 257 317 379 449
#     4  12  26  45  74 110 155 199 248 309 379 450
#
# _framework density 22.767762000000001
#
# number of rings (size 3 to 8) (size 9 to 14) (size 15 to 20)
#    0.000    0.000    5.714    3.857    6.000    4.000 
#    0.000    0.000    0.000    0.000    0.000    0.000 
#    0.000    0.000    0.000    0.000    0.000    0.000 
#
# Total GULP energy -78023.233313 kJ/mol
# GULP energy per Si atom -5573.088094 kJ/mol
# Density = 2.271594 g / cm^3
# Si number density = 22.767762 Si / 1000 Ang^3
#
#
#
# Elastic Constant Matrix: (Units=GPa)
#
#
# Indices 1 2 3 4 5 6 
#
# 1 142.3284 50.8234 58.6734 7.4739 -3.8027 -31.3446
# 2 50.8234 86.1010 27.2396 11.6637 7.4895 -15.2771
# 3 58.6734 27.2396 89.3180 7.4881 19.6597 -4.1729
# 4 7.4739 11.6637 7.4881 36.9332 -1.2531 1.0315
# 5 -3.8027 7.4895 19.6597 -1.2531 36.6274 -5.8476
# 6 -31.3446 -15.2771 -4.1729 1.0315 -5.8476 17.3019
#
#
#
# Elastic Compliance Matrix: (Units=1/GPa)
#
#
# Indices 1 2 3 4 5 6 
#
# 1 0.028684 -0.003018 -0.020390 -0.001400 0.022822 0.052178
# 2 -0.003018 0.016148 -0.001873 -0.004385 -0.001466 0.008105
# 3 -0.020390 -0.001873 0.028524 -0.000754 -0.023388 -0.039574
# 4 -0.001400 -0.004385 -0.000754 0.029151 0.000870 -0.008034
# 5 0.022822 -0.001466 -0.023388 0.000870 0.050779 0.051520
# 6 0.052178 0.008105 -0.039574 -0.008034 0.051520 0.167828
#
#
# Mechanical properties :
#
#
# Convention : Reuss Voigt Hill
#
# Bulk Modulus (GPa) = 43.87366 65.69115 54.78240
# Shear Modulus (GPa) = 13.18309 30.23991 21.71150
#
# Velocity S-wave (km/s) = 2.40890 3.64839 3.09140
# Velocity P-wave (km/s) = 5.20087 6.83103 6.07091
#
# Compressibility (1/GPa) = 0.02279272
#
# Stress axis : x y z
#
# Youngs Moduli (GPa) = 34.86313 61.92733 35.05836
#
# Poissons Ratio (x) = 0.18688 0.71485
# Poissons Ratio (y) = 0.10521 0.06568
# Poissons Ratio (z) = 0.71087 0.11601
#
# Static dielectric constant tensor:
#      x y z
#    x 1.799910 -0.016700 -0.013410 
#    y -0.016700 1.815990 -0.027630 
#    z -0.013410 -0.027630 1.865960 
# 
# From -- ./inp_files/28476.got.cif
#   From: 2010.05.17/outbox.cif.g08.bks.cpg/sg2_15_cif.got.tgz:28476.got - 2010.06.03 11:33:40.
