data_PCOD9069641
_publ_section_title
;
Structure prediction by ZEFSAII (Michael W. Deem and Ramdas Pophale) SiO2 
 PCOD9069641
Probable space group: P -1
;
_chemical_formula_sum "Si O2"
_cell_formula_units_Z 14
_cell_length_a 9.114685
_cell_length_b 12.223953
_cell_length_c 12.371079
_cell_angle_alpha 120.728996
_cell_angle_beta 144.301220
_cell_angle_gamma 46.444179
_cell_volume 579.017950
_symmetry_space_group_name_H-M "P -1"
_symmetry_group_IT_number 2
_symmetry_cell_setting 'triclinic'
loop_
_space_group_symop_operation_xyz
x,y,z
-x,-y,-z
loop_
_atom_site_type_symbol
_atom_site_label
_atom_site_fract_x
_atom_site_fract_y
_atom_site_fract_z
Si Si1 0.401111 0.551938 0.344025
Si Si2 0.694663 0.082327 0.966042
Si Si3 0.796052 0.329250 0.068642
Si Si4 0.222121 0.346798 0.496328
Si Si5 0.640148 0.227756 0.221007
Si Si6 0.346297 0.087732 0.564865
Si Si7 0.882879 0.776210 0.012145
O O1 0.500000 0.500000 0.500000
O O2 0.554238 0.637713 0.435761
O O3 0.525677 0.399086 0.271950
O O4 0.055629 0.673596 0.168728
O O5 0.515761 0.038067 0.755407
O O6 0.879963 0.929662 0.073073
O O7 0.811224 0.170150 0.009834
O O8 0.545006 0.209043 0.034943
O O9 0.032372 0.306522 0.288345
O O10 0.926849 0.326284 0.027855
O O11 0.500000 0.500000 0.000000
O O12 0.353652 0.235229 0.618568
O O13 0.000000 0.500000 0.500000
O O14 0.456162 0.183018 0.165580
O O15 0.004586 0.132178 0.394678
O O16 0.500000 0.000000 0.500000
#
# Coordination Sequence:
#
# PCOD9069641 Si02
#       7
#     2   2   2   2   2   2   2
#     4  12  28  49  80 112 158 207 267 329 396 468
#     4  12  27  51  79 115 162 208 262 324 396 476
#     4  12  25  46  81 114 158 209 261 323 389 472
#     4  12  23  46  73 114 146 200 262 321 383 463
#     4  12  28  52  76 115 161 207 265 326 398 471
#     4  12  28  48  83 115 159 202 265 324 400 474
#     4  12  28  50  76 115 158 208 265 327 399 467
#
# _framework density 24.17887
#
# number of rings (size 3 to 8) (size 9 to 14) (size 15 to 20)
#    0.000    0.000    2.857    6.429    6.000    0.571 
#    0.000    0.000    0.000    0.000    0.000    0.000 
#    0.000    0.000    0.000    0.000    0.000    0.000 
#
# Total GULP energy -78155.698933 kJ/mol
# GULP energy per Si atom -5582.549924 kJ/mol
# Density = 2.412384 g / cm^3
# Si number density = 24.178870 Si / 1000 Ang^3
#
#
#
# Elastic Constant Matrix: (Units=GPa)
#
#
# Indices 1 2 3 4 5 6 
#
# 1 144.9402 27.1622 57.4307 -15.8839 18.2925 -4.1518
# 2 27.1622 109.8515 47.3596 -5.3074 1.9122 -1.5992
# 3 57.4307 47.3596 151.6163 0.4688 -3.0750 -10.9190
# 4 -15.8839 -5.3074 0.4688 33.4654 4.0932 -7.5831
# 5 18.2925 1.9122 -3.0750 4.0932 51.2890 0.0015
# 6 -4.1518 -1.5992 -10.9190 -7.5831 0.0015 33.1494
#
#
#
# Elastic Compliance Matrix: (Units=1/GPa)
#
#
# Indices 1 2 3 4 5 6 
#
# 1 0.009467 -0.000522 -0.003431 0.005223 -0.003979 0.001225
# 2 -0.000522 0.010677 -0.003171 0.001497 -0.000521 -0.000252
# 3 -0.003431 -0.003171 0.009073 -0.002072 0.002051 0.001932
# 4 0.005223 0.001497 -0.002072 0.035045 -0.004840 0.008061
# 5 -0.003979 -0.000521 0.002051 -0.004840 0.021445 -0.000956
# 6 0.001225 -0.000252 0.001932 0.008061 -0.000956 0.032788
#
#
# Mechanical properties :
#
#
# Convention : Reuss Voigt Hill
#
# Bulk Modulus (GPa) = 66.80826 74.47922 70.64374
# Shear Modulus (GPa) = 36.30215 41.87780 39.08998
#
# Velocity S-wave (km/s) = 3.87899 4.16625 4.02518
# Velocity P-wave (km/s) = 6.91035 7.34941 7.13326
#
# Compressibility (1/GPa) = 0.01496821
#
# Stress axis : x y z
#
# Youngs Moduli (GPa) = 105.63510 93.65954 110.21754
#
# Poissons Ratio (x) = 0.04888 0.37820
# Poissons Ratio (y) = 0.05513 0.34948
# Poissons Ratio (z) = 0.36248 0.29698
#
# Static dielectric constant tensor:
#      x y z
#    x 1.965810 0.010010 0.042540 
#    y 0.010010 1.856930 -0.061390 
#    z 0.042540 -0.061390 1.995420 
# 
# From -- ./inp_files/392917.got.cif
#   From: 2010.05.17/outbox.cif.g08.bks.cpg/sg2_197_cif.got.tgz:392917.got - 2010.06.03 11:33:40.
