data_PCOD9069410
_publ_section_title
;
Structure prediction by ZEFSAII (Michael W. Deem and Ramdas Pophale) SiO2 
 PCOD9069410
Probable space group: P -1
;
_chemical_formula_sum "Si O2"
_cell_formula_units_Z 14
_cell_length_a 17.177210
_cell_length_b 9.602690
_cell_length_c 9.609904
_cell_angle_alpha 31.828021
_cell_angle_beta 118.667994
_cell_angle_gamma 108.148078
_cell_volume 717.475030
_symmetry_space_group_name_H-M "P -1"
_symmetry_group_IT_number 2
_symmetry_cell_setting 'triclinic'
loop_
_space_group_symop_operation_xyz
x,y,z
-x,-y,-z
loop_
_atom_site_type_symbol
_atom_site_label
_atom_site_fract_x
_atom_site_fract_y
_atom_site_fract_z
Si Si1 0.562221 0.221394 0.345722
Si Si2 0.839086 0.414081 0.085362
Si Si3 0.392607 0.072347 0.858832
Si Si4 0.718067 0.008983 0.438135
Si Si5 0.332247 0.693442 0.358283
Si Si6 0.874965 0.216364 0.961681
Si Si7 0.983410 0.599369 0.562244
O O1 0.646517 0.115048 0.406829
O O2 0.610786 0.268777 0.489834
O O3 0.500000 0.000000 0.500000
O O4 0.500000 0.500000 0.000000
O O5 0.779416 0.219857 0.268568
O O6 0.925434 0.411224 0.260503
O O7 0.863675 0.310931 0.034683
O O8 0.781458 0.719184 0.770362
O O9 0.360448 0.382644 0.605751
O O10 0.344422 0.024751 0.716518
O O11 0.500000 0.000000 0.000000
O O12 0.360990 0.883215 0.105616
O O13 0.223433 0.763879 0.209368
O O14 0.926995 0.410184 0.756166
O O15 0.928974 0.908608 0.258626
O O16 0.000000 0.500000 0.500000
#
# Coordination Sequence:
#
# PCOD9069410 Si02
#       7
#     2   2   2   2   2   2   2
#     4  12  27  46  66 100 141 185 224 277 342 395
#     4  12  25  46  69 103 135 178 223 278 341 396
#     4  12  23  43  69 100 134 175 229 278 324 394
#     4  12  24  44  69 100 137 179 227 277 334 402
#     4  12  25  43  71  99 135 179 224 275 336 396
#     4  12  24  48  70 101 137 175 225 274 342 396
#     4  12  28  44  74 102 136 176 221 277 335 411
#
# _framework density 19.512875000000001
#
# number of rings (size 3 to 8) (size 9 to 14) (size 15 to 20)
#    0.000    0.000    2.857    7.714    4.000    0.000 
#    0.000    0.000    0.000    0.000    0.000    0.000 
#    0.000    0.000    0.000    0.000    0.000    0.000 
#
# Total GULP energy -78368.721659 kJ/mol
# GULP energy per Si atom -5597.765833 kJ/mol
# Density = 1.946846 g / cm^3
# Si number density = 19.512875 Si / 1000 Ang^3
#
#
#
# Elastic Constant Matrix: (Units=GPa)
#
#
# Indices 1 2 3 4 5 6 
#
# 1 246.1846 180.7504 167.6095 6.8527 -15.8408 7.2663
# 2 180.7504 290.3861 176.4330 48.9118 -16.1994 -6.2031
# 3 167.6095 176.4330 270.2936 -1.0752 1.2409 -3.1556
# 4 6.8527 48.9118 -1.0752 44.4169 17.9117 5.2586
# 5 -15.8408 -16.1994 1.2409 17.9117 47.9567 1.6497
# 6 7.2663 -6.2031 -3.1556 5.2586 1.6497 58.1415
#
#
#
# Elastic Compliance Matrix: (Units=1/GPa)
#
#
# Indices 1 2 3 4 5 6 
#
# 1 0.009558 -0.005281 -0.002487 0.004642 -0.000217 -0.002307
# 2 -0.005281 0.014788 -0.006469 -0.020442 0.010935 0.003425
# 3 -0.002487 -0.006469 0.009533 0.010733 -0.007240 -0.000627
# 4 0.004642 -0.020442 0.010733 0.055952 -0.026324 -0.006492
# 5 -0.000217 0.010935 -0.007240 -0.026324 0.034418 0.002205
# 6 -0.002307 0.003425 -0.000627 -0.006492 0.002205 0.018344
#
#
# Mechanical properties :
#
#
# Convention : Reuss Voigt Hill
#
# Bulk Modulus (GPa) = 185.05453 206.27224 195.66339
# Shear Modulus (GPa) = 28.92356 48.90780 38.91568
#
# Velocity S-wave (km/s) = 3.85422 5.01186 4.47067
# Velocity P-wave (km/s) = 10.71679 11.80813 11.27568
#
# Compressibility (1/GPa) = 0.00540381
#
# Stress axis : x y z
#
# Youngs Moduli (GPa) = 104.62863 67.62145 104.89690
#
# Poissons Ratio (x) = 0.35714 0.26085
# Poissons Ratio (y) = 0.55260 0.67862
# Poissons Ratio (z) = 0.26018 0.43747
#
# Static dielectric constant tensor:
#      x y z
#    x 1.677470 -0.001320 0.013730 
#    y -0.001320 1.651350 0.006740 
#    z 0.013730 0.006740 1.641190 
# 
# From -- ./inp_files/49431.got.cif
#   From: 2010.05.17/outbox.cif.g08.bks.cpg/sg2_25_cif.got.tgz:49431.got - 2010.06.03 11:33:40.
