data_PCOD9069806
_publ_section_title
;
Structure prediction by ZEFSAII (Michael W. Deem and Ramdas Pophale) SiO2 
 PCOD9069806
Probable space group: P -1
;
_chemical_formula_sum "Si O2"
_cell_formula_units_Z 14
_cell_length_a 12.609817
_cell_length_b 9.653492
_cell_length_c 7.446440
_cell_angle_alpha 132.594787
_cell_angle_beta 117.481484
_cell_angle_gamma 74.445538
_cell_volume 590.635964
_symmetry_space_group_name_H-M "P -1"
_symmetry_group_IT_number 2
_symmetry_cell_setting 'triclinic'
loop_
_space_group_symop_operation_xyz
x,y,z
-x,-y,-z
loop_
_atom_site_type_symbol
_atom_site_label
_atom_site_fract_x
_atom_site_fract_y
_atom_site_fract_z
Si Si1 0.094238 0.086891 0.384320
Si Si2 0.995060 0.719765 0.843885
Si Si3 0.429268 0.615185 0.812989
Si Si4 0.898568 0.558416 0.105315
Si Si5 0.357390 0.626154 0.351775
Si Si6 0.728004 0.733549 0.581475
Si Si7 0.520140 0.968046 0.775611
O O1 0.996767 0.173180 0.247337
O O2 0.100763 0.217110 0.677105
O O3 0.220247 0.136191 0.425695
O O4 0.057841 0.868144 0.164372
O O5 0.852087 0.692107 0.742500
O O6 0.063088 0.531657 0.753181
O O7 0.371106 0.631994 0.583982
O O8 0.551359 0.517832 0.782996
O O9 0.340395 0.461315 0.707201
O O10 0.455563 0.821584 0.097892
O O11 0.773115 0.456267 0.868529
O O12 0.000000 0.500000 0.000000
O O13 0.405450 0.834528 0.506747
O O14 0.634389 0.845145 0.721761
O O15 0.500000 0.000000 0.000000
#
# Coordination Sequence:
#
# PCOD9069806 Si02
#       7
#     2   2   2   2   2   2   2
#     4   9  22  41  59  85 120 160 198 232 289 357
#     4   9  21  41  61  85 120 157 198 236 289 354
#     4   9  17  35  60  79 114 154 188 241 285 341
#     4  12  24  37  60  92 121 152 192 243 301 344
#     4   9  20  35  51  87 119 145 192 236 292 346
#     4   9  18  34  59  85 105 146 205 231 275 345
#     4   9  18  32  55  82 110 149 193 235 283 339
#
# _framework density 23.703261999999999
#
# number of rings (size 3 to 8) (size 9 to 14) (size 15 to 20)
#    0.857    1.714    0.000    2.143    0.000    6.286 
#    0.000    2.857    0.000    5.143    0.000    0.000 
#    0.000    0.000    0.000    0.000    0.000    0.000 
#
# Total GULP energy -78173.959359 kJ/mol
# GULP energy per Si atom -5583.854240 kJ/mol
# Density = 2.364931 g / cm^3
# Si number density = 23.703262 Si / 1000 Ang^3
#
#
#
# Elastic Constant Matrix: (Units=GPa)
#
#
# Indices 1 2 3 4 5 6 
#
# 1 98.1982 -7.1379 37.2611 -3.3671 10.5932 -0.3991
# 2 -7.1379 44.4450 19.7049 10.8696 2.1688 3.6925
# 3 37.2611 19.7049 135.1378 30.4141 14.5075 -4.8957
# 4 -3.3671 10.8696 30.4141 43.8233 1.1652 0.7759
# 5 10.5932 2.1688 14.5075 1.1652 30.0918 0.8905
# 6 -0.3991 3.6925 -4.8957 0.7759 0.8905 23.9278
#
#
#
# Elastic Compliance Matrix: (Units=1/GPa)
#
#
# Indices 1 2 3 4 5 6 
#
# 1 0.012509 0.003407 -0.004455 0.003299 -0.002592 -0.001239
# 2 0.003407 0.026087 -0.004086 -0.003268 -0.000845 -0.004667
# 3 -0.004455 -0.004086 0.011316 -0.007149 -0.003412 0.003230
# 4 0.003299 -0.003268 -0.007149 0.028839 0.001460 -0.001893
# 5 -0.002592 -0.000845 -0.003412 0.001460 0.035852 -0.001993
# 6 -0.001239 -0.004667 0.003230 -0.001893 -0.001993 0.043289
#
#
# Mechanical properties :
#
#
# Convention : Reuss Voigt Hill
#
# Bulk Modulus (GPa) = 25.22473 41.93744 33.58108
# Shear Modulus (GPa) = 27.56721 34.76543 31.16632
#
# Velocity S-wave (km/s) = 3.41400 3.83390 3.63003
# Velocity P-wave (km/s) = 5.11913 6.10979 5.63626
#
# Compressibility (1/GPa) = 0.03964364
#
# Stress axis : x y z
#
# Youngs Moduli (GPa) = 79.94077 38.33393 88.36886
#
# Poissons Ratio (x) = -0.13060 0.39367
# Poissons Ratio (y) = -0.27234 0.36108
# Poissons Ratio (z) = 0.35613 0.15664
#
# Static dielectric constant tensor:
#      x y z
#    x 1.863820 0.068210 -0.028050 
#    y 0.068210 1.990860 -0.036230 
#    z -0.028050 -0.036230 1.923750 
# 
# From -- ./inp_files/261194.got.cif
#   From: 2010.05.17/outbox.cif.g08.bks.cpg/sg2_131_cif.got.tgz:261194.got - 2010.06.03 11:33:40.
