data_PCOD9069725
_publ_section_title
;
Structure prediction by ZEFSAII (Michael W. Deem and Ramdas Pophale) SiO2 
 PCOD9069725
Probable space group: P -1
;
_chemical_formula_sum "Si O2"
_cell_formula_units_Z 14
_cell_length_a 9.705338
_cell_length_b 9.288356
_cell_length_c 12.007315
_cell_angle_alpha 91.855769
_cell_angle_beta 130.704309
_cell_angle_gamma 117.433280
_cell_volume 632.938554
_symmetry_space_group_name_H-M "P -1"
_symmetry_group_IT_number 2
_symmetry_cell_setting 'triclinic'
loop_
_space_group_symop_operation_xyz
x,y,z
-x,-y,-z
loop_
_atom_site_type_symbol
_atom_site_label
_atom_site_fract_x
_atom_site_fract_y
_atom_site_fract_z
Si Si1 0.090761 0.934763 0.253108
Si Si2 0.526020 0.080206 0.892496
Si Si3 0.768032 0.473988 0.358409
Si Si4 0.448550 0.306845 0.984217
Si Si5 0.982468 0.317262 0.993795
Si Si6 0.905039 0.104809 0.496131
Si Si7 0.608516 0.643713 0.663313
O O1 0.186281 0.945517 0.426584
O O2 0.238968 0.141636 0.288044
O O3 0.072272 0.791015 0.154857
O O4 0.823500 0.851537 0.133291
O O5 0.299706 0.938881 0.692603
O O6 0.520988 0.249945 0.915375
O O7 0.768025 0.167277 0.960066
O O8 0.500000 0.000000 0.000000
O O9 0.606616 0.335259 0.171158
O O10 0.608750 0.408998 0.380489
O O11 0.000000 0.500000 0.500000
O O12 0.868513 0.679440 0.382201
O O13 0.500000 0.500000 0.000000
O O14 0.222127 0.371576 0.172484
O O15 0.000000 0.500000 0.000000
O O16 0.000000 0.000000 0.500000
O O17 0.500000 0.500000 0.500000
#
# Coordination Sequence:
#
# PCOD9069725 Si02
#       7
#     2   2   2   2   2   2   2
#     4  12  26  51  80 108 158 208 253 314 391 448
#     4  12  28  47  76 110 150 193 258 311 376 461
#     4  12  28  46  75 109 147 197 258 312 377 454
#     4  12  23  47  77 105 146 200 254 306 374 456
#     4  12  30  50  77 114 156 204 255 315 390 455
#     4  12  26  48  79 110 149 201 257 313 378 457
#     4  12  30  49  76 112 159 199 256 322 384 452
#
# _framework density 22.119050000000001
#
# number of rings (size 3 to 8) (size 9 to 14) (size 15 to 20)
#    0.000    0.000    4.286    3.857   12.000    0.571 
#    0.000    0.000    0.000    0.000    0.000    0.000 
#    0.000    0.000    0.000    0.000    0.000    0.000 
#
# Total GULP energy -78425.535405 kJ/mol
# GULP energy per Si atom -5601.823958 kJ/mol
# Density = 2.206871 g / cm^3
# Si number density = 22.119050 Si / 1000 Ang^3
#
#
#
# Elastic Constant Matrix: (Units=GPa)
#
#
# Indices 1 2 3 4 5 6 
#
# 1 149.0703 32.2231 57.6490 -4.2018 -0.6850 5.3484
# 2 32.2231 124.1392 37.2738 -1.0805 -9.3091 -0.2921
# 3 57.6490 37.2738 159.2405 -21.5339 -12.3032 -6.3884
# 4 -4.2018 -1.0805 -21.5339 35.0979 -3.5747 -8.6448
# 5 -0.6850 -9.3091 -12.3032 -3.5747 50.9805 9.5593
# 6 5.3484 -0.2921 -6.3884 -8.6448 9.5593 35.7504
#
#
#
# Elastic Compliance Matrix: (Units=1/GPa)
#
#
# Indices 1 2 3 4 5 6 
#
# 1 0.008162 -0.001287 -0.002969 -0.001423 -0.000576 -0.001952
# 2 -0.001287 0.008982 -0.001689 -0.000933 0.001262 -0.000599
# 3 -0.002969 -0.001689 0.008792 0.005889 0.001626 0.002991
# 4 -0.001423 -0.000933 0.005889 0.034330 0.001944 0.009039
# 5 -0.000576 0.001262 0.001626 0.001944 0.021273 -0.004831
# 6 -0.001952 -0.000599 0.002991 0.009039 -0.004831 0.032271
#
#
# Mechanical properties :
#
#
# Convention : Reuss Voigt Hill
#
# Bulk Modulus (GPa) = 71.19788 76.30464 73.75126
# Shear Modulus (GPa) = 38.34908 44.71936 41.53422
#
# Velocity S-wave (km/s) = 4.16836 4.50127 4.33801
# Velocity P-wave (km/s) = 7.44482 7.84777 7.64895
#
# Compressibility (1/GPa) = 0.01404536
#
# Stress axis : x y z
#
# Youngs Moduli (GPa) = 122.52060 111.33517 113.74160
#
# Poissons Ratio (x) = 0.14333 0.33767
# Poissons Ratio (y) = 0.15773 0.19211
# Poissons Ratio (z) = 0.36373 0.18805
#
# Static dielectric constant tensor:
#      x y z
#    x 1.765320 0.004960 -0.017230 
#    y 0.004960 1.841620 -0.038440 
#    z -0.017230 -0.038440 1.823600 
# 
# From -- ./inp_files/379756.got.cif
#   From: 2010.05.17/outbox.cif.g08.bks.cpg/sg2_190_cif.got.tgz:379756.got - 2010.06.03 11:33:40.
