data_PCOD9069077
_publ_section_title
;
Structure prediction by ZEFSAII (Michael W. Deem and Ramdas Pophale) SiO2 
 PCOD9069077
Probable space group: P -1
;
_chemical_formula_sum "Si O2"
_cell_formula_units_Z 10
_cell_length_a 5.060933
_cell_length_b 12.892592
_cell_length_c 13.072502
_cell_angle_alpha 146.101204
_cell_angle_beta 134.817202
_cell_angle_gamma 54.541039
_cell_volume 337.430487
_symmetry_space_group_name_H-M "P -1"
_symmetry_group_IT_number 2
_symmetry_cell_setting 'triclinic'
loop_
_space_group_symop_operation_xyz
x,y,z
-x,-y,-z
loop_
_atom_site_type_symbol
_atom_site_label
_atom_site_fract_x
_atom_site_fract_y
_atom_site_fract_z
Si Si1 0.752840 0.379898 0.554178
Si Si2 0.732095 0.408916 0.269833
Si Si3 0.577025 0.124977 0.722746
Si Si4 0.876358 0.535254 0.114084
Si Si5 0.594452 0.968048 0.171198
O O1 0.500000 0.500000 0.500000
O O2 0.692347 0.530503 0.764504
O O3 0.543974 0.182955 0.311349
O O4 0.995712 0.273661 0.638683
O O5 0.841744 0.532721 0.303648
O O6 0.000000 0.500000 0.500000
O O7 0.705778 0.189020 0.075785
O O8 0.500000 0.000000 0.500000
O O9 0.394617 0.075299 0.740246
O O10 0.595831 0.355884 0.917637
O O11 0.021435 0.084310 0.821939
O O12 0.000000 0.500000 0.000000
#
# Coordination Sequence:
#
# PCOD9069077 Si02
#       5
#     2   2   2   2   2
#     4  12  25  40  67  92 119 164 202 249 304 365
#     4  12  25  45  64  87 123 158 203 263 308 348
#     4   9  21  37  62  90 127 162 191 247 290 360
#     4   8  18  39  60  90 124 163 199 235 299 362
#     4  12  22  42  63  92 125 157 207 244 304 361
#
# _framework density 29.635729999999999
#
# number of rings (size 3 to 8) (size 9 to 14) (size 15 to 20)
#    1.200    0.000    4.000    1.800    0.000    8.000 
#    0.000    0.000    0.000    0.000    0.000    0.000 
#    0.000    0.000    0.000    0.000    0.000    0.000 
#
# Total GULP energy -55712.775744 kJ/mol
# GULP energy per Si atom -5571.277574 kJ/mol
# Density = 2.956828 g / cm^3
# Si number density = 29.635730 Si / 1000 Ang^3
#
#
#
# Elastic Constant Matrix: (Units=GPa)
#
#
# Indices 1 2 3 4 5 6 
#
# 1 162.7147 33.4601 49.1596 14.6428 -1.8227 19.8036
# 2 33.4601 185.8338 140.4041 42.5583 -17.4689 7.4268
# 3 49.1596 140.4041 301.7943 24.7015 8.7420 -23.2204
# 4 14.6428 42.5583 24.7015 108.3467 -10.1465 8.5718
# 5 -1.8227 -17.4689 8.7420 -10.1465 64.7477 3.3311
# 6 19.8036 7.4268 -23.2204 8.5718 3.3311 41.4621
#
#
#
# Elastic Compliance Matrix: (Units=1/GPa)
#
#
# Indices 1 2 3 4 5 6 
#
# 1 0.007143 0.000218 -0.001595 -0.000283 0.000654 -0.004338
# 2 0.000218 0.010120 -0.005009 -0.002195 0.003302 -0.004534
# 3 -0.001595 -0.005009 0.006389 0.000060 -0.002529 0.005428
# 4 -0.000283 -0.002195 0.000060 0.010351 0.001100 -0.001666
# 5 0.000654 0.003302 -0.002529 0.001100 0.017069 -0.003919
# 6 -0.004338 -0.004534 0.005428 -0.001666 -0.003919 0.030702
#
#
# Mechanical properties :
#
#
# Convention : Reuss Voigt Hill
#
# Bulk Modulus (GPa) = 91.88535 121.82115 106.85325
# Shear Modulus (GPa) = 50.93036 71.39924 61.16480
#
# Velocity S-wave (km/s) = 4.15003 4.91371 4.54793
# Velocity P-wave (km/s) = 7.35091 8.56669 7.98198
#
# Compressibility (1/GPa) = 0.01088313
#
# Stress axis : x y z
#
# Youngs Moduli (GPa) = 139.98879 98.81079 156.50743
#
# Poissons Ratio (x) = -0.02158 0.24959
# Poissons Ratio (y) = -0.03058 0.78390
# Poissons Ratio (z) = 0.22325 0.49491
#
# Static dielectric constant tensor:
#      x y z
#    x 2.979570 -0.349450 0.161590 
#    y -0.349450 2.316620 -0.055960 
#    z 0.161590 -0.055960 2.115360 
# 
# From -- ./inp_files/363565.got.cif
#   From: 2010.05.17/outbox.cif.g08.bks.cpg/sg2_182_cif.got.tgz:363565.got - 2010.06.03 11:33:40.
