data_PCOD9069437
_publ_section_title
;
Structure prediction by ZEFSAII (Michael W. Deem and Ramdas Pophale) SiO2 
 PCOD9069437
Probable space group: P -1
;
_chemical_formula_sum "Si O2"
_cell_formula_units_Z 16
_cell_length_a 10.134039
_cell_length_b 17.581437
_cell_length_c 6.711679
_cell_angle_alpha 126.620051
_cell_angle_beta 70.912068
_cell_angle_gamma 131.326129
_cell_volume 716.308902
_symmetry_space_group_name_H-M "P -1"
_symmetry_group_IT_number 2
_symmetry_cell_setting 'triclinic'
loop_
_space_group_symop_operation_xyz
x,y,z
-x,-y,-z
loop_
_atom_site_type_symbol
_atom_site_label
_atom_site_fract_x
_atom_site_fract_y
_atom_site_fract_z
Si Si1 0.166557 0.109996 0.206498
Si Si2 0.120502 0.934523 0.264430
Si Si3 0.794907 0.394396 0.462399
Si Si4 0.061580 0.263591 0.629816
Si Si5 0.473224 0.719419 0.941507
Si Si6 0.472562 0.082202 0.522042
Si Si7 0.625402 0.469881 0.986137
Si Si8 0.781091 0.178054 0.286883
O O1 0.157233 0.218961 0.395478
O O2 0.353316 0.174256 0.102931
O O3 0.127808 0.042720 0.332069
O O4 0.000000 0.000000 0.000000
O O5 0.984946 0.808779 0.251501
O O6 0.268159 0.010965 0.478746
O O7 0.171697 0.890882 0.981257
O O8 0.683647 0.359203 0.260131
O O9 0.695268 0.420805 0.714095
O O10 0.809146 0.290354 0.348857
O O11 0.000000 0.500000 0.500000
O O12 0.893008 0.219404 0.504062
O O13 0.197890 0.405412 0.821423
O O14 0.439161 0.791893 0.221221
O O15 0.479597 0.629872 0.942109
O O16 0.571539 0.097759 0.296534
O O17 0.500000 0.000000 0.500000
O O18 0.500000 0.500000 0.000000
#
# Coordination Sequence:
#
# PCOD9069437 Si02
#       8
#     2   2   2   2   2   2   2   2
#     4  12  26  48  76 109 151 200 249 308 384 454
#     4  12  25  45  73 109 147 193 244 311 379 449
#     4  12  27  48  78 108 150 198 255 314 375 443
#     4  12  27  46  74 107 147 194 254 305 370 452
#     4  12  28  50  74 109 154 193 255 315 369 454
#     4  12  23  43  73 106 148 187 236 307 378 439
#     4  12  30  50  76 108 150 208 256 310 377 444
#     4  12  24  44  71 110 143 188 245 301 379 445
#
# _framework density 22.336732999999999
#
# number of rings (size 3 to 8) (size 9 to 14) (size 15 to 20)
#    0.000    0.000    3.750    6.000    5.250    4.000 
#    0.000    0.000    0.000    0.000    0.000    0.000 
#    0.000    0.000    0.000    0.000    0.000    0.000 
#
# Total GULP energy -89266.697288 kJ/mol
# GULP energy per Si atom -5579.168581 kJ/mol
# Density = 2.228589 g / cm^3
# Si number density = 22.336733 Si / 1000 Ang^3
#
#
#
# Elastic Constant Matrix: (Units=GPa)
#
#
# Indices 1 2 3 4 5 6 
#
# 1 81.3955 16.8295 16.4320 -2.6610 19.2020 -19.2606
# 2 16.8295 113.2371 8.5998 -7.7787 22.4328 -16.0915
# 3 16.4320 8.5998 92.3554 21.3514 12.5412 0.8375
# 4 -2.6610 -7.7787 21.3514 33.2153 -1.6090 -5.4407
# 5 19.2020 22.4328 12.5412 -1.6090 35.8285 -0.7746
# 6 -19.2606 -16.0915 0.8375 -5.4407 -0.7746 51.9888
#
#
#
# Elastic Compliance Matrix: (Units=1/GPa)
#
#
# Indices 1 2 3 4 5 6 
#
# 1 0.016251 0.000533 -0.002869 0.003967 -0.007720 0.006532
# 2 0.000533 0.010922 -0.001105 0.003632 -0.006490 0.003879
# 3 -0.002869 -0.001105 0.014292 -0.010288 -0.003295 -0.002761
# 4 0.003967 0.003632 -0.010288 0.039066 0.001104 0.006864
# 5 -0.007720 -0.006490 -0.003295 0.001104 0.037225 -0.004146
# 6 0.006532 0.003879 -0.002761 0.006864 -0.004146 0.023557
#
#
# Mechanical properties :
#
#
# Convention : Reuss Voigt Hill
#
# Bulk Modulus (GPa) = 28.91706 41.19008 35.05357
# Shear Modulus (GPa) = 31.30403 40.54829 35.92616
#
# Velocity S-wave (km/s) = 3.74767 4.26528 4.01482
# Velocity P-wave (km/s) = 5.63034 6.53738 6.10074
#
# Compressibility (1/GPa) = 0.03458167
#
# Stress axis : x y z
#
# Youngs Moduli (GPa) = 61.53379 91.55579 69.96946
#
# Poissons Ratio (x) = -0.04876 0.20075
# Poissons Ratio (y) = -0.03277 0.07734
# Poissons Ratio (z) = 0.17655 0.10120
#
# Static dielectric constant tensor:
#      x y z
#    x 1.738500 -0.032350 -0.042820 
#    y -0.032350 1.804020 -0.052730 
#    z -0.042820 -0.052730 1.804010 
# 
# From -- ./inp_files/81576.got.cif
#   From: 2010.05.17/outbox.cif.g08.bks.cpg/sg2_41_cif.got.tgz:81576.got - 2010.06.03 11:33:40.
