data_PCOD9069395
_publ_section_title
;
Structure prediction by ZEFSAII (Michael W. Deem and Ramdas Pophale) SiO2 
 PCOD9069395
Probable space group: P -1
;
_chemical_formula_sum "Si O2"
_cell_formula_units_Z 14
_cell_length_a 10.157110
_cell_length_b 9.640241
_cell_length_c 20.977633
_cell_angle_alpha 147.422077
_cell_angle_beta 34.824103
_cell_angle_gamma 123.409134
_cell_volume 561.132848
_symmetry_space_group_name_H-M "P -1"
_symmetry_group_IT_number 2
_symmetry_cell_setting 'triclinic'
loop_
_space_group_symop_operation_xyz
x,y,z
-x,-y,-z
loop_
_atom_site_type_symbol
_atom_site_label
_atom_site_fract_x
_atom_site_fract_y
_atom_site_fract_z
Si Si1 0.395252 0.588858 0.649764
Si Si2 0.709414 0.917140 0.019887
Si Si3 0.807069 0.714494 0.711709
Si Si4 0.968815 0.388721 0.783805
Si Si5 0.897619 0.142014 0.266496
Si Si6 0.236279 0.348326 0.896465
Si Si7 0.829583 0.198662 0.584539
O O1 0.500000 0.500000 0.500000
O O2 0.299834 0.901315 0.842383
O O3 0.212939 0.449903 0.692920
O O4 0.685812 0.414500 0.494754
O O5 0.469409 0.109314 0.144638
O O6 0.744534 0.604776 0.907990
O O7 0.967191 0.847430 0.849513
O O8 0.000000 0.500000 0.500000
O O9 0.871943 0.958663 0.812524
O O10 0.838437 0.490525 0.670943
O O11 0.055154 0.050873 0.611929
O O12 0.868790 0.503380 0.937331
O O13 0.746648 0.965821 0.238726
O O14 0.524096 0.302718 0.753197
O O15 0.000000 0.500000 0.000000
O O16 0.000000 0.000000 0.500000
#
# Coordination Sequence:
#
# PCOD9069395 Si02
#       7
#     2   2   2   2   2   2   2
#     4  12  23  42  76 115 153 196 262 328 385 463
#     4  12  25  46  77 120 155 204 269 320 402 475
#     4  12  29  51  81 114 161 213 260 328 402 478
#     4  12  27  47  83 116 154 207 267 329 398 469
#     4  12  24  47  78 109 153 205 263 318 387 478
#     4  12  29  49  82 116 160 211 267 331 399 470
#     4  12  31  55  77 118 168 207 260 333 406 469
#
# _framework density 24.949528999999998
#
# number of rings (size 3 to 8) (size 9 to 14) (size 15 to 20)
#    0.000    0.000    5.714    3.429    4.000    2.286 
#    0.000    0.000    0.000    0.000    0.000    0.000 
#    0.000    0.000    0.000    0.000    0.000    0.000 
#
# Total GULP energy -78143.343025 kJ/mol
# GULP energy per Si atom -5581.667359 kJ/mol
# Density = 2.489274 g / cm^3
# Si number density = 24.949529 Si / 1000 Ang^3
#
#
#
# Elastic Constant Matrix: (Units=GPa)
#
#
# Indices 1 2 3 4 5 6 
#
# 1 92.6848 19.2857 17.4932 -3.0975 9.0926 -4.7445
# 2 19.2857 64.6538 28.2990 1.9228 -10.4373 -5.8910
# 3 17.4932 28.2990 164.0933 2.4571 6.2694 -4.2278
# 4 -3.0975 1.9228 2.4571 32.7499 -9.9460 -2.5596
# 5 9.0926 -10.4373 6.2694 -9.9460 45.1659 11.5272
# 6 -4.7445 -5.8910 -4.2278 -2.5596 11.5272 38.8390
#
#
#
# Elastic Compliance Matrix: (Units=1/GPa)
#
#
# Indices 1 2 3 4 5 6 
#
# 1 0.012153 -0.003858 -0.000445 0.000445 -0.003682 0.001973
# 2 -0.003858 0.018877 -0.003052 0.000477 0.005555 0.000443
# 3 -0.000445 -0.003052 0.006775 -0.000904 -0.001943 0.000737
# 4 0.000445 0.000477 -0.000904 0.032858 0.007381 0.000003
# 5 -0.003682 0.005555 -0.001943 0.007381 0.028012 -0.007646
# 6 0.001973 0.000443 0.000737 0.000003 -0.007646 0.028405
#
#
# Mechanical properties :
#
#
# Convention : Reuss Voigt Hill
#
# Bulk Modulus (GPa) = 43.30257 50.17641 46.73949
# Shear Modulus (GPa) = 33.44734 40.44123 36.94429
#
# Velocity S-wave (km/s) = 3.66539 4.03044 3.85224
# Velocity P-wave (km/s) = 5.94199 6.46638 6.20972
#
# Compressibility (1/GPa) = 0.02309332
#
# Stress axis : x y z
#
# Youngs Moduli (GPa) = 82.28291 52.97573 147.60806
#
# Poissons Ratio (x) = 0.20439 0.06575
# Poissons Ratio (y) = 0.31746 0.45051
# Poissons Ratio (z) = 0.03665 0.16169
#
# Static dielectric constant tensor:
#      x y z
#    x 2.037790 0.431930 0.186280 
#    y 0.431930 6.758380 1.456520 
#    z 0.186280 1.456520 2.276200 
# 
# From -- ./inp_files/594226.got.cif
#   From: 2010.05.17/outbox.cif.g08.bks.cpg/sg2_298_cif.got.tgz:594226.got - 2010.06.03 11:33:40.
