data_PCOD9069049
_publ_section_title
;
Structure prediction by ZEFSAII (Michael W. Deem and Ramdas Pophale) SiO2 
 PCOD9069049
Probable space group: P -1
;
_chemical_formula_sum "Si O2"
_cell_formula_units_Z 12
_cell_length_a 11.996356
_cell_length_b 7.752270
_cell_length_c 14.448690
_cell_angle_alpha 31.249253
_cell_angle_beta 40.888676
_cell_angle_gamma 50.490275
_cell_volume 456.092871
_symmetry_space_group_name_H-M "P -1"
_symmetry_group_IT_number 2
_symmetry_cell_setting 'triclinic'
loop_
_space_group_symop_operation_xyz
x,y,z
-x,-y,-z
loop_
_atom_site_type_symbol
_atom_site_label
_atom_site_fract_x
_atom_site_fract_y
_atom_site_fract_z
Si Si1 0.583878 0.734428 0.416963
Si Si2 0.860311 0.146626 0.121205
Si Si3 0.403569 0.421143 0.821773
Si Si4 0.801293 0.857330 0.776898
Si Si5 0.647273 0.717261 0.754195
Si Si6 0.153941 0.866049 0.188150
O O1 0.500000 0.500000 0.500000
O O2 0.572073 0.531550 0.613521
O O3 0.770508 0.901387 0.215794
O O4 0.455481 0.038282 0.357463
O O5 0.713135 0.263309 0.230976
O O6 0.900325 0.507933 0.884039
O O7 0.997498 0.965790 0.177854
O O8 0.386369 0.235093 0.016265
O O9 0.293855 0.164817 0.945331
O O10 0.762131 0.917103 0.667674
O O11 0.878942 0.099442 0.695983
O O12 0.766184 0.474746 0.734984
O O13 0.500000 0.500000 0.000000
#
# Coordination Sequence:
#
# PCOD9069049 Si02
#       6
#     2   2   2   2   2   2
#     4  12  24  41  61  96 130 167 206 263 319 373
#     4   9  19  41  67  90 122 171 212 248 317 378
#     4   8  19  40  65  92 123 165 209 256 315 372
#     4   8  20  39  68  95 119 163 218 252 309 372
#     4  12  22  41  63  98 128 163 214 261 309 377
#     4   9  21  42  71  90 122 168 217 258 303 377
#
# _framework density 26.31043
#
# number of rings (size 3 to 8) (size 9 to 14) (size 15 to 20)
#    2.000    0.000    1.667    3.500    0.000    1.333 
#    9.000    1.667    0.000    0.000    0.000    0.000 
#    0.000    0.000    0.000    0.000    0.000    0.000 
#
# Total GULP energy -67012.344763 kJ/mol
# GULP energy per Si atom -5584.362064 kJ/mol
# Density = 2.625055 g / cm^3
# Si number density = 26.310430 Si / 1000 Ang^3
#
#
#
# Elastic Constant Matrix: (Units=GPa)
#
#
# Indices 1 2 3 4 5 6 
#
# 1 198.8430 78.2622 19.7765 -20.8198 -13.1757 -13.7226
# 2 78.2622 118.1955 19.2172 -26.7248 -15.1205 -3.5507
# 3 19.7765 19.2172 57.1421 -7.7132 2.6554 10.2758
# 4 -20.8198 -26.7248 -7.7132 18.5247 7.5721 7.8226
# 5 -13.1757 -15.1205 2.6554 7.5721 31.0884 -7.0834
# 6 -13.7226 -3.5507 10.2758 7.8226 -7.0834 42.5247
#
#
#
# Elastic Compliance Matrix: (Units=1/GPa)
#
#
# Indices 1 2 3 4 5 6 
#
# 1 0.007129 -0.004314 -0.001751 -0.000950 0.001956 0.002864
# 2 -0.004314 0.015584 -0.000703 0.018463 0.000580 -0.003221
# 3 -0.001751 -0.000703 0.022503 0.014269 -0.008794 -0.010151
# 4 -0.000950 0.018463 0.014269 0.106406 -0.024450 -0.025859
# 5 0.001956 0.000580 -0.008794 -0.024450 0.043291 0.014514
# 6 0.002864 -0.003221 -0.010151 -0.025859 0.014514 0.033798
#
#
# Mechanical properties :
#
#
# Convention : Reuss Voigt Hill
#
# Bulk Modulus (GPa) = 31.56619 67.63248 49.59934
# Shear Modulus (GPa) = 19.77791 35.55586 27.66689
#
# Velocity S-wave (km/s) = 2.74471 3.68012 3.24629
# Velocity P-wave (km/s) = 4.69769 6.61960 5.73966
#
# Compressibility (1/GPa) = 0.03167946
#
# Stress axis : x y z
#
# Youngs Moduli (GPa) = 140.27057 64.16973 44.43897
#
# Poissons Ratio (x) = 0.27684 0.07779
# Poissons Ratio (y) = 0.60516 0.03125
# Poissons Ratio (z) = 0.24555 0.04513
#
# Static dielectric constant tensor:
#      x y z
#    x 2.061210 0.058470 -0.053080 
#    y 0.058470 2.078200 -0.003570 
#    z -0.053080 -0.003570 2.094030 
# 
# From -- ./inp_files/295369.got.cif
#   From: 2010.05.17/outbox.cif.g08.bks.cpg/sg2_148_cif.got.tgz:295369.got - 2010.06.03 11:33:40.
