data_PCOD9069237
_publ_section_title
;
Structure prediction by ZEFSAII (Michael W. Deem and Ramdas Pophale) SiO2 
 PCOD9069237
Probable space group: P -1
;
_chemical_formula_sum "Si O2"
_cell_formula_units_Z 15
_cell_length_a 13.564489
_cell_length_b 22.631480
_cell_length_c 16.799360
_cell_angle_alpha 19.051347
_cell_angle_beta 154.872049
_cell_angle_gamma 153.155786
_cell_volume 689.647312
_symmetry_space_group_name_H-M "P -1"
_symmetry_group_IT_number 2
_symmetry_cell_setting 'triclinic'
loop_
_space_group_symop_operation_xyz
x,y,z
-x,-y,-z
loop_
_atom_site_type_symbol
_atom_site_label
_atom_site_fract_x
_atom_site_fract_y
_atom_site_fract_z
Si Si1 0.500000 0.500000 0.500000
Si Si2 0.639247 0.841761 0.289621
Si Si3 0.023920 0.887198 0.914346
Si Si4 0.200353 0.190809 0.383876
Si Si5 0.631409 0.124621 0.678363
Si Si6 0.944221 0.431883 0.237720
Si Si7 0.600251 0.058831 0.411148
Si Si8 0.227037 0.530186 0.763557
O O1 0.537832 0.684657 0.350505
O O2 0.788003 0.572138 0.586616
O O3 0.659684 0.750224 0.505841
O O4 0.888139 0.973717 0.271596
O O5 0.500000 0.000000 0.000000
O O6 0.214811 0.939295 0.059106
O O7 0.772412 0.921935 0.705783
O O8 0.969669 0.667801 0.136972
O O9 0.388189 0.151447 0.507158
O O10 0.086635 0.359028 0.063644
O O11 0.000000 0.000000 0.500000
O O12 0.773907 0.325502 0.491701
O O13 0.570138 0.988035 0.731091
O O14 0.755734 0.274349 0.249368
O O15 0.851371 0.386641 0.318157
O O16 0.500000 0.000000 0.500000
O O17 0.500000 0.500000 0.000000
#
# Coordination Sequence:
#
# PCOD9069237 Si02
#       8
#     1   2   2   2   2   2   2   2
#     4  12  28  46  74 110 152 204 250 312 386 458
#     4  12  25  49  73 106 150 195 254 316 374 453
#     4  12  25  47  74 103 146 194 251 315 375 457
#     4  12  26  45  75 107 141 200 254 310 383 459
#     4  12  26  45  78 108 142 197 256 308 386 465
#     4  12  26  47  76 107 152 199 249 319 387 457
#     4  12  25  49  71 107 156 193 242 319 385 455
#     4  12  22  47  76 108 145 195 254 315 385 455
#
# _framework density 21.750247000000002
#
# number of rings (size 3 to 8) (size 9 to 14) (size 15 to 20)
#    0.000    0.000    6.667    3.600    0.000    2.133 
#    0.000    0.000    0.000    0.000    0.000    0.000 
#    0.000    0.000    0.000    0.000    0.000    0.000 
#
# Total GULP energy -83557.313743 kJ/mol
# GULP energy per Si atom -5570.487583 kJ/mol
# Density = 2.170074 g / cm^3
# Si number density = 21.750247 Si / 1000 Ang^3
#
#
#
# Elastic Constant Matrix: (Units=GPa)
#
#
# Indices 1 2 3 4 5 6 
#
# 1 97.4035 21.2188 -7.1776 7.3095 -34.2366 -15.0611
# 2 21.2188 114.4139 -9.2331 -23.8300 -16.1524 -22.6747
# 3 -7.1776 -9.2331 29.0432 -0.3005 -36.3278 -13.9272
# 4 7.3095 -23.8300 -0.3005 45.7615 5.5081 2.0130
# 5 -34.2366 -16.1524 -36.3278 5.5081 -0.5635 -10.1002
# 6 -15.0611 -22.6747 -13.9272 2.0130 -10.1002 34.2170
#
#
#
# Elastic Compliance Matrix: (Units=1/GPa)
#
#
# Indices 1 2 3 4 5 6 
#
# 1 0.008804 -0.003879 -0.006233 -0.002785 -0.004765 -0.002475
# 2 -0.003879 0.010838 -0.001048 0.006611 -0.004192 0.003422
# 3 -0.006233 -0.001048 0.008491 0.002813 -0.017255 -0.005241
# 4 -0.002785 0.006611 0.002813 0.025655 -0.000146 0.002748
# 5 -0.004765 -0.004192 -0.017255 -0.000146 -0.006494 -0.013807
# 6 -0.002475 0.003422 -0.005241 0.002748 -0.013807 0.024033
#
#
# Mechanical properties :
#
#
# Convention : Reuss Voigt Hill
#
# Bulk Modulus (GPa) = 171.97286 27.83076 99.90181
# Shear Modulus (GPa) = 52.31007 31.61982 41.96494
#
# Velocity S-wave (km/s) = 4.90943 3.81697 4.39726
# Velocity P-wave (km/s) = 10.55346 5.67882 8.47421
#
# Compressibility (1/GPa) = 0.00581487
#
# Stress axis : x y z
#
# Youngs Moduli (GPa) = 113.58708 92.26629 117.77285
#
# Poissons Ratio (x) = 0.35788 0.73404
# Poissons Ratio (y) = 0.44058 0.12337
# Poissons Ratio (z) = 0.70795 0.09666
#
# Static dielectric constant tensor:
#      x y z
#    x 1.709430 0.005340 -0.043500 
#    y 0.005340 1.947390 -0.075340 
#    z -0.043500 -0.075340 1.845310 
# 
# From -- ./inp_files/331559.got.cif
#   From: 2010.05.17/outbox.cif.g08.bks.cpg/sg2_166_cif.got.tgz:331559.got - 2010.06.03 11:33:40.
