data_PCOD9069436
_publ_section_title
;
Structure prediction by ZEFSAII (Michael W. Deem and Ramdas Pophale) SiO2 
 PCOD9069436
Probable space group: P -1
;
_chemical_formula_sum "Si O2"
_cell_formula_units_Z 16
_cell_length_a 11.421268
_cell_length_b 10.425264
_cell_length_c 5.092349
_cell_angle_alpha 97.016118
_cell_angle_beta 103.108820
_cell_angle_gamma 88.055399
_cell_volume 586.109680
_symmetry_space_group_name_H-M "P -1"
_symmetry_group_IT_number 2
_symmetry_cell_setting 'triclinic'
loop_
_space_group_symop_operation_xyz
x,y,z
-x,-y,-z
loop_
_atom_site_type_symbol
_atom_site_label
_atom_site_fract_x
_atom_site_fract_y
_atom_site_fract_z
Si Si1 0.347142 0.984450 0.624642
Si Si2 0.875397 0.335344 0.771037
Si Si3 0.459911 0.697469 0.585479
Si Si4 0.859380 0.549945 0.441024
Si Si5 0.331636 0.149199 0.125421
Si Si6 0.326711 0.599124 0.007817
Si Si7 0.090374 0.900792 0.658544
Si Si8 0.917913 0.760561 0.873361
O O1 0.413407 0.847758 0.575270
O O2 0.223891 0.952322 0.706718
O O3 0.331227 0.051916 0.350837
O O4 0.397171 0.089166 0.886485
O O5 0.817194 0.460046 0.638348
O O6 0.897525 0.230830 0.534113
O O7 0.775789 0.297157 0.924689
O O8 0.005644 0.349674 0.968862
O O9 0.599852 0.721245 0.716088
O O10 0.396704 0.641727 0.796189
O O11 0.423561 0.610853 0.295377
O O12 0.763751 0.516403 0.157960
O O13 0.864403 0.697460 0.567691
O O14 0.000000 0.500000 0.500000
O O15 0.192951 0.184773 0.012506
O O16 0.020828 0.862604 0.879250
O O17 0.000000 0.000000 0.500000
#
# Coordination Sequence:
#
# PCOD9069436 Si02
#       8
#     2   2   2   2   2   2   2   2
#     4  12  24  44  72 101 144 193 243 290 353 431
#     4  12  23  43  73 105 141 187 237 299 357 432
#     4  12  25  47  76 101 141 192 248 294 348 421
#     4  12  24  44  73 110 141 187 242 299 361 427
#     4  12  28  47  67 106 146 192 242 294 352 433
#     4  12  24  46  75 106 134 179 247 303 351 415
#     4  12  24  41  67 107 153 185 228 294 374 437
#     4  12  27  43  70 107 154 189 233 298 370 430
#
# _framework density 27.298646000000002
#
# number of rings (size 3 to 8) (size 9 to 14) (size 15 to 20)
#    0.000    0.000    6.250    4.125    1.750    1.000 
#    0.000    1.250    0.000    0.000    0.000    0.000 
#    0.000    0.000    0.000    0.000    0.000    0.000 
#
# Total GULP energy -89557.739875 kJ/mol
# GULP energy per Si atom -5597.358742 kJ/mol
# Density = 2.723651 g / cm^3
# Si number density = 27.298646 Si / 1000 Ang^3
#
#
#
# Elastic Constant Matrix: (Units=GPa)
#
#
# Indices 1 2 3 4 5 6 
#
# 1 109.7681 12.1946 2.6353 -14.0697 4.6632 13.9758
# 2 12.1946 62.7662 29.4801 1.8063 -9.8141 6.6450
# 3 2.6353 29.4801 165.7922 0.8228 -2.6372 8.5391
# 4 -14.0697 1.8063 0.8228 43.9722 4.8619 3.9214
# 5 4.6632 -9.8141 -2.6372 4.8619 34.7568 6.3704
# 6 13.9758 6.6450 8.5391 3.9214 6.3704 40.4578
#
#
#
# Elastic Compliance Matrix: (Units=1/GPa)
#
#
# Indices 1 2 3 4 5 6 
#
# 1 0.010362 -0.002238 0.000356 0.003914 -0.001926 -0.003363
# 2 -0.002238 0.019123 -0.003128 -0.001905 0.006187 -0.002497
# 3 0.000356 -0.003128 0.006627 0.000238 -0.000281 -0.000987
# 4 0.003914 -0.001905 0.000238 0.024763 -0.003984 -0.002862
# 5 -0.001926 0.006187 -0.000281 -0.003984 0.032225 -0.004979
# 6 -0.003363 -0.002497 -0.000987 -0.002862 -0.004979 0.027559
#
#
# Mechanical properties :
#
#
# Convention : Reuss Voigt Hill
#
# Bulk Modulus (GPa) = 38.32626 47.43850 42.88238
# Shear Modulus (GPa) = 35.87387 43.43846 39.65616
#
# Velocity S-wave (km/s) = 3.62902 3.99335 3.81554
# Velocity P-wave (km/s) = 5.62404 6.21915 5.92906
#
# Compressibility (1/GPa) = 0.02609177
#
# Stress axis : x y z
#
# Youngs Moduli (GPa) = 96.50754 52.29362 150.88825
#
# Poissons Ratio (x) = 0.11705 -0.05379
# Poissons Ratio (y) = 0.21602 0.47202
# Poissons Ratio (z) = -0.03440 0.16359
#
# Static dielectric constant tensor:
#      x y z
#    x 2.143040 0.068430 0.029630 
#    y 0.068430 2.221180 -0.026560 
#    z 0.029630 -0.026560 2.212320 
# 
# From -- ./inp_files/67321.got.cif
#   From: 2010.05.17/outbox.cif.g08.bks.cpg/sg2_34_cif.got.tgz:67321.got - 2010.06.03 11:33:40.
