data_PCOD9069869
_publ_section_title
;
Structure prediction by ZEFSAII (Michael W. Deem and Ramdas Pophale) SiO2 
 PCOD9069869
Probable space group: P -1
;
_chemical_formula_sum "Si O2"
_cell_formula_units_Z 14
_cell_length_a 4.922564
_cell_length_b 13.341540
_cell_length_c 18.270733
_cell_angle_alpha 29.872874
_cell_angle_beta 82.949811
_cell_angle_gamma 88.220445
_cell_volume 586.198860
_symmetry_space_group_name_H-M "P -1"
_symmetry_group_IT_number 2
_symmetry_cell_setting 'triclinic'
loop_
_space_group_symop_operation_xyz
x,y,z
-x,-y,-z
loop_
_atom_site_type_symbol
_atom_site_label
_atom_site_fract_x
_atom_site_fract_y
_atom_site_fract_z
Si Si1 0.968641 0.001198 0.312744
Si Si2 0.206766 0.421197 0.095542
Si Si3 0.504104 0.667105 0.328093
Si Si4 0.962793 0.237320 0.831014
Si Si5 0.325248 0.582482 0.136186
Si Si6 0.500576 0.969494 0.804790
Si Si7 0.730718 0.870863 0.550043
O O1 0.146595 0.180591 0.240370
O O2 0.204061 0.926760 0.302320
O O3 0.730700 0.069529 0.226091
O O4 0.813327 0.860191 0.468865
O O5 0.132498 0.507308 0.121154
O O6 0.500000 0.500000 0.000000
O O7 0.000000 0.500000 0.000000
O O8 0.500000 0.500000 0.500000
O O9 0.734112 0.643207 0.274614
O O10 0.536232 0.765920 0.977115
O O11 0.768015 0.284854 0.738103
O O12 0.826703 0.329708 0.847250
O O13 0.389683 0.121774 0.767957
O O14 0.412313 0.363234 0.284313
O O15 0.000000 0.000000 0.000000
O O16 0.500000 0.000000 0.500000
O O17 0.000000 0.000000 0.500000
#
# Coordination Sequence:
#
# PCOD9069869 Si02
#       7
#     2   2   2   2   2   2   2
#     4  12  25  46  70 108 146 193 248 309 374 458
#     4  12  24  42  70 106 143 189 242 298 361 450
#     4  12  29  52  79 113 158 202 265 328 395 467
#     4  12  28  52  80 116 157 200 263 335 391 461
#     4  12  28  47  78 111 151 203 254 316 392 450
#     4  12  27  46  79 105 146 200 258 306 382 465
#     4  12  29  47  69 106 156 197 248 313 384 457
#
# _framework density 23.882683
#
# number of rings (size 3 to 8) (size 9 to 14) (size 15 to 20)
#    0.000    0.000    5.714    2.571    6.000    3.429 
#    0.000    0.000    0.000    0.000    0.000    0.000 
#    0.000    0.000    0.000    0.000    0.000    0.000 
#
# Total GULP energy -78083.692679 kJ/mol
# GULP energy per Si atom -5577.406620 kJ/mol
# Density = 2.382832 g / cm^3
# Si number density = 23.882683 Si / 1000 Ang^3
#
#
#
# Elastic Constant Matrix: (Units=GPa)
#
#
# Indices 1 2 3 4 5 6 
#
# 1 142.2310 8.4120 28.2323 11.9248 1.9073 -2.7058
# 2 8.4120 109.9909 22.2805 7.0052 15.6183 -10.4613
# 3 28.2323 22.2805 128.8025 5.4328 7.4547 -2.1758
# 4 11.9248 7.0052 5.4328 41.0743 -8.7695 -2.9872
# 5 1.9073 15.6183 7.4547 -8.7695 25.2072 -2.4151
# 6 -2.7058 -10.4613 -2.1758 -2.9872 -2.4151 28.6378
#
#
#
# Elastic Compliance Matrix: (Units=1/GPa)
#
#
# Indices 1 2 3 4 5 6 
#
# 1 0.007526 0.000017 -0.001508 -0.002148 -0.000852 0.000307
# 2 0.000017 0.010828 -0.001291 -0.002978 -0.007082 0.002951
# 3 -0.001508 -0.001291 0.008462 -0.000887 -0.001919 -0.000226
# 4 -0.002148 -0.002978 -0.000887 0.028440 0.012419 0.002656
# 5 -0.000852 -0.007082 -0.001919 0.012419 0.049264 0.002637
# 6 0.000307 0.002951 -0.000226 0.002656 0.002637 0.036508
#
#
# Mechanical properties :
#
#
# Convention : Reuss Voigt Hill
#
# Bulk Modulus (GPa) = 47.05370 55.43045 51.24207
# Shear Modulus (GPa) = 32.53584 40.45718 36.49651
#
# Velocity S-wave (km/s) = 3.69496 4.12028 3.91341
# Velocity P-wave (km/s) = 6.16023 6.77462 6.47472
#
# Compressibility (1/GPa) = 0.02125231
#
# Stress axis : x y z
#
# Youngs Moduli (GPa) = 132.86522 92.35418 118.17099
#
# Poissons Ratio (x) = -0.00154 0.17814
# Poissons Ratio (y) = -0.00222 0.15260
# Poissons Ratio (z) = 0.20030 0.11926
#
# Static dielectric constant tensor:
#      x y z
#    x 2.001500 -0.067000 -0.066480 
#    y -0.067000 1.943060 0.041370 
#    z -0.066480 0.041370 1.892120 
# 
# From -- ./inp_files/481417.got.cif
#   From: 2010.05.17/outbox.cif.g08.bks.cpg/sg2_241_cif.got.tgz:481417.got - 2010.06.03 11:33:40.
