data_PCOD9069001
_publ_section_title
;
Structure prediction by ZEFSAII (Michael W. Deem and Ramdas Pophale) SiO2 
 PCOD9069001
Probable space group: P -1
;
_chemical_formula_sum "Si O2"
_cell_formula_units_Z 16
_cell_length_a 14.716839
_cell_length_b 11.871197
_cell_length_c 6.190001
_cell_angle_alpha 92.585279
_cell_angle_beta 111.776142
_cell_angle_gamma 128.111127
_cell_volume 732.475299
_symmetry_space_group_name_H-M "P -1"
_symmetry_group_IT_number 2
_symmetry_cell_setting 'triclinic'
loop_
_space_group_symop_operation_xyz
x,y,z
-x,-y,-z
loop_
_atom_site_type_symbol
_atom_site_label
_atom_site_fract_x
_atom_site_fract_y
_atom_site_fract_z
Si Si1 0.938361 0.070069 0.870638
Si Si2 0.646741 0.598498 0.728746
Si Si3 0.784479 0.774001 0.468870
Si Si4 0.394479 0.245686 0.982079
Si Si5 0.798206 0.099121 0.126258
Si Si6 0.657577 0.396760 0.041277
Si Si7 0.062058 0.299190 0.641711
Si Si8 0.434705 0.920649 0.187218
O O1 0.029540 0.235599 0.850736
O O2 0.845321 0.943105 0.592233
O O3 0.861814 0.073475 0.991509
O O4 0.000000 0.000000 0.000000
O O5 0.500000 0.500000 0.500000
O O6 0.753334 0.675427 0.640469
O O7 0.652995 0.497976 0.882066
O O8 0.668640 0.735988 0.874114
O O9 0.642332 0.694659 0.232417
O O10 0.882886 0.776005 0.414869
O O11 0.551896 0.344535 0.133411
O O12 0.312691 0.066767 0.869957
O O13 0.924584 0.229101 0.400101
O O14 0.707738 0.127306 0.952322
O O15 0.597545 0.237634 0.866803
O O16 0.813476 0.516805 0.255728
O O17 0.500000 0.000000 0.500000
O O18 0.500000 0.000000 0.000000
#
# Coordination Sequence:
#
# PCOD9069001 Si02
#       8
#     2   2   2   2   2   2   2   2
#     4  12  23  41  68 111 155 201 245 302 387 469
#     4  12  24  37  68 111 152 192 243 317 395 455
#     4  12  22  38  67 108 154 197 241 301 385 475
#     4  12  23  44  71 107 149 197 250 307 383 466
#     4  12  27  47  80 107 148 210 262 321 379 475
#     4  12  27  49  72 112 153 199 256 330 391 460
#     4  12  26  43  71 110 157 193 254 316 402 462
#     4  12  32  58  85 113 148 210 277 329 386 468
#
# _framework density 21.843738999999999
#
# number of rings (size 3 to 8) (size 9 to 14) (size 15 to 20)
#    0.000    0.000    7.500    3.000    5.250    1.500 
#    0.000    0.625    0.000    0.000    0.000    0.000 
#    0.000    0.000    0.000    0.000    0.000    0.000 
#
# Total GULP energy -89166.231019 kJ/mol
# GULP energy per Si atom -5572.889439 kJ/mol
# Density = 2.179402 g / cm^3
# Si number density = 21.843739 Si / 1000 Ang^3
#
#
#
# Elastic Constant Matrix: (Units=GPa)
#
#
# Indices 1 2 3 4 5 6 
#
# 1 112.0925 29.9714 34.4849 -3.0506 12.1919 9.5689
# 2 29.9714 93.2105 32.4028 11.3454 1.9080 21.9805
# 3 34.4849 32.4028 85.5483 14.4507 18.0053 6.6702
# 4 -3.0506 11.3454 14.4507 32.0091 3.9939 -6.0157
# 5 12.1919 1.9080 18.0053 3.9939 38.3574 1.2095
# 6 9.5689 21.9805 6.6702 -6.0157 1.2095 39.7040
#
#
#
# Elastic Compliance Matrix: (Units=1/GPa)
#
#
# Indices 1 2 3 4 5 6 
#
# 1 0.011117 -0.002773 -0.003676 0.003989 -0.002090 0.000141
# 2 -0.002773 0.015532 -0.003675 -0.006011 0.002722 -0.008307
# 3 -0.003676 -0.003675 0.016883 -0.006053 -0.005923 -0.000653
# 4 0.003989 -0.006011 -0.006053 0.038536 -0.002433 0.009296
# 5 -0.002090 0.002722 -0.005923 -0.002433 0.029673 -0.001281
# 6 0.000141 -0.008307 -0.000653 0.009296 -0.001281 0.031308
#
#
# Mechanical properties :
#
#
# Convention : Reuss Voigt Hill
#
# Bulk Modulus (GPa) = 42.94695 53.84103 48.39399
# Shear Modulus (GPa) = 29.22945 34.94693 32.08819
#
# Velocity S-wave (km/s) = 3.66199 4.00416 3.83690
# Velocity P-wave (km/s) = 6.13057 6.78819 6.46775
#
# Compressibility (1/GPa) = 0.02328454
#
# Stress axis : x y z
#
# Youngs Moduli (GPa) = 89.94890 64.38124 59.23037
#
# Poissons Ratio (x) = 0.17853 0.21774
# Poissons Ratio (y) = 0.24942 0.21768
# Poissons Ratio (z) = 0.33067 0.23661
#
# Static dielectric constant tensor:
#      x y z
#    x 1.835620 0.052280 -0.076480 
#    y 0.052280 1.822180 0.032990 
#    z -0.076480 0.032990 2.175750 
# 
# From -- ./inp_files/95168.got.cif
#   From: 2010.05.17/outbox.cif.g08.bks.cpg/sg2_48_cif.got.tgz:95168.got - 2010.06.03 11:33:40.
