data_PCOD9069314
_publ_section_title
;
Structure prediction by ZEFSAII (Michael W. Deem and Ramdas Pophale) SiO2 
 PCOD9069314
Probable space group: P -1
;
_chemical_formula_sum "Si O2"
_cell_formula_units_Z 15
_cell_length_a 14.572305
_cell_length_b 9.383852
_cell_length_c 14.238689
_cell_angle_alpha 131.029434
_cell_angle_beta 148.333023
_cell_angle_gamma 72.472584
_cell_volume 585.769115
_symmetry_space_group_name_H-M "P -1"
_symmetry_group_IT_number 2
_symmetry_cell_setting 'triclinic'
loop_
_space_group_symop_operation_xyz
x,y,z
-x,-y,-z
loop_
_atom_site_type_symbol
_atom_site_label
_atom_site_fract_x
_atom_site_fract_y
_atom_site_fract_z
Si Si1 0.706641 0.388324 0.476036
Si Si2 0.588399 0.099055 0.895018
Si Si3 0.197087 0.496146 0.131927
Si Si4 0.500000 0.500000 0.500000
Si Si5 0.813323 0.383314 0.036406
Si Si6 0.972055 0.046969 0.225956
Si Si7 0.383440 0.565521 0.778787
Si Si8 0.135419 0.232759 0.652969
O O1 0.596211 0.482645 0.476595
O O2 0.585226 0.294566 0.228238
O O3 0.980880 0.613706 0.807806
O O4 0.649206 0.150133 0.377060
O O5 0.606538 0.170721 0.831792
O O6 0.659673 0.325121 0.123145
O O7 0.777205 0.068690 0.062955
O O8 0.440425 0.668921 0.470505
O O9 0.232036 0.547595 0.073274
O O10 0.000000 0.500000 0.000000
O O11 0.137157 0.237154 0.006078
O O12 0.943643 0.614964 0.322883
O O13 0.182644 0.277479 0.450672
O O14 0.086685 0.128030 0.462497
O O15 0.601267 0.599267 0.015245
O O16 0.000000 0.000000 0.500000
#
# Coordination Sequence:
#
# PCOD9069314 Si02
#       8
#     2   2   2   1   2   2   2   2
#     4  12  25  47  76 107 151 204 257 315 379 451
#     4  12  25  46  76 114 155 197 249 317 393 468
#     4  12  27  51  79 106 152 203 265 324 378 451
#     4  12  26  54  76 104 146 204 270 316 376 446
#     4  12  25  46  76 112 154 195 252 317 388 464
#     4  12  24  45  73 111 151 198 248 317 383 463
#     4  12  25  44  74 117 156 198 250 312 394 468
#     4  12  23  41  70 109 159 196 241 312 388 464
#
# _framework density 25.607357
#
# number of rings (size 3 to 8) (size 9 to 14) (size 15 to 20)
#    0.000    0.000    6.667    4.400    0.000    0.000 
#    2.400    2.667    0.000    0.000    0.000    0.000 
#    0.000    0.000    0.000    0.000    0.000    0.000 
#
# Total GULP energy -83640.835768 kJ/mol
# GULP energy per Si atom -5576.055718 kJ/mol
# Density = 2.554907 g / cm^3
# Si number density = 25.607357 Si / 1000 Ang^3
#
#
#
# Elastic Constant Matrix: (Units=GPa)
#
#
# Indices 1 2 3 4 5 6 
#
# 1 139.9716 43.8989 7.8371 -1.8479 3.3791 17.6003
# 2 43.8989 110.4286 2.3537 1.4529 5.1198 3.3311
# 3 7.8371 2.3537 46.4251 3.1896 6.4206 3.2465
# 4 -1.8479 1.4529 3.1896 51.4663 0.8948 0.2347
# 5 3.3791 5.1198 6.4206 0.8948 31.1604 -9.7683
# 6 17.6003 3.3311 3.2465 0.2347 -9.7683 60.6725
#
#
#
# Elastic Compliance Matrix: (Units=1/GPa)
#
#
# Indices 1 2 3 4 5 6 
#
# 1 0.008558 -0.003271 -0.001013 0.000490 -0.000950 -0.002404
# 2 -0.003271 0.010414 0.000227 -0.000403 -0.001345 0.000150
# 3 -0.001013 0.000227 0.022619 -0.001348 -0.005096 -0.001744
# 4 0.000490 -0.000403 -0.001348 0.019549 -0.000326 -0.000176
# 5 -0.000950 -0.001345 -0.005096 -0.000326 0.035460 0.006332
# 6 -0.002404 0.000150 -0.001744 -0.000176 0.006332 0.018285
#
#
# Mechanical properties :
#
#
# Convention : Reuss Voigt Hill
#
# Bulk Modulus (GPa) = 29.86992 45.00054 37.43523
# Shear Modulus (GPa) = 37.26950 44.84221 41.05586
#
# Velocity S-wave (km/s) = 3.81914 4.18921 4.00845
# Velocity P-wave (km/s) = 5.58011 6.40396 6.00618
#
# Compressibility (1/GPa) = 0.03347849
#
# Stress axis : x y z
#
# Youngs Moduli (GPa) = 116.84420 96.02409 44.21070
#
# Poissons Ratio (x) = 0.31405 0.04479
# Poissons Ratio (y) = 0.38215 -0.01005
# Poissons Ratio (z) = 0.11839 -0.02183
#
# Static dielectric constant tensor:
#      x y z
#    x 2.021290 0.029410 0.032940 
#    y 0.029410 1.958710 0.197200 
#    z 0.032940 0.197200 1.466440 
# 
# From -- ./inp_files/530201.got.cif
#   From: 2010.05.17/outbox.cif.g08.bks.cpg/sg2_266_cif.got.tgz:530201.got - 2010.06.03 11:33:40.
