data_PCOD9069348
_publ_section_title
;
Structure prediction by ZEFSAII (Michael W. Deem and Ramdas Pophale) SiO2 
 PCOD9069348
Probable space group: P -1
;
_chemical_formula_sum "Si O2"
_cell_formula_units_Z 15
_cell_length_a 15.148434
_cell_length_b 14.626270
_cell_length_c 5.743664
_cell_angle_alpha 78.055137
_cell_angle_beta 70.226101
_cell_angle_gamma 31.039383
_cell_volume 608.414453
_symmetry_space_group_name_H-M "P -1"
_symmetry_group_IT_number 2
_symmetry_cell_setting 'triclinic'
loop_
_space_group_symop_operation_xyz
x,y,z
-x,-y,-z
loop_
_atom_site_type_symbol
_atom_site_label
_atom_site_fract_x
_atom_site_fract_y
_atom_site_fract_z
Si Si1 0.887041 0.363113 0.535723
Si Si2 0.599900 0.436436 0.191124
Si Si3 0.118913 0.325644 0.130796
Si Si4 0.707487 0.655580 0.852819
Si Si5 0.389369 0.008947 0.703342
Si Si6 0.813894 0.985917 0.322613
Si Si7 0.000000 0.000000 0.000000
Si Si8 0.571306 0.644480 0.332135
O O1 0.844095 0.460792 0.750061
O O2 0.702430 0.499537 0.496678
O O3 0.998341 0.340959 0.293396
O O4 0.013671 0.168059 0.578927
O O5 0.500000 0.500000 0.500000
O O6 0.601433 0.547442 0.146403
O O7 0.500000 0.500000 0.000000
O O8 0.801527 0.221335 0.118982
O O9 0.198746 0.323511 0.261364
O O10 0.287533 0.141302 0.940094
O O11 0.000000 0.500000 0.000000
O O12 0.534163 0.808706 0.762197
O O13 0.635095 0.691305 0.154720
O O14 0.500000 0.000000 0.500000
O O15 0.242812 0.071565 0.663096
O O16 0.635479 0.176718 0.503619
O O17 0.887319 0.995930 0.062116
#
# Coordination Sequence:
#
# PCOD9069348 Si02
#       8
#     2   2   2   2   2   2   1   2
#     4  12  26  47  76 112 154 204 265 326 412 486
#     4  12  31  56  88 123 168 219 282 355 429 504
#     4  12  23  42  68 111 153 201 261 325 398 489
#     4  12  24  45  74 103 159 205 260 334 402 492
#     4  12  25  45  75 112 154 206 265 325 411 490
#     4  12  27  50  78 115 159 212 270 342 410 500
#     4  12  30  52  86 122 164 218 288 344 432 502
#     4  12  27  51  77 116 154 208 268 336 418 496
#
# _framework density 24.654247000000002
#
# number of rings (size 3 to 8) (size 9 to 14) (size 15 to 20)
#    0.000    0.000    4.000    5.600    7.467    1.600 
#    0.000    0.000    0.000    0.000    0.000    0.000 
#    0.000    0.000    0.000    0.000    0.000    0.000 
#
# Total GULP energy -83622.570675 kJ/mol
# GULP energy per Si atom -5574.838045 kJ/mol
# Density = 2.459813 g / cm^3
# Si number density = 24.654247 Si / 1000 Ang^3
#
#
#
# Elastic Constant Matrix: (Units=GPa)
#
#
# Indices 1 2 3 4 5 6 
#
# 1 107.2892 25.1787 31.7073 16.9885 -1.3486 18.1691
# 2 25.1787 155.8532 29.4651 37.7461 13.8690 -38.7039
# 3 31.7073 29.4651 91.2860 27.7616 -17.8370 -13.1469
# 4 16.9885 37.7461 27.7616 42.1613 -2.2304 1.1692
# 5 -1.3486 13.8690 -17.8370 -2.2304 44.1244 -3.0205
# 6 18.1691 -38.7039 -13.1469 1.1692 -3.0205 12.3203
#
#
#
# Elastic Compliance Matrix: (Units=1/GPa)
#
#
# Indices 1 2 3 4 5 6 
#
# 1 0.003246 0.008819 0.004015 -0.012623 0.000261 0.028464
# 2 0.008819 -0.003325 -0.010316 0.006960 -0.004992 -0.036344
# 3 0.004015 -0.010316 0.009176 0.002620 0.005326 -0.027480
# 4 -0.012623 0.006960 0.002620 0.019809 0.002360 0.041974
# 5 0.000261 -0.004992 0.005326 0.002360 0.026226 -0.004177
# 6 0.028464 -0.036344 -0.027480 0.041974 -0.004177 -0.109315
#
#
# Mechanical properties :
#
#
# Convention : Reuss Voigt Hill
#
# Bulk Modulus (GPa) = 70.75679 58.57006 64.66342
# Shear Modulus (GPa) = -91.73112 37.59304 -27.06904
#
# Velocity S-wave (km/s) = -6.10637 3.90912 -3.31712
# Velocity P-wave (km/s) = 4.57768 6.64704 3.40793
#
# Compressibility (1/GPa) = 0.01413292
#
# Stress axis : x y z
#
# Youngs Moduli (GPa) = 308.06377 -300.74542 108.97834
#
# Poissons Ratio (x) = 2.65229 -0.43755
# Poissons Ratio (y) = -2.71683 1.12424
# Poissons Ratio (z) = -1.23687 -3.10254
#
# Static dielectric constant tensor:
#      x y z
#    x 2.202590 0.019520 0.061010 
#    y 0.019520 1.977790 -0.064210 
#    z 0.061010 -0.064210 2.047770 
# 
# From -- ./inp_files/97878.got.cif
#   From: 2010.05.17/outbox.cif.g08.bks.cpg/sg2_49_cif.got.tgz:97878.got - 2010.06.03 11:33:40.
