data_PCOD9069772
_publ_section_title
;
Structure prediction by ZEFSAII (Michael W. Deem and Ramdas Pophale) SiO2 
 PCOD9069772
Probable space group: P -1
;
_chemical_formula_sum "Si O2"
_cell_formula_units_Z 15
_cell_length_a 13.556159
_cell_length_b 10.777236
_cell_length_c 7.929676
_cell_angle_alpha 75.754408
_cell_angle_beta 61.930885
_cell_angle_gamma 125.895213
_cell_volume 565.789657
_symmetry_space_group_name_H-M "P -1"
_symmetry_group_IT_number 2
_symmetry_cell_setting 'triclinic'
loop_
_space_group_symop_operation_xyz
x,y,z
-x,-y,-z
loop_
_atom_site_type_symbol
_atom_site_label
_atom_site_fract_x
_atom_site_fract_y
_atom_site_fract_z
Si Si1 0.942463 0.804527 0.555358
Si Si2 0.160392 0.824983 0.013083
Si Si3 0.486234 0.692382 0.492342
Si Si4 0.000000 0.500000 0.500000
Si Si5 0.475641 0.618433 0.897121
Si Si6 0.881388 0.762756 0.217239
Si Si7 0.701661 0.053693 0.721075
Si Si8 0.762714 0.284976 0.275679
O O1 0.890859 0.757673 0.414489
O O2 0.105139 0.853393 0.448865
O O3 0.753602 0.584106 0.881855
O O4 0.000000 0.000000 0.500000
O O5 0.285068 0.833451 0.818767
O O6 0.328637 0.086403 0.844318
O O7 0.988126 0.588222 0.330440
O O8 0.021615 0.783602 0.022766
O O9 0.564398 0.719939 0.604470
O O10 0.338436 0.453903 0.602629
O O11 0.345263 0.682455 0.636738
O O12 0.235519 0.780580 0.245151
O O13 0.538164 0.790840 0.916173
O O14 0.500000 0.500000 0.000000
O O15 0.000000 0.000000 0.000000
O O16 0.699471 0.133050 0.527367
O O17 0.000000 0.500000 0.000000
#
# Coordination Sequence:
#
# PCOD9069772 Si02
#       8
#     2   2   2   1   2   2   2   2
#     4  12  27  49  75 105 151 202 256 312 384 457
#     4  12  27  49  75 110 156 193 261 310 394 453
#     4  12  28  49  79 117 150 205 257 321 388 463
#     4  12  26  46  74 106 152 202 234 332 376 460
#     4  12  28  47  78 112 150 201 261 317 382 465
#     4  12  29  48  76 111 154 208 253 322 386 453
#     4  12  26  47  74 110 151 198 254 307 394 451
#     4  12  23  48  80 107 151 199 247 311 380 461
#
# _framework density 26.511619
#
# number of rings (size 3 to 8) (size 9 to 14) (size 15 to 20)
#    0.000    0.000    6.667    2.000    5.600    0.533 
#    0.000    2.000    0.000    0.000    0.000    0.000 
#    0.000    0.000    0.000    0.000    0.000    0.000 
#
# Total GULP energy -83585.701241 kJ/mol
# GULP energy per Si atom -5572.380083 kJ/mol
# Density = 2.645128 g / cm^3
# Si number density = 26.511619 Si / 1000 Ang^3
#
#
#
# Elastic Constant Matrix: (Units=GPa)
#
#
# Indices 1 2 3 4 5 6 
#
# 1 127.7062 17.3424 29.8646 2.1512 19.5530 -6.4576
# 2 17.3424 136.4339 32.9068 -26.4719 9.0686 6.8480
# 3 29.8646 32.9068 122.5682 -46.0896 14.3132 -3.6663
# 4 2.1512 -26.4719 -46.0896 55.7328 3.3751 -9.8510
# 5 19.5530 9.0686 14.3132 3.3751 49.3113 -7.1401
# 6 -6.4576 6.8480 -3.6663 -9.8510 -7.1401 31.5147
#
#
#
# Elastic Compliance Matrix: (Units=1/GPa)
#
#
# Indices 1 2 3 4 5 6 
#
# 1 0.009020 -0.000894 -0.002740 -0.002842 -0.002380 0.000296
# 2 -0.000894 0.008412 -0.000666 0.003323 -0.001426 -0.001373
# 3 -0.002740 -0.000666 0.014209 0.012514 -0.003129 0.004439
# 4 -0.002842 0.003323 0.012514 0.031847 -0.003963 0.009208
# 5 -0.002380 -0.001426 -0.003129 -0.003963 0.023167 0.003468
# 6 0.000296 -0.001373 0.004439 0.009208 0.003468 0.036271
#
#
# Mechanical properties :
#
#
# Convention : Reuss Voigt Hill
#
# Bulk Modulus (GPa) = 43.39761 60.77066 52.08414
# Shear Modulus (GPa) = 35.91830 47.75139 41.83485
#
# Velocity S-wave (km/s) = 3.68477 4.24860 3.97669
# Velocity P-wave (km/s) = 5.87437 6.85853 6.38544
#
# Compressibility (1/GPa) = 0.02304274
#
# Stress axis : x y z
#
# Youngs Moduli (GPa) = 110.86843 118.87500 70.37866
#
# Poissons Ratio (x) = 0.10626 0.19281
# Poissons Ratio (y) = 0.09910 0.04684
# Poissons Ratio (z) = 0.30374 0.07912
#
# Static dielectric constant tensor:
#      x y z
#    x 2.219970 0.019600 0.180740 
#    y 0.019600 2.592590 -0.026380 
#    z 0.180740 -0.026380 2.425670 
# 
# From -- ./inp_files/304953.got.cif
#   From: 2010.05.17/outbox.cif.g08.bks.cpg/sg2_153_cif.got.tgz:304953.got - 2010.06.03 11:33:40.
