data_PCOD9069439
_publ_section_title
;
Structure prediction by ZEFSAII (Michael W. Deem and Ramdas Pophale) SiO2 
 PCOD9069439
Probable space group: P -1
;
_chemical_formula_sum "Si O2"
_cell_formula_units_Z 16
_cell_length_a 17.583066
_cell_length_b 9.525906
_cell_length_c 12.436417
_cell_angle_alpha 44.448756
_cell_angle_beta 142.714739
_cell_angle_gamma 108.147825
_cell_volume 703.800836
_symmetry_space_group_name_H-M "P -1"
_symmetry_group_IT_number 2
_symmetry_cell_setting 'triclinic'
loop_
_space_group_symop_operation_xyz
x,y,z
-x,-y,-z
loop_
_atom_site_type_symbol
_atom_site_label
_atom_site_fract_x
_atom_site_fract_y
_atom_site_fract_z
Si Si1 0.121709 0.324229 0.004344
Si Si2 0.659755 0.259192 0.758461
Si Si3 0.140649 0.356255 0.326602
Si Si4 0.831695 0.272487 0.135319
Si Si5 0.883012 0.789510 0.176616
Si Si6 0.685483 0.460817 0.468479
Si Si7 0.853354 0.148264 0.620379
Si Si8 0.339417 0.768421 0.839171
O O1 0.128979 0.106613 0.195626
O O2 0.202065 0.455370 0.055008
O O3 0.169489 0.224448 0.993229
O O4 0.944260 0.573244 0.691148
O O5 0.500000 0.500000 0.500000
O O6 0.656522 0.308187 0.601724
O O7 0.789865 0.242629 0.985886
O O8 0.737329 0.961814 0.000708
O O9 0.257306 0.426585 0.443972
O O10 0.239204 0.067770 0.567773
O O11 0.000000 0.500000 0.000000
O O12 0.715632 0.301387 0.080319
O O13 0.000000 0.000000 0.500000
O O14 0.000000 0.500000 0.500000
O O15 0.993470 0.883096 0.235452
O O16 0.809077 0.291301 0.606343
O O17 0.520910 0.652430 0.118375
O O18 0.715594 0.293235 0.296682
#
# Coordination Sequence:
#
# PCOD9069439 Si02
#       8
#     2   2   2   2   2   2   2   2
#     4  12  23  43  73 107 138 190 254 304 359 439
#     4  12  26  48  73 109 153 196 244 317 384 441
#     4  12  24  43  74 109 141 188 251 308 367 444
#     4  12  25  46  73 108 150 194 257 306 370 457
#     4  12  26  47  77 109 147 200 255 311 371 453
#     4  12  26  48  72 109 153 193 249 308 382 446
#     4  12  25  48  74 108 146 197 256 300 370 455
#     4  12  26  45  71 109 151 194 242 318 375 441
#
# _framework density 22.733705
#
# number of rings (size 3 to 8) (size 9 to 14) (size 15 to 20)
#    0.000    0.000    6.250    4.875    0.000    0.000 
#    2.250    3.750    0.000    0.000    0.000    0.000 
#    0.000    0.000    0.000    0.000    0.000    0.000 
#
# Total GULP energy -89182.348071 kJ/mol
# GULP energy per Si atom -5573.896754 kJ/mol
# Density = 2.268196 g / cm^3
# Si number density = 22.733705 Si / 1000 Ang^3
#
#
#
# Elastic Constant Matrix: (Units=GPa)
#
#
# Indices 1 2 3 4 5 6 
#
# 1 70.1388 30.9218 28.7779 -16.2602 6.0405 -19.2634
# 2 30.9218 131.1170 35.6896 -4.3499 -5.3011 -21.9296
# 3 28.7779 35.6896 108.9169 -0.9109 9.0253 -9.5597
# 4 -16.2602 -4.3499 -0.9109 42.3812 -4.6294 -4.2656
# 5 6.0405 -5.3011 9.0253 -4.6294 33.0242 -4.8742
# 6 -19.2634 -21.9296 -9.5597 -4.2656 -4.8742 39.0871
#
#
#
# Elastic Compliance Matrix: (Units=1/GPa)
#
#
# Indices 1 2 3 4 5 6 
#
# 1 0.021510 -0.002147 -0.004043 0.008820 -0.000565 0.009299
# 2 -0.002147 0.009703 -0.002509 0.000922 0.003399 0.004296
# 3 -0.004043 -0.002509 0.011207 -0.002047 -0.003202 -0.001282
# 4 0.008820 0.000922 -0.002047 0.028296 0.004238 0.007980
# 5 -0.000565 0.003399 -0.003202 0.004238 0.033203 0.005448
# 6 0.009299 0.004296 -0.001282 0.007980 0.005448 0.033814
#
#
# Mechanical properties :
#
#
# Convention : Reuss Voigt Hill
#
# Bulk Modulus (GPa) = 39.96464 55.66126 47.81295
# Shear Modulus (GPa) = 30.58611 37.21739 33.90175
#
# Velocity S-wave (km/s) = 3.67196 4.05050 3.86587
# Velocity P-wave (km/s) = 5.96618 6.81268 6.40343
#
# Compressibility (1/GPa) = 0.02502212
#
# Stress axis : x y z
#
# Youngs Moduli (GPa) = 46.48919 103.06467 89.22685
#
# Poissons Ratio (x) = 0.22131 0.36075
# Poissons Ratio (y) = 0.09982 0.22386
# Poissons Ratio (z) = 0.18796 0.25858
#
# Static dielectric constant tensor:
#      x y z
#    x 1.986900 0.098910 -0.021630 
#    y 0.098910 1.922290 -0.021760 
#    z -0.021630 -0.021760 1.969120 
# 
# From -- ./inp_files/298469.got.cif
#   From: 2010.05.17/outbox.cif.g08.bks.cpg/sg2_150_cif.got.tgz:298469.got - 2010.06.03 11:33:40.
