data_PCOD9069878
_publ_section_title
;
Structure prediction by ZEFSAII (Michael W. Deem and Ramdas Pophale) SiO2 
 PCOD9069878
Probable space group: P -1
;
_chemical_formula_sum "Si O2"
_cell_formula_units_Z 9
_cell_length_a 13.529867
_cell_length_b 7.505464
_cell_length_c 7.326113
_cell_angle_alpha 37.588788
_cell_angle_beta 59.770501
_cell_angle_gamma 45.933725
_cell_volume 324.141306
_symmetry_space_group_name_H-M "P -1"
_symmetry_group_IT_number 2
_symmetry_cell_setting 'triclinic'
loop_
_space_group_symop_operation_xyz
x,y,z
-x,-y,-z
loop_
_atom_site_type_symbol
_atom_site_label
_atom_site_fract_x
_atom_site_fract_y
_atom_site_fract_z
Si Si1 0.254064 0.480642 0.844078
Si Si2 0.615592 0.298790 0.708804
Si Si3 0.693206 0.512309 0.803640
Si Si4 0.873504 0.719547 0.307655
Si Si5 0.000000 0.500000 0.000000
O O1 0.500000 0.500000 0.500000
O O2 0.251796 0.754067 0.482910
O O3 0.104805 0.568843 0.966022
O O4 0.345533 0.092477 0.982253
O O5 0.594989 0.506339 0.746563
O O6 0.333548 0.440997 0.993321
O O7 0.739180 0.762009 0.488107
O O8 0.828221 0.112120 0.987340
O O9 0.000000 0.500000 0.500000
O O10 0.917433 0.512331 0.246596
#
# Coordination Sequence:
#
# PCOD9069878 Si02
#       5
#     2   2   2   2   1
#     4  12  27  43  74 103 136 182 226 279 348 405
#     4  12  27  49  70  99 138 183 235 283 331 400
#     4  12  25  45  67 102 138 177 230 279 340 400
#     4  12  25  40  67 103 141 179 216 276 344 417
#     4  12  24  42  72 104 140 174 226 272 356 408
#
# _framework density 27.765667000000001
#
# number of rings (size 3 to 8) (size 9 to 14) (size 15 to 20)
#    0.000    0.000    6.667    2.667    0.000    3.556 
#    0.000    0.000    0.000    0.000    0.000    0.000 
#    0.000    0.000    0.000    0.000    0.000    0.000 
#
# Total GULP energy -50237.453988 kJ/mol
# GULP energy per Si atom -5581.939332 kJ/mol
# Density = 2.770247 g / cm^3
# Si number density = 27.765667 Si / 1000 Ang^3
#
#
#
# Elastic Constant Matrix: (Units=GPa)
#
#
# Indices 1 2 3 4 5 6 
#
# 1 182.7251 24.7469 8.5930 4.1266 13.0059 22.6375
# 2 24.7469 50.1371 20.2865 12.6331 2.0489 9.4211
# 3 8.5930 20.2865 91.6670 11.9962 12.7091 22.8172
# 4 4.1266 12.6331 11.9962 43.0383 10.4326 17.3713
# 5 13.0059 2.0489 12.7091 10.4326 50.1807 10.4926
# 6 22.6375 9.4211 22.8172 17.3713 10.4926 56.5972
#
#
#
# Elastic Compliance Matrix: (Units=1/GPa)
#
#
# Indices 1 2 3 4 5 6 
#
# 1 0.006251 -0.003244 0.000751 0.001489 -0.001476 -0.002446
# 2 -0.003244 0.024919 -0.004843 -0.006471 0.002255 0.000670
# 3 0.000751 -0.004843 0.013351 0.000009 -0.002455 -0.004424
# 4 0.001489 -0.006471 0.000009 0.029182 -0.004596 -0.007627
# 5 -0.001476 0.002255 -0.002455 -0.004596 0.022106 -0.001483
# 6 -0.002446 0.000670 -0.004424 -0.007627 -0.001483 0.022935
#
#
# Mechanical properties :
#
#
# Convention : Reuss Voigt Hill
#
# Bulk Modulus (GPa) = 33.50428 47.97580 40.74004
# Shear Modulus (GPa) = 34.87571 48.02342 41.44957
#
# Velocity S-wave (km/s) = 3.54796 4.16335 3.86791
# Velocity P-wave (km/s) = 5.37373 6.35828 5.88662
#
# Compressibility (1/GPa) = 0.02984694
#
# Stress axis : x y z
#
# Youngs Moduli (GPa) = 159.96684 40.13050 74.90101
#
# Poissons Ratio (x) = 0.13020 -0.05623
# Poissons Ratio (y) = 0.51901 0.36277
# Poissons Ratio (z) = -0.12009 0.19436
#
# Static dielectric constant tensor:
#      x y z
#    x 12.266830 2.744300 -1.330200 
#    y 2.744300 3.024200 -0.371540 
#    z -1.330200 -0.371540 2.182300 
# 
# From -- ./inp_files/291376.got.cif
#   From: 2010.05.17/outbox.cif.g08.bks.cpg/sg2_146_cif.got.tgz:291376.got - 2010.06.03 11:33:40.
