data_PCOD9069322
_publ_section_title
;
Structure prediction by ZEFSAII (Michael W. Deem and Ramdas Pophale) SiO2 
 PCOD9069322
Probable space group: P -1
;
_chemical_formula_sum "Si O2"
_cell_formula_units_Z 16
_cell_length_a 11.624668
_cell_length_b 8.061375
_cell_length_c 16.434419
_cell_angle_alpha 100.890325
_cell_angle_beta 122.395623
_cell_angle_gamma 124.992017
_cell_volume 742.300803
_symmetry_space_group_name_H-M "P -1"
_symmetry_group_IT_number 2
_symmetry_cell_setting 'triclinic'
loop_
_space_group_symop_operation_xyz
x,y,z
-x,-y,-z
loop_
_atom_site_type_symbol
_atom_site_label
_atom_site_fract_x
_atom_site_fract_y
_atom_site_fract_z
Si Si1 0.234913 0.238504 0.402289
Si Si2 0.842679 0.077674 0.235614
Si Si3 0.263381 0.815318 0.941197
Si Si4 0.186917 0.624324 0.645392
Si Si5 0.852258 0.003557 0.483769
Si Si6 0.506170 0.409322 0.825341
Si Si7 0.968041 0.742001 0.124895
Si Si8 0.364556 0.109509 0.171711
O O1 0.500000 0.500000 0.500000
O O2 0.248023 0.159768 0.485679
O O3 0.106950 0.288292 0.373374
O O4 0.068939 0.983274 0.247907
O O5 0.828944 0.119863 0.141060
O O6 0.758791 0.162815 0.257603
O O7 0.674747 0.764621 0.182533
O O8 0.101023 0.488658 0.866506
O O9 0.500000 0.000000 0.000000
O O10 0.299286 0.924144 0.054598
O O11 0.399480 0.742506 0.694540
O O12 0.000000 0.500000 0.500000
O O13 0.040321 0.334642 0.609848
O O14 0.648285 0.843245 0.326452
O O15 0.000000 0.000000 0.500000
O O16 0.577149 0.651616 0.826591
O O17 0.737900 0.563257 0.968442
O O18 0.170486 0.918220 0.150364
#
# Coordination Sequence:
#
# PCOD9069322 Si02
#       8
#     2   2   2   2   2   2   2   2
#     4  12  28  49  73 107 149 188 246 304 365 435
#     4  12  25  45  73 109 141 192 247 301 363 433
#     4  12  25  45  73 109 147 186 242 299 364 438
#     4  12  23  41  72 103 139 190 245 293 356 431
#     4  12  23  45  75 107 144 193 250 297 358 432
#     4  12  24  44  77 107 145 193 249 297 362 438
#     4  12  28  49  73 109 150 194 239 304 375 433
#     4  12  26  45  73 105 148 186 242 306 369 429
#
# _framework density 21.554601999999999
#
# number of rings (size 3 to 8) (size 9 to 14) (size 15 to 20)
#    0.000    0.000    6.250    3.000    3.500    2.000 
#    2.250    1.250    0.000    0.000    0.000    0.000 
#    0.000    0.000    0.000    0.000    0.000    0.000 
#
# Total GULP energy -89310.194424 kJ/mol
# GULP energy per Si atom -5581.887151 kJ/mol
# Density = 2.150554 g / cm^3
# Si number density = 21.554602 Si / 1000 Ang^3
#
#
#
# Elastic Constant Matrix: (Units=GPa)
#
#
# Indices 1 2 3 4 5 6 
#
# 1 82.0077 54.4425 36.1109 8.3127 13.8667 24.1240
# 2 54.4425 149.0816 36.5099 5.6407 24.8812 25.5912
# 3 36.1109 36.5099 120.7446 -15.9234 23.3042 17.9092
# 4 8.3127 5.6407 -15.9234 42.5792 1.5212 -3.9584
# 5 13.8667 24.8812 23.3042 1.5212 48.7837 5.1694
# 6 24.1240 25.5912 17.9092 -3.9584 5.1694 34.9155
#
#
#
# Elastic Compliance Matrix: (Units=1/GPa)
#
#
# Indices 1 2 3 4 5 6 
#
# 1 0.020371 -0.004591 -0.004015 -0.005716 -0.000373 -0.009244
# 2 -0.004591 0.009602 -0.000589 -0.000790 -0.002946 -0.003217
# 3 -0.004015 -0.000589 0.011312 0.005101 -0.003970 -0.001430
# 4 -0.005716 -0.000790 0.005101 0.027168 -0.001814 0.005261
# 5 -0.000373 -0.002946 -0.003970 -0.001814 0.023986 0.000696
# 6 -0.009244 -0.003217 -0.001430 0.005261 0.000696 0.038613
#
#
# Mechanical properties :
#
#
# Convention : Reuss Voigt Hill
#
# Bulk Modulus (GPa) = 43.67584 67.32894 55.50239
# Shear Modulus (GPa) = 31.83224 40.24037 36.03631
#
# Velocity S-wave (km/s) = 3.84711 4.32546 4.09328
# Velocity P-wave (km/s) = 6.32776 7.50002 6.93869
#
# Compressibility (1/GPa) = 0.02289595
#
# Stress axis : x y z
#
# Youngs Moduli (GPa) = 49.08849 104.14247 88.40309
#
# Poissons Ratio (x) = 0.47808 0.35495
# Poissons Ratio (y) = 0.22535 0.05207
# Poissons Ratio (z) = 0.19710 0.06134
#
# Static dielectric constant tensor:
#      x y z
#    x 1.761570 -0.110420 -0.106400 
#    y -0.110420 1.926410 0.019290 
#    z -0.106400 0.019290 1.758860 
# 
# From -- ./inp_files/566029.got.cif
#   From: 2010.05.17/outbox.cif.g08.bks.cpg/sg2_284_cif.got.tgz:566029.got - 2010.06.03 11:33:40.
