data_PCOD9069218
_publ_section_title
;
Structure prediction by ZEFSAII (Michael W. Deem and Ramdas Pophale) SiO2 
 PCOD9069218
Probable space group: P -1
;
_chemical_formula_sum "Si O2"
_cell_formula_units_Z 16
_cell_length_a 8.617558
_cell_length_b 20.840619
_cell_length_c 9.246865
_cell_angle_alpha 114.371801
_cell_angle_beta 64.566728
_cell_angle_gamma 149.854024
_cell_volume 750.054447
_symmetry_space_group_name_H-M "P -1"
_symmetry_group_IT_number 2
_symmetry_cell_setting 'triclinic'
loop_
_space_group_symop_operation_xyz
x,y,z
-x,-y,-z
loop_
_atom_site_type_symbol
_atom_site_label
_atom_site_fract_x
_atom_site_fract_y
_atom_site_fract_z
Si Si1 0.125487 0.366852 0.042208
Si Si2 0.207833 0.533582 0.823845
Si Si3 0.167063 0.726949 0.250279
Si Si4 0.138738 0.862410 0.547715
Si Si5 0.808446 0.891147 0.592918
Si Si6 0.882606 0.924678 0.121474
Si Si7 0.116632 0.235666 0.118731
Si Si8 0.172368 0.614485 0.638664
O O1 0.012037 0.256149 0.061214
O O2 0.044390 0.401263 0.217623
O O3 0.500000 0.500000 0.000000
O O4 0.949630 0.313801 0.908669
O O5 0.532360 0.621702 0.845465
O O6 0.292282 0.613483 0.731807
O O7 0.010374 0.399622 0.724516
O O8 0.000000 0.500000 0.000000
O O9 0.067071 0.764997 0.402683
O O10 0.540116 0.839714 0.216325
O O11 0.960492 0.868948 0.559374
O O12 0.072457 0.832898 0.718487
O O13 0.500000 0.000000 0.500000
O O14 0.453364 0.749895 0.569883
O O15 0.000000 0.000000 0.500000
O O16 0.844782 0.957766 0.771197
O O17 0.860411 0.833796 0.024783
O O18 0.000000 0.000000 0.000000
O O19 0.000000 0.500000 0.500000
#
# Coordination Sequence:
#
# PCOD9069218 Si02
#       8
#     2   2   2   2   2   2   2   2
#     4  12  27  45  67 113 145 179 241 299 352 419
#     4  12  22  46  73 101 139 189 239 284 355 429
#     4  12  26  44  75 101 146 186 236 297 359 420
#     4  12  27  49  70 106 141 185 238 296 356 424
#     4  12  29  48  73 107 147 186 244 293 357 426
#     4  12  23  49  74  97 138 196 237 286 359 432
#     4  12  25  44  75 103 143 185 235 293 356 419
#     4  12  29  48  75 105 145 192 241 292 356 429
#
# _framework density 21.331783999999999
#
# number of rings (size 3 to 8) (size 9 to 14) (size 15 to 20)
#    0.000    0.000    7.500    0.750    8.750    0.500 
#    0.000    1.875    0.000    0.000    0.000    0.000 
#    0.000    0.000    0.000    0.000    0.000    0.000 
#
# Total GULP energy -89474.874023 kJ/mol
# GULP energy per Si atom -5592.179626 kJ/mol
# Density = 2.128323 g / cm^3
# Si number density = 21.331784 Si / 1000 Ang^3
#
#
#
# Elastic Constant Matrix: (Units=GPa)
#
#
# Indices 1 2 3 4 5 6 
#
# 1 72.2590 22.4719 27.5644 -5.5091 -12.0106 -23.1941
# 2 22.4719 134.1197 33.4879 -1.6571 -10.4793 -7.5898
# 3 27.5644 33.4879 104.1422 8.0313 -12.4546 -12.6929
# 4 -5.5091 -1.6571 8.0313 43.2533 -7.4775 1.1199
# 5 -12.0106 -10.4793 -12.4546 -7.4775 34.6836 -0.6915
# 6 -23.1941 -7.5898 -12.6929 1.1199 -0.6915 44.3129
#
#
#
# Elastic Compliance Matrix: (Units=1/GPa)
#
#
# Indices 1 2 3 4 5 6 
#
# 1 0.019813 -0.001459 -0.003202 0.003913 0.006298 0.009203
# 2 -0.001459 0.008370 -0.002192 0.000784 0.001406 0.000044
# 3 -0.003202 -0.002192 0.011743 -0.002369 0.001963 0.001403
# 4 0.003913 0.000784 -0.002369 0.025131 0.006178 0.000965
# 5 0.006298 0.001406 0.001963 0.006178 0.033564 0.004467
# 6 0.009203 0.000044 0.001403 0.000965 0.004467 0.027838
#
#
# Mechanical properties :
#
#
# Convention : Reuss Voigt Hill
#
# Bulk Modulus (GPa) = 38.13878 53.06325 45.60102
# Shear Modulus (GPa) = 33.57827 39.58307 36.58067
#
# Velocity S-wave (km/s) = 3.97179 4.31233 4.14556
# Velocity P-wave (km/s) = 6.24109 7.05153 6.65865
#
# Compressibility (1/GPa) = 0.02622003
#
# Stress axis : x y z
#
# Youngs Moduli (GPa) = 50.47094 119.47580 85.15656
#
# Poissons Ratio (x) = 0.17432 0.27267
# Poissons Ratio (y) = 0.07364 0.18667
# Poissons Ratio (z) = 0.16161 0.26191
#
# Static dielectric constant tensor:
#      x y z
#    x 1.903170 -0.045250 0.011780 
#    y -0.045250 1.773150 -0.021030 
#    z 0.011780 -0.021030 1.751060 
# 
# From -- ./inp_files/223784.got.cif
#   From: 2010.05.17/outbox.cif.g08.bks.cpg/sg2_112_cif.got.tgz:223784.got - 2010.06.03 11:33:40.
