data_PCOD9069002
_publ_section_title
;
Structure prediction by ZEFSAII (Michael W. Deem and Ramdas Pophale) SiO2 
 PCOD9069002
Probable space group: P -1
;
_chemical_formula_sum "Si O2"
_cell_formula_units_Z 12
_cell_length_a 9.617961
_cell_length_b 10.247090
_cell_length_c 12.110632
_cell_angle_alpha 118.280074
_cell_angle_beta 63.020612
_cell_angle_gamma 151.110350
_cell_volume 505.697213
_symmetry_space_group_name_H-M "P -1"
_symmetry_group_IT_number 2
_symmetry_cell_setting 'triclinic'
loop_
_space_group_symop_operation_xyz
x,y,z
-x,-y,-z
loop_
_atom_site_type_symbol
_atom_site_label
_atom_site_fract_x
_atom_site_fract_y
_atom_site_fract_z
Si Si1 0.311537 0.737073 0.032996
Si Si2 0.794756 0.711516 0.918272
Si Si3 0.980711 0.961219 0.621881
Si Si4 0.248572 0.889549 0.610475
Si Si5 0.469086 0.560394 0.784978
Si Si6 0.210081 0.597206 0.250466
O O1 0.422103 0.661938 0.923771
O O2 0.273919 0.751338 0.182427
O O3 0.000000 0.500000 0.000000
O O4 0.500000 0.000000 0.000000
O O5 0.711361 0.655703 0.798853
O O6 0.905952 0.638028 0.869747
O O7 0.500000 0.500000 0.000000
O O8 0.000000 0.000000 0.000000
O O9 0.087887 0.879204 0.583946
O O10 0.650271 0.738794 0.682024
O O11 0.188237 0.241377 0.727088
O O12 0.000000 0.000000 0.500000
O O13 0.027619 0.603226 0.644045
O O14 0.500000 0.000000 0.500000
O O15 0.462919 0.155225 0.720682
#
# Coordination Sequence:
#
# PCOD9069002 Si02
#       6
#     2   2   2   2   2   2
#     4  12  28  45  68 107 147 185 226 289 369 431
#     4  12  22  38  74 107 132 172 232 281 353 417
#     4  12  26  46  72 104 140 190 244 297 351 416
#     4  12  26  46  72 106 142 190 244 297 352 419
#     4  12  25  45  72 101 139 183 237 289 347 431
#     4  12  25  45  72 102 140 185 236 289 350 432
#
# _framework density 23.729616
#
# number of rings (size 3 to 8) (size 9 to 14) (size 15 to 20)
#    0.000    0.000    5.000    5.000    2.333    4.000 
#    0.000    0.000    0.000    0.000    0.000    0.000 
#    0.000    0.000    0.000    0.000    0.000    0.000 
#
# Total GULP energy -66862.205338 kJ/mol
# GULP energy per Si atom -5571.850445 kJ/mol
# Density = 2.367561 g / cm^3
# Si number density = 23.729616 Si / 1000 Ang^3
#
#
#
# Elastic Constant Matrix: (Units=GPa)
#
#
# Indices 1 2 3 4 5 6 
#
# 1 88.2064 19.9337 28.3000 -18.0029 15.9422 -4.9055
# 2 19.9337 157.8299 21.4792 -24.4445 3.2202 -7.5394
# 3 28.3000 21.4792 97.0791 -40.7129 7.4924 -15.2652
# 4 -18.0029 -24.4445 -40.7129 64.4962 0.1569 1.5287
# 5 15.9422 3.2202 7.4924 0.1569 41.4714 -1.4783
# 6 -4.9055 -7.5394 -15.2652 1.5287 -1.4783 29.3047
#
#
#
# Elastic Compliance Matrix: (Units=1/GPa)
#
#
# Indices 1 2 3 4 5 6 
#
# 1 0.013621 -0.000977 -0.002579 0.001807 -0.004689 0.000354
# 2 -0.000977 0.006890 -0.000048 0.002274 -0.000107 0.001460
# 3 -0.002579 -0.000048 0.016306 0.009382 -0.001720 0.007474
# 4 0.001807 0.002274 0.009382 0.022693 -0.002493 0.004465
# 5 -0.004689 -0.000107 -0.001720 -0.002493 0.026235 -0.000255
# 6 0.000354 0.001460 0.007474 0.004465 -0.000255 0.038206
#
#
# Mechanical properties :
#
#
# Convention : Reuss Voigt Hill
#
# Bulk Modulus (GPa) = 33.77441 53.61568 43.69505
# Shear Modulus (GPa) = 35.45345 45.28131 40.36738
#
# Velocity S-wave (km/s) = 3.86950 4.37306 4.12896
# Velocity P-wave (km/s) = 5.85047 6.93842 6.41754
#
# Compressibility (1/GPa) = 0.02960821
#
# Stress axis : x y z
#
# Youngs Moduli (GPa) = 73.41484 145.13813 61.32739
#
# Poissons Ratio (x) = 0.14179 0.15819
# Poissons Ratio (y) = 0.07172 0.00295
# Poissons Ratio (z) = 0.18937 0.00699
#
# Static dielectric constant tensor:
#      x y z
#    x 2.077680 -0.132490 0.016130 
#    y -0.132490 1.953150 -0.055980 
#    z 0.016130 -0.055980 2.086180 
# 
# From -- ./inp_files/428702.got.cif
#   From: 2010.05.17/outbox.cif.g08.bks.cpg/sg2_215_cif.got.tgz:428702.got - 2010.06.03 11:33:40.
