data_PCOD9069054
_publ_section_title
;
Structure prediction by ZEFSAII (Michael W. Deem and Ramdas Pophale) SiO2 
 PCOD9069054
Probable space group: P -1
;
_chemical_formula_sum "Si O2"
_cell_formula_units_Z 16
_cell_length_a 7.864708
_cell_length_b 8.014509
_cell_length_c 22.704107
_cell_angle_alpha 108.961909
_cell_angle_beta 123.718951
_cell_angle_gamma 36.181724
_cell_volume 680.260011
_symmetry_space_group_name_H-M "P -1"
_symmetry_group_IT_number 2
_symmetry_cell_setting 'triclinic'
loop_
_space_group_symop_operation_xyz
x,y,z
-x,-y,-z
loop_
_atom_site_type_symbol
_atom_site_label
_atom_site_fract_x
_atom_site_fract_y
_atom_site_fract_z
Si Si1 0.305699 0.116849 0.627382
Si Si2 0.561642 0.568675 0.578390
Si Si3 0.545482 0.611585 0.350023
Si Si4 0.312523 0.225130 0.228463
Si Si5 0.782449 0.174980 0.260024
Si Si6 0.423580 0.229671 0.860566
Si Si7 0.635375 0.443699 0.885962
Si Si8 0.600015 0.128943 0.018054
O O1 0.337652 0.265364 0.608326
O O2 0.952915 0.361441 0.623573
O O3 0.347508 0.896781 0.579862
O O4 0.611902 0.916237 0.710810
O O5 0.500000 0.500000 0.500000
O O6 0.475942 0.495272 0.607818
O O7 0.775124 0.362511 0.315932
O O8 0.162618 0.871077 0.281510
O O9 0.622132 0.145669 0.270657
O O10 0.962040 0.570231 0.193909
O O11 0.337262 0.065483 0.162913
O O12 0.523822 0.348180 0.175882
O O13 0.406931 0.430305 0.849784
O O14 0.553996 0.175198 0.944857
O O15 0.623951 0.578362 0.955754
O O16 0.015073 0.113316 0.915020
O O17 0.500000 0.000000 0.000000
#
# Coordination Sequence:
#
# PCOD9069054 Si02
#       8
#     2   2   2   2   2   2   2   2
#     4  12  25  45  72 103 140 182 227 280 336 398
#     4  12  26  47  71 105 143 180 225 274 331 408
#     4  12  24  45  70 103 140 180 228 281 336 399
#     4  12  22  41  65  95 128 169 223 274 332 398
#     4  12  23  42  68  98 133 177 225 283 337 394
#     4  12  24  39  62  92 124 171 218 275 338 397
#     4  12  24  41  61  90 125 167 220 277 334 402
#     4  12  24  42  59  86 124 169 217 273 340 402
#
# _framework density 23.520416000000001
#
# number of rings (size 3 to 8) (size 9 to 14) (size 15 to 20)
#    0.000    0.000    2.500    9.000    0.000    1.000 
#    0.000    0.000    0.000    0.000    0.000    0.000 
#    0.000    0.000    0.000    0.000    0.000    0.000 
#
# Total GULP energy -89601.328220 kJ/mol
# GULP energy per Si atom -5600.083014 kJ/mol
# Density = 2.346688 g / cm^3
# Si number density = 23.520416 Si / 1000 Ang^3
#
#
#
# Elastic Constant Matrix: (Units=GPa)
#
#
# Indices 1 2 3 4 5 6 
#
# 1 102.4898 18.8957 10.4969 12.6722 10.4906 20.0558
# 2 18.8957 78.9767 -2.4770 17.3709 -0.0902 5.6970
# 3 10.4969 -2.4770 65.0892 14.7382 -13.3207 5.1809
# 4 12.6722 17.3709 14.7382 37.1566 -7.0830 10.9346
# 5 10.4906 -0.0902 -13.3207 -7.0830 22.0817 8.9629
# 6 20.0558 5.6970 5.1809 10.9346 8.9629 29.9800
#
#
#
# Elastic Compliance Matrix: (Units=1/GPa)
#
#
# Indices 1 2 3 4 5 6 
#
# 1 0.012209 -0.002252 -0.002459 -0.001820 -0.005892 -0.004889
# 2 -0.002252 0.014857 0.002508 -0.007519 -0.000195 0.001050
# 3 -0.002459 0.002508 0.020046 -0.004174 0.013938 -0.004940
# 4 -0.001820 -0.007519 -0.004174 0.041325 0.018576 -0.017258
# 5 -0.005892 -0.000195 0.013938 0.018576 0.073481 -0.027173
# 6 -0.004889 0.001050 -0.004940 -0.017258 -0.027173 0.051699
#
#
# Mechanical properties :
#
#
# Convention : Reuss Voigt Hill
#
# Bulk Modulus (GPa) = 23.41640 33.37633 28.39636
# Shear Modulus (GPa) = 21.52769 32.48632 27.00700
#
# Velocity S-wave (km/s) = 3.02864 3.72048 3.39224
# Velocity P-wave (km/s) = 4.71249 5.71639 5.23854
#
# Compressibility (1/GPa) = 0.04270512
#
# Stress axis : x y z
#
# Youngs Moduli (GPa) = 81.90651 67.30771 49.88439
#
# Poissons Ratio (x) = 0.15157 0.12268
# Poissons Ratio (y) = 0.18445 -0.12509
# Poissons Ratio (z) = 0.20143 -0.16878
#
# Static dielectric constant tensor:
#      x y z
#    x 2.004980 0.026070 -0.052040 
#    y 0.026070 2.140710 -0.392620 
#    z -0.052040 -0.392620 2.385050 
# 
# From -- ./inp_files/352519.got.cif
#   From: 2010.05.17/outbox.cif.g08.bks.cpg/sg2_177_cif.got.tgz:352519.got - 2010.06.03 11:33:40.
