data_PCOD9069718
_publ_section_title
;
Structure prediction by ZEFSAII (Michael W. Deem and Ramdas Pophale) SiO2 
 PCOD9069718
Probable space group: P -1
;
_chemical_formula_sum "Si O2"
_cell_formula_units_Z 14
_cell_length_a 9.516899
_cell_length_b 12.147634
_cell_length_c 15.414052
_cell_angle_alpha 27.650467
_cell_angle_beta 131.547239
_cell_angle_gamma 120.831536
_cell_volume 604.324064
_symmetry_space_group_name_H-M "P -1"
_symmetry_group_IT_number 2
_symmetry_cell_setting 'triclinic'
loop_
_space_group_symop_operation_xyz
x,y,z
-x,-y,-z
loop_
_atom_site_type_symbol
_atom_site_label
_atom_site_fract_x
_atom_site_fract_y
_atom_site_fract_z
Si Si1 0.432188 0.740365 0.551558
Si Si2 0.871616 0.520486 0.299845
Si Si3 0.784394 0.913436 0.294430
Si Si4 0.242309 0.238501 0.089337
Si Si5 0.813941 0.423146 0.014238
Si Si6 0.893790 0.968899 0.108772
Si Si7 0.425730 0.756848 0.332253
O O1 0.260835 0.643184 0.595702
O O2 0.628454 0.570732 0.783392
O O3 0.415322 0.719692 0.455667
O O4 0.410154 0.032933 0.344568
O O5 0.055597 0.338375 0.460104
O O6 0.935770 0.701857 0.269190
O O7 0.745249 0.681627 0.060619
O O8 0.584068 0.902128 0.264623
O O9 0.771694 0.965040 0.149572
O O10 0.844954 0.137692 0.210269
O O11 0.210651 0.478634 0.966500
O O12 0.065141 0.099764 0.113181
O O13 0.000000 0.500000 0.000000
O O14 0.775263 0.128291 0.873663
O O15 0.500000 0.500000 0.500000
#
# Coordination Sequence:
#
# PCOD9069718 Si02
#       7
#     2   2   2   2   2   2   2
#     4  12  27  51  75 108 147 199 251 305 370 439
#     4  12  26  47  78 112 147 194 250 304 372 448
#     4  12  26  46  76 114 147 201 244 307 374 429
#     4  12  27  48  77 109 150 202 244 304 367 445
#     4  12  27  52  74 107 153 193 253 308 364 441
#     4  12  23  47  75 113 153 190 248 301 377 446
#     4  12  26  44  75 114 154 190 243 314 373 439
#
# _framework density 23.166378000000002
#
# number of rings (size 3 to 8) (size 9 to 14) (size 15 to 20)
#    0.000    0.000    4.286    5.143    4.000    1.143 
#    2.571    0.000    0.000    0.000    0.000    0.000 
#    0.000    0.000    0.000    0.000    0.000    0.000 
#
# Total GULP energy -78398.055962 kJ/mol
# GULP energy per Si atom -5599.861140 kJ/mol
# Density = 2.311365 g / cm^3
# Si number density = 23.166378 Si / 1000 Ang^3
#
#
#
# Elastic Constant Matrix: (Units=GPa)
#
#
# Indices 1 2 3 4 5 6 
#
# 1 86.8251 9.6307 24.3581 6.7998 -17.4173 -5.6840
# 2 9.6307 103.3841 45.2899 -24.0773 5.5479 -18.1701
# 3 24.3581 45.2899 103.0586 1.5510 -1.3949 -5.9873
# 4 6.7998 -24.0773 1.5510 52.5097 -6.9347 5.1707
# 5 -17.4173 5.5479 -1.3949 -6.9347 50.5335 -0.6512
# 6 -5.6840 -18.1701 -5.9873 5.1707 -0.6512 42.9674
#
#
#
# Elastic Compliance Matrix: (Units=1/GPa)
#
#
# Indices 1 2 3 4 5 6 
#
# 1 0.013449 -0.000275 -0.002891 -0.001345 0.004420 0.001489
# 2 -0.000275 0.014802 -0.006285 0.006434 -0.000952 0.004559
# 3 -0.002891 -0.006285 0.013136 -0.002855 -0.000347 -0.000871
# 4 -0.001345 0.006434 -0.002855 0.022549 0.001839 -0.000541
# 5 0.004420 -0.000952 -0.000347 0.001839 0.021663 0.000241
# 6 0.001489 0.004559 -0.000871 -0.000541 0.000241 0.025346
#
#
# Mechanical properties :
#
#
# Convention : Reuss Voigt Hill
#
# Bulk Modulus (GPa) = 44.47449 50.20279 47.33864
# Shear Modulus (GPa) = 36.40578 43.46806 39.93692
#
# Velocity S-wave (km/s) = 3.96851 4.33638 4.15651
# Velocity P-wave (km/s) = 6.34336 6.84031 6.59652
#
# Compressibility (1/GPa) = 0.02248480
#
# Stress axis : x y z
#
# Youngs Moduli (GPa) = 74.35762 67.55751 76.12608
#
# Poissons Ratio (x) = 0.01858 0.22009
# Poissons Ratio (y) = 0.02045 0.47844
# Poissons Ratio (z) = 0.21498 0.42459
#
# Static dielectric constant tensor:
#      x y z
#    x 1.745910 0.027410 -0.007270 
#    y 0.027410 1.739360 0.036580 
#    z -0.007270 0.036580 1.885240 
# 
# From -- ./inp_files/427046.got.cif
#   From: 2010.05.17/outbox.cif.g08.bks.cpg/sg2_214_cif.got.tgz:427046.got - 2010.06.03 11:33:40.
