data_PCOD9069007
_publ_section_title
;
Structure prediction by ZEFSAII (Michael W. Deem and Ramdas Pophale) SiO2 
 PCOD9069007
Probable space group: P -1
;
_chemical_formula_sum "Si O2"
_cell_formula_units_Z 16
_cell_length_a 25.155406
_cell_length_b 14.743376
_cell_length_c 17.389375
_cell_angle_alpha 156.875949
_cell_angle_beta 159.349994
_cell_angle_gamma 21.013731
_cell_volume 759.363990
_symmetry_space_group_name_H-M "P -1"
_symmetry_group_IT_number 2
_symmetry_cell_setting 'triclinic'
loop_
_space_group_symop_operation_xyz
x,y,z
-x,-y,-z
loop_
_atom_site_type_symbol
_atom_site_label
_atom_site_fract_x
_atom_site_fract_y
_atom_site_fract_z
Si Si1 0.201596 0.883992 0.454393
Si Si2 0.957094 0.483398 0.645168
Si Si3 0.852022 0.201379 0.858742
Si Si4 0.827401 0.491826 0.776397
Si Si5 0.565495 0.089280 0.945078
Si Si6 0.174622 0.723118 0.553850
Si Si7 0.487863 0.254051 0.141115
Si Si8 0.165813 0.293653 0.509134
O O1 0.200145 0.858903 0.342360
O O2 0.100125 0.764418 0.268155
O O3 0.394167 0.686156 0.596630
O O4 0.124780 0.188632 0.617375
O O5 0.879440 0.419688 0.565627
O O6 0.844119 0.577929 0.487452
O O7 0.004595 0.715155 0.901741
O O8 0.700264 0.474639 0.906449
O O9 0.868991 0.954332 0.738578
O O10 0.757013 0.454370 0.570088
O O11 0.000000 0.500000 0.000000
O O12 0.680261 0.771044 0.833893
O O13 0.679518 0.216540 0.167334
O O14 0.567363 0.145102 0.081025
O O15 0.360314 0.204438 0.735259
O O16 0.000000 0.000000 0.500000
O O17 0.500000 0.000000 0.000000
O O18 0.000000 0.500000 0.500000
#
# Coordination Sequence:
#
# PCOD9069007 Si02
#       8
#     2   2   2   2   2   2   2   2
#     4  12  22  39  66 106 139 176 233 291 372 427
#     4  12  25  46  70 102 140 193 244 292 354 428
#     4  12  25  44  72 102 143 191 238 302 369 420
#     4  12  23  41  71 106 145 181 232 296 368 430
#     4  12  26  46  72 104 151 190 239 300 361 428
#     4  12  24  46  73 107 145 186 235 305 369 431
#     4  12  22  40  69 105 145 173 231 301 366 436
#     4  12  27  51  72 101 146 198 252 294 345 428
#
# _framework density 21.070264000000002
#
# number of rings (size 3 to 8) (size 9 to 14) (size 15 to 20)
#    0.000    0.000    6.250    4.500    0.000    0.500 
#    0.000    0.625    0.000    0.000    0.000    0.000 
#    0.000    0.000    0.000    0.000    0.000    0.000 
#
# Total GULP energy -89290.517697 kJ/mol
# GULP energy per Si atom -5580.657356 kJ/mol
# Density = 2.102231 g / cm^3
# Si number density = 21.070264 Si / 1000 Ang^3
#
#
#
# Elastic Constant Matrix: (Units=GPa)
#
#
# Indices 1 2 3 4 5 6 
#
# 1 119.4597 32.8703 24.6490 13.0987 0.8435 15.6125
# 2 32.8703 82.6997 37.8798 11.4572 14.1080 0.6512
# 3 24.6490 37.8798 112.8392 2.8726 19.3898 1.9211
# 4 13.0987 11.4572 2.8726 40.0656 1.3810 -0.3113
# 5 0.8435 14.1080 19.3898 1.3810 41.3250 9.1838
# 6 15.6125 0.6512 1.9211 -0.3113 9.1838 38.0143
#
#
#
# Elastic Compliance Matrix: (Units=1/GPa)
#
#
# Indices 1 2 3 4 5 6 
#
# 1 0.010562 -0.003658 -0.001428 -0.002442 0.002878 -0.004918
# 2 -0.003658 0.016481 -0.003990 -0.003071 -0.004108 0.002389
# 3 -0.001428 -0.003990 0.011180 0.000957 -0.004130 0.001095
# 4 -0.002442 -0.003071 0.000957 0.026596 -0.000541 0.001356
# 5 0.002878 -0.004108 -0.004130 -0.000541 0.029271 -0.007979
# 6 -0.004918 0.002389 0.001095 0.001356 -0.007979 0.030168
#
#
# Mechanical properties :
#
#
# Convention : Reuss Voigt Hill
#
# Bulk Modulus (GPa) = 49.82222 56.19966 53.01094
# Shear Modulus (GPa) = 33.53412 38.52095 36.02754
#
# Velocity S-wave (km/s) = 3.99374 4.28040 4.13955
# Velocity P-wave (km/s) = 6.70549 7.15259 6.93265
#
# Compressibility (1/GPa) = 0.02007136
#
# Stress axis : x y z
#
# Youngs Moduli (GPa) = 94.67481 60.67621 89.44380
#
# Poissons Ratio (x) = 0.22196 0.12772
# Poissons Ratio (y) = 0.34633 0.35689
# Poissons Ratio (z) = 0.13519 0.24211
#
# Static dielectric constant tensor:
#      x y z
#    x 1.738390 0.001470 0.005980 
#    y 0.001470 1.761450 -0.029920 
#    z 0.005980 -0.029920 1.813460 
# 
# From -- ./inp_files/579910.got.cif
#   From: 2010.05.17/outbox.cif.g08.bks.cpg/sg2_290_cif.got.tgz:579910.got - 2010.06.03 11:33:40.
