data_PCOD9069748
_publ_section_title
;
Structure prediction by ZEFSAII (Michael W. Deem and Ramdas Pophale) SiO2 
 PCOD9069748
Probable space group: P -1
;
_chemical_formula_sum "Si O2"
_cell_formula_units_Z 16
_cell_length_a 14.003084
_cell_length_b 8.711881
_cell_length_c 9.802666
_cell_angle_alpha 133.970426
_cell_angle_beta 64.889200
_cell_angle_gamma 87.411883
_cell_volume 664.995911
_symmetry_space_group_name_H-M "P -1"
_symmetry_group_IT_number 2
_symmetry_cell_setting 'triclinic'
loop_
_space_group_symop_operation_xyz
x,y,z
-x,-y,-z
loop_
_atom_site_type_symbol
_atom_site_label
_atom_site_fract_x
_atom_site_fract_y
_atom_site_fract_z
Si Si1 0.436907 0.377005 0.544833
Si Si2 0.390215 0.155471 0.989383
Si Si3 0.524521 0.431078 0.099769
Si Si4 0.241832 0.069851 0.263021
Si Si5 0.794939 0.712409 0.056833
Si Si6 0.934422 0.976171 0.159307
Si Si7 0.019944 0.680130 0.498251
Si Si8 0.180354 0.487427 0.782062
O O1 0.500000 0.500000 0.500000
O O2 0.289298 0.543373 0.725715
O O3 0.486032 0.106003 0.283933
O O4 0.480529 0.367086 0.668329
O O5 0.429389 0.341757 0.139853
O O6 0.315217 0.242128 0.947083
O O7 0.308902 0.110323 0.118983
O O8 0.660936 0.189512 0.887276
O O9 0.500000 0.500000 0.000000
O O10 0.195911 0.299048 0.536523
O O11 0.116409 0.088002 0.303850
O O12 0.784637 0.655898 0.183888
O O13 0.822582 0.935872 0.169839
O O14 0.913710 0.472589 0.770356
O O15 0.042005 0.723754 0.010705
O O16 0.900814 0.217122 0.417394
O O17 0.000000 0.000000 0.000000
O O18 0.000000 0.500000 0.500000
#
# Coordination Sequence:
#
# PCOD9069748 Si02
#       8
#     2   2   2   2   2   2   2   2
#     4  12  26  47  77 106 140 194 248 294 360 441
#     4  12  26  48  73 102 146 190 244 298 357 435
#     4  12  27  46  71 109 145 190 241 299 370 426
#     4  12  23  48  75 100 147 190 239 301 359 429
#     4  12  28  48  71 110 149 190 239 305 367 424
#     4  12  25  46  77 106 142 197 243 288 363 438
#     4  12  24  48  75 108 145 188 246 302 353 437
#     4  12  27  48  74 109 152 184 239 312 366 421
#
# _framework density 24.060298
#
# number of rings (size 3 to 8) (size 9 to 14) (size 15 to 20)
#    0.000    0.000    6.250    3.000    3.500    2.500 
#    2.250    0.000    0.000    0.000    0.000    0.000 
#    0.000    0.000    0.000    0.000    0.000    0.000 
#
# Total GULP energy -89715.839632 kJ/mol
# GULP energy per Si atom -5607.239977 kJ/mol
# Density = 2.400554 g / cm^3
# Si number density = 24.060298 Si / 1000 Ang^3
#
#
#
# Elastic Constant Matrix: (Units=GPa)
#
#
# Indices 1 2 3 4 5 6 
#
# 1 88.8895 -14.7581 8.8039 8.5764 6.3053 0.0241
# 2 -14.7581 63.3657 -1.7596 -10.3143 2.4203 -18.5160
# 3 8.8039 -1.7596 85.0674 -4.1915 24.3436 7.5656
# 4 8.5764 -10.3143 -4.1915 29.1622 -8.3324 3.8938
# 5 6.3053 2.4203 24.3436 -8.3324 48.0323 5.3283
# 6 0.0241 -18.5160 7.5656 3.8938 5.3283 40.5028
#
#
#
# Elastic Compliance Matrix: (Units=1/GPa)
#
#
# Indices 1 2 3 4 5 6 
#
# 1 0.012340 0.002972 -0.000973 -0.003620 -0.002145 0.002163
# 2 0.002972 0.019855 -0.000008 0.004512 -0.001586 0.008851
# 3 -0.000973 -0.000008 0.013944 0.000633 -0.006630 -0.001796
# 4 -0.003620 0.004512 0.000633 0.039435 0.007076 -0.002775
# 5 -0.002145 -0.001586 -0.006630 0.007076 0.026169 -0.003608
# 6 0.002163 0.008851 -0.001796 -0.002775 -0.003608 0.029812
#
#
# Mechanical properties :
#
#
# Convention : Reuss Voigt Hill
#
# Bulk Modulus (GPa) = 19.95134 24.65500 22.30317
# Shear Modulus (GPa) = 32.40879 39.87522 36.14201
#
# Velocity S-wave (km/s) = 3.67411 4.07542 3.87995
# Velocity P-wave (km/s) = 5.12923 5.69340 5.41866
#
# Compressibility (1/GPa) = 0.05012194
#
# Stress axis : x y z
#
# Youngs Moduli (GPa) = 81.03431 50.36560 71.71485
#
# Poissons Ratio (x) = -0.14968 0.06976
# Poissons Ratio (y) = -0.24083 0.00057
# Poissons Ratio (z) = 0.07882 0.00040
#
# Static dielectric constant tensor:
#      x y z
#    x 1.936220 -0.001250 0.013860 
#    y -0.001250 1.918390 0.019240 
#    z 0.013860 0.019240 1.902630 
# 
# From -- ./inp_files/206728.got.cif
#   From: 2010.05.17/outbox.cif.g08.bks.cpg/sg2_104_cif.got.tgz:206728.got - 2010.06.03 11:33:40.
