data_PCOD9069127
_publ_section_title
;
Structure prediction by ZEFSAII (Michael W. Deem and Ramdas Pophale) SiO2 
 PCOD9069127
Probable space group: P -1
;
_chemical_formula_sum "Si O2"
_cell_formula_units_Z 14
_cell_length_a 6.013191
_cell_length_b 12.162596
_cell_length_c 12.342287
_cell_angle_alpha 41.236283
_cell_angle_beta 96.545976
_cell_angle_gamma 100.437475
_cell_volume 584.816619
_symmetry_space_group_name_H-M "P -1"
_symmetry_group_IT_number 2
_symmetry_cell_setting 'triclinic'
loop_
_space_group_symop_operation_xyz
x,y,z
-x,-y,-z
loop_
_atom_site_type_symbol
_atom_site_label
_atom_site_fract_x
_atom_site_fract_y
_atom_site_fract_z
Si Si1 0.701718 0.615185 0.363214
Si Si2 0.144089 0.851903 0.250389
Si Si3 0.380465 0.781837 0.102285
Si Si4 0.260419 0.191564 0.085454
Si Si5 0.032612 0.503698 0.190828
Si Si6 0.637886 0.643509 0.824663
Si Si7 0.323186 0.685688 0.573983
O O1 0.500000 0.500000 0.500000
O O2 0.595591 0.772885 0.197178
O O3 0.722586 0.497540 0.349406
O O4 0.941847 0.694586 0.365357
O O5 0.226494 0.863538 0.121514
O O6 0.331308 0.810914 0.380086
O O7 0.088521 0.030334 0.155925
O O8 0.228120 0.601299 0.205700
O O9 0.511200 0.817681 0.967211
O O10 0.313193 0.196612 0.211995
O O11 0.135160 0.357121 0.941597
O O12 0.152854 0.444844 0.135950
O O13 0.908177 0.327929 0.361976
O O14 0.514823 0.689410 0.672947
O O15 0.500000 0.500000 0.000000
#
# Coordination Sequence:
#
# PCOD9069127 Si02
#       7
#     2   2   2   2   2   2   2
#     4  12  22  43  70 103 138 182 234 284 343 417
#     4  12  28  43  70 108 149 177 224 292 363 414
#     4  12  22  43  74 102 141 182 233 284 348 410
#     4  12  27  45  67 108 144 186 228 289 353 405
#     4  12  22  43  75 101 133 185 243 284 338 408
#     4  12  24  46  74 101 133 186 247 283 332 417
#     4  12  24  43  72 104 133 186 237 285 341 414
#
# _framework density 23.939129999999999
#
# number of rings (size 3 to 8) (size 9 to 14) (size 15 to 20)
#    0.000    0.000    8.571    2.143    0.000    4.000 
#    0.000    0.714    0.000    0.000    0.000    0.000 
#    0.000    0.000    0.000    0.000    0.000    0.000 
#
# Total GULP energy -77984.122528 kJ/mol
# GULP energy per Si atom -5570.294466 kJ/mol
# Density = 2.388464 g / cm^3
# Si number density = 23.939130 Si / 1000 Ang^3
#
#
#
# Elastic Constant Matrix: (Units=GPa)
#
#
# Indices 1 2 3 4 5 6 
#
# 1 78.0385 50.2681 43.8318 19.9898 -5.1366 2.0077
# 2 50.2681 175.5997 52.4425 25.6981 -5.0565 -5.6149
# 3 43.8318 52.4425 96.0150 19.9347 -3.5786 4.2209
# 4 19.9898 25.6981 19.9347 32.5830 8.0568 1.1072
# 5 -5.1366 -5.0565 -3.5786 8.0568 33.9107 23.9948
# 6 2.0077 -5.6149 4.2209 1.1072 23.9948 34.0841
#
#
#
# Elastic Compliance Matrix: (Units=1/GPa)
#
#
# Indices 1 2 3 4 5 6 
#
# 1 0.020985 -0.003014 -0.005259 -0.009466 0.009905 -0.007747
# 2 -0.003014 0.007729 -0.002379 -0.002766 -0.000391 0.002111
# 3 -0.005259 -0.002379 0.015888 -0.006008 0.006506 -0.006434
# 4 -0.009466 -0.002766 -0.006008 0.048371 -0.026819 0.018155
# 5 0.009905 -0.000391 0.006506 -0.026819 0.076518 -0.054450
# 6 -0.007747 0.002111 -0.006434 0.018155 -0.054450 0.068682
#
#
# Mechanical properties :
#
#
# Convention : Reuss Voigt Hill
#
# Bulk Modulus (GPa) = 42.91978 71.41535 57.16757
# Shear Modulus (GPa) = 18.70966 33.65629 26.18298
#
# Velocity S-wave (km/s) = 2.79866 3.75362 3.31075
# Velocity P-wave (km/s) = 5.33019 6.97732 6.20862
#
# Compressibility (1/GPa) = 0.02329928
#
# Stress axis : x y z
#
# Youngs Moduli (GPa) = 47.65234 129.38245 62.94238
#
# Poissons Ratio (x) = 0.38997 0.33099
# Poissons Ratio (y) = 0.14363 0.14971
# Poissons Ratio (z) = 0.25059 0.30775
#
# Static dielectric constant tensor:
#      x y z
#    x 2.074630 -0.043600 -0.023740 
#    y -0.043600 1.974150 0.059060 
#    z -0.023740 0.059060 2.062110 
# 
# From -- ./inp_files/363687.got.cif
#   From: 2010.05.17/outbox.cif.g08.bks.cpg/sg2_182_cif.got.tgz:363687.got - 2010.06.03 11:33:40.
