data_PCOD9069230
_publ_section_title
;
Structure prediction by ZEFSAII (Michael W. Deem and Ramdas Pophale) SiO2 
 PCOD9069230
Probable space group: P -1
;
_chemical_formula_sum "Si O2"
_cell_formula_units_Z 11
_cell_length_a 9.607885
_cell_length_b 8.749131
_cell_length_c 8.925548
_cell_angle_alpha 105.376021
_cell_angle_beta 132.930535
_cell_angle_gamma 103.453039
_cell_volume 429.453218
_symmetry_space_group_name_H-M "P -1"
_symmetry_group_IT_number 2
_symmetry_cell_setting 'triclinic'
loop_
_space_group_symop_operation_xyz
x,y,z
-x,-y,-z
loop_
_atom_site_type_symbol
_atom_site_label
_atom_site_fract_x
_atom_site_fract_y
_atom_site_fract_z
Si Si1 0.546228 0.112218 0.404857
Si Si2 0.158455 0.010676 0.484622
Si Si3 0.950331 0.161444 0.179756
Si Si4 0.000000 0.500000 0.500000
Si Si5 0.622547 0.432604 0.970669
Si Si6 0.200573 0.472570 0.188975
O O1 0.605768 0.324290 0.533882
O O2 0.500000 0.000000 0.500000
O O3 0.781618 0.145846 0.518515
O O4 0.323588 0.984769 0.100942
O O5 0.044126 0.034722 0.262248
O O6 0.421835 0.205902 0.736885
O O7 0.000000 0.000000 0.500000
O O8 0.006682 0.313653 0.394081
O O9 0.089230 0.294178 0.172791
O O10 0.169335 0.541984 0.776590
O O11 0.500000 0.500000 0.000000
O O12 0.697031 0.540534 0.894508
O O13 0.000000 0.500000 0.000000
#
# Coordination Sequence:
#
# PCOD9069230 Si02
#       6
#     2   2   2   1   2   2
#     4  12  25  52  75 115 158 202 263 320 385 466
#     4  12  29  49  73 116 160 200 259 327 384 462
#     4  12  28  49  81 115 156 212 259 320 400 459
#     4  12  22  46  78 110 154 202 256 308 392 452
#     4  12  26  49  76 115 152 200 262 318 386 467
#     4  12  25  51  84 109 158 209 258 326 390 465
#
# _framework density 25.613962999999998
#
# number of rings (size 3 to 8) (size 9 to 14) (size 15 to 20)
#    0.000    0.000    9.091    0.000    5.091    3.636 
#    0.000    0.000    0.000    0.000    0.000    0.000 
#    0.000    0.000    0.000    0.000    0.000    0.000 
#
# Total GULP energy -61479.590257 kJ/mol
# GULP energy per Si atom -5589.053660 kJ/mol
# Density = 2.555566 g / cm^3
# Si number density = 25.613963 Si / 1000 Ang^3
#
#
#
# Elastic Constant Matrix: (Units=GPa)
#
#
# Indices 1 2 3 4 5 6 
#
# 1 164.4103 49.9404 38.3222 -7.6880 -13.1976 9.8729
# 2 49.9404 86.8317 58.1532 -16.6991 12.9666 12.9264
# 3 38.3222 58.1532 180.0887 -6.9184 3.2988 -2.0271
# 4 -7.6880 -16.6991 -6.9184 45.2367 -8.6742 -1.7484
# 5 -13.1976 12.9666 3.2988 -8.6742 36.8708 4.3618
# 6 9.8729 12.9264 -2.0271 -1.7484 4.3618 42.2348
#
#
#
# Elastic Compliance Matrix: (Units=1/GPa)
#
#
# Indices 1 2 3 4 5 6 
#
# 1 0.008133 -0.005099 -0.000169 0.000383 0.004909 -0.000840
# 2 -0.005099 0.020558 -0.005306 0.004393 -0.007021 -0.004448
# 3 -0.000169 -0.005306 0.007284 -0.000651 0.000775 0.001906
# 4 0.000383 0.004393 -0.000651 0.024526 0.004529 -0.000918
# 5 0.004909 -0.007021 0.000775 0.004529 0.032597 -0.002141
# 6 -0.000840 -0.004448 0.001906 -0.000918 -0.002141 0.025509
#
#
# Mechanical properties :
#
#
# Convention : Reuss Voigt Hill
#
# Bulk Modulus (GPa) = 67.44140 80.46249 73.95194
# Shear Modulus (GPa) = 34.55469 43.86280 39.20875
#
# Velocity S-wave (km/s) = 3.67694 4.14267 3.91673
# Velocity P-wave (km/s) = 6.66435 7.37320 7.02772
#
# Compressibility (1/GPa) = 0.01482769
#
# Stress axis : x y z
#
# Youngs Moduli (GPa) = 122.95785 48.64262 137.27913
#
# Poissons Ratio (x) = 0.24802 0.02317
# Poissons Ratio (y) = 0.62694 0.72843
# Poissons Ratio (z) = 0.02076 0.25811
#
# Static dielectric constant tensor:
#      x y z
#    x 2.127740 -0.144390 -0.082070 
#    y -0.144390 2.250460 0.195660 
#    z -0.082070 0.195660 2.076260 
# 
# From -- ./inp_files/156033.got.cif
#   From: 2010.05.17/outbox.cif.g08.bks.cpg/sg2_79_cif.got.tgz:156033.got - 2010.06.03 11:33:40.
