data_PCOD9069483
_publ_section_title
;
Structure prediction by ZEFSAII (Michael W. Deem and Ramdas Pophale) SiO2 
 PCOD9069483
Probable space group: P -1
;
_chemical_formula_sum "Si O2"
_cell_formula_units_Z 12
_cell_length_a 5.003771
_cell_length_b 13.326221
_cell_length_c 15.967690
_cell_angle_alpha 153.077381
_cell_angle_beta 76.146165
_cell_angle_gamma 104.169696
_cell_volume 466.890986
_symmetry_space_group_name_H-M "P -1"
_symmetry_group_IT_number 2
_symmetry_cell_setting 'triclinic'
loop_
_space_group_symop_operation_xyz
x,y,z
-x,-y,-z
loop_
_atom_site_type_symbol
_atom_site_label
_atom_site_fract_x
_atom_site_fract_y
_atom_site_fract_z
Si Si1 0.971137 0.254029 0.171237
Si Si2 0.574222 0.530334 0.613136
Si Si3 0.966263 0.539250 0.115968
Si Si4 0.373773 0.339311 0.051353
Si Si5 0.650960 0.082649 0.370184
Si Si6 0.933294 0.025515 0.604544
O O1 0.114922 0.368923 0.326365
O O2 0.181737 0.342346 0.148727
O O3 0.661623 0.313116 0.220462
O O4 0.000000 0.000000 0.000000
O O5 0.500000 0.500000 0.500000
O O6 0.564849 0.305678 0.499906
O O7 0.694422 0.421313 0.092253
O O8 0.942068 0.817822 0.367947
O O9 0.249665 0.495634 0.107729
O O10 0.992973 0.312378 0.864018
O O11 0.322092 0.091103 0.835514
O O12 0.393872 0.984203 0.370512
O O13 0.908763 0.095984 0.423915
#
# Coordination Sequence:
#
# PCOD9069483 Si02
#       6
#     2   2   2   2   2   2
#     4  12  28  50  78 110 141 188 246 303 364 437
#     4  12  28  50  78 107 148 188 236 305 374 437
#     4  12  23  44  69 102 143 191 241 282 354 417
#     4  12  25  44  74 103 142 188 241 297 348 429
#     4  12  25  47  69 105 143 190 236 294 364 418
#     4  12  27  42  68 103 147 190 239 292 347 427
#
# _framework density 25.701927999999999
#
# number of rings (size 3 to 8) (size 9 to 14) (size 15 to 20)
#    0.000    0.000    3.333    6.000    7.000    2.667 
#    0.000    0.000    0.000    0.000    0.000    0.000 
#    0.000    0.000    0.000    0.000    0.000    0.000 
#
# Total GULP energy -67102.566642 kJ/mol
# GULP energy per Si atom -5591.880554 kJ/mol
# Density = 2.564343 g / cm^3
# Si number density = 25.701928 Si / 1000 Ang^3
#
#
#
# Elastic Constant Matrix: (Units=GPa)
#
#
# Indices 1 2 3 4 5 6 
#
# 1 106.2383 11.9336 14.1854 7.9032 -10.5632 -9.2545
# 2 11.9336 92.7205 37.1989 10.0807 -5.1954 -14.0735
# 3 14.1854 37.1989 137.3347 5.7772 -11.9531 -10.0293
# 4 7.9032 10.0807 5.7772 52.7991 -7.4908 -10.5651
# 5 -10.5632 -5.1954 -11.9531 -7.4908 51.2517 4.1058
# 6 -9.2545 -14.0735 -10.0293 -10.5651 4.1058 40.5428
#
#
#
# Elastic Compliance Matrix: (Units=1/GPa)
#
#
# Indices 1 2 3 4 5 6 
#
# 1 0.009911 -0.000642 -0.000565 -0.000763 0.001611 0.001538
# 2 -0.000642 0.012737 -0.003097 -0.001368 -0.000016 0.003154
# 3 -0.000565 -0.003097 0.008357 0.000120 0.001476 0.000745
# 4 -0.000763 -0.001368 0.000120 0.020538 0.002374 0.004492
# 5 0.001611 -0.000016 0.001476 0.002374 0.020593 -0.000739
# 6 0.001538 0.003154 0.000745 0.004492 -0.000739 0.027541
#
#
# Mechanical properties :
#
#
# Convention : Reuss Voigt Hill
#
# Bulk Modulus (GPa) = 44.65170 51.43657 48.04413
# Shear Modulus (GPa) = 43.19652 47.11709 45.15681
#
# Velocity S-wave (km/s) = 4.10405 4.28625 4.19614
# Velocity P-wave (km/s) = 6.31413 6.67473 6.49693
#
# Compressibility (1/GPa) = 0.02239556
#
# Stress axis : x y z
#
# Youngs Moduli (GPa) = 100.89484 78.51248 119.66585
#
# Poissons Ratio (x) = 0.05043 0.06763
# Poissons Ratio (y) = 0.06480 0.37062
# Poissons Ratio (z) = 0.05702 0.24316
#
# Static dielectric constant tensor:
#      x y z
#    x 1.995510 -0.155520 1.268550 
#    y -0.155520 2.090770 -0.983160 
#    z 1.268550 -0.983160 10.741230 
# 
# From -- ./inp_files/536180.got.cif
#   From: 2010.05.17/outbox.cif.g08.bks.cpg/sg2_269_cif.got.tgz:536180.got - 2010.06.03 11:33:40.
