data_PCOD9069781
_publ_section_title
;
Structure prediction by ZEFSAII (Michael W. Deem and Ramdas Pophale) SiO2 
 PCOD9069781
Probable space group: P -1
;
_chemical_formula_sum "Si O2"
_cell_formula_units_Z 15
_cell_length_a 12.174904
_cell_length_b 8.946163
_cell_length_c 9.086208
_cell_angle_alpha 104.544890
_cell_angle_beta 53.266561
_cell_angle_gamma 72.713645
_cell_volume 627.205751
_symmetry_space_group_name_H-M "P -1"
_symmetry_group_IT_number 2
_symmetry_cell_setting 'triclinic'
loop_
_space_group_symop_operation_xyz
x,y,z
-x,-y,-z
loop_
_atom_site_type_symbol
_atom_site_label
_atom_site_fract_x
_atom_site_fract_y
_atom_site_fract_z
Si Si1 0.336301 0.872745 0.022626
Si Si2 0.126045 0.543403 0.340351
Si Si3 0.500000 0.000000 0.500000
Si Si4 0.628742 0.158740 0.674162
Si Si5 0.922834 0.225174 0.112566
Si Si6 0.981192 0.145505 0.726052
Si Si7 0.780658 0.785891 0.000897
Si Si8 0.374244 0.524107 0.380182
O O1 0.400672 0.840756 0.129312
O O2 0.163591 0.888969 0.170343
O O3 0.474128 0.692692 0.770237
O O4 0.301220 0.057927 0.022676
O O5 0.031541 0.741810 0.380804
O O6 0.251335 0.527967 0.357976
O O7 0.000000 0.500000 0.500000
O O8 0.218274 0.388618 0.099116
O O9 0.562161 0.060166 0.609484
O O10 0.311772 0.122032 0.750179
O O11 0.554912 0.365799 0.721517
O O12 0.830738 0.041187 0.461339
O O13 0.735761 0.359042 0.360596
O O14 0.939474 0.263140 0.939151
O O15 0.034584 0.264334 0.133057
O O16 0.000000 0.000000 0.000000
#
# Coordination Sequence:
#
# PCOD9069781 Si02
#       8
#     2   2   1   2   2   2   2   2
#     4  12  27  46  81 112 144 203 259 308 375 449
#     4  12  27  47  76 113 150 198 253 314 367 451
#     4  12  28  46  76 104 158 192 242 310 392 422
#     4  12  25  49  76 109 151 200 249 311 375 457
#     4  12  23  49  75 107 148 199 248 307 377 451
#     4  12  26  46  81 109 146 206 253 300 386 448
#     4  12  26  50  72 107 157 193 249 317 372 447
#     4  12  26  47  76 111 152 191 256 313 375 448
#
# _framework density 23.915599
#
# number of rings (size 3 to 8) (size 9 to 14) (size 15 to 20)
#    0.000    0.000    6.667    2.400    1.867    5.333 
#    0.000    0.000    0.000    0.000    0.000    0.000 
#    0.000    0.000    0.000    0.000    0.000    0.000 
#
# Total GULP energy -83840.167138 kJ/mol
# GULP energy per Si atom -5589.344476 kJ/mol
# Density = 2.386117 g / cm^3
# Si number density = 23.915599 Si / 1000 Ang^3
#
#
#
# Elastic Constant Matrix: (Units=GPa)
#
#
# Indices 1 2 3 4 5 6 
#
# 1 98.1011 -0.4890 13.1215 -4.6055 -3.7724 10.2479
# 2 -0.4890 36.8570 5.5535 9.9481 -12.5552 3.3071
# 3 13.1215 5.5535 126.2332 -0.1176 13.6627 5.1543
# 4 -4.6055 9.9481 -0.1176 24.1332 -5.5636 -2.7122
# 5 -3.7724 -12.5552 13.6627 -5.5636 33.8731 -3.5979
# 6 10.2479 3.3071 5.1543 -2.7122 -3.5979 20.7721
#
#
#
# Elastic Compliance Matrix: (Units=1/GPa)
#
#
# Indices 1 2 3 4 5 6 
#
# 1 0.010998 0.000938 -0.001184 0.001587 0.001805 -0.004761
# 2 0.000938 0.035310 -0.002732 -0.012238 0.011756 -0.004968
# 3 -0.001184 -0.002732 0.008789 -0.000440 -0.004983 -0.002082
# 4 0.001587 -0.012238 -0.000440 0.048826 0.004737 0.008470
# 5 0.001805 0.011756 -0.004983 0.004737 0.037461 0.005581
# 6 -0.004761 -0.004968 -0.002082 0.008470 0.005581 0.053871
#
#
# Mechanical properties :
#
#
# Convention : Reuss Voigt Hill
#
# Bulk Modulus (GPa) = 20.34967 33.06258 26.70612
# Shear Modulus (GPa) = 22.97889 31.95601 27.46745
#
# Velocity S-wave (km/s) = 3.10309 3.65937 3.39265
# Velocity P-wave (km/s) = 4.62237 5.63111 5.15149
#
# Compressibility (1/GPa) = 0.04914086
#
# Stress axis : x y z
#
# Youngs Moduli (GPa) = 90.92617 28.32092 113.77813
#
# Poissons Ratio (x) = -0.02656 0.13471
# Poissons Ratio (y) = -0.08529 0.31083
# Poissons Ratio (z) = 0.10765 0.07737
#
# Static dielectric constant tensor:
#      x y z
#    x 1.902450 0.009270 -0.031590 
#    y 0.009270 1.870080 -0.019280 
#    z -0.031590 -0.019280 1.951540 
# 
# From -- ./inp_files/159361.got.cif
#   From: 2010.05.17/outbox.cif.g08.bks.cpg/sg2_80_cif.got.tgz:159361.got - 2010.06.03 11:33:40.
