data_PCOD9069729
_publ_section_title
;
Structure prediction by ZEFSAII (Michael W. Deem and Ramdas Pophale) SiO2 
 PCOD9069729
Probable space group: P -1
;
_chemical_formula_sum "Si O2"
_cell_formula_units_Z 16
_cell_length_a 10.760677
_cell_length_b 13.416289
_cell_length_c 14.040372
_cell_angle_alpha 39.828036
_cell_angle_beta 57.924422
_cell_angle_gamma 32.650577
_cell_volume 660.087635
_symmetry_space_group_name_H-M "P -1"
_symmetry_group_IT_number 2
_symmetry_cell_setting 'triclinic'
loop_
_space_group_symop_operation_xyz
x,y,z
-x,-y,-z
loop_
_atom_site_type_symbol
_atom_site_label
_atom_site_fract_x
_atom_site_fract_y
_atom_site_fract_z
Si Si1 0.105583 0.397306 0.649093
Si Si2 0.592165 0.139039 0.163296
Si Si3 0.731993 0.124908 0.696189
Si Si4 0.617870 0.292666 0.399533
Si Si5 0.428090 0.238141 0.366131
Si Si6 0.683868 0.706153 0.162344
Si Si7 0.170450 0.586568 0.860930
Si Si8 0.908201 0.231196 0.686739
O O1 0.157591 0.372489 0.756845
O O2 0.084584 0.592750 0.476965
O O3 0.847206 0.528359 0.654224
O O4 0.314609 0.114728 0.720253
O O5 0.457396 0.273880 0.220673
O O6 0.404677 0.354881 0.001245
O O7 0.849137 0.007960 0.175723
O O8 0.659028 0.210995 0.552296
O O9 0.486790 0.291363 0.732121
O O10 0.869009 0.154005 0.667596
O O11 0.918984 0.821275 0.847080
O O12 0.614519 0.156380 0.425027
O O13 0.795274 0.276013 0.305319
O O14 0.339467 0.589320 0.286807
O O15 0.500000 0.000000 0.500000
O O16 0.833777 0.530208 0.138004
O O17 0.500000 0.000000 0.000000
#
# Coordination Sequence:
#
# PCOD9069729 Si02
#       8
#     2   2   2   2   2   2   2   2
#     4  12  25  47  74 105 147 191 242 302 358 430
#     4  12  27  48  70 109 151 190 243 297 361 438
#     4  12  28  49  77 106 145 188 244 307 356 430
#     4  12  25  49  75 108 144 191 247 298 361 433
#     4  12  27  43  75 109 143 192 240 299 363 421
#     4  12  27  48  74 106 147 190 239 295 370 429
#     4  12  29  47  74 110 145 194 242 296 370 429
#     4  12  23  47  78 103 144 193 240 301 360 426
#
# _framework density 24.239205999999999
#
# number of rings (size 3 to 8) (size 9 to 14) (size 15 to 20)
#    0.000    0.000    6.250    3.375    3.500    3.000 
#    0.000    0.000    0.000    0.000    0.000    0.000 
#    0.000    0.000    0.000    0.000    0.000    0.000 
#
# Total GULP energy -89579.493356 kJ/mol
# GULP energy per Si atom -5598.718335 kJ/mol
# Density = 2.418404 g / cm^3
# Si number density = 24.239206 Si / 1000 Ang^3
#
#
#
# Elastic Constant Matrix: (Units=GPa)
#
#
# Indices 1 2 3 4 5 6 
#
# 1 137.8884 15.0235 21.7170 1.9751 16.1973 32.5764
# 2 15.0235 93.2269 3.3704 -11.7764 -2.9530 15.9862
# 3 21.7170 3.3704 74.9735 -7.8396 24.4888 11.3934
# 4 1.9751 -11.7764 -7.8396 30.3386 3.3312 1.8247
# 5 16.1973 -2.9530 24.4888 3.3312 44.0168 4.3594
# 6 32.5764 15.9862 11.3934 1.8247 4.3594 49.2829
#
#
#
# Elastic Compliance Matrix: (Units=1/GPa)
#
#
# Indices 1 2 3 4 5 6 
#
# 1 0.009009 -0.000648 -0.001134 -0.000577 -0.002162 -0.005270
# 2 -0.000648 0.012138 0.000505 0.005033 0.000776 -0.003880
# 3 -0.001134 0.000505 0.017889 0.006131 -0.009676 -0.002921
# 4 -0.000577 0.005033 0.006131 0.037337 -0.005332 -0.003579
# 5 -0.002162 0.000776 -0.009676 -0.005332 0.029252 0.001025
# 6 -0.005270 -0.003880 -0.002921 -0.003579 0.001025 0.025750
#
#
# Mechanical properties :
#
#
# Convention : Reuss Voigt Hill
#
# Bulk Modulus (GPa) = 27.41084 42.92338 35.16711
# Shear Modulus (GPa) = 34.22528 42.45953 38.34240
#
# Velocity S-wave (km/s) = 3.76171 4.18986 3.98154
# Velocity P-wave (km/s) = 5.49548 6.41508 5.97300
#
# Compressibility (1/GPa) = 0.03648192
#
# Stress axis : x y z
#
# Youngs Moduli (GPa) = 111.00403 82.38287 55.89942
#
# Poissons Ratio (x) = 0.05342 0.06336
# Poissons Ratio (y) = 0.07198 -0.02821
# Poissons Ratio (z) = 0.12582 -0.04158
#
# Static dielectric constant tensor:
#      x y z
#    x 2.209970 0.079700 0.323900 
#    y 0.079700 2.024570 0.091090 
#    z 0.323900 0.091090 2.377370 
# 
# From -- ./inp_files/522270.got.cif
#   From: 2010.05.17/outbox.cif.g08.bks.cpg/sg2_262_cif.got.tgz:522270.got - 2010.06.03 11:33:40.
