data_PCOD9069791
_publ_section_title
;
Structure prediction by ZEFSAII (Michael W. Deem and Ramdas Pophale) SiO2 
 PCOD9069791
Probable space group: P -1
;
_chemical_formula_sum "Si O2"
_cell_formula_units_Z 14
_cell_length_a 10.240538
_cell_length_b 5.176784
_cell_length_c 11.948742
_cell_angle_alpha 102.142931
_cell_angle_beta 130.363791
_cell_angle_gamma 92.007029
_cell_volume 459.209846
_symmetry_space_group_name_H-M "P -1"
_symmetry_group_IT_number 2
_symmetry_cell_setting 'triclinic'
loop_
_space_group_symop_operation_xyz
x,y,z
-x,-y,-z
loop_
_atom_site_type_symbol
_atom_site_label
_atom_site_fract_x
_atom_site_fract_y
_atom_site_fract_z
Si Si1 0.206450 0.395902 0.229661
Si Si2 0.856024 0.553891 0.074733
Si Si3 0.510690 0.118156 0.641828
Si Si4 0.000000 0.000000 0.000000
Si Si5 0.803730 0.594278 0.528223
Si Si6 0.091152 0.045124 0.674227
Si Si7 0.610789 0.153356 0.231972
Si Si8 0.500000 0.500000 0.000000
O O1 0.334259 0.609784 0.244427
O O2 0.259173 0.503017 0.392508
O O3 0.986095 0.356667 0.090855
O O4 0.179482 0.072773 0.187929
O O5 0.665276 0.423098 0.005838
O O6 0.878249 0.786262 0.012317
O O7 0.946352 0.716940 0.249688
O O8 0.327045 0.216210 0.562312
O O9 0.500000 0.000000 0.500000
O O10 0.504695 0.930078 0.730077
O O11 0.776949 0.367070 0.398476
O O12 0.999536 0.774072 0.662930
O O13 0.304129 0.093043 0.788978
O O14 0.000000 0.000000 0.500000
O O15 0.540096 0.304710 0.108244
#
# Coordination Sequence:
#
# PCOD9069791 Si02
#       8
#     2   2   2   1   2   2   2   1
#     4  12  27  51  83 118 164 209 282 341 421 491
#     4  12  29  53  79 116 158 225 275 344 411 498
#     4  12  27  47  83 126 162 212 273 354 420 489
#     4  12  30  52  80 116 162 228 278 344 406 496
#     4  12  24  48  80 119 157 209 270 346 419 489
#     4  12  23  49  83 117 160 210 274 343 425 493
#     4  12  28  50  79 122 169 220 271 347 417 504
#     4  12  32  52  76 114 170 220 282 326 416 504
#
# _framework density 30.48715
#
# number of rings (size 3 to 8) (size 9 to 14) (size 15 to 20)
#    0.000    0.000    4.286    4.714    4.000    0.571 
#    0.000    0.000    0.000    0.000    0.000    0.000 
#    0.000    0.000    0.000    0.000    0.000    0.000 
#
# Total GULP energy -78179.158456 kJ/mol
# GULP energy per Si atom -5584.225604 kJ/mol
# Density = 3.041776 g / cm^3
# Si number density = 30.487150 Si / 1000 Ang^3
#
#
#
# Elastic Constant Matrix: (Units=GPa)
#
#
# Indices 1 2 3 4 5 6 
#
# 1 210.4324 75.5863 58.8853 -9.4714 -6.2891 39.7629
# 2 75.5863 143.7094 64.9075 -18.7225 -11.3245 40.0955
# 3 58.8853 64.9075 151.6520 5.8967 -23.7611 31.1025
# 4 -9.4714 -18.7225 5.8967 61.3629 3.1894 -13.3668
# 5 -6.2891 -11.3245 -23.7611 3.1894 57.7450 -7.3618
# 6 39.7629 40.0955 31.1025 -13.3668 -7.3618 74.8916
#
#
#
# Elastic Compliance Matrix: (Units=1/GPa)
#
#
# Indices 1 2 3 4 5 6 
#
# 1 0.006202 -0.002322 -0.001158 0.000034 -0.000463 -0.001608
# 2 -0.002322 0.010743 -0.003241 0.002641 0.000030 -0.002698
# 3 -0.001158 -0.003241 0.009353 -0.002593 0.003013 -0.001701
# 4 0.000034 0.002641 -0.002593 0.018016 -0.001191 0.002743
# 5 -0.000463 0.000030 0.003013 -0.001191 0.018655 0.000600
# 6 -0.001608 -0.002698 -0.001701 0.002743 0.000600 0.016906
#
#
# Mechanical properties :
#
#
# Convention : Reuss Voigt Hill
#
# Bulk Modulus (GPa) = 77.79318 100.50577 89.14948
# Shear Modulus (GPa) = 51.22794 59.22756 55.22775
#
# Velocity S-wave (km/s) = 4.10361 4.41240 4.26080
# Velocity P-wave (km/s) = 6.93000 7.68096 7.31512
#
# Compressibility (1/GPa) = 0.01285460
#
# Stress axis : x y z
#
# Youngs Moduli (GPa) = 161.23987 93.08332 106.92120
#
# Poissons Ratio (x) = 0.21617 0.12385
# Poissons Ratio (y) = 0.37445 0.34652
# Poissons Ratio (z) = 0.18677 0.30167
#
# Static dielectric constant tensor:
#      x y z
#    x 2.879830 -0.024830 -0.727460 
#    y -0.024830 3.175460 -0.486720 
#    z -0.727460 -0.486720 2.947740 
# 
# From -- ./inp_files/408567.got.cif
#   From: 2010.05.17/outbox.cif.g08.bks.cpg/sg2_205_cif.got.tgz:408567.got - 2010.06.03 11:33:40.
