data_PCOD9069283
_publ_section_title
;
Structure prediction by ZEFSAII (Michael W. Deem and Ramdas Pophale) SiO2 
 PCOD9069283
Probable space group: P -1
;
_chemical_formula_sum "Si O2"
_cell_formula_units_Z 16
_cell_length_a 16.838157
_cell_length_b 16.938628
_cell_length_c 16.931045
_cell_angle_alpha 17.604575
_cell_angle_beta 146.372634
_cell_angle_gamma 145.896744
_cell_volume 791.604430
_symmetry_space_group_name_H-M "P -1"
_symmetry_group_IT_number 2
_symmetry_cell_setting 'triclinic'
loop_
_space_group_symop_operation_xyz
x,y,z
-x,-y,-z
loop_
_atom_site_type_symbol
_atom_site_label
_atom_site_fract_x
_atom_site_fract_y
_atom_site_fract_z
Si Si1 0.795767 0.114215 0.036421
Si Si2 0.845004 0.412375 0.497003
Si Si3 0.593509 0.138733 0.241502
Si Si4 0.758169 0.927874 0.003701
Si Si5 0.597704 0.278456 0.288118
Si Si6 0.354727 0.397108 0.276838
Si Si7 0.955590 0.758638 0.754506
Si Si8 0.606623 0.561392 0.455251
O O1 0.950247 0.168373 0.157312
O O2 0.687621 0.868553 0.224251
O O3 0.800392 0.027069 0.032484
O O4 0.725022 0.374520 0.734103
O O5 0.831894 0.151780 0.788852
O O6 0.727877 0.352737 0.386660
O O7 0.000000 0.500000 0.500000
O O8 0.806140 0.651266 0.289138
O O9 0.644327 0.243407 0.270298
O O10 0.417522 0.112374 0.114867
O O11 0.628199 0.851523 0.526181
O O12 0.663787 0.351880 0.030542
O O13 0.500000 0.000000 0.500000
O O14 0.500000 0.500000 0.000000
O O15 0.216023 0.306064 0.305589
O O16 0.503104 0.484564 0.366599
O O17 0.000000 0.000000 0.500000
O O18 0.000000 0.500000 0.000000
O O19 0.500000 0.500000 0.500000
#
# Coordination Sequence:
#
# PCOD9069283 Si02
#       8
#     2   2   2   2   2   2   2   2
#     4  12  25  42  69  95 128 177 212 260 340 381
#     4  12  26  43  67  99 134 173 219 267 323 391
#     4  12  23  41  69  99 130 168 222 277 319 378
#     4  12  23  44  69  96 136 167 215 278 325 378
#     4  12  23  40  67  93 130 179 216 261 328 387
#     4  12  24  42  67  98 129 169 221 272 319 385
#     4  12  27  48  66  95 139 176 210 269 333 390
#     4  12  23  40  66  99 126 165 222 268 311 390
#
# _framework density 20.212116000000002
#
# number of rings (size 3 to 8) (size 9 to 14) (size 15 to 20)
#    0.000    0.000    5.000    6.000    0.000    2.000 
#    0.000    0.000    0.000    0.000    0.000    0.000 
#    0.000    0.000    0.000    0.000    0.000    0.000 
#
# Total GULP energy -89635.092978 kJ/mol
# GULP energy per Si atom -5602.193311 kJ/mol
# Density = 2.016611 g / cm^3
# Si number density = 20.212116 Si / 1000 Ang^3
#
#
#
# Elastic Constant Matrix: (Units=GPa)
#
#
# Indices 1 2 3 4 5 6 
#
# 1 47.0295 3.8244 -13.4471 -3.6282 -9.0798 3.4052
# 2 3.8244 69.4522 15.4030 8.7456 -4.7261 -5.9785
# 3 -13.4471 15.4030 67.5253 -8.3435 -14.8887 1.8414
# 4 -3.6282 8.7456 -8.3435 30.4957 -0.7800 -3.9332
# 5 -9.0798 -4.7261 -14.8887 -0.7800 46.8765 -4.8813
# 6 3.4052 -5.9785 1.8414 -3.9332 -4.8813 50.3121
#
#
#
# Elastic Compliance Matrix: (Units=1/GPa)
#
#
# Indices 1 2 3 4 5 6 
#
# 1 0.026007 -0.003748 0.008490 0.006512 0.007330 -0.001296
# 2 -0.003748 0.016785 -0.005598 -0.006569 -0.000726 0.001869
# 3 0.008490 -0.005598 0.020517 0.008348 0.007674 -0.000594
# 4 0.006512 -0.006569 0.008348 0.038076 0.004076 0.001845
# 5 0.007330 -0.000726 0.007674 0.004076 0.025384 0.001918
# 6 -0.001296 0.001869 -0.000594 0.001845 0.001918 0.020538
#
#
# Mechanical properties :
#
#
# Convention : Reuss Voigt Hill
#
# Bulk Modulus (GPa) = 16.23449 21.72972 18.98210
# Shear Modulus (GPa) = 29.48981 37.41864 33.45423
#
# Velocity S-wave (km/s) = 3.82385 4.30734 4.07278
# Velocity P-wave (km/s) = 5.24836 5.95917 5.61502
#
# Compressibility (1/GPa) = 0.06159725
#
# Stress axis : x y z
#
# Youngs Moduli (GPa) = 38.45129 59.57762 48.74104
#
# Poissons Ratio (x) = 0.22329 -0.41382
# Poissons Ratio (y) = 0.14411 0.27284
# Poissons Ratio (z) = -0.32645 0.33350
#
# Static dielectric constant tensor:
#      x y z
#    x 1.688620 -0.012050 -0.013450 
#    y -0.012050 1.686480 0.005240 
#    z -0.013450 0.005240 1.677650 
# 
# From -- ./inp_files/223536.got.cif
#   From: 2010.05.17/outbox.cif.g08.bks.cpg/sg2_112_cif.got.tgz:223536.got - 2010.06.03 11:33:40.
