data_PCOD9069530
_publ_section_title
;
Structure prediction by ZEFSAII (Michael W. Deem and Ramdas Pophale) SiO2 
 PCOD9069530
Probable space group: P -1
;
_chemical_formula_sum "Si O2"
_cell_formula_units_Z 16
_cell_length_a 11.738493
_cell_length_b 13.335141
_cell_length_c 9.631308
_cell_angle_alpha 69.403455
_cell_angle_beta 123.872395
_cell_angle_gamma 65.414728
_cell_volume 722.048870
_symmetry_space_group_name_H-M "P -1"
_symmetry_group_IT_number 2
_symmetry_cell_setting 'triclinic'
loop_
_space_group_symop_operation_xyz
x,y,z
-x,-y,-z
loop_
_atom_site_type_symbol
_atom_site_label
_atom_site_fract_x
_atom_site_fract_y
_atom_site_fract_z
Si Si1 0.196726 0.755287 0.403676
Si Si2 0.346138 0.638411 0.006798
Si Si3 0.612577 0.127500 0.498117
Si Si4 0.188542 0.341625 0.600761
Si Si5 0.421917 0.827765 0.855502
Si Si6 0.974540 0.796025 0.492072
Si Si7 0.199232 0.428925 0.258342
Si Si8 0.932802 0.243577 0.987805
O O1 0.244395 0.851202 0.404258
O O2 0.019065 0.822882 0.361356
O O3 0.426248 0.553822 0.694401
O O4 0.123851 0.769199 0.193905
O O5 0.393700 0.720043 0.921570
O O6 0.208388 0.646836 0.805146
O O7 0.188695 0.750709 0.978719
O O8 0.498924 0.199620 0.234228
O O9 0.428469 0.246519 0.434399
O O10 0.799351 0.920524 0.734432
O O11 0.136262 0.250520 0.578182
O O12 0.187802 0.403832 0.423966
O O13 0.000000 0.500000 0.500000
O O14 0.417031 0.220439 0.896981
O O15 0.183536 0.030119 0.611371
O O16 0.000000 0.500000 0.000000
O O17 0.171182 0.574113 0.157635
#
# Coordination Sequence:
#
# PCOD9069530 Si02
#       8
#     2   2   2   2   2   2   2   2
#     4  12  26  43  78 108 145 187 244 305 369 434
#     4  12  23  44  76 106 147 191 242 300 369 428
#     4  12  27  47  75 109 146 193 241 304 370 434
#     4  12  28  49  75 105 146 195 245 298 364 439
#     4  12  26  46  72 111 146 188 249 303 359 437
#     4  12  25  47  72 109 145 194 242 300 367 434
#     4  12  28  50  75 105 149 197 243 297 370 438
#     4  12  26  47  71 111 149 188 243 307 365 436
#
# _framework density 22.159165000000002
#
# number of rings (size 3 to 8) (size 9 to 14) (size 15 to 20)
#    0.000    0.000    3.750    6.375    5.250    0.500 
#    2.250    0.000    0.000    0.000    0.000    0.000 
#    0.000    0.000    0.000    0.000    0.000    0.000 
#
# Total GULP energy -89688.959385 kJ/mol
# GULP energy per Si atom -5605.559962 kJ/mol
# Density = 2.210873 g / cm^3
# Si number density = 22.159165 Si / 1000 Ang^3
#
#
#
# Elastic Constant Matrix: (Units=GPa)
#
#
# Indices 1 2 3 4 5 6 
#
# 1 -75.9381 95.5355 -20.4566 49.9663 187.3105 -268.6766
# 2 95.5355 49.7975 43.4838 -17.7999 -92.0608 78.2287
# 3 -20.4566 43.4838 87.7967 36.9307 55.8433 -83.2142
# 4 49.9663 -17.7999 36.9307 41.2465 -65.5161 75.8391
# 5 187.3105 -92.0608 55.8433 -65.5161 -205.3611 307.1239
# 6 -268.6766 78.2287 -83.2142 75.8391 307.1239 -324.9885
#
#
#
# Elastic Compliance Matrix: (Units=1/GPa)
#
#
# Indices 1 2 3 4 5 6 
#
# 1 0.012547 -0.002193 -0.003879 0.003032 0.008114 -0.001532
# 2 -0.002193 0.016683 -0.002357 -0.000029 0.001213 0.007571
# 3 -0.003879 -0.002357 0.012105 -0.004418 0.000025 -0.001468
# 4 0.003032 -0.000029 -0.004418 0.018953 -0.000188 0.002863
# 5 0.008114 0.001213 0.000025 -0.000188 0.018427 0.010948
# 6 -0.001532 0.007571 -0.001468 0.002863 0.010948 0.011401
#
#
# Mechanical properties :
#
#
# Convention : Reuss Voigt Hill
#
# Bulk Modulus (GPa) = 40.85229 33.19796 37.02513
# Shear Modulus (GPa) = 43.42797 -101.61439 -29.09321
#
# Velocity S-wave (km/s) = 4.43179 -6.77910 -3.62735
# Velocity P-wave (km/s) = 6.68308 6.80153 0.89365
#
# Compressibility (1/GPa) = 0.02447843
#
# Stress axis : x y z
#
# Youngs Moduli (GPa) = 79.70020 59.93985 82.61016
#
# Poissons Ratio (x) = 0.13145 0.32043
# Poissons Ratio (y) = 0.17478 0.19468
# Poissons Ratio (z) = 0.30914 0.14126
#
# Static dielectric constant tensor:
#      x y z
#    x 1.821840 0.029780 0.047280 
#    y 0.029780 1.859540 0.050570 
#    z 0.047280 0.050570 1.917990 
# 
# From -- ./inp_files/272684.got.cif
#   From: 2010.05.17/outbox.cif.g08.bks.cpg/sg2_137_cif.got.tgz:272684.got - 2010.06.03 11:33:40.
