data_PCOD9069979
_publ_section_title
;
Structure prediction by ZEFSAII (Michael W. Deem and Ramdas Pophale) SiO2 
 PCOD9069979
Probable space group: P -1
;
_chemical_formula_sum "Si O2"
_cell_formula_units_Z 15
_cell_length_a 8.395728
_cell_length_b 8.863484
_cell_length_c 12.623625
_cell_angle_alpha 75.018754
_cell_angle_beta 127.638754
_cell_angle_gamma 103.784757
_cell_volume 714.617258
_symmetry_space_group_name_H-M "P -1"
_symmetry_group_IT_number 2
_symmetry_cell_setting 'triclinic'
loop_
_space_group_symop_operation_xyz
x,y,z
-x,-y,-z
loop_
_atom_site_type_symbol
_atom_site_label
_atom_site_fract_x
_atom_site_fract_y
_atom_site_fract_z
Si Si1 0.098482 0.737239 0.212050
Si Si2 0.988857 0.473465 0.376138
Si Si3 0.998437 0.064091 0.205257
Si Si4 0.855436 0.862024 0.520219
Si Si5 0.485131 0.816281 0.214181
Si Si6 0.500000 0.000000 0.000000
Si Si7 0.461121 0.470106 0.864964
Si Si8 0.135245 0.358830 0.059130
O O1 0.287077 0.744125 0.207937
O O2 0.111527 0.611389 0.333208
O O3 0.067549 0.906978 0.211700
O O4 0.903954 0.685839 0.070726
O O5 0.757143 0.479226 0.252290
O O6 0.000000 0.500000 0.500000
O O7 0.059508 0.305835 0.412798
O O8 0.134793 0.090317 0.361718
O O9 0.058117 0.213762 0.127639
O O10 0.753579 0.040686 0.125058
O O11 0.657862 0.838675 0.369159
O O12 0.000000 0.000000 0.500000
O O13 0.532319 0.707169 0.149589
O O14 0.449473 0.975089 0.110068
O O15 0.631736 0.575445 0.848922
O O16 0.500000 0.500000 0.000000
O O17 0.000000 0.500000 0.000000
#
# Coordination Sequence:
#
# PCOD9069979 Si02
#       8
#     2   2   2   2   2   1   2   2
#     4  12  26  46  74 106 150 188 247 304 365 432
#     4  12  26  47  74 104 144 197 240 300 368 436
#     4  12  27  44  75 110 145 192 240 310 361 434
#     4  12  27  47  72 106 148 187 243 299 365 439
#     4  12  27  47  72 106 147 194 241 302 369 438
#     4  12  24  44  76 100 140 186 244 292 366 414
#     4  12  26  43  75 106 140 188 249 297 360 433
#     4  12  24  44  70 110 145 186 245 306 365 423
#
# _framework density 20.990257
#
# number of rings (size 3 to 8) (size 9 to 14) (size 15 to 20)
#    0.000    0.000    6.667    2.800    1.867    3.200 
#    0.000    0.000    0.000    0.000    0.000    0.000 
#    0.000    0.000    0.000    0.000    0.000    0.000 
#
# Total GULP energy -83569.521255 kJ/mol
# GULP energy per Si atom -5571.301417 kJ/mol
# Density = 2.094248 g / cm^3
# Si number density = 20.990257 Si / 1000 Ang^3
#
#
#
# Elastic Constant Matrix: (Units=GPa)
#
#
# Indices 1 2 3 4 5 6 
#
# 1 85.9851 37.9868 46.3618 -2.1853 -5.9002 27.4642
# 2 37.9868 103.4112 15.5483 -2.0839 -22.1019 -4.3765
# 3 46.3618 15.5483 134.4301 17.1243 -17.9889 -6.1498
# 4 -2.1853 -2.0839 17.1243 46.1907 8.5161 -11.9129
# 5 -5.9002 -22.1019 -17.9889 8.5161 44.7918 3.1291
# 6 27.4642 -4.3765 -6.1498 -11.9129 3.1291 49.1199
#
#
#
# Elastic Compliance Matrix: (Units=1/GPa)
#
#
# Indices 1 2 3 4 5 6 
#
# 1 0.025511 -0.009522 -0.009061 0.000805 -0.004027 -0.015795
# 2 -0.009522 0.014422 0.002852 -0.000420 0.006637 0.006441
# 3 -0.009061 0.002852 0.011739 -0.004242 0.005356 0.005420
# 4 0.000805 -0.000420 -0.004242 0.026045 -0.007158 0.005754
# 5 -0.004027 0.006637 0.005356 -0.007158 0.028585 -0.000044
# 6 -0.015795 0.006441 0.005420 0.005754 -0.000044 0.031840
#
#
# Mechanical properties :
#
#
# Convention : Reuss Voigt Hill
#
# Bulk Modulus (GPa) = 49.47889 58.18002 53.82945
# Shear Modulus (GPa) = 28.35438 42.94910 35.65174
#
# Velocity S-wave (km/s) = 3.67936 4.52834 4.12575
# Velocity P-wave (km/s) = 6.45552 7.42421 6.95675
#
# Compressibility (1/GPa) = 0.02021064
#
# Stress axis : x y z
#
# Youngs Moduli (GPa) = 39.19868 69.34011 85.18763
#
# Poissons Ratio (x) = 0.66023 0.77187
# Poissons Ratio (y) = 0.37324 -0.24296
# Poissons Ratio (z) = 0.35517 -0.19776
#
# Static dielectric constant tensor:
#      x y z
#    x 1.762350 -0.011560 -0.035830 
#    y -0.011560 1.676230 0.175330 
#    z -0.035830 0.175330 1.769270 
# 
# From -- ./inp_files/378485.got.cif
#   From: 2010.05.17/outbox.cif.g08.bks.cpg/sg2_190_cif.got.tgz:378485.got - 2010.06.03 11:33:40.
