data_PCOD9069248
_publ_section_title
;
Structure prediction by ZEFSAII (Michael W. Deem and Ramdas Pophale) SiO2 
 PCOD9069248
Probable space group: P -1
;
_chemical_formula_sum "Si O2"
_cell_formula_units_Z 15
_cell_length_a 12.451871
_cell_length_b 15.044423
_cell_length_c 15.235594
_cell_angle_alpha 25.732522
_cell_angle_beta 151.779423
_cell_angle_gamma 151.783281
_cell_volume 530.195657
_symmetry_space_group_name_H-M "P -1"
_symmetry_group_IT_number 2
_symmetry_cell_setting 'triclinic'
loop_
_space_group_symop_operation_xyz
x,y,z
-x,-y,-z
loop_
_atom_site_type_symbol
_atom_site_label
_atom_site_fract_x
_atom_site_fract_y
_atom_site_fract_z
Si Si1 0.135799 0.944063 0.789749
Si Si2 0.363502 0.876284 0.195939
Si Si3 0.000000 0.500000 0.000000
Si Si4 0.619634 0.741349 0.700848
Si Si5 0.293748 0.243705 0.890621
Si Si6 0.190403 0.429115 0.391167
Si Si7 0.179701 0.793711 0.520900
Si Si8 0.849721 0.660697 0.116099
O O1 0.844073 0.842309 0.701195
O O2 0.129195 0.783320 0.848603
O O3 0.245444 0.210556 0.613737
O O4 0.276484 0.922668 0.996933
O O5 0.396630 0.649272 0.395366
O O6 0.141338 0.779029 0.196039
O O7 0.476501 0.131663 0.089776
O O8 0.891965 0.508275 0.816050
O O9 0.416898 0.510744 0.721520
O O10 0.590950 0.967897 0.504842
O O11 0.716375 0.662495 0.927475
O O12 0.233071 0.225621 0.965963
O O13 0.029561 0.152155 0.729306
O O14 0.955581 0.333308 0.374565
O O15 0.220939 0.597125 0.676093
#
# Coordination Sequence:
#
# PCOD9069248 Si02
#       8
#     2   2   1   2   2   2   2   2
#     4   9  17  36  53  83 113 140 186 232 278 342
#     4   9  18  32  54  77 111 152 184 228 276 329
#     4  10  18  28  66  88 100 148 186 224 292 348
#     4  10  22  38  55  83 118 149 192 239 279 336
#     4  12  20  36  59  82 113 159 194 234 284 324
#     4   9  17  33  55  83 108 139 186 226 279 339
#     4  10  21  39  55  80 118 150 188 243 277 338
#     4  10  20  37  54  81 118 152 198 240 273 325
#
# _framework density 28.291442
#
# number of rings (size 3 to 8) (size 9 to 14) (size 15 to 20)
#    0.000    2.133    4.000    2.400    0.000    0.533 
#    4.800    0.000    0.000    4.000    0.000    0.000 
#    0.000    0.000    0.000    0.000    0.000    0.000 
#
# Total GULP energy -83638.374499 kJ/mol
# GULP energy per Si atom -5575.891633 kJ/mol
# Density = 2.822705 g / cm^3
# Si number density = 28.291442 Si / 1000 Ang^3
#
#
#
# Elastic Constant Matrix: (Units=GPa)
#
#
# Indices 1 2 3 4 5 6 
#
# 1 128.5564 45.7132 21.7651 -13.8082 -7.6447 -21.5097
# 2 45.7132 131.6521 56.6938 -31.5237 22.9825 -39.6070
# 3 21.7651 56.6938 138.3825 -29.1040 -9.9189 -29.4251
# 4 -13.8082 -31.5237 -29.1040 57.5650 -29.6150 5.2748
# 5 -7.6447 22.9825 -9.9189 -29.6150 31.4009 -2.3030
# 6 -21.5097 -39.6070 -29.4251 5.2748 -2.3030 43.3700
#
#
#
# Elastic Compliance Matrix: (Units=1/GPa)
#
#
# Indices 1 2 3 4 5 6 
#
# 1 0.012780 -0.006678 0.006449 0.014784 0.024281 0.004106
# 2 -0.006678 0.018204 -0.009452 -0.011666 -0.028438 0.006809
# 3 0.006449 -0.009452 0.020173 0.026864 0.040721 0.007148
# 4 0.014784 -0.011666 0.026864 0.074093 0.091290 0.010742
# 5 0.024281 -0.028438 0.040721 0.091290 0.158340 0.011004
# 6 0.004106 0.006809 0.007148 0.010742 0.011004 0.035440
#
#
# Mechanical properties :
#
#
# Convention : Reuss Voigt Hill
#
# Bulk Modulus (GPa) = 31.45094 71.88170 51.66632
# Shear Modulus (GPa) = 14.32699 44.76177 29.54438
#
# Velocity S-wave (km/s) = 2.25279 3.98196 3.23505
# Velocity P-wave (km/s) = 4.23174 6.82672 5.67942
#
# Compressibility (1/GPa) = 0.03179555
#
# Stress axis : x y z
#
# Youngs Moduli (GPa) = 78.24490 54.93198 49.57073
#
# Poissons Ratio (x) = 0.36683 -0.31966
# Poissons Ratio (y) = 0.52251 0.46854
# Poissons Ratio (z) = -0.50457 0.51921
#
# Static dielectric constant tensor:
#      x y z
#    x 2.232810 0.021040 0.122060 
#    y 0.021040 2.182510 -0.032340 
#    z 0.122060 -0.032340 2.164450 
# 
# From -- ./inp_files/533612.got.cif
#   From: 2010.05.17/outbox.cif.g08.bks.cpg/sg2_267_cif.got.tgz:533612.got - 2010.06.03 11:33:40.
