data_PCOD9069757
_publ_section_title
;
Structure prediction by ZEFSAII (Michael W. Deem and Ramdas Pophale) SiO2 
 PCOD9069757
Probable space group: P -1
;
_chemical_formula_sum "Si O2"
_cell_formula_units_Z 16
_cell_length_a 16.173061
_cell_length_b 9.298007
_cell_length_c 5.433890
_cell_angle_alpha 54.662791
_cell_angle_beta 92.090841
_cell_angle_gamma 87.868458
_cell_volume 664.437300
_symmetry_space_group_name_H-M "P -1"
_symmetry_group_IT_number 2
_symmetry_cell_setting 'triclinic'
loop_
_space_group_symop_operation_xyz
x,y,z
-x,-y,-z
loop_
_atom_site_type_symbol
_atom_site_label
_atom_site_fract_x
_atom_site_fract_y
_atom_site_fract_z
Si Si1 0.948647 0.471354 0.772461
Si Si2 0.692221 0.198427 0.598000
Si Si3 0.355424 0.483993 0.042535
Si Si4 0.007256 0.105691 0.145737
Si Si5 0.774720 0.696684 0.511949
Si Si6 0.456395 0.676370 0.201723
Si Si7 0.428402 0.103597 0.233008
Si Si8 0.801731 0.887493 0.832026
O O1 0.864039 0.591098 0.637304
O O2 0.000000 0.500000 0.500000
O O3 0.000000 0.500000 0.000000
O O4 0.936799 0.264043 0.981069
O O5 0.630983 0.248888 0.768225
O O6 0.641094 0.035839 0.648527
O O7 0.782181 0.092986 0.702931
O O8 0.696424 0.385285 0.276679
O O9 0.296492 0.433572 0.308515
O O10 0.428201 0.607846 0.002090
O O11 0.392118 0.293345 0.144225
O O12 0.100413 0.167255 0.093655
O O13 0.000000 0.000000 0.500000
O O14 0.000000 0.000000 0.000000
O O15 0.774858 0.835120 0.604470
O O16 0.762295 0.782648 0.157428
O O17 0.500000 0.500000 0.500000
O O18 0.522366 0.824015 0.068098
O O19 0.500000 0.000000 0.500000
#
# Coordination Sequence:
#
# PCOD9069757 Si02
#       8
#     2   2   2   2   2   2   2   2
#     4  12  23  48  76 106 145 200 252 301 369 445
#     4  12  28  47  72 106 149 198 253 309 390 450
#     4  12  28  47  70 111 149 195 256 311 380 461
#     4  12  26  46  75 113 152 193 253 311 368 442
#     4  12  27  49  77 107 155 200 254 311 379 456
#     4  12  26  46  74 103 146 190 256 319 372 455
#     4  12  24  48  73 100 143 198 246 316 385 442
#     4  12  28  50  75 109 155 204 248 308 387 454
#
# _framework density 24.080525000000002
#
# number of rings (size 3 to 8) (size 9 to 14) (size 15 to 20)
#    0.000    0.000    6.250    3.000    8.750    1.000 
#    0.000    0.000    0.000    0.000    0.000    0.000 
#    0.000    0.000    0.000    0.000    0.000    0.000 
#
# Total GULP energy -89383.876676 kJ/mol
# GULP energy per Si atom -5586.492292 kJ/mol
# Density = 2.402572 g / cm^3
# Si number density = 24.080525 Si / 1000 Ang^3
#
#
#
# Elastic Constant Matrix: (Units=GPa)
#
#
# Indices 1 2 3 4 5 6 
#
# 1 59.6710 23.3148 7.3746 -0.6696 -6.2936 -19.6262
# 2 23.3148 156.5298 46.9250 -16.8232 10.1357 -28.7723
# 3 7.3746 46.9250 149.9164 -15.4706 -10.6196 -21.5434
# 4 -0.6696 -16.8232 -15.4706 47.7015 -11.8077 6.2536
# 5 -6.2936 10.1357 -10.6196 -11.8077 48.7898 -6.1638
# 6 -19.6262 -28.7723 -21.5434 6.2536 -6.1638 48.0510
#
#
#
# Elastic Compliance Matrix: (Units=1/GPa)
#
#
# Indices 1 2 3 4 5 6 
#
# 1 0.020637 -0.002207 0.001154 -0.000105 0.004382 0.008200
# 2 -0.002207 0.008065 -0.002019 0.001386 -0.001733 0.002620
# 3 0.001154 -0.002019 0.008160 0.002370 0.003302 0.003036
# 4 -0.000105 0.001386 0.002370 0.023743 0.005899 -0.000484
# 5 0.004382 -0.001733 0.003302 0.005899 0.024144 0.004562
# 6 0.008200 0.002620 0.003036 -0.000484 0.004562 0.027739
#
#
# Mechanical properties :
#
#
# Convention : Reuss Voigt Hill
#
# Bulk Modulus (GPa) = 32.55555 57.92733 45.24144
# Shear Modulus (GPa) = 38.79790 48.14198 43.46994
#
# Velocity S-wave (km/s) = 4.01830 4.47610 4.25336
# Velocity P-wave (km/s) = 5.92265 7.12895 6.55361
#
# Compressibility (1/GPa) = 0.03071673
#
# Stress axis : x y z
#
# Youngs Moduli (GPa) = 48.45766 123.98561 122.54354
#
# Poissons Ratio (x) = 0.27368 -0.14139
# Poissons Ratio (y) = 0.10696 0.24744
# Poissons Ratio (z) = -0.05591 0.25036
#
# Static dielectric constant tensor:
#      x y z
#    x 2.030890 -0.005380 0.000730 
#    y -0.005380 2.059320 0.074500 
#    z 0.000730 0.074500 2.111370 
# 
# From -- ./inp_files/106093.got.cif
#   From: 2010.05.17/outbox.cif.g08.bks.cpg/sg2_54_cif.got.tgz:106093.got - 2010.06.03 11:33:40.
