data_PCOD9069857
_publ_section_title
;
Structure prediction by ZEFSAII (Michael W. Deem and Ramdas Pophale) SiO2 
 PCOD9069857
Probable space group: P -1
;
_chemical_formula_sum "Si O2"
_cell_formula_units_Z 16
_cell_length_a 9.697760
_cell_length_b 19.341683
_cell_length_c 5.918257
_cell_angle_alpha 67.226808
_cell_angle_beta 127.921299
_cell_angle_gamma 127.634790
_cell_volume 693.362368
_symmetry_space_group_name_H-M "P -1"
_symmetry_group_IT_number 2
_symmetry_cell_setting 'triclinic'
loop_
_space_group_symop_operation_xyz
x,y,z
-x,-y,-z
loop_
_atom_site_type_symbol
_atom_site_label
_atom_site_fract_x
_atom_site_fract_y
_atom_site_fract_z
Si Si1 0.752451 0.729410 0.856656
Si Si2 0.800485 0.190173 0.692306
Si Si3 0.133712 0.957129 0.258179
Si Si4 0.405371 0.457351 0.211145
Si Si5 0.543048 0.928117 0.228273
Si Si6 0.575362 0.277118 0.118650
Si Si7 0.781611 0.853358 0.373081
Si Si8 0.101148 0.518412 0.829899
O O1 0.637683 0.640344 0.712478
O O2 0.587436 0.726888 0.861234
O O3 0.830763 0.819492 0.690250
O O4 0.959815 0.737951 0.148437
O O5 0.799470 0.101716 0.737911
O O6 0.666166 0.162439 0.822846
O O7 0.686669 0.224915 0.373311
O O8 0.977949 0.888540 0.372502
O O9 0.341030 0.037354 0.461651
O O10 0.000000 0.000000 0.000000
O O11 0.500000 0.500000 0.500000
O O12 0.500000 0.500000 0.000000
O O13 0.200379 0.458848 0.002265
O O14 0.711746 0.922960 0.254731
O O15 0.500000 0.000000 0.000000
O O16 0.737678 0.378386 0.128143
O O17 0.426605 0.228845 0.822065
O O18 0.000000 0.500000 0.500000
O O19 0.000000 0.500000 0.000000
#
# Coordination Sequence:
#
# PCOD9069857 Si02
#       8
#     2   2   2   2   2   2   2   2
#     4  12  26  48  75 107 150 191 249 309 371 453
#     4  12  25  46  72 107 144 193 248 297 380 444
#     4  12  24  44  70 104 145 190 244 306 370 444
#     4  12  26  48  79 110 152 203 249 308 387 451
#     4  12  24  42  67 104 143 184 246 305 361 443
#     4  12  26  49  75 105 154 191 241 318 370 444
#     4  12  25  45  74 104 143 195 245 303 377 442
#     4  12  28  49  78 115 153 198 256 310 379 459
#
# _framework density 23.075956999999999
#
# number of rings (size 3 to 8) (size 9 to 14) (size 15 to 20)
#    0.000    0.000    3.750    6.750    1.750    2.000 
#    0.000    0.000    0.000    0.000    0.000    0.000 
#    0.000    0.000    0.000    0.000    0.000    0.000 
#
# Total GULP energy -89285.982386 kJ/mol
# GULP energy per Si atom -5580.373899 kJ/mol
# Density = 2.302344 g / cm^3
# Si number density = 23.075957 Si / 1000 Ang^3
#
#
#
# Elastic Constant Matrix: (Units=GPa)
#
#
# Indices 1 2 3 4 5 6 
#
# 1 156.2235 9.9379 42.2140 -5.2834 4.0294 0.8495
# 2 9.9379 75.1966 13.2056 6.1823 6.8760 -3.3500
# 3 42.2140 13.2056 110.7064 0.6090 22.3988 -0.5400
# 4 -5.2834 6.1823 0.6090 44.8575 -3.9437 -3.0984
# 5 4.0294 6.8760 22.3988 -3.9437 38.5766 -11.2807
# 6 0.8495 -3.3500 -0.5400 -3.0984 -11.2807 54.3779
#
#
#
# Elastic Compliance Matrix: (Units=1/GPa)
#
#
# Indices 1 2 3 4 5 6 
#
# 1 0.007240 -0.000636 -0.002935 0.001096 0.001212 0.000133
# 2 -0.000636 0.013928 -0.001011 -0.002129 -0.001950 0.000332
# 3 -0.002935 -0.001011 0.011644 -0.001055 -0.006782 -0.001368
# 4 0.001096 -0.002129 -0.001055 0.023201 0.003822 0.001956
# 5 0.001212 -0.001950 -0.006782 0.003822 0.032443 0.006742
# 6 0.000133 0.000332 -0.001368 0.001956 0.006742 0.019905
#
#
# Mechanical properties :
#
#
# Convention : Reuss Voigt Hill
#
# Bulk Modulus (GPa) = 42.28926 52.53793 47.41360
# Shear Modulus (GPa) = 39.86962 46.01365 42.94163
#
# Velocity S-wave (km/s) = 4.16114 4.47028 4.31847
# Velocity P-wave (km/s) = 6.43837 7.03287 6.74218
#
# Compressibility (1/GPa) = 0.02364667
#
# Stress axis : x y z
#
# Youngs Moduli (GPa) = 138.12456 71.79653 85.88017
#
# Poissons Ratio (x) = 0.04569 0.25210
# Poissons Ratio (y) = 0.08790 0.08682
# Poissons Ratio (z) = 0.40546 0.07258
#
# Static dielectric constant tensor:
#      x y z
#    x 2.131680 0.059330 -0.060100 
#    y 0.059330 1.756990 0.133200 
#    z -0.060100 0.133200 1.801620 
# 
# From -- ./inp_files/47194.got.cif
#   From: 2010.05.17/outbox.cif.g08.bks.cpg/sg2_24_cif.got.tgz:47194.got - 2010.06.03 11:33:40.
