data_PCOD9069928
_publ_section_title
;
Structure prediction by ZEFSAII (Michael W. Deem and Ramdas Pophale) SiO2 
 PCOD9069928
Probable space group: P -1
;
_chemical_formula_sum "Si O2"
_cell_formula_units_Z 16
_cell_length_a 11.651972
_cell_length_b 6.693397
_cell_length_c 10.870222
_cell_angle_alpha 112.256182
_cell_angle_beta 113.999685
_cell_angle_gamma 71.529895
_cell_volume 703.383089
_symmetry_space_group_name_H-M "P -1"
_symmetry_group_IT_number 2
_symmetry_cell_setting 'triclinic'
loop_
_space_group_symop_operation_xyz
x,y,z
-x,-y,-z
loop_
_atom_site_type_symbol
_atom_site_label
_atom_site_fract_x
_atom_site_fract_y
_atom_site_fract_z
Si Si1 0.015680 0.411223 0.844995
Si Si2 0.448916 0.085323 0.864894
Si Si3 0.353036 0.862895 0.235581
Si Si4 0.554455 0.620105 0.439504
Si Si5 0.293655 0.743473 0.747902
Si Si6 0.014794 0.926687 0.629848
Si Si7 0.714223 0.454159 0.051267
Si Si8 0.177056 0.261577 0.334034
O O1 0.150040 0.471103 0.873611
O O2 0.019409 0.149490 0.764063
O O3 0.903934 0.549667 0.742488
O O4 0.000000 0.500000 0.000000
O O5 0.555319 0.042298 0.797298
O O6 0.392639 0.340525 0.909678
O O7 0.333425 0.959841 0.760891
O O8 0.500000 0.000000 0.000000
O O9 0.437757 0.802325 0.380187
O O10 0.220902 0.033519 0.226951
O O11 0.318940 0.640183 0.114836
O O12 0.500000 0.500000 0.500000
O O13 0.604457 0.454554 0.310598
O O14 0.685437 0.691095 0.554731
O O15 0.292219 0.729709 0.891477
O O16 0.147704 0.752026 0.651889
O O17 0.906147 0.803650 0.605130
O O18 0.000000 0.000000 0.500000
#
# Coordination Sequence:
#
# PCOD9069928 Si02
#       8
#     2   2   2   2   2   2   2   2
#     4  12  29  49  78 110 153 199 254 318 377 445
#     4  12  24  43  72 109 148 191 239 309 374 444
#     4  12  27  47  75 108 156 195 248 307 377 453
#     4  12  29  50  76 108 155 202 249 302 373 458
#     4  12  25  47  76 106 148 191 250 309 374 436
#     4  12  29  49  78 110 149 202 255 311 376 449
#     4  12  25  47  74 113 145 189 255 313 375 444
#     4  12  30  50  75 109 153 200 252 309 375 447
#
# _framework density 22.747207
#
# number of rings (size 3 to 8) (size 9 to 14) (size 15 to 20)
#    0.000    0.000    5.000    3.750   12.250    2.000 
#    0.000    0.000    0.000    0.000    0.000    0.000 
#    0.000    0.000    0.000    0.000    0.000    0.000 
#
# Total GULP energy -89544.701495 kJ/mol
# GULP energy per Si atom -5596.543843 kJ/mol
# Density = 2.269543 g / cm^3
# Si number density = 22.747207 Si / 1000 Ang^3
#
#
#
# Elastic Constant Matrix: (Units=GPa)
#
#
# Indices 1 2 3 4 5 6 
#
# 1 122.3365 17.2696 -0.0504 -12.5941 8.9103 12.4217
# 2 17.2696 66.4342 1.7781 -15.2183 3.6658 -2.4471
# 3 -0.0504 1.7781 61.3799 -10.3707 5.5180 9.5332
# 4 -12.5941 -15.2183 -10.3707 49.0371 2.6361 0.5636
# 5 8.9103 3.6658 5.5180 2.6361 38.9647 2.1731
# 6 12.4217 -2.4471 9.5332 0.5636 2.1731 46.9609
#
#
#
# Elastic Compliance Matrix: (Units=1/GPa)
#
#
# Indices 1 2 3 4 5 6 
#
# 1 0.009073 -0.001890 0.001008 0.002097 -0.002035 -0.002634
# 2 -0.001890 0.016784 0.000267 0.004850 -0.001587 0.001336
# 3 0.001008 0.000267 0.017862 0.004317 -0.002865 -0.003798
# 4 0.002097 0.004850 0.004317 0.023529 -0.003065 -0.001319
# 5 -0.002035 -0.001587 -0.002865 -0.003065 0.026902 -0.000171
# 6 -0.002634 0.001336 -0.003798 -0.001319 -0.000171 0.022855
#
#
# Mechanical properties :
#
#
# Convention : Reuss Voigt Hill
#
# Bulk Modulus (GPa) = 23.53487 32.01611 27.77549
# Shear Modulus (GPa) = 37.76492 42.40279 40.08385
#
# Velocity S-wave (km/s) = 4.07898 4.32219 4.20234
# Velocity P-wave (km/s) = 5.70551 6.24610 5.98191
#
# Compressibility (1/GPa) = 0.04249013
#
# Stress axis : x y z
#
# Youngs Moduli (GPa) = 110.21876 59.57906 55.98479
#
# Poissons Ratio (x) = 0.11260 -0.05646
# Poissons Ratio (y) = 0.20831 -0.01494
# Poissons Ratio (z) = -0.11115 -0.01590
#
# Static dielectric constant tensor:
#      x y z
#    x 1.828290 0.018420 0.010620 
#    y 0.018420 1.932120 -0.061670 
#    z 0.010620 -0.061670 2.064060 
# 
# From -- ./inp_files/98715.got.cif
#   From: 2010.05.17/outbox.cif.g08.bks.cpg/sg2_50_cif.got.tgz:98715.got - 2010.06.03 11:33:40.
