data_PCOD9069403
_publ_section_title
;
Structure prediction by ZEFSAII (Michael W. Deem and Ramdas Pophale) SiO2 
 PCOD9069403
Probable space group: P -1
;
_chemical_formula_sum "Si O2"
_cell_formula_units_Z 16
_cell_length_a 20.662356
_cell_length_b 23.799428
_cell_length_c 5.705233
_cell_angle_alpha 120.011640
_cell_angle_beta 51.296845
_cell_angle_gamma 160.346800
_cell_volume 693.060860
_symmetry_space_group_name_H-M "P -1"
_symmetry_group_IT_number 2
_symmetry_cell_setting 'triclinic'
loop_
_space_group_symop_operation_xyz
x,y,z
-x,-y,-z
loop_
_atom_site_type_symbol
_atom_site_label
_atom_site_fract_x
_atom_site_fract_y
_atom_site_fract_z
Si Si1 0.025250 0.980164 0.652483
Si Si2 0.425505 0.875212 0.819099
Si Si3 0.138853 0.855509 0.865464
Si Si4 0.052487 0.683650 0.046156
Si Si5 0.271648 0.495893 0.204236
Si Si6 0.777167 0.368565 0.845367
Si Si7 0.441379 0.423347 0.216878
Si Si8 0.388453 0.155152 0.040553
O O1 0.822238 0.782419 0.659255
O O2 0.000000 0.000000 0.500000
O O3 0.267683 0.119997 0.406256
O O4 0.000000 0.000000 0.000000
O O5 0.661135 0.017135 0.499985
O O6 0.296566 0.731236 0.981302
O O7 0.237248 0.761359 0.822944
O O8 0.500000 0.000000 0.000000
O O9 0.882953 0.648731 0.950255
O O10 0.172409 0.831512 0.958959
O O11 0.177036 0.959977 0.014412
O O12 0.925867 0.619678 0.424702
O O13 0.850962 0.497010 0.989284
O O14 0.425991 0.548482 0.040498
O O15 0.444635 0.680837 0.153893
O O16 0.000000 0.500000 0.500000
O O17 0.547194 0.212912 0.897695
O O18 0.500000 0.500000 0.500000
O O19 0.500000 0.500000 0.000000
#
# Coordination Sequence:
#
# PCOD9069403 Si02
#       8
#     2   2   2   2   2   2   2   2
#     4  12  28  52  81 117 159 208 265 329 401 476
#     4  12  23  43  67 105 151 195 250 315 376 460
#     4  12  26  47  74 109 149 197 259 310 388 460
#     4  12  25  45  72 103 150 196 250 315 380 460
#     4  12  27  49  77 108 150 195 252 322 386 467
#     4  12  25  44  75 109 150 200 253 311 387 464
#     4  12  29  51  83 116 159 204 264 329 403 478
#     4  12  27  49  77 110 151 202 252 319 390 467
#
# _framework density 23.085996000000002
#
# number of rings (size 3 to 8) (size 9 to 14) (size 15 to 20)
#    0.000    0.000    3.750    6.000    5.250    1.000 
#    0.000    0.000    0.000    0.000    0.000    0.000 
#    0.000    0.000    0.000    0.000    0.000    0.000 
#
# Total GULP energy -89178.387458 kJ/mol
# GULP energy per Si atom -5573.649216 kJ/mol
# Density = 2.303345 g / cm^3
# Si number density = 23.085996 Si / 1000 Ang^3
#
#
#
# Elastic Constant Matrix: (Units=GPa)
#
#
# Indices 1 2 3 4 5 6 
#
# 1 116.2081 37.0152 41.5811 -20.8457 1.7138 -22.0105
# 2 37.0152 144.9772 38.8170 -7.6378 22.2747 -29.8290
# 3 41.5811 38.8170 124.7474 -15.7335 -8.2083 -10.5901
# 4 -20.8457 -7.6378 -15.7335 50.3974 -2.0282 7.3925
# 5 1.7138 22.2747 -8.2083 -2.0282 44.4635 -16.9697
# 6 -22.0105 -29.8290 -10.5901 7.3925 -16.9697 50.5940
#
#
#
# Elastic Compliance Matrix: (Units=1/GPa)
#
#
# Indices 1 2 3 4 5 6 
#
# 1 0.011173 -0.001523 -0.002472 0.003170 0.001329 0.003428
# 2 -0.001523 0.009103 -0.002396 -0.000593 -0.003823 0.003007
# 3 -0.002472 -0.002396 0.010085 0.001827 0.003435 0.000508
# 4 0.003170 -0.000593 0.001827 0.021887 0.000950 -0.001468
# 5 0.001329 -0.003823 0.003435 0.000950 0.028227 0.008372
# 6 0.003428 0.003007 0.000508 -0.001468 0.008372 0.026158
#
#
# Mechanical properties :
#
#
# Convention : Reuss Voigt Hill
#
# Bulk Modulus (GPa) = 56.88467 68.97326 62.92897
# Shear Modulus (GPa) = 39.91211 46.99226 43.45219
#
# Velocity S-wave (km/s) = 4.16245 4.51658 4.34313
# Velocity P-wave (km/s) = 6.91340 7.55916 7.24348
#
# Compressibility (1/GPa) = 0.01757943
#
# Stress axis : x y z
#
# Youngs Moduli (GPa) = 89.50045 109.85634 99.15408
#
# Poissons Ratio (x) = 0.16726 0.24514
# Poissons Ratio (y) = 0.13627 0.23758
# Poissons Ratio (z) = 0.22127 0.26322
#
# Static dielectric constant tensor:
#      x y z
#    x 1.954880 0.167760 0.009710 
#    y 0.167760 1.990380 0.121710 
#    z 0.009710 0.121710 2.076260 
# 
# From -- ./inp_files/107484.got.cif
#   From: 2010.05.17/outbox.cif.g08.bks.cpg/sg2_54_cif.got.tgz:107484.got - 2010.06.03 11:33:40.
