data_PCOD9069498
_publ_section_title
;
Structure prediction by ZEFSAII (Michael W. Deem and Ramdas Pophale) SiO2 
 PCOD9069498
Probable space group: P -1
;
_chemical_formula_sum "Si O2"
_cell_formula_units_Z 14
_cell_length_a 21.132049
_cell_length_b 8.935957
_cell_length_c 12.372694
_cell_angle_alpha 42.028878
_cell_angle_beta 22.539071
_cell_angle_gamma 51.712074
_cell_volume 579.137329
_symmetry_space_group_name_H-M "P -1"
_symmetry_group_IT_number 2
_symmetry_cell_setting 'triclinic'
loop_
_space_group_symop_operation_xyz
x,y,z
-x,-y,-z
loop_
_atom_site_type_symbol
_atom_site_label
_atom_site_fract_x
_atom_site_fract_y
_atom_site_fract_z
Si Si1 0.627463 0.333033 0.811957
Si Si2 0.351976 0.143770 0.501291
Si Si3 0.700567 0.644462 0.092807
Si Si4 0.264566 0.145190 0.864028
Si Si5 0.075029 0.775176 0.727774
Si Si6 0.238002 0.794978 0.677931
Si Si7 0.524675 0.661032 0.164750
O O1 0.701802 0.612364 0.551382
O O2 0.758292 0.213209 0.613041
O O3 0.469323 0.293208 0.996648
O O4 0.548754 0.228877 0.105229
O O5 0.326034 0.032738 0.721197
O O6 0.260522 0.957383 0.658318
O O7 0.500000 0.500000 0.500000
O O8 0.733226 0.861126 0.005965
O O9 0.807906 0.469372 0.060376
O O10 0.697746 0.687359 0.945723
O O11 0.396386 0.402332 0.506858
O O12 0.068558 0.125922 0.153123
O O13 0.118673 0.848147 0.743578
O O14 0.000000 0.500000 0.000000
O O15 0.413954 0.805149 0.328113
#
# Coordination Sequence:
#
# PCOD9069498 Si02
#       7
#     2   2   2   2   2   2   2
#     4   9  19  31  46  63  98 120 147 177 233 271
#     4  10  18  29  42  72  95 117 139 192 231 260
#     4   8  14  28  46  67  86 120 153 186 211 261
#     4   9  16  28  45  64  92 114 149 178 231 259
#     4  11  15  30  45  64  90 123 151 177 219 275
#     4   9  17  25  45  69  91 111 155 184 220 262
#     4   8  15  29  45  65  88 122 154 178 216 263
#
# _framework density 24.173887000000001
#
# number of rings (size 3 to 8) (size 9 to 14) (size 15 to 20)
#    0.000    3.143    5.714    0.000    0.000    2.857 
#    0.000   11.429    0.000    0.000    0.000   54.000 
#    0.000    0.000    0.000    0.143    0.000    0.000 
#
# Total GULP energy -77952.141875 kJ/mol
# GULP energy per Si atom -5568.010134 kJ/mol
# Density = 2.411887 g / cm^3
# Si number density = 24.173887 Si / 1000 Ang^3
#
#
#
# Elastic Constant Matrix: (Units=GPa)
#
#
# Indices 1 2 3 4 5 6 
#
# 1 135.4988 46.9725 36.9881 2.2899 -16.7366 37.9350
# 2 46.9725 95.0009 5.0866 -12.8246 -5.6759 34.6587
# 3 36.9881 5.0866 43.6494 12.3130 -9.9249 10.7677
# 4 2.2899 -12.8246 12.3130 32.4973 4.1748 -3.5832
# 5 -16.7366 -5.6759 -9.9249 4.1748 33.7289 -7.2925
# 6 37.9350 34.6587 10.7677 -3.5832 -7.2925 48.1814
#
#
#
# Elastic Compliance Matrix: (Units=1/GPa)
#
#
# Indices 1 2 3 4 5 6 
#
# 1 0.012739 -0.003889 -0.008659 0.000037 0.002036 -0.004986
# 2 -0.003889 0.016179 0.001856 0.005140 -0.001198 -0.008790
# 3 -0.008659 0.001856 0.036283 -0.013684 0.007855 -0.002455
# 4 0.000037 0.005140 -0.013684 0.039096 -0.007752 0.001066
# 5 0.002036 -0.001198 0.007855 -0.007752 0.034182 0.002100
# 6 -0.004986 -0.008790 -0.002455 0.001066 0.002100 0.031949
#
#
# Mechanical properties :
#
#
# Convention : Reuss Voigt Hill
#
# Bulk Modulus (GPa) = 22.82230 50.24929 36.53579
# Shear Modulus (GPa) = 24.22272 35.22165 29.72218
#
# Velocity S-wave (km/s) = 3.16890 3.82122 3.51025
# Velocity P-wave (km/s) = 4.78024 6.34829 5.61923
#
# Compressibility (1/GPa) = 0.04381679
#
# Stress axis : x y z
#
# Youngs Moduli (GPa) = 78.49921 61.80868 27.56108
#
# Poissons Ratio (x) = 0.24040 0.23866
# Poissons Ratio (y) = 0.30532 -0.05117
# Poissons Ratio (z) = 0.67974 -0.11474
#
# Static dielectric constant tensor:
#      x y z
#    x 2.140730 -0.040910 0.043180 
#    y -0.040910 1.967820 -0.006460 
#    z 0.043180 -0.006460 2.009350 
# 
# From -- ./inp_files/542525.got.cif
#   From: 2010.05.17/outbox.cif.g08.bks.cpg/sg2_272_cif.got.tgz:542525.got - 2010.06.03 11:33:40.
