data_PCOD9069554
_publ_section_title
;
Structure prediction by ZEFSAII (Michael W. Deem and Ramdas Pophale) SiO2 
 PCOD9069554
Probable space group: P -1
;
_chemical_formula_sum "Si O2"
_cell_formula_units_Z 16
_cell_length_a 11.979390
_cell_length_b 8.174992
_cell_length_c 9.360850
_cell_angle_alpha 83.578347
_cell_angle_beta 49.447435
_cell_angle_gamma 88.714001
_cell_volume 690.627672
_symmetry_space_group_name_H-M "P -1"
_symmetry_group_IT_number 2
_symmetry_cell_setting 'triclinic'
loop_
_space_group_symop_operation_xyz
x,y,z
-x,-y,-z
loop_
_atom_site_type_symbol
_atom_site_label
_atom_site_fract_x
_atom_site_fract_y
_atom_site_fract_z
Si Si1 0.874775 0.050041 0.701075
Si Si2 0.589303 0.857283 0.873478
Si Si3 0.366728 0.590913 0.436478
Si Si4 0.606451 0.025584 0.547157
Si Si5 0.079858 0.084947 0.792954
Si Si6 0.167674 0.578392 0.338933
Si Si7 0.350313 0.426161 0.953829
Si Si8 0.156601 0.420053 0.851271
O O1 0.822183 0.224556 0.681743
O O2 0.952265 0.078179 0.783521
O O3 0.751784 0.906157 0.792509
O O4 0.000000 0.000000 0.500000
O O5 0.575542 0.888754 0.712423
O O6 0.562877 0.683965 0.992425
O O7 0.500000 0.000000 0.000000
O O8 0.405803 0.789454 0.397889
O O9 0.254525 0.530337 0.411173
O O10 0.516702 0.511856 0.269158
O O11 0.278909 0.541377 0.658971
O O12 0.500000 0.000000 0.500000
O O13 0.776079 0.005353 0.365418
O O14 0.129895 0.268606 0.780481
O O15 0.000000 0.000000 0.000000
O O16 0.000000 0.500000 0.500000
O O17 0.251606 0.532262 0.129103
O O18 0.228096 0.357704 0.945447
O O19 0.000000 0.500000 0.000000
#
# Coordination Sequence:
#
# PCOD9069554 Si02
#       8
#     2   2   2   2   2   2   2   2
#     4  12  23  45  71 105 144 189 246 305 358 435
#     4  12  25  48  75 105 147 193 250 305 370 439
#     4  12  25  50  70 109 149 192 248 306 370 447
#     4  12  27  49  74 108 147 193 249 308 374 442
#     4  12  26  45  73 109 142 193 248 300 367 443
#     4  12  25  44  73 107 146 192 244 301 369 438
#     4  12  26  47  73 109 145 200 247 306 368 444
#     4  12  27  50  73 107 154 196 242 305 378 447
#
# _framework density 23.167331999999998
#
# number of rings (size 3 to 8) (size 9 to 14) (size 15 to 20)
#    0.000    0.000    3.750    6.000    3.500    0.000 
#    2.250    0.000    0.000    0.000    0.000    0.000 
#    0.000    0.000    0.000    0.000    0.000    0.000 
#
# Total GULP energy -89402.049658 kJ/mol
# GULP energy per Si atom -5587.628104 kJ/mol
# Density = 2.311460 g / cm^3
# Si number density = 23.167332 Si / 1000 Ang^3
#
#
#
# Elastic Constant Matrix: (Units=GPa)
#
#
# Indices 1 2 3 4 5 6 
#
# 1 164.6702 -5.1352 29.6869 -9.6144 16.6603 -0.3412
# 2 -5.1352 49.8861 27.6003 1.0478 6.2124 4.9140
# 3 29.6869 27.6003 142.9632 12.0222 -4.6286 -17.8598
# 4 -9.6144 1.0478 12.0222 41.4398 -6.6345 2.7482
# 5 16.6603 6.2124 -4.6286 -6.6345 46.8905 1.5323
# 6 -0.3412 4.9140 -17.8598 2.7482 1.5323 35.9598
#
#
#
# Elastic Compliance Matrix: (Units=1/GPa)
#
#
# Indices 1 2 3 4 5 6 
#
# 1 0.006955 0.002458 -0.002349 0.001896 -0.002713 -0.001466
# 2 0.002458 0.025009 -0.006423 0.001530 -0.004391 -0.006514
# 3 -0.002349 -0.006423 0.009800 -0.003297 0.001994 0.005890
# 4 0.001896 0.001530 -0.003297 0.026172 0.002630 -0.003941
# 5 -0.002713 -0.004391 0.001994 0.002630 0.023429 0.000365
# 6 -0.001466 -0.006514 0.005890 -0.003941 0.000365 0.031896
#
#
# Mechanical properties :
#
#
# Convention : Reuss Voigt Hill
#
# Bulk Modulus (GPa) = 34.32259 51.31375 42.81817
# Shear Modulus (GPa) = 34.34039 45.21583 39.77811
#
# Velocity S-wave (km/s) = 3.85421 4.42260 4.14815
# Velocity P-wave (km/s) = 5.88675 6.94813 6.43935
#
# Compressibility (1/GPa) = 0.02913533
#
# Stress axis : x y z
#
# Youngs Moduli (GPa) = 143.78144 39.98589 102.03750
#
# Poissons Ratio (x) = -0.09829 0.23970
# Poissons Ratio (y) = -0.35342 0.65541
# Poissons Ratio (z) = 0.33777 0.25684
#
# Static dielectric constant tensor:
#      x y z
#    x 1.463940 0.063730 -0.070210 
#    y 0.063730 1.888950 -0.017810 
#    z -0.070210 -0.017810 1.854210 
# 
# From -- ./inp_files/243329.got.cif
#   From: 2010.05.17/outbox.cif.g08.bks.cpg/sg2_122_cif.got.tgz:243329.got - 2010.06.03 11:33:40.
