data_PCOD9069954
_publ_section_title
;
Structure prediction by ZEFSAII (Michael W. Deem and Ramdas Pophale) SiO2 
 PCOD9069954
Probable space group: P -1
;
_chemical_formula_sum "Si O2"
_cell_formula_units_Z 12
_cell_length_a 9.856632
_cell_length_b 9.197043
_cell_length_c 8.821452
_cell_angle_alpha 48.499780
_cell_angle_beta 110.858658
_cell_angle_gamma 103.931933
_cell_volume 559.657880
_symmetry_space_group_name_H-M "P -1"
_symmetry_group_IT_number 2
_symmetry_cell_setting 'triclinic'
loop_
_space_group_symop_operation_xyz
x,y,z
-x,-y,-z
loop_
_atom_site_type_symbol
_atom_site_label
_atom_site_fract_x
_atom_site_fract_y
_atom_site_fract_z
Si Si1 0.870849 0.347155 0.556737
Si Si2 0.226554 0.942599 0.029007
Si Si3 0.322500 0.372181 0.866754
Si Si4 0.415643 0.594010 0.255258
Si Si5 0.035076 0.999379 0.341770
Si Si6 0.163022 0.413271 0.090265
O O1 0.861737 0.201338 0.794257
O O2 0.736717 0.485385 0.385999
O O3 0.000000 0.500000 0.500000
O O4 0.887339 0.199135 0.529002
O O5 0.362524 0.810730 0.127379
O O6 0.114236 0.986603 0.820449
O O7 0.272541 0.148791 0.975934
O O8 0.490870 0.386178 0.877351
O O9 0.248229 0.449950 0.938752
O O10 0.500000 0.500000 0.500000
O O11 0.270183 0.476379 0.226288
O O12 0.135250 0.184328 0.225527
O O13 0.000000 0.000000 0.500000
O O14 0.000000 0.500000 0.000000
#
# Coordination Sequence:
#
# PCOD9069954 Si02
#       6
#     2   2   2   2   2   2
#     4  12  24  43  76 110 150 194 251 309 378 447
#     4  12  25  49  74 109 151 200 249 308 379 451
#     4  12  26  49  76 108 152 198 248 314 379 448
#     4  12  28  49  76 111 155 204 248 306 384 450
#     4  12  26  43  73 115 147 191 257 315 368 439
#     4  12  26  49  77 110 151 196 256 312 369 445
#
# _framework density 21.441672000000001
#
# number of rings (size 3 to 8) (size 9 to 14) (size 15 to 20)
#    0.000    0.000    6.667    3.500    4.667    0.000 
#    0.000    1.667    0.000    0.000    0.000    0.000 
#    0.000    0.000    0.000    0.000    0.000    0.000 
#
# Total GULP energy -66947.551295 kJ/mol
# GULP energy per Si atom -5578.962608 kJ/mol
# Density = 2.139287 g / cm^3
# Si number density = 21.441672 Si / 1000 Ang^3
#
#
#
# Elastic Constant Matrix: (Units=GPa)
#
#
# Indices 1 2 3 4 5 6 
#
# 1 132.9186 56.0166 48.9323 7.0339 -8.3410 -10.3488
# 2 56.0166 127.7105 42.6934 -17.5908 15.4828 5.1899
# 3 48.9323 42.6934 90.4681 -10.2329 7.2831 5.4730
# 4 7.0339 -17.5908 -10.2329 44.8519 -5.7464 2.4308
# 5 -8.3410 15.4828 7.2831 -5.7464 35.7390 3.6504
# 6 -10.3488 5.1899 5.4730 2.4308 3.6504 44.5039
#
#
#
# Elastic Compliance Matrix: (Units=1/GPa)
#
#
# Indices 1 2 3 4 5 6 
#
# 1 0.012649 -0.005119 -0.005633 -0.004841 0.005123 0.004075
# 2 -0.005119 0.012027 -0.001849 0.004567 -0.005069 -0.002199
# 3 -0.005633 -0.001849 0.015786 0.003556 -0.002853 -0.002996
# 4 -0.004841 0.004567 0.003556 0.025941 0.000702 -0.003570
# 5 0.005123 -0.005069 -0.002853 0.000702 0.032122 -0.000540
# 6 0.004075 -0.002199 -0.002996 -0.003570 -0.000540 0.024282
#
#
# Mechanical properties :
#
#
# Convention : Reuss Voigt Hill
#
# Bulk Modulus (GPa) = 65.52754 71.82021 68.67388
# Shear Modulus (GPa) = 32.65974 38.58261 35.62118
#
# Velocity S-wave (km/s) = 3.90704 4.24656 4.08033
# Velocity P-wave (km/s) = 7.14006 7.59030 7.36862
#
# Compressibility (1/GPa) = 0.01526076
#
# Stress axis : x y z
#
# Youngs Moduli (GPa) = 79.05723 83.14930 63.34733
#
# Poissons Ratio (x) = 0.42561 0.35681
# Poissons Ratio (y) = 0.40467 0.11714
# Poissons Ratio (z) = 0.44529 0.15376
#
# Static dielectric constant tensor:
#      x y z
#    x 1.888290 -0.094150 0.110840 
#    y -0.094150 1.734300 0.076850 
#    z 0.110840 0.076850 1.715360 
# 
# From -- ./inp_files/156507.got.cif
#   From: 2010.05.17/outbox.cif.g08.bks.cpg/sg2_79_cif.got.tgz:156507.got - 2010.06.03 11:33:40.
