data_PCOD9069863
_publ_section_title
;
Structure prediction by ZEFSAII (Michael W. Deem and Ramdas Pophale) SiO2 
 PCOD9069863
Probable space group: P -1
;
_chemical_formula_sum "Si O2"
_cell_formula_units_Z 15
_cell_length_a 11.939673
_cell_length_b 17.411780
_cell_length_c 16.790549
_cell_angle_alpha 163.345714
_cell_angle_beta 136.887291
_cell_angle_gamma 43.674696
_cell_volume 678.602647
_symmetry_space_group_name_H-M "P -1"
_symmetry_group_IT_number 2
_symmetry_cell_setting 'triclinic'
loop_
_space_group_symop_operation_xyz
x,y,z
-x,-y,-z
loop_
_atom_site_type_symbol
_atom_site_label
_atom_site_fract_x
_atom_site_fract_y
_atom_site_fract_z
Si Si1 0.452344 0.020541 0.748010
Si Si2 0.641134 0.498814 0.268506
Si Si3 0.900413 0.060793 0.589087
Si Si4 0.390075 0.275323 0.695703
Si Si5 0.056119 0.434898 0.776978
Si Si6 0.191734 0.425240 0.355464
Si Si7 0.000000 0.500000 0.500000
Si Si8 0.576345 0.108503 0.066395
O O1 0.563919 0.730173 0.518779
O O2 0.286139 0.977027 0.571625
O O3 0.447500 0.117511 0.934180
O O4 0.536129 0.249771 0.971590
O O5 0.639190 0.673813 0.361568
O O6 0.830089 0.389768 0.273143
O O7 0.982004 0.832558 0.464311
O O8 0.908406 0.345005 0.919510
O O9 0.000000 0.000000 0.500000
O O10 0.220937 0.331905 0.711331
O O11 0.500000 0.000000 0.500000
O O12 0.500000 0.500000 0.000000
O O13 0.916606 0.544250 0.750818
O O14 0.271012 0.116980 0.098660
O O15 0.074564 0.497867 0.443093
O O16 0.339777 0.614726 0.611502
O O17 0.500000 0.000000 0.000000
#
# Coordination Sequence:
#
# PCOD9069863 Si02
#       8
#     2   2   2   2   2   2   1   2
#     4  12  25  46  72 102 144 190 239 304 361 435
#     4  12  25  44  71 104 144 186 232 293 366 444
#     4  12  28  49  73 102 141 192 248 308 364 430
#     4  12  24  42  69 100 139 185 228 287 349 432
#     4  12  26  47  70 106 141 186 241 298 360 427
#     4  12  27  48  78 107 152 188 246 308 370 453
#     4  12  24  50  70 114 148 192 244 292 384 438
#     4  12  27  48  74 109 142 196 248 306 370 438
#
# _framework density 22.104247000000001
#
# number of rings (size 3 to 8) (size 9 to 14) (size 15 to 20)
#    0.000    0.000    4.000    6.400    3.733    2.133 
#    0.000    0.000    0.000    0.000    0.000    0.000 
#    0.000    0.000    0.000    0.000    0.000    0.000 
#
# Total GULP energy -83622.493802 kJ/mol
# GULP energy per Si atom -5574.832920 kJ/mol
# Density = 2.205394 g / cm^3
# Si number density = 22.104247 Si / 1000 Ang^3
#
#
#
# Elastic Constant Matrix: (Units=GPa)
#
#
# Indices 1 2 3 4 5 6 
#
# 1 83.7687 -22.3674 2.0861 -4.3478 -2.5776 16.0003
# 2 -22.3674 -13.9506 -51.9984 10.4151 -32.6593 -2.9539
# 3 2.0861 -51.9984 75.3515 18.5254 -14.1357 -11.8958
# 4 -4.3478 10.4151 18.5254 37.3640 10.0748 3.5579
# 5 -2.5776 -32.6593 -14.1357 10.0748 17.1585 -6.4090
# 6 16.0003 -2.9539 -11.8958 3.5579 -6.4090 33.2613
#
#
#
# Elastic Compliance Matrix: (Units=1/GPa)
#
#
# Indices 1 2 3 4 5 6 
#
# 1 0.014149 0.001249 -0.002717 0.004478 -0.003670 -0.008853
# 2 0.001249 -0.001148 -0.007202 0.009040 -0.015973 -0.007323
# 3 -0.002717 -0.007202 0.007413 -0.000251 -0.007124 0.001973
# 4 0.004478 0.009040 -0.000251 0.024785 0.001715 -0.003762
# 5 -0.003670 -0.015973 -0.007124 0.001715 0.021075 0.001676
# 6 -0.008853 -0.007323 0.001973 -0.003762 0.001676 0.035104
#
#
# Mechanical properties :
#
#
# Convention : Reuss Voigt Hill
#
# Bulk Modulus (GPa) = 324.96650 0.06781 162.51715
# Shear Modulus (GPa) = 41.75600 32.05337 36.90468
#
# Velocity S-wave (km/s) = 4.35103 3.81215 4.09048
# Velocity P-wave (km/s) = 13.13684 4.40538 9.79755
#
# Compressibility (1/GPa) = 0.00307724
#
# Stress axis : x y z
#
# Youngs Moduli (GPa) = 70.67429 -871.40990 134.89525
#
# Poissons Ratio (x) = 1.08880 0.36646
# Poissons Ratio (y) = -0.08830 0.97148
# Poissons Ratio (z) = 0.19199 -6.27567
#
# Static dielectric constant tensor:
#      x y z
#    x 1.776280 0.016960 -0.027220 
#    y 0.016960 1.812830 -0.008670 
#    z -0.027220 -0.008670 1.755940 
# 
# From -- ./inp_files/522067.got.cif
#   From: 2010.05.17/outbox.cif.g08.bks.cpg/sg2_262_cif.got.tgz:522067.got - 2010.06.03 11:33:40.
