data_PCOD9069508
_publ_section_title
;
Structure prediction by ZEFSAII (Michael W. Deem and Ramdas Pophale) SiO2 
 PCOD9069508
Probable space group: P -1
;
_chemical_formula_sum "Si O2"
_cell_formula_units_Z 15
_cell_length_a 24.278253
_cell_length_b 16.771327
_cell_length_c 13.691229
_cell_angle_alpha 28.340289
_cell_angle_beta 159.205375
_cell_angle_gamma 162.720511
_cell_volume 583.714034
_symmetry_space_group_name_H-M "P -1"
_symmetry_group_IT_number 2
_symmetry_cell_setting 'triclinic'
loop_
_space_group_symop_operation_xyz
x,y,z
-x,-y,-z
loop_
_atom_site_type_symbol
_atom_site_label
_atom_site_fract_x
_atom_site_fract_y
_atom_site_fract_z
Si Si1 0.314335 0.845158 0.450357
Si Si2 0.578059 0.678813 0.843264
Si Si3 0.955766 0.769685 0.650474
Si Si4 0.178886 0.497027 0.091320
Si Si5 0.500000 0.500000 0.500000
Si Si6 0.196812 0.523888 0.774183
Si Si7 0.916411 0.045885 0.692346
Si Si8 0.324228 0.966782 0.876441
O O1 0.353550 0.730738 0.717186
O O2 0.500000 0.000000 0.500000
O O3 0.346304 0.063277 0.300819
O O4 0.024160 0.582901 0.225362
O O5 0.334086 0.480745 0.586668
O O6 0.500000 0.500000 0.000000
O O7 0.819423 0.792240 0.082246
O O8 0.982168 0.690966 0.878676
O O9 0.000000 0.000000 0.500000
O O10 0.125984 0.840053 0.770118
O O11 0.292530 0.431656 0.297290
O O12 0.365866 0.803599 0.106142
O O13 0.713776 0.727265 0.694235
O O14 0.000000 0.500000 0.500000
O O15 0.006546 0.216453 0.755248
O O16 0.420114 0.716029 0.018120
O O17 0.788809 0.052793 0.388813
#
# Coordination Sequence:
#
# PCOD9069508 Si02
#       8
#     2   2   2   2   1   2   2   2
#     4  12  24  47  75 109 150 195 256 317 387 452
#     4  12  23  44  72 110 151 190 253 314 386 452
#     4  12  24  44  73 114 150 196 257 320 384 462
#     4  12  25  47  74 108 148 204 253 313 388 458
#     4  12  28  48  74 106 152 206 256 304 398 466
#     4  12  28  48  75 114 149 203 262 317 383 470
#     4  12  26  49  74 109 152 204 244 319 383 462
#     4  12  25  48  78 108 154 196 259 312 392 459
#
# _framework density 25.697514000000002
#
# number of rings (size 3 to 8) (size 9 to 14) (size 15 to 20)
#    0.000    0.000    4.000    6.800    1.867    1.067 
#    0.000    2.000    0.000    0.000    0.000    0.000 
#    0.000    0.000    0.000    0.000    0.000    0.000 
#
# Total GULP energy -83737.370483 kJ/mol
# GULP energy per Si atom -5582.491366 kJ/mol
# Density = 2.563903 g / cm^3
# Si number density = 25.697514 Si / 1000 Ang^3
#
#
#
# Elastic Constant Matrix: (Units=GPa)
#
#
# Indices 1 2 3 4 5 6 
#
# 1 77.9639 25.2892 20.4785 7.4929 4.3901 -7.9626
# 2 25.2892 185.1207 43.8873 11.0402 -6.1344 -42.2595
# 3 20.4785 43.8873 86.0543 37.7746 9.5239 -22.3919
# 4 7.4929 11.0402 37.7746 58.6315 3.5883 -1.7143
# 5 4.3901 -6.1344 9.5239 3.5883 50.5053 -0.7465
# 6 -7.9626 -42.2595 -22.3919 -1.7143 -0.7465 47.2815
#
#
#
# Elastic Compliance Matrix: (Units=1/GPa)
#
#
# Indices 1 2 3 4 5 6 
#
# 1 0.013982 -0.001347 -0.002682 0.000246 -0.000893 -0.000124
# 2 -0.001347 0.007389 -0.002422 0.000402 0.001521 0.005269
# 3 -0.002682 -0.002422 0.021047 -0.012374 -0.003049 0.006855
# 4 0.000246 0.000402 -0.012374 0.024755 0.000535 -0.004554
# 5 -0.000893 0.001521 -0.003049 0.000535 0.020601 0.000109
# 6 -0.000124 0.005269 0.006855 -0.004554 0.000109 0.028922
#
#
# Mechanical properties :
#
#
# Convention : Reuss Voigt Hill
#
# Bulk Modulus (GPa) = 33.87859 58.71656 46.29757
# Shear Modulus (GPa) = 35.85920 48.58257 42.22089
#
# Velocity S-wave (km/s) = 3.73960 4.35277 4.05778
# Velocity P-wave (km/s) = 5.64433 6.93980 6.32532
#
# Compressibility (1/GPa) = 0.02951717
#
# Stress axis : x y z
#
# Youngs Moduli (GPa) = 71.52212 135.33118 47.51374
#
# Poissons Ratio (x) = 0.18228 0.12742
# Poissons Ratio (y) = 0.09633 0.11506
# Poissons Ratio (z) = 0.19180 0.32771
#
# Static dielectric constant tensor:
#      x y z
#    x 2.171060 -0.203610 -0.118520 
#    y -0.203610 2.465080 -0.002520 
#    z -0.118520 -0.002520 2.076880 
# 
# From -- ./inp_files/392262.got.cif
#   From: 2010.05.17/outbox.cif.g08.bks.cpg/sg2_197_cif.got.tgz:392262.got - 2010.06.03 11:33:40.
