data_PCOD9069422
_publ_section_title
;
Structure prediction by ZEFSAII (Michael W. Deem and Ramdas Pophale) SiO2 
 PCOD9069422
Probable space group: P -1
;
_chemical_formula_sum "Si O2"
_cell_formula_units_Z 13
_cell_length_a 15.933505
_cell_length_b 4.826211
_cell_length_c 18.951543
_cell_angle_alpha 110.770685
_cell_angle_beta 21.623951
_cell_angle_gamma 105.272010
_cell_volume 492.771541
_symmetry_space_group_name_H-M "P -1"
_symmetry_group_IT_number 2
_symmetry_cell_setting 'triclinic'
loop_
_space_group_symop_operation_xyz
x,y,z
-x,-y,-z
loop_
_atom_site_type_symbol
_atom_site_label
_atom_site_fract_x
_atom_site_fract_y
_atom_site_fract_z
Si Si1 0.367595 0.290999 0.088022
Si Si2 0.305610 0.004284 0.425909
Si Si3 0.142950 0.700213 0.395985
Si Si4 0.312822 0.774086 0.777345
Si Si5 0.853362 0.968182 0.225805
Si Si6 0.500000 0.500000 0.500000
Si Si7 0.023449 0.671814 0.714658
O O1 0.378510 0.626834 0.144798
O O2 0.103128 0.370421 0.363480
O O3 0.220935 0.263738 0.129860
O O4 0.500000 0.000000 0.000000
O O5 0.559155 0.022665 0.256933
O O6 0.148978 0.333885 0.565787
O O7 0.295307 0.783138 0.349325
O O8 0.176380 0.881754 0.578540
O O9 0.000000 0.000000 0.500000
O O10 0.499963 0.477355 0.586778
O O11 0.704636 0.751833 0.360213
O O12 0.073311 0.757612 0.997445
O O13 0.723225 0.159046 0.275267
O O14 0.972716 0.206200 0.197883
#
# Coordination Sequence:
#
# PCOD9069422 Si02
#       7
#     2   2   2   2   2   1   2
#     4  12  26  44  65  99 137 178 224 289 340 398
#     4  12  23  43  70  98 130 182 227 279 338 406
#     4  12  23  45  68  95 131 178 234 274 333 413
#     4   9  19  38  67 100 135 173 230 271 337 403
#     4   9  19  39  66 101 134 176 223 280 330 409
#     4   8  14  38  68  88 142 170 224 266 346 382
#     4  12  24  44  69  96 136 180 226 272 353 401
#
# _framework density 26.381395000000001
#
# number of rings (size 3 to 8) (size 9 to 14) (size 15 to 20)
#    0.923    0.308    4.615    1.846    2.154    0.615 
#    0.000    0.000    0.000    5.538    0.000    0.000 
#    0.000    0.000    0.000    0.000    0.000    0.000 
#
# Total GULP energy -72411.030004 kJ/mol
# GULP energy per Si atom -5570.079231 kJ/mol
# Density = 2.632135 g / cm^3
# Si number density = 26.381395 Si / 1000 Ang^3
#
#
#
# Elastic Constant Matrix: (Units=GPa)
#
#
# Indices 1 2 3 4 5 6 
#
# 1 208.9835 64.4941 67.7915 -5.3540 -13.7969 40.8908
# 2 64.4941 159.8442 42.0940 -12.3844 -19.3792 5.0069
# 3 67.7915 42.0940 193.3175 -15.1741 -1.9335 22.2889
# 4 -5.3540 -12.3844 -15.1741 46.8695 13.0877 -7.4577
# 5 -13.7969 -19.3792 -1.9335 13.0877 57.4428 -1.1018
# 6 40.8908 5.0069 22.2889 -7.4577 -1.1018 56.1092
#
#
#
# Elastic Compliance Matrix: (Units=1/GPa)
#
#
# Indices 1 2 3 4 5 6 
#
# 1 0.006838 -0.002196 -0.001509 -0.001273 0.001058 -0.004336
# 2 -0.002196 0.007656 -0.000957 0.001203 0.001778 0.001492
# 3 -0.001509 -0.000957 0.006152 0.001642 -0.000873 -0.001058
# 4 -0.001273 0.001203 0.001642 0.024026 -0.005256 0.003258
# 5 0.001058 0.001778 -0.000873 -0.005256 0.019413 -0.000900
# 6 -0.004336 0.001492 -0.001058 0.003258 -0.000900 0.021685
#
#
# Mechanical properties :
#
#
# Convention : Reuss Voigt Hill
#
# Bulk Modulus (GPa) = 88.31886 101.21162 94.76524
# Shear Modulus (GPa) = 50.57172 57.93534 54.25353
#
# Velocity S-wave (km/s) = 4.38304 4.69131 4.53979
# Velocity P-wave (km/s) = 7.69189 8.23362 7.96736
#
# Compressibility (1/GPa) = 0.01132261
#
# Stress axis : x y z
#
# Youngs Moduli (GPa) = 146.24066 130.61318 162.53597
#
# Poissons Ratio (x) = 0.28685 0.24528
# Poissons Ratio (y) = 0.32117 0.15551
# Poissons Ratio (z) = 0.22069 0.12497
#
# Static dielectric constant tensor:
#      x y z
#    x 2.260220 -0.155650 0.401470 
#    y -0.155650 2.240320 -0.575450 
#    z 0.401470 -0.575450 3.548270 
# 
# From -- ./inp_files/598851.got.cif
#   From: 2010.05.17/outbox.cif.g08.bks.cpg/sg2_300_cif.got.tgz:598851.got - 2010.06.03 11:33:40.
