data_PCOD9069942
_publ_section_title
;
Structure prediction by ZEFSAII (Michael W. Deem and Ramdas Pophale) SiO2 
 PCOD9069942
Probable space group: P -1
;
_chemical_formula_sum "Si O2"
_cell_formula_units_Z 12
_cell_length_a 6.821146
_cell_length_b 14.894715
_cell_length_c 12.462261
_cell_angle_alpha 30.177910
_cell_angle_beta 118.697397
_cell_angle_gamma 115.776052
_cell_volume 557.738239
_symmetry_space_group_name_H-M "P -1"
_symmetry_group_IT_number 2
_symmetry_cell_setting 'triclinic'
loop_
_space_group_symop_operation_xyz
x,y,z
-x,-y,-z
loop_
_atom_site_type_symbol
_atom_site_label
_atom_site_fract_x
_atom_site_fract_y
_atom_site_fract_z
Si Si1 0.514533 0.916025 0.472092
Si Si2 0.476863 0.732828 0.029212
Si Si3 0.797225 0.599263 0.788745
Si Si4 0.952870 0.705195 0.278344
Si Si5 0.712913 0.119210 0.972386
Si Si6 0.997185 0.814928 0.417143
O O1 0.688574 0.759278 0.662270
O O2 0.265114 0.833420 0.468546
O O3 0.500000 0.000000 0.500000
O O4 0.571692 0.084178 0.234998
O O5 0.389844 0.556339 0.126504
O O6 0.740333 0.739046 0.114188
O O7 0.364920 0.733329 0.117222
O O8 0.896920 0.687375 0.614870
O O9 0.000000 0.500000 0.000000
O O10 0.000000 0.500000 0.500000
O O11 0.917603 0.756224 0.338792
O O12 0.164385 0.810645 0.174002
O O13 0.888388 0.005923 0.201985
O O14 0.500000 0.000000 0.000000
#
# Coordination Sequence:
#
# PCOD9069942 Si02
#       6
#     2   2   2   2   2   2
#     4  12  28  49  76 102 144 199 246 301 367 428
#     4  12  26  47  74 105 149 189 239 301 364 436
#     4  12  30  49  74 109 144 191 253 305 358 429
#     4  12  26  42  72 111 145 187 235 298 367 431
#     4  12  24  43  74 108 146 189 236 286 367 436
#     4  12  25  46  73 105 148 187 241 297 361 437
#
# _framework density 21.515469
#
# number of rings (size 3 to 8) (size 9 to 14) (size 15 to 20)
#    0.000    0.000    5.000    4.500    4.667    6.667 
#    0.000    0.000    0.000    0.000    0.000    0.000 
#    0.000    0.000    0.000    0.000    0.000    0.000 
#
# Total GULP energy -67164.525038 kJ/mol
# GULP energy per Si atom -5597.043753 kJ/mol
# Density = 2.146650 g / cm^3
# Si number density = 21.515469 Si / 1000 Ang^3
#
#
#
# Elastic Constant Matrix: (Units=GPa)
#
#
# Indices 1 2 3 4 5 6 
#
# 1 123.6247 44.0246 67.6291 -1.3560 -5.4763 -8.9480
# 2 44.0246 114.7910 44.3249 -2.7740 1.4055 -11.9972
# 3 67.6291 44.3249 124.7791 -7.1358 5.0363 -2.5066
# 4 -1.3560 -2.7740 -7.1358 30.9194 -2.7825 3.1541
# 5 -5.4763 1.4055 5.0363 -2.7825 39.0920 -5.2751
# 6 -8.9480 -11.9972 -2.5066 3.1541 -5.2751 35.2830
#
#
#
# Elastic Compliance Matrix: (Units=1/GPa)
#
#
# Indices 1 2 3 4 5 6 
#
# 1 0.012536 -0.002241 -0.006125 -0.001061 0.002889 0.002509
# 2 -0.002241 0.010880 -0.002593 -0.000019 0.000026 0.002953
# 3 -0.006125 -0.002593 0.012448 0.002365 -0.002488 -0.002134
# 4 -0.001061 -0.000019 0.002365 0.033268 0.001530 -0.002853
# 5 0.002889 0.000026 -0.002488 0.001530 0.027017 0.004467
# 6 0.002509 0.002953 -0.002134 -0.002853 0.004467 0.030754
#
#
# Mechanical properties :
#
#
# Convention : Reuss Voigt Hill
#
# Bulk Modulus (GPa) = 71.71021 75.01689 73.36355
# Shear Modulus (GPa) = 32.57980 34.87330 33.72655
#
# Velocity S-wave (km/s) = 3.89556 4.03034 3.96352
# Velocity P-wave (km/s) = 7.32365 7.52332 7.42416
#
# Compressibility (1/GPa) = 0.01394502
#
# Stress axis : x y z
#
# Youngs Moduli (GPa) = 79.77179 91.91052 80.33613
#
# Poissons Ratio (x) = 0.20602 0.49205
# Poissons Ratio (y) = 0.17881 0.20830
# Poissons Ratio (z) = 0.48859 0.23832
#
# Static dielectric constant tensor:
#      x y z
#    x 1.879740 -0.109760 0.052270 
#    y -0.109760 1.869400 -0.045660 
#    z 0.052270 -0.045660 1.795950 
# 
# From -- ./inp_files/21552.got.cif
#   From: 2010.05.17/outbox.cif.g08.bks.cpg/sg2_11_cif.got.tgz:21552.got - 2010.06.03 11:33:40.
