data_PCOD9069727
_publ_section_title
;
Structure prediction by ZEFSAII (Michael W. Deem and Ramdas Pophale) SiO2 
 PCOD9069727
Probable space group: P -1
;
_chemical_formula_sum "Si O2"
_cell_formula_units_Z 16
_cell_length_a 9.082308
_cell_length_b 9.120625
_cell_length_c 11.329257
_cell_angle_alpha 53.382251
_cell_angle_beta 113.267351
_cell_angle_gamma 104.053620
_cell_volume 691.956299
_symmetry_space_group_name_H-M "P -1"
_symmetry_group_IT_number 2
_symmetry_cell_setting 'triclinic'
loop_
_space_group_symop_operation_xyz
x,y,z
-x,-y,-z
loop_
_atom_site_type_symbol
_atom_site_label
_atom_site_fract_x
_atom_site_fract_y
_atom_site_fract_z
Si Si1 0.830663 0.577823 0.865059
Si Si2 0.551040 0.013221 0.221997
Si Si3 0.294383 0.308201 0.703940
Si Si4 0.072112 0.435837 0.358066
Si Si5 0.010310 0.155564 0.830857
Si Si6 0.270344 0.020880 0.312358
Si Si7 0.160918 0.885677 0.583584
Si Si8 0.488392 0.605851 0.071320
O O1 0.839405 0.616701 0.709456
O O2 0.784869 0.769378 0.818742
O O3 0.688044 0.437931 0.915456
O O4 0.000000 0.500000 0.000000
O O5 0.430200 0.991259 0.303487
O O6 0.724341 0.092241 0.279070
O O7 0.578507 0.821217 0.259331
O O8 0.483613 0.178827 0.043938
O O9 0.183363 0.403320 0.523426
O O10 0.174869 0.174959 0.802692
O O11 0.385158 0.440048 0.762685
O O12 0.023496 0.644295 0.227006
O O13 0.911162 0.313048 0.371722
O O14 0.869161 0.106592 0.720983
O O15 0.000000 0.000000 0.000000
O O16 0.268458 0.967282 0.473740
O O17 0.000000 0.000000 0.500000
O O18 0.500000 0.500000 0.000000
#
# Coordination Sequence:
#
# PCOD9069727 Si02
#       8
#     2   2   2   2   2   2   2   2
#     4  12  27  47  78 112 153 206 265 318 386 472
#     4  12  26  47  75 109 158 205 255 323 391 464
#     4  12  28  52  76 109 160 204 259 325 396 468
#     4  12  27  48  80 115 152 210 259 319 392 460
#     4  12  28  47  77 111 155 203 262 322 388 470
#     4  12  25  46  71 113 151 202 260 316 390 454
#     4  12  23  47  77 111 153 203 258 316 389 467
#     4  12  29  49  75 111 154 204 262 325 397 464
#
# _framework density 23.122848000000001
#
# number of rings (size 3 to 8) (size 9 to 14) (size 15 to 20)
#    0.000    0.000    5.000    3.375    8.750    0.500 
#    2.250    0.000    0.000    0.000    0.000    0.000 
#    0.000    0.000    0.000    0.000    0.000    0.000 
#
# Total GULP energy -89594.037670 kJ/mol
# GULP energy per Si atom -5599.627354 kJ/mol
# Density = 2.307022 g / cm^3
# Si number density = 23.122848 Si / 1000 Ang^3
#
#
#
# Elastic Constant Matrix: (Units=GPa)
#
#
# Indices 1 2 3 4 5 6 
#
# 1 169.0940 38.8014 45.7431 5.3387 -11.6035 -0.6626
# 2 38.8014 115.9999 39.5040 0.6798 11.2383 -6.9201
# 3 45.7431 39.5040 103.8674 17.9734 -8.5219 4.3794
# 4 5.3387 0.6798 17.9734 49.8621 13.4183 9.1799
# 5 -11.6035 11.2383 -8.5219 13.4183 35.4418 -1.7929
# 6 -0.6626 -6.9201 4.3794 9.1799 -1.7929 44.0200
#
#
#
# Elastic Compliance Matrix: (Units=1/GPa)
#
#
# Indices 1 2 3 4 5 6 
#
# 1 0.007129 -0.001932 -0.002052 -0.000795 0.002769 0.000286
# 2 -0.001932 0.011573 -0.004718 0.003290 -0.006616 0.001304
# 3 -0.002052 -0.004718 0.014005 -0.006439 0.006601 -0.000554
# 4 -0.000795 0.003290 -0.006439 0.026917 -0.013296 -0.005009
# 5 0.002769 -0.006616 0.006601 -0.013296 0.037976 0.002664
# 6 0.000286 0.001304 -0.000554 -0.005009 0.002664 0.024134
#
#
# Mechanical properties :
#
#
# Convention : Reuss Voigt Hill
#
# Bulk Modulus (GPa) = 65.34821 70.78426 68.06623
# Shear Modulus (GPa) = 34.66493 43.52563 39.09528
#
# Velocity S-wave (km/s) = 3.87610 4.34333 4.11635
# Velocity P-wave (km/s) = 6.95377 7.47204 7.21756
#
# Compressibility (1/GPa) = 0.01530264
#
# Stress axis : x y z
#
# Youngs Moduli (GPa) = 140.28144 86.40630 71.40417
#
# Poissons Ratio (x) = 0.16695 0.14651
# Poissons Ratio (y) = 0.27105 0.33688
# Poissons Ratio (z) = 0.28784 0.40766
#
# Static dielectric constant tensor:
#      x y z
#    x 1.843450 -0.039870 -0.033600 
#    y -0.039870 1.889890 0.016780 
#    z -0.033600 0.016780 2.002640 
# 
# From -- ./inp_files/381473.got.cif
#   From: 2010.05.17/outbox.cif.g08.bks.cpg/sg2_191_cif.got.tgz:381473.got - 2010.06.03 11:33:40.
