data_PCOD9069715
_publ_section_title
;
Structure prediction by ZEFSAII (Michael W. Deem and Ramdas Pophale) SiO2 
 PCOD9069715
Probable space group: P -1
;
_chemical_formula_sum "Si O2"
_cell_formula_units_Z 12
_cell_length_a 8.678573
_cell_length_b 11.861853
_cell_length_c 8.926317
_cell_angle_alpha 113.177959
_cell_angle_beta 95.988125
_cell_angle_gamma 38.778235
_cell_volume 495.262283
_symmetry_space_group_name_H-M "P -1"
_symmetry_group_IT_number 2
_symmetry_cell_setting 'triclinic'
loop_
_space_group_symop_operation_xyz
x,y,z
-x,-y,-z
loop_
_atom_site_type_symbol
_atom_site_label
_atom_site_fract_x
_atom_site_fract_y
_atom_site_fract_z
Si Si1 0.807559 0.678352 0.449010
Si Si2 0.918689 0.174149 0.170548
Si Si3 0.607183 0.580955 0.176661
Si Si4 0.452321 0.986553 0.158397
Si Si5 0.972620 0.692719 0.176977
Si Si6 0.994081 0.962111 0.311321
O O1 0.666314 0.659843 0.331972
O O2 0.614442 0.883720 0.637653
O O3 0.967398 0.656607 0.330963
O O4 0.000000 0.500000 0.500000
O O5 0.191453 0.072018 0.168826
O O6 0.717856 0.392504 0.181556
O O7 0.828731 0.169584 0.313624
O O8 0.000000 0.000000 0.000000
O O9 0.303385 0.766270 0.200419
O O10 0.767737 0.484638 0.988045
O O11 0.744550 0.757969 0.110960
O O12 0.500000 0.000000 0.000000
O O13 0.899974 0.883059 0.246747
O O14 0.000000 0.000000 0.500000
#
# Coordination Sequence:
#
# PCOD9069715 Si02
#       6
#     2   2   2   2   2   2
#     4  12  25  45  73 107 146 187 251 306 361 438
#     4  12  25  47  74 109 148 194 246 300 374 440
#     4  12  26  50  74 109 150 196 247 306 373 439
#     4  12  23  47  75 107 147 193 246 302 366 438
#     4  12  25  48  71 109 146 197 246 304 370 436
#     4  12  27  48  73 108 152 195 244 307 371 444
#
# _framework density 24.229586999999999
#
# number of rings (size 3 to 8) (size 9 to 14) (size 15 to 20)
#    0.000    0.000    5.000    4.500    0.000    2.000 
#    3.000    0.000    0.000    0.000    0.000    0.000 
#    0.000    0.000    0.000    0.000    0.000    0.000 
#
# Total GULP energy -67120.946139 kJ/mol
# GULP energy per Si atom -5593.412178 kJ/mol
# Density = 2.417444 g / cm^3
# Si number density = 24.229587 Si / 1000 Ang^3
#
#
#
# Elastic Constant Matrix: (Units=GPa)
#
#
# Indices 1 2 3 4 5 6 
#
# 1 96.0806 48.3764 37.0865 -1.7161 15.3472 20.5970
# 2 48.3764 118.8352 28.6171 -18.5407 -36.0442 23.1636
# 3 37.0865 28.6171 155.5800 -18.2060 -10.6332 21.0134
# 4 -1.7161 -18.5407 -18.2060 46.9078 6.0072 -12.4160
# 5 15.3472 -36.0442 -10.6332 6.0072 44.0147 -6.4480
# 6 20.5970 23.1636 21.0134 -12.4160 -6.4480 55.5459
#
#
#
# Elastic Compliance Matrix: (Units=1/GPa)
#
#
# Indices 1 2 3 4 5 6 
#
# 1 0.024443 -0.015564 -0.004487 -0.005378 -0.022302 -0.004667
# 2 -0.015564 0.022342 0.001924 0.005958 0.023341 -0.000233
# 3 -0.004487 0.001924 0.007915 0.002831 0.004523 -0.000975
# 4 -0.005378 0.005958 0.002831 0.025198 0.004675 0.004614
# 5 -0.022302 0.023341 0.004523 0.004675 0.050613 0.003746
# 6 -0.004667 -0.000233 -0.000975 0.004614 0.003746 0.021666
#
#
# Mechanical properties :
#
#
# Convention : Reuss Voigt Hill
#
# Bulk Modulus (GPa) = 54.20938 66.51729 60.36334
# Shear Modulus (GPa) = 25.69648 46.38808 36.04228
#
# Velocity S-wave (km/s) = 3.26013 4.38027 3.86104
# Velocity P-wave (km/s) = 6.04922 7.28662 6.69656
#
# Compressibility (1/GPa) = 0.01844699
#
# Stress axis : x y z
#
# Youngs Moduli (GPa) = 40.91149 44.75923 126.33623
#
# Poissons Ratio (x) = 0.69662 0.56688
# Poissons Ratio (y) = 0.63674 -0.24311
# Poissons Ratio (z) = 0.18357 -0.08613
#
# Static dielectric constant tensor:
#      x y z
#    x 1.982340 0.066360 0.000030 
#    y 0.066360 2.043780 0.378060 
#    z 0.000030 0.378060 2.850940 
# 
# From -- ./inp_files/153936.got.cif
#   From: 2010.05.17/outbox.cif.g08.bks.cpg/sg2_77_cif.got.tgz:153936.got - 2010.06.03 11:33:40.
