data_PCOD9069635
_publ_section_title
;
Structure prediction by ZEFSAII (Michael W. Deem and Ramdas Pophale) SiO2 
 PCOD9069635
Probable space group: P -1
;
_chemical_formula_sum "Si O2"
_cell_formula_units_Z 16
_cell_length_a 9.814621
_cell_length_b 8.998539
_cell_length_c 25.174983
_cell_angle_alpha 42.299569
_cell_angle_beta 44.269855
_cell_angle_gamma 30.825511
_cell_volume 745.367514
_symmetry_space_group_name_H-M "P -1"
_symmetry_group_IT_number 2
_symmetry_cell_setting 'triclinic'
loop_
_space_group_symop_operation_xyz
x,y,z
-x,-y,-z
loop_
_atom_site_type_symbol
_atom_site_label
_atom_site_fract_x
_atom_site_fract_y
_atom_site_fract_z
Si Si1 0.223943 0.649811 0.508093
Si Si2 0.701846 0.628415 0.549097
Si Si3 0.122740 0.275248 0.690581
Si Si4 0.224408 0.401084 0.857215
Si Si5 0.498975 0.420046 0.082107
Si Si6 0.429146 0.429408 0.281026
Si Si7 0.633056 0.790176 0.966834
Si Si8 0.899864 0.707225 0.187331
O O1 0.500000 0.500000 0.500000
O O2 0.293032 0.556180 0.451218
O O3 0.125104 0.486696 0.597016
O O4 0.000000 0.000000 0.500000
O O5 0.638376 0.563861 0.640152
O O6 0.000000 0.500000 0.500000
O O7 0.500000 0.000000 0.500000
O O8 0.135443 0.345497 0.729067
O O9 0.851198 0.351002 0.732276
O O10 0.384452 0.918282 0.699910
O O11 0.396674 0.485805 0.795345
O O12 0.132399 0.445631 0.809882
O O13 0.944264 0.608616 0.914404
O O14 0.429773 0.038929 0.911480
O O15 0.192612 0.592120 0.134011
O O16 0.684731 0.068066 0.138491
O O17 0.500000 0.500000 0.000000
O O18 0.612381 0.545717 0.046247
O O19 0.500000 0.000000 0.000000
#
# Coordination Sequence:
#
# PCOD9069635 Si02
#       8
#     2   2   2   2   2   2   2   2
#     4  12  26  46  74 108 144 183 245 296 347 419
#     4  12  23  48  75 102 140 192 236 287 348 423
#     4  12  27  48  70 105 144 186 235 287 355 428
#     4  12  26  47  66 104 139 179 232 288 353 421
#     4  12  23  46  72  95 135 184 232 285 350 416
#     4  12  26  47  72 101 145 188 232 291 354 425
#     4  12  27  44  70 101 136 178 237 293 343 414
#     4  12  26  45  71 101 138 184 230 288 357 420
#
# _framework density 21.465921999999999
#
# number of rings (size 3 to 8) (size 9 to 14) (size 15 to 20)
#    0.000    0.000    5.000    4.500    7.000    0.000 
#    2.250    0.000    0.000    0.000    0.000    0.000 
#    0.000    0.000    0.000    0.000    0.000    0.000 
#
# Total GULP energy -89538.255069 kJ/mol
# GULP energy per Si atom -5596.140942 kJ/mol
# Density = 2.141706 g / cm^3
# Si number density = 21.465922 Si / 1000 Ang^3
#
#
#
# Elastic Constant Matrix: (Units=GPa)
#
#
# Indices 1 2 3 4 5 6 
#
# 1 106.2797 9.3506 10.9396 23.3489 4.2686 -2.3500
# 2 9.3506 127.1961 1.3201 18.0093 -2.4759 -21.1396
# 3 10.9396 1.3201 39.8403 12.9676 6.4668 -6.6903
# 4 23.3489 18.0093 12.9676 30.6808 -3.3035 -5.1892
# 5 4.2686 -2.4759 6.4668 -3.3035 43.3957 4.9178
# 6 -2.3500 -21.1396 -6.6903 -5.1892 4.9178 44.3992
#
#
#
# Elastic Compliance Matrix: (Units=1/GPa)
#
#
# Indices 1 2 3 4 5 6 
#
# 1 0.011457 0.000418 0.000129 -0.009224 -0.001819 -0.000052
# 2 0.000418 0.009372 0.002443 -0.006228 -0.000822 0.004216
# 3 0.000129 0.002443 0.031623 -0.014743 -0.006264 0.004906
# 4 -0.009224 -0.006228 -0.014743 0.050121 0.006627 -0.000551
# 5 -0.001819 -0.000822 -0.006264 0.006627 0.025002 -0.003426
# 6 -0.000052 0.004216 0.004906 -0.000551 -0.003426 0.025582
#
#
# Mechanical properties :
#
#
# Convention : Reuss Voigt Hill
#
# Bulk Modulus (GPa) = 17.11339 35.17075 26.14207
# Shear Modulus (GPa) = 30.00227 40.47554 35.23891
#
# Velocity S-wave (km/s) = 3.74260 4.34703 4.05609
# Velocity P-wave (km/s) = 5.16389 6.45101 5.84300
#
# Compressibility (1/GPa) = 0.05843378
#
# Stress axis : x y z
#
# Youngs Moduli (GPa) = 87.27985 106.69846 31.62246
#
# Poissons Ratio (x) = -0.04465 -0.00408
# Poissons Ratio (y) = -0.03652 -0.07726
# Poissons Ratio (z) = -0.01126 -0.26068
#
# Static dielectric constant tensor:
#      x y z
#    x 1.824200 0.012110 0.087150 
#    y 0.012110 1.821260 -0.101410 
#    z 0.087150 -0.101410 1.979930 
# 
# From -- ./inp_files/217758.got.cif
#   From: 2010.05.17/outbox.cif.g08.bks.cpg/sg2_109_cif.got.tgz:217758.got - 2010.06.03 11:33:40.
