data_PCOD9069057
_publ_section_title
;
Structure prediction by ZEFSAII (Michael W. Deem and Ramdas Pophale) SiO2 
 PCOD9069057
Probable space group: P -1
;
_chemical_formula_sum "Si O2"
_cell_formula_units_Z 14
_cell_length_a 15.008981
_cell_length_b 11.271025
_cell_length_c 15.061712
_cell_angle_alpha 41.591770
_cell_angle_beta 29.485983
_cell_angle_gamma 63.238907
_cell_volume 656.838379
_symmetry_space_group_name_H-M "P -1"
_symmetry_group_IT_number 2
_symmetry_cell_setting 'triclinic'
loop_
_space_group_symop_operation_xyz
x,y,z
-x,-y,-z
loop_
_atom_site_type_symbol
_atom_site_label
_atom_site_fract_x
_atom_site_fract_y
_atom_site_fract_z
Si Si1 0.321198 0.039462 0.211855
Si Si2 0.974649 0.663461 0.828484
Si Si3 0.320329 0.444385 0.425374
Si Si4 0.469623 0.625309 0.877938
Si Si5 0.972321 0.415932 0.360320
Si Si6 0.473055 0.371041 0.506160
Si Si7 0.560639 0.044267 0.664120
O O1 0.473924 0.038346 0.157668
O O2 0.238181 0.852927 0.312398
O O3 0.452641 0.291143 0.924485
O O4 0.082886 0.908290 0.549797
O O5 0.986410 0.529934 0.811685
O O6 0.722573 0.530327 0.155130
O O7 0.168647 0.740418 0.689611
O O8 0.367386 0.333163 0.368364
O O9 0.110197 0.455129 0.592116
O O10 0.307496 0.348579 0.587033
O O11 0.524099 0.854167 0.739589
O O12 0.500000 0.500000 0.000000
O O13 0.203883 0.471686 0.165044
O O14 0.500000 0.500000 0.500000
O O15 0.422353 0.135108 0.706365
#
# Coordination Sequence:
#
# PCOD9069057 Si02
#       7
#     2   2   2   2   2   2   2
#     4   8  19  41  67  94 125 172 222 277 321 369
#     4   8  19  42  66  90 128 172 218 276 329 365
#     4  12  22  41  68 101 130 176 226 265 331 400
#     4  12  23  44  64  94 139 178 219 268 336 391
#     4   9  22  40  66  96 133 168 218 285 317 381
#     4  12  23  40  69 102 131 171 227 272 330 396
#     4   9  22  41  63  96 132 174 216 271 325 390
#
# _framework density 21.314223999999999
#
# number of rings (size 3 to 8) (size 9 to 14) (size 15 to 20)
#    1.714    0.000    2.857    2.571    0.000    4.571 
#    2.571    0.714    0.000    0.000    0.000    0.000 
#    0.000    0.000    0.000    0.000    0.000    0.000 
#
# Total GULP energy -77990.853260 kJ/mol
# GULP energy per Si atom -5570.775233 kJ/mol
# Density = 2.126571 g / cm^3
# Si number density = 21.314224 Si / 1000 Ang^3
#
#
#
# Elastic Constant Matrix: (Units=GPa)
#
#
# Indices 1 2 3 4 5 6 
#
# 1 98.7099 54.9062 12.4479 -6.1168 3.8055 -1.1263
# 2 54.9062 148.8186 27.1833 3.0143 11.1493 11.5290
# 3 12.4479 27.1833 32.1217 13.6857 6.3592 6.3862
# 4 -6.1168 3.0143 13.6857 34.1187 -3.9780 7.7788
# 5 3.8055 11.1493 6.3592 -3.9780 22.5774 4.1091
# 6 -1.1263 11.5290 6.3862 7.7788 4.1091 34.0490
#
#
#
# Elastic Compliance Matrix: (Units=1/GPa)
#
#
# Indices 1 2 3 4 5 6 
#
# 1 0.013347 -0.004573 -0.003637 0.004070 0.001465 0.001566
# 2 -0.004573 0.009833 -0.006234 0.001155 -0.001694 -0.002371
# 3 -0.003637 -0.006234 0.049952 -0.021606 -0.014049 -0.000747
# 4 0.004070 0.001155 -0.021606 0.041872 0.013555 -0.007406
# 5 0.001465 -0.001694 -0.014049 0.013555 0.052347 -0.006157
# 6 0.001566 -0.002371 -0.000747 -0.007406 -0.006157 0.032799
#
#
# Mechanical properties :
#
#
# Convention : Reuss Voigt Hill
#
# Bulk Modulus (GPa) = 22.60311 52.08054 37.34182
# Shear Modulus (GPa) = 20.50966 30.48989 25.49977
#
# Velocity S-wave (km/s) = 3.10538 3.78629 3.46262
# Velocity P-wave (km/s) = 4.84620 6.60321 5.79172
#
# Compressibility (1/GPa) = 0.04424170
#
# Stress axis : x y z
#
# Youngs Moduli (GPa) = 74.92412 101.69957 20.01927
#
# Poissons Ratio (x) = 0.46511 0.07281
# Poissons Ratio (y) = 0.34266 0.12481
# Poissons Ratio (z) = 0.27251 0.63403
#
# Static dielectric constant tensor:
#      x y z
#    x 1.827520 -0.020580 0.011780 
#    y -0.020580 1.799020 0.003530 
#    z 0.011780 0.003530 1.797580 
# 
# From -- ./inp_files/532316.got.cif
#   From: 2010.05.17/outbox.cif.g08.bks.cpg/sg2_267_cif.got.tgz:532316.got - 2010.06.03 11:33:40.
