data_PCOD9069018
_publ_section_title
;
Structure prediction by ZEFSAII (Michael W. Deem and Ramdas Pophale) SiO2 
 PCOD9069018
Probable space group: P -1
;
_chemical_formula_sum "Si O2"
_cell_formula_units_Z 12
_cell_length_a 23.899886
_cell_length_b 15.181015
_cell_length_c 4.867582
_cell_angle_alpha 56.976618
_cell_angle_beta 60.970069
_cell_angle_gamma 17.293127
_cell_volume 435.791008
_symmetry_space_group_name_H-M "P -1"
_symmetry_group_IT_number 2
_symmetry_cell_setting 'triclinic'
loop_
_space_group_symop_operation_xyz
x,y,z
-x,-y,-z
loop_
_atom_site_type_symbol
_atom_site_label
_atom_site_fract_x
_atom_site_fract_y
_atom_site_fract_z
Si Si1 0.860397 0.710268 0.221163
Si Si2 0.810492 0.273438 0.815382
Si Si3 0.648859 0.178208 0.250397
Si Si4 0.438712 0.296899 0.801444
Si Si5 0.998768 0.230494 0.898671
Si Si6 0.240753 0.342224 0.716864
O O1 0.764418 0.748204 0.334345
O O2 0.000000 0.500000 0.500000
O O3 0.717336 0.026664 0.052410
O O4 0.000000 0.500000 0.000000
O O5 0.722320 0.476867 0.430139
O O6 0.652012 0.520617 0.010796
O O7 0.868643 0.076037 0.853758
O O8 0.000000 0.000000 0.000000
O O9 0.568060 0.195614 0.552551
O O10 0.841950 0.933936 0.320457
O O11 0.500000 0.500000 0.000000
O O12 0.442032 0.995407 0.952194
O O13 0.840586 0.449746 0.667077
O O14 0.901158 0.424372 0.080937
#
# Coordination Sequence:
#
# PCOD9069018 Si02
#       6
#     2   2   2   2   2   2
#     4  12  22  40  61  96 149 197 220 275 349 433
#     4  12  28  54  77 105 144 194 252 315 373 422
#     4  12  25  43  69 113 155 185 244 287 368 448
#     4  12  27  47  77 110 147 195 242 308 365 437
#     4  12  26  45  73 108 148 197 238 298 365 443
#     4  12  25  45  70 109 149 194 246 284 367 445
#
# _framework density 27.536131999999998
#
# number of rings (size 3 to 8) (size 9 to 14) (size 15 to 20)
#    0.000    0.000    5.000    5.500    0.000    2.000 
#    0.000    5.000    0.000    0.000    0.000    0.000 
#    0.000    0.000    0.000    0.000    0.000    0.000 
#
# Total GULP energy -67057.210013 kJ/mol
# GULP energy per Si atom -5588.100834 kJ/mol
# Density = 2.747346 g / cm^3
# Si number density = 27.536132 Si / 1000 Ang^3
#
#
#
# Elastic Constant Matrix: (Units=GPa)
#
#
# Indices 1 2 3 4 5 6 
#
# 1 111.7163 61.0053 34.1841 -8.9768 24.5472 0.1967
# 2 61.0053 227.1706 71.2426 -12.6420 14.0418 36.1002
# 3 34.1841 71.2426 119.4663 -13.1363 40.8400 8.9200
# 4 -8.9768 -12.6420 -13.1363 66.0247 4.6743 9.1781
# 5 24.5472 14.0418 40.8400 4.6743 58.0577 1.3988
# 6 0.1967 36.1002 8.9200 9.1781 1.3988 66.3773
#
#
#
# Elastic Compliance Matrix: (Units=1/GPa)
#
#
# Indices 1 2 3 4 5 6 
#
# 1 0.011649 -0.003034 -0.000062 0.001075 -0.004272 0.001565
# 2 -0.003034 0.006768 -0.003641 0.000458 0.002249 -0.003293
# 3 -0.000062 -0.003641 0.013998 0.002740 -0.009158 -0.000087
# 4 0.001075 0.000458 0.002740 0.016585 -0.003760 -0.002834
# 5 -0.004272 0.002249 -0.009158 -0.003760 0.025231 0.000008
# 6 0.001565 -0.003293 -0.000087 -0.002834 0.000008 0.017255
#
#
# Mechanical properties :
#
#
# Convention : Reuss Voigt Hill
#
# Bulk Modulus (GPa) = 52.79276 87.91301 70.35289
# Shear Modulus (GPa) = 44.93372 57.55335 51.24353
#
# Velocity S-wave (km/s) = 4.04395 4.57672 4.31856
# Velocity P-wave (km/s) = 6.40457 7.74108 7.10432
#
# Compressibility (1/GPa) = 0.01894199
#
# Stress axis : x y z
#
# Youngs Moduli (GPa) = 85.84245 147.74947 71.43782
#
# Poissons Ratio (x) = 0.44820 0.00446
# Poissons Ratio (y) = 0.26041 0.26009
# Poissons Ratio (z) = 0.00536 0.53793
#
# Static dielectric constant tensor:
#      x y z
#    x 2.210810 -0.079720 -0.068900 
#    y -0.079720 2.204780 -0.078220 
#    z -0.068900 -0.078220 2.292230 
# 
# From -- ./inp_files/123846.got.cif
#   From: 2010.05.17/outbox.cif.g08.bks.cpg/sg2_62_cif.got.tgz:123846.got - 2010.06.03 11:33:40.
