data_PCOD9069523
_publ_section_title
;
Structure prediction by ZEFSAII (Michael W. Deem and Ramdas Pophale) SiO2 
 PCOD9069523
Probable space group: P -1
;
_chemical_formula_sum "Si O2"
_cell_formula_units_Z 16
_cell_length_a 13.884483
_cell_length_b 8.931241
_cell_length_c 18.200567
_cell_angle_alpha 41.261262
_cell_angle_beta 33.800648
_cell_angle_gamma 39.712417
_cell_volume 761.003898
_symmetry_space_group_name_H-M "P -1"
_symmetry_group_IT_number 2
_symmetry_cell_setting 'triclinic'
loop_
_space_group_symop_operation_xyz
x,y,z
-x,-y,-z
loop_
_atom_site_type_symbol
_atom_site_label
_atom_site_fract_x
_atom_site_fract_y
_atom_site_fract_z
Si Si1 0.358117 0.384190 0.595230
Si Si2 0.984325 0.103260 0.390968
Si Si3 0.187663 0.005112 0.916519
Si Si4 0.158589 0.228837 0.499978
Si Si5 0.319019 0.937304 0.142889
Si Si6 0.655007 0.149772 0.365024
Si Si7 0.969709 0.779784 0.906144
Si Si8 0.495252 0.349325 0.232147
O O1 0.500000 0.500000 0.500000
O O2 0.164241 0.616967 0.618488
O O3 0.284940 0.190883 0.754855
O O4 0.477343 0.263997 0.490290
O O5 0.908495 0.951783 0.437608
O O6 0.000000 0.000000 0.500000
O O7 0.194926 0.051806 0.250900
O O8 0.343946 0.733637 0.900350
O O9 0.121609 0.077486 0.014381
O O10 0.000000 0.000000 0.000000
O O11 0.340974 0.247769 0.341973
O O12 0.000000 0.500000 0.500000
O O13 0.227824 0.127424 0.575849
O O14 0.391041 0.640981 0.203966
O O15 0.173779 0.073221 0.120227
O O16 0.500000 0.000000 0.000000
O O17 0.588669 0.215375 0.299186
O O18 0.818988 0.248357 0.234773
O O19 0.000000 0.500000 0.000000
#
# Coordination Sequence:
#
# PCOD9069523 Si02
#       8
#     2   2   2   2   2   2   2   2
#     4  12  24  45  73 104 143 186 248 294 352 430
#     4  12  26  46  71 106 141 186 235 298 348 422
#     4  12  27  44  72 112 144 183 243 305 355 427
#     4  12  24  45  69 105 144 181 237 292 351 422
#     4  12  27  48  70 105 147 191 236 287 361 437
#     4  12  23  44  75 104 138 190 238 294 359 423
#     4  12  25  48  75 102 146 195 236 294 363 428
#     4  12  25  45  74 106 142 187 239 296 362 425
#
# _framework density 21.024858999999999
#
# number of rings (size 3 to 8) (size 9 to 14) (size 15 to 20)
#    0.000    0.000    6.250    3.375    1.750    2.500 
#    2.250    0.000    0.000    0.000    0.000    0.000 
#    0.000    0.000    0.000    0.000    0.000    0.000 
#
# Total GULP energy -89328.242473 kJ/mol
# GULP energy per Si atom -5583.015155 kJ/mol
# Density = 2.097701 g / cm^3
# Si number density = 21.024859 Si / 1000 Ang^3
#
#
#
# Elastic Constant Matrix: (Units=GPa)
#
#
# Indices 1 2 3 4 5 6 
#
# 1 92.9096 27.6428 40.3361 -1.2078 3.6546 -6.2435
# 2 27.6428 139.2494 34.4048 9.7262 14.9895 -32.4177
# 3 40.3361 34.4048 142.5440 16.6527 -18.4392 -5.0396
# 4 -1.2078 9.7262 16.6527 41.8169 0.5774 0.9391
# 5 3.6546 14.9895 -18.4392 0.5774 52.3983 6.6747
# 6 -6.2435 -32.4177 -5.0396 0.9391 6.6747 26.5971
#
#
#
# Elastic Compliance Matrix: (Units=1/GPa)
#
#
# Indices 1 2 3 4 5 6 
#
# 1 0.013010 -0.001280 -0.003857 0.002211 -0.002077 0.001207
# 2 -0.001280 0.012844 -0.002753 -0.002209 -0.006641 0.016577
# 3 -0.003857 -0.002753 0.009673 -0.003312 0.004949 -0.003553
# 4 0.002211 -0.002209 -0.003312 0.025898 -0.000516 -0.003585
# 5 -0.002077 -0.006641 0.004949 -0.000516 0.024636 -0.013808
# 6 0.001207 0.016577 -0.003553 -0.003585 -0.013808 0.061005
#
#
# Mechanical properties :
#
#
# Convention : Reuss Voigt Hill
#
# Bulk Modulus (GPa) = 50.63886 64.38560 57.51223
# Shear Modulus (GPa) = 29.51128 42.31707 35.91417
#
# Velocity S-wave (km/s) = 3.75058 4.49120 4.13749
# Velocity P-wave (km/s) = 6.54930 7.58845 7.08794
#
# Compressibility (1/GPa) = 0.01974768
#
# Stress axis : x y z
#
# Youngs Moduli (GPa) = 76.86511 77.85731 103.38363
#
# Poissons Ratio (x) = 0.09963 0.39873
# Poissons Ratio (y) = 0.09837 0.28461
# Poissons Ratio (z) = 0.29645 0.21433
#
# Static dielectric constant tensor:
#      x y z
#    x 1.753480 0.030130 -0.029010 
#    y 0.030130 1.774900 -0.016470 
#    z -0.029010 -0.016470 1.765990 
# 
# From -- ./inp_files/306630.got.cif
#   From: 2010.05.17/outbox.cif.g08.bks.cpg/sg2_154_cif.got.tgz:306630.got - 2010.06.03 11:33:40.
