data_PCOD9069199
_publ_section_title
;
Structure prediction by ZEFSAII (Michael W. Deem and Ramdas Pophale) SiO2 
 PCOD9069199
Probable space group: P -1
;
_chemical_formula_sum "Si O2"
_cell_formula_units_Z 16
_cell_length_a 8.646347
_cell_length_b 6.374779
_cell_length_c 18.053314
_cell_angle_alpha 133.156324
_cell_angle_beta 95.088211
_cell_angle_gamma 73.393394
_cell_volume 687.453178
_symmetry_space_group_name_H-M "P -1"
_symmetry_group_IT_number 2
_symmetry_cell_setting 'triclinic'
loop_
_space_group_symop_operation_xyz
x,y,z
-x,-y,-z
loop_
_atom_site_type_symbol
_atom_site_label
_atom_site_fract_x
_atom_site_fract_y
_atom_site_fract_z
Si Si1 0.672223 0.044157 0.497862
Si Si2 0.702535 0.667889 0.270632
Si Si3 0.566579 0.668982 0.812024
Si Si4 0.665174 0.238461 0.952882
Si Si5 0.424259 0.268397 0.349571
Si Si6 0.854560 0.232332 0.812929
Si Si7 0.069341 0.639001 0.914018
Si Si8 0.878852 0.822673 0.596696
O O1 0.610860 0.381636 0.543937
O O2 0.500000 0.000000 0.500000
O O3 0.745513 0.780087 0.378520
O O4 0.796515 0.003049 0.562338
O O5 0.596594 0.431409 0.209781
O O6 0.870539 0.499874 0.196579
O O7 0.584725 0.984193 0.306327
O O8 0.583121 0.701516 0.732445
O O9 0.706417 0.410580 0.796469
O O10 0.605885 0.966285 0.916334
O O11 0.775597 0.134962 0.858810
O O12 0.500000 0.500000 0.000000
O O13 0.765764 0.406379 0.046017
O O14 0.274119 0.202743 0.368152
O O15 0.950472 0.463649 0.896979
O O16 0.962644 0.981155 0.700017
O O17 0.000000 0.000000 0.000000
O O18 0.000000 0.500000 0.500000
#
# Coordination Sequence:
#
# PCOD9069199 Si02
#       8
#     2   2   2   2   2   2   2   2
#     4  12  24  44  73 108 147 191 246 305 361 443
#     4  12  27  46  74 112 145 202 252 304 368 445
#     4  12  22  46  78 102 147 187 250 300 367 437
#     4  12  27  48  80 105 137 200 248 304 371 438
#     4  12  22  45  74 104 148 195 251 300 363 445
#     4  12  25  50  70 105 152 185 246 303 368 445
#     4  12  29  49  72 108 151 194 243 315 377 427
#     4  12  28  45  71 111 149 197 236 302 381 443
#
# _framework density 23.274311000000001
#
# number of rings (size 3 to 8) (size 9 to 14) (size 15 to 20)
#    0.000    0.000    7.500    2.250    3.500    3.500 
#    4.500    0.000    0.000    0.000    0.000    0.000 
#    0.000    0.000    0.000    0.000    0.000    0.000 
#
# Total GULP energy -89320.434713 kJ/mol
# GULP energy per Si atom -5582.527170 kJ/mol
# Density = 2.322134 g / cm^3
# Si number density = 23.274311 Si / 1000 Ang^3
#
#
#
# Elastic Constant Matrix: (Units=GPa)
#
#
# Indices 1 2 3 4 5 6 
#
# 1 63.6892 20.8996 13.3077 17.4063 7.5516 16.7694
# 2 20.8996 74.2066 11.5616 17.2307 4.4103 20.4717
# 3 13.3077 11.5616 108.9057 11.1548 -1.2727 20.6899
# 4 17.4063 17.2307 11.1548 51.5910 4.2089 9.7282
# 5 7.5516 4.4103 -1.2727 4.2089 47.2333 7.2369
# 6 16.7694 20.4717 20.6899 9.7282 7.2369 35.7946
#
#
#
# Elastic Compliance Matrix: (Units=1/GPa)
#
#
# Indices 1 2 3 4 5 6 
#
# 1 0.019626 -0.002733 -0.000582 -0.004360 -0.001624 -0.005782
# 2 -0.002733 0.017134 0.000365 -0.003424 0.000358 -0.007872
# 3 -0.000582 0.000365 0.010482 -0.001181 0.001358 -0.005948
# 4 -0.004360 -0.003424 -0.001181 0.022563 -0.000829 -0.001280
# 5 -0.001624 0.000358 0.001358 -0.000829 0.022196 -0.004491
# 6 -0.005782 -0.007872 -0.005948 -0.001280 -0.004491 0.039842
#
#
# Mechanical properties :
#
#
# Convention : Reuss Voigt Hill
#
# Bulk Modulus (GPa) = 24.18780 37.59327 30.89053
# Shear Modulus (GPa) = 32.99829 40.32595 36.66212
#
# Velocity S-wave (km/s) = 3.76945 4.16701 3.97321
# Velocity P-wave (km/s) = 5.41849 6.27211 5.86086
#
# Compressibility (1/GPa) = 0.04134316
#
# Stress axis : x y z
#
# Youngs Moduli (GPa) = 50.95216 58.36289 95.40613
#
# Poissons Ratio (x) = 0.15949 0.05553
# Poissons Ratio (y) = 0.13924 -0.03486
# Poissons Ratio (z) = 0.02965 -0.02133
#
# Static dielectric constant tensor:
#      x y z
#    x 1.910360 0.175690 0.297810 
#    y 0.175690 1.868100 -0.186760 
#    z 0.297810 -0.186760 1.382420 
# 
# From -- ./inp_files/99669.got.cif
#   From: 2010.05.17/outbox.cif.g08.bks.cpg/sg2_50_cif.got.tgz:99669.got - 2010.06.03 11:33:40.
