data_PCOD9069513
_publ_section_title
;
Structure prediction by ZEFSAII (Michael W. Deem and Ramdas Pophale) SiO2 
 PCOD9069513
Probable space group: P -1
;
_chemical_formula_sum "Si O2"
_cell_formula_units_Z 16
_cell_length_a 14.645877
_cell_length_b 8.454977
_cell_length_c 14.094486
_cell_angle_alpha 40.612246
_cell_angle_beta 123.680153
_cell_angle_gamma 94.837181
_cell_volume 740.630480
_symmetry_space_group_name_H-M "P -1"
_symmetry_group_IT_number 2
_symmetry_cell_setting 'triclinic'
loop_
_space_group_symop_operation_xyz
x,y,z
-x,-y,-z
loop_
_atom_site_type_symbol
_atom_site_label
_atom_site_fract_x
_atom_site_fract_y
_atom_site_fract_z
Si Si1 0.554196 0.703316 0.431139
Si Si2 0.049758 0.208276 0.938515
Si Si3 0.648552 0.691627 0.696664
Si Si4 0.857069 0.835055 0.780438
Si Si5 0.214474 0.310457 0.536343
Si Si6 0.249648 0.315497 0.933481
Si Si7 0.118216 0.682504 0.506352
Si Si8 0.805186 0.181338 0.179140
O O1 0.500000 0.500000 0.500000
O O2 0.634882 0.624420 0.612381
O O3 0.662973 0.669386 0.432491
O O4 0.409394 0.051633 0.176373
O O5 0.160496 0.187901 0.943619
O O6 0.902845 0.546766 0.679432
O O7 0.133080 0.111376 0.128560
O O8 0.000000 0.000000 0.000000
O O9 0.742583 0.798426 0.708606
O O10 0.500000 0.000000 0.500000
O O11 0.712907 0.405276 0.935855
O O12 0.847459 0.085979 0.599058
O O13 0.000000 0.500000 0.000000
O O14 0.136998 0.520184 0.490649
O O15 0.258869 0.973699 0.740037
O O16 0.226166 0.436837 0.758136
O O17 0.187683 0.604341 0.839113
O O18 0.960191 0.898021 0.358951
#
# Coordination Sequence:
#
# PCOD9069513 Si02
#       8
#     2   2   2   2   2   2   2   2
#     4  12  30  52  75 110 154 201 247 312 376 450
#     4  12  23  44  73 106 148 190 249 306 361 440
#     4  12  26  49  78 108 148 196 255 307 371 441
#     4  12  24  43  73 108 141 196 248 304 362 434
#     4  12  29  45  75 113 151 201 245 304 387 444
#     4  12  27  49  75 107 156 198 249 310 375 440
#     4  12  27  46  75 112 155 193 249 310 374 445
#     4  12  26  49  75 111 150 195 251 316 370 442
#
# _framework density 21.603214999999999
#
# number of rings (size 3 to 8) (size 9 to 14) (size 15 to 20)
#    0.000    0.000    6.250    2.250    7.000    2.000 
#    0.000    0.000    0.000    0.000    0.000    0.000 
#    0.000    0.000    0.000    0.000    0.000    0.000 
#
# Total GULP energy -89430.515115 kJ/mol
# GULP energy per Si atom -5589.407195 kJ/mol
# Density = 2.155405 g / cm^3
# Si number density = 21.603215 Si / 1000 Ang^3
#
#
#
# Elastic Constant Matrix: (Units=GPa)
#
#
# Indices 1 2 3 4 5 6 
#
# 1 143.0187 55.7449 57.3293 5.4367 -13.6103 30.0751
# 2 55.7449 109.7215 34.0432 14.1695 -4.0377 20.2666
# 3 57.3293 34.0432 103.8374 9.9220 -17.2472 23.7671
# 4 5.4367 14.1695 9.9220 39.0645 1.3230 2.5972
# 5 -13.6103 -4.0377 -17.2472 1.3230 56.1134 -3.3295
# 6 30.0751 20.2666 23.7671 2.5972 -3.3295 39.1440
#
#
#
# Elastic Compliance Matrix: (Units=1/GPa)
#
#
# Indices 1 2 3 4 5 6 
#
# 1 0.010863 -0.003679 -0.003789 0.001028 0.000936 -0.004130
# 2 -0.003679 0.012250 -0.001121 -0.003456 -0.000431 -0.002642
# 3 -0.003789 -0.001121 0.013855 -0.002389 0.003048 -0.004503
# 4 0.001028 -0.003456 -0.002389 0.027327 -0.001347 0.000522
# 5 0.000936 -0.000431 0.003048 -0.001347 0.018947 -0.000646
# 6 -0.004130 -0.002642 -0.004503 0.000522 -0.000646 0.032732
#
#
# Mechanical properties :
#
#
# Convention : Reuss Voigt Hill
#
# Bulk Modulus (GPa) = 50.53277 72.31250 61.42263
# Shear Modulus (GPa) = 35.77820 40.82837 38.30328
#
# Velocity S-wave (km/s) = 4.07400 4.35204 4.21531
# Velocity P-wave (km/s) = 6.75071 7.66807 7.22397
#
# Compressibility (1/GPa) = 0.01978914
#
# Stress axis : x y z
#
# Youngs Moduli (GPa) = 92.05216 81.63552 72.17487
#
# Poissons Ratio (x) = 0.30035 0.27347
# Poissons Ratio (y) = 0.33867 0.08094
# Poissons Ratio (z) = 0.34879 0.09155
#
# Static dielectric constant tensor:
#      x y z
#    x 1.793090 -0.035490 -0.009390 
#    y -0.035490 1.823930 -0.027860 
#    z -0.009390 -0.027860 1.749460 
# 
# From -- ./inp_files/298701.got.cif
#   From: 2010.05.17/outbox.cif.g08.bks.cpg/sg2_150_cif.got.tgz:298701.got - 2010.06.03 11:33:40.
