data_PCOD9069388
_publ_section_title
;
Structure prediction by ZEFSAII (Michael W. Deem and Ramdas Pophale) SiO2 
 PCOD9069388
Probable space group: P -1
;
_chemical_formula_sum "Si O2"
_cell_formula_units_Z 14
_cell_length_a 12.241236
_cell_length_b 11.355155
_cell_length_c 6.867691
_cell_angle_alpha 117.369061
_cell_angle_beta 121.714889
_cell_angle_gamma 51.704300
_cell_volume 624.372599
_symmetry_space_group_name_H-M "P -1"
_symmetry_group_IT_number 2
_symmetry_cell_setting 'triclinic'
loop_
_space_group_symop_operation_xyz
x,y,z
-x,-y,-z
loop_
_atom_site_type_symbol
_atom_site_label
_atom_site_fract_x
_atom_site_fract_y
_atom_site_fract_z
Si Si1 0.839105 0.335689 0.461921
Si Si2 0.561988 0.818149 0.882208
Si Si3 0.334724 0.885833 0.381523
Si Si4 0.911023 0.820585 0.750155
Si Si5 0.051431 0.883070 0.279187
Si Si6 0.135486 0.394317 0.186900
Si Si7 0.445375 0.662530 0.956099
O O1 0.907679 0.271719 0.689031
O O2 0.802280 0.508976 0.568418
O O3 0.695996 0.318737 0.282306
O O4 0.961270 0.239150 0.338367
O O5 0.463283 0.824818 0.611586
O O6 0.732775 0.737246 0.916697
O O7 0.542833 0.708100 0.939797
O O8 0.500000 0.000000 0.000000
O O9 0.199746 0.866658 0.318096
O O10 0.251347 0.068036 0.404065
O O11 0.393001 0.791304 0.168850
O O12 0.917443 0.677780 0.751895
O O13 0.940630 0.911865 0.020483
O O14 0.000000 0.000000 0.500000
O O15 0.000000 0.500000 0.000000
O O16 0.500000 0.500000 0.000000
#
# Coordination Sequence:
#
# PCOD9069388 Si02
#       7
#     2   2   2   2   2   2   2
#     4  12  25  46  75 110 147 192 251 310 375 449
#     4  12  31  52  76 110 156 204 252 312 386 455
#     4  12  26  47  75 110 150 193 255 310 378 453
#     4  12  26  46  78 112 150 201 248 308 387 455
#     4  12  23  42  74 113 147 189 249 308 373 444
#     4  12  29  49  75 107 154 201 249 314 383 451
#     4  12  28  47  79 109 149 199 255 319 378 448
#
# _framework density 22.422509000000002
#
# number of rings (size 3 to 8) (size 9 to 14) (size 15 to 20)
#    0.000    0.000    5.714    3.429    8.000    4.571 
#    0.000    0.000    0.000    0.000    0.000    0.000 
#    0.000    0.000    0.000    0.000    0.000    0.000 
#
# Total GULP energy -78273.602776 kJ/mol
# GULP energy per Si atom -5590.971627 kJ/mol
# Density = 2.237147 g / cm^3
# Si number density = 22.422509 Si / 1000 Ang^3
#
#
#
# Elastic Constant Matrix: (Units=GPa)
#
#
# Indices 1 2 3 4 5 6 
#
# 1 62.0052 11.2390 9.6909 -21.3342 -8.0336 8.8571
# 2 11.2390 93.8867 5.5907 -17.5308 -5.3113 4.5976
# 3 9.6909 5.5907 66.2442 -4.0440 -6.1742 -0.0656
# 4 -21.3342 -17.5308 -4.0440 44.6376 9.3025 -2.1867
# 5 -8.0336 -5.3113 -6.1742 9.3025 30.3815 -1.4919
# 6 8.8571 4.5976 -0.0656 -2.1867 -1.4919 48.5745
#
#
#
# Elastic Compliance Matrix: (Units=1/GPa)
#
#
# Indices 1 2 3 4 5 6 
#
# 1 0.020277 -0.000389 -0.002215 0.008764 0.002003 -0.003208
# 2 -0.000389 0.011580 -0.000622 0.004165 0.000479 -0.000824
# 3 -0.002215 -0.000622 0.015695 -0.000406 0.002646 0.000547
# 4 0.008764 0.004165 -0.000406 0.029417 -0.006086 -0.000855
# 5 0.002003 0.000479 0.002646 -0.006086 0.035950 0.000423
# 6 -0.003208 -0.000824 0.000547 -0.000855 0.000423 0.021225
#
#
# Mechanical properties :
#
#
# Convention : Reuss Voigt Hill
#
# Bulk Modulus (GPa) = 24.33109 30.57528 27.45319
# Shear Modulus (GPa) = 32.40528 37.75975 35.08252
#
# Velocity S-wave (km/s) = 3.80572 4.10812 3.95981
# Velocity P-wave (km/s) = 5.49419 6.01397 5.75994
#
# Compressibility (1/GPa) = 0.04109968
#
# Stress axis : x y z
#
# Youngs Moduli (GPa) = 49.31625 86.35606 63.71615
#
# Poissons Ratio (x) = 0.03357 0.14114
# Poissons Ratio (y) = 0.01917 0.03965
# Poissons Ratio (z) = 0.10924 0.05374
#
# Static dielectric constant tensor:
#      x y z
#    x 1.795320 0.072850 0.015470 
#    y 0.072850 1.850990 -0.035620 
#    z 0.015470 -0.035620 1.778850 
# 
# From -- ./inp_files/69438.got.cif
#   From: 2010.05.17/outbox.cif.g08.bks.cpg/sg2_35_cif.got.tgz:69438.got - 2010.06.03 11:33:40.
