data_PCOD9069964
_publ_section_title
;
Structure prediction by ZEFSAII (Michael W. Deem and Ramdas Pophale) SiO2 
 PCOD9069964
Probable space group: P -1
;
_chemical_formula_sum "Si O2"
_cell_formula_units_Z 15
_cell_length_a 9.291651
_cell_length_b 22.473747
_cell_length_c 7.194082
_cell_angle_alpha 119.798142
_cell_angle_beta 80.135398
_cell_angle_gamma 146.479124
_cell_volume 620.522076
_symmetry_space_group_name_H-M "P -1"
_symmetry_group_IT_number 2
_symmetry_cell_setting 'triclinic'
loop_
_space_group_symop_operation_xyz
x,y,z
-x,-y,-z
loop_
_atom_site_type_symbol
_atom_site_label
_atom_site_fract_x
_atom_site_fract_y
_atom_site_fract_z
Si Si1 0.282547 0.854695 0.905754
Si Si2 0.853285 0.600003 0.337501
Si Si3 0.500000 0.500000 0.000000
Si Si4 0.247004 0.289183 0.065145
Si Si5 0.213227 0.036317 0.893652
Si Si6 0.318105 0.164416 0.728304
Si Si7 0.664368 0.708061 0.513623
Si Si8 0.813806 0.390420 0.701923
O O1 0.038507 0.729230 0.614946
O O2 0.080703 0.811146 0.035943
O O3 0.507699 0.886070 0.950858
O O4 0.500000 0.000000 0.000000
O O5 0.481199 0.444539 0.183726
O O6 0.951814 0.568921 0.359747
O O7 0.850532 0.608442 0.131490
O O8 0.379424 0.379080 0.729513
O O9 0.303703 0.294269 0.277044
O O10 0.296900 0.237942 0.869158
O O11 0.382353 0.153868 0.890050
O O12 0.966997 0.875479 0.646322
O O13 0.000000 0.000000 0.000000
O O14 0.548536 0.240299 0.633502
O O15 0.000000 0.000000 0.500000
O O16 0.366966 0.632746 0.425272
O O17 0.000000 0.500000 0.000000
#
# Coordination Sequence:
#
# PCOD9069964 Si02
#       8
#     2   2   1   2   2   2   2   2
#     4  12  25  45  73 106 139 190 245 290 364 429
#     4  12  27  46  72 105 149 190 242 301 359 434
#     4  12  24  44  68  98 154 186 224 298 370 416
#     4  12  26  47  72 106 146 192 240 303 362 436
#     4  12  24  47  76 108 141 190 246 302 357 432
#     4  12  26  45  73 104 146 190 242 301 363 424
#     4  12  24  45  72 104 146 189 238 297 365 426
#     4  12  25  46  71 106 143 188 242 300 357 428
#
# _framework density 24.173193000000001
#
# number of rings (size 3 to 8) (size 9 to 14) (size 15 to 20)
#    0.000    0.000    8.000    1.200    1.867    2.667 
#    0.000    0.667    0.000    0.000    0.000    0.000 
#    0.000    0.000    0.000    0.000    0.000    0.000 
#
# Total GULP energy -83592.539151 kJ/mol
# GULP energy per Si atom -5572.835943 kJ/mol
# Density = 2.411817 g / cm^3
# Si number density = 24.173193 Si / 1000 Ang^3
#
#
#
# Elastic Constant Matrix: (Units=GPa)
#
#
# Indices 1 2 3 4 5 6 
#
# 1 158.5897 14.4831 49.3230 1.1906 15.8295 12.9454
# 2 14.4831 70.6183 0.7590 20.5579 -10.7700 2.7979
# 3 49.3230 0.7590 109.1548 19.2825 -15.6440 -0.6005
# 4 1.1906 20.5579 19.2825 39.7635 -8.1998 4.6669
# 5 15.8295 -10.7700 -15.6440 -8.1998 50.0795 13.2751
# 6 12.9454 2.7979 -0.6005 4.6669 13.2751 36.9079
#
#
#
# Elastic Compliance Matrix: (Units=1/GPa)
#
#
# Indices 1 2 3 4 5 6 
#
# 1 0.008702 -0.003213 -0.005067 0.003252 -0.003998 -0.001864
# 2 -0.003213 0.018507 0.003804 -0.010288 0.004655 -0.000588
# 3 -0.005067 0.003804 0.013478 -0.007363 0.005223 0.000761
# 4 0.003252 -0.010288 -0.007363 0.034921 0.001630 -0.005483
# 5 -0.003998 0.004655 0.005223 0.001630 0.026403 -0.008569
# 6 -0.001864 -0.000588 0.000761 -0.005483 -0.008569 0.031581
#
#
# Mechanical properties :
#
#
# Convention : Reuss Voigt Hill
#
# Bulk Modulus (GPa) = 31.51085 51.94368 41.72726
# Shear Modulus (GPa) = 32.65399 43.60335 38.12867
#
# Velocity S-wave (km/s) = 3.67936 4.25171 3.97585
# Velocity P-wave (km/s) = 5.57799 6.75555 6.19482
#
# Compressibility (1/GPa) = 0.03173510
#
# Stress axis : x y z
#
# Youngs Moduli (GPa) = 114.91883 54.03413 74.19447
#
# Poissons Ratio (x) = 0.17360 0.37597
# Poissons Ratio (y) = 0.36921 -0.28226
# Poissons Ratio (z) = 0.58234 -0.20557
#
# Static dielectric constant tensor:
#      x y z
#    x 1.977460 0.220300 0.013740 
#    y 0.220300 1.799290 -0.175210 
#    z 0.013740 -0.175210 2.170400 
# 
# From -- ./inp_files/226470.got.cif
#   From: 2010.05.17/outbox.cif.g08.bks.cpg/sg2_114_cif.got.tgz:226470.got - 2010.06.03 11:33:40.
