data_PCOD9069985
_publ_section_title
;
Structure prediction by ZEFSAII (Michael W. Deem and Ramdas Pophale) SiO2 
 PCOD9069985
Probable space group: P -1
;
_chemical_formula_sum "Si O2"
_cell_formula_units_Z 14
_cell_length_a 5.730318
_cell_length_b 9.278761
_cell_length_c 19.530213
_cell_angle_alpha 133.640486
_cell_angle_beta 56.595594
_cell_angle_gamma 122.939359
_cell_volume 603.850563
_symmetry_space_group_name_H-M "P -1"
_symmetry_group_IT_number 2
_symmetry_cell_setting 'triclinic'
loop_
_space_group_symop_operation_xyz
x,y,z
-x,-y,-z
loop_
_atom_site_type_symbol
_atom_site_label
_atom_site_fract_x
_atom_site_fract_y
_atom_site_fract_z
Si Si1 0.868826 0.300108 0.257935
Si Si2 0.908629 0.573286 0.465894
Si Si3 0.833452 0.986779 0.949189
Si Si4 0.152658 0.434245 0.019614
Si Si5 0.410995 0.863200 0.401933
Si Si6 0.119592 0.361939 0.747111
Si Si7 0.631614 0.928061 0.662591
O O1 0.894830 0.375140 0.356169
O O2 0.842023 0.485687 0.274204
O O3 0.578468 0.108986 0.249493
O O4 0.130032 0.216692 0.160721
O O5 0.688720 0.703818 0.567870
O O6 0.000000 0.500000 0.500000
O O7 0.090357 0.743822 0.438034
O O8 0.039748 0.189348 0.948839
O O9 0.500000 0.000000 0.000000
O O10 0.000000 0.000000 0.000000
O O11 0.003859 0.519517 0.135316
O O12 0.500000 0.500000 0.000000
O O13 0.000000 0.500000 0.000000
O O14 0.575819 0.687516 0.305916
O O15 0.500000 0.000000 0.500000
O O16 0.469796 0.005357 0.372451
O O17 0.903907 0.129749 0.697479
#
# Coordination Sequence:
#
# PCOD9069985 Si02
#       7
#     2   2   2   2   2   2   2
#     4  12  27  48  76 108 152 200 254 316 389 464
#     4  12  25  44  75 109 154 198 250 310 386 465
#     4  12  28  52  79 115 158 204 265 332 394 467
#     4  12  29  51  82 116 156 203 268 330 397 469
#     4  12  24  44  71 106 149 194 244 314 374 457
#     4  12  27  48  79 105 149 202 250 317 392 459
#     4  12  26  48  72 111 150 194 255 310 382 466
#
# _framework density 23.184545
#
# number of rings (size 3 to 8) (size 9 to 14) (size 15 to 20)
#    0.000    0.000    4.286    5.143    6.000    1.143 
#    0.000    0.000    0.000    0.000    0.000    0.000 
#    0.000    0.000    0.000    0.000    0.000    0.000 
#
# Total GULP energy -78029.012985 kJ/mol
# GULP energy per Si atom -5573.500927 kJ/mol
# Density = 2.313178 g / cm^3
# Si number density = 23.184545 Si / 1000 Ang^3
#
#
#
# Elastic Constant Matrix: (Units=GPa)
#
#
# Indices 1 2 3 4 5 6 
#
# 1 110.2190 24.8148 55.8516 -11.3988 -10.5926 -29.6937
# 2 24.8148 79.0396 11.5993 -5.4800 11.1763 -24.9581
# 3 55.8516 11.5993 142.0345 -2.7392 -19.0462 -21.3581
# 4 -11.3988 -5.4800 -2.7392 45.6061 -5.2682 -0.8149
# 5 -10.5926 11.1763 -19.0462 -5.2682 47.1668 -0.1685
# 6 -29.6937 -24.9581 -21.3581 -0.8149 -0.1685 57.4347
#
#
#
# Elastic Compliance Matrix: (Units=1/GPa)
#
#
# Indices 1 2 3 4 5 6 
#
# 1 0.013390 -0.002304 -0.004036 0.003172 0.002294 0.004473
# 2 -0.002304 0.015829 -0.000077 0.000941 -0.004174 0.005660
# 3 -0.004036 -0.000077 0.009207 -0.000116 0.002822 0.001310
# 4 0.003172 0.000941 -0.000116 0.023219 0.003045 0.002344
# 5 0.002294 -0.004174 0.002822 0.003045 0.024187 0.000535
# 6 0.004473 0.005660 0.001310 0.002344 0.000535 0.022705
#
#
# Mechanical properties :
#
#
# Convention : Reuss Voigt Hill
#
# Bulk Modulus (GPa) = 39.07412 57.31381 48.19397
# Shear Modulus (GPa) = 38.49057 45.97667 42.23362
#
# Velocity S-wave (km/s) = 4.07895 4.45800 4.27268
# Velocity P-wave (km/s) = 6.25091 7.16050 6.72111
#
# Compressibility (1/GPa) = 0.02559239
#
# Stress axis : x y z
#
# Youngs Moduli (GPa) = 74.68236 63.17479 108.61259
#
# Poissons Ratio (x) = 0.14553 0.43835
# Poissons Ratio (y) = 0.17204 0.00840
# Poissons Ratio (z) = 0.30141 0.00489
#
# Static dielectric constant tensor:
#      x y z
#    x 2.041530 0.102040 0.062550 
#    y 0.102040 1.854770 -0.002140 
#    z 0.062550 -0.002140 1.726690 
# 
# From -- ./inp_files/100573.got.cif
#   From: 2010.05.17/outbox.cif.g08.bks.cpg/sg2_51_cif.got.tgz:100573.got - 2010.06.03 11:33:40.
