data_PCOD9069525
_publ_section_title
;
Structure prediction by ZEFSAII (Michael W. Deem and Ramdas Pophale) SiO2 
 PCOD9069525
Probable space group: P -1
;
_chemical_formula_sum "Si O2"
_cell_formula_units_Z 13
_cell_length_a 12.802771
_cell_length_b 10.965088
_cell_length_c 6.154128
_cell_angle_alpha 85.419665
_cell_angle_beta 97.514136
_cell_angle_gamma 37.389077
_cell_volume 495.277612
_symmetry_space_group_name_H-M "P -1"
_symmetry_group_IT_number 2
_symmetry_cell_setting 'triclinic'
loop_
_space_group_symop_operation_xyz
x,y,z
-x,-y,-z
loop_
_atom_site_type_symbol
_atom_site_label
_atom_site_fract_x
_atom_site_fract_y
_atom_site_fract_z
Si Si1 0.492199 0.867625 0.934010
Si Si2 0.927079 0.036556 0.220340
Si Si3 0.234627 0.068306 0.445020
Si Si4 0.499263 0.653081 0.339746
Si Si5 0.179516 0.364559 0.195373
Si Si6 0.500000 0.500000 0.000000
Si Si7 0.902462 0.357770 0.548016
O O1 0.681581 0.677508 0.881738
O O2 0.324025 0.018768 0.704623
O O3 0.483748 0.759323 0.106643
O O4 0.500000 0.000000 0.000000
O O5 0.719851 0.275406 0.133053
O O6 0.000000 0.000000 0.500000
O O7 0.965343 0.855042 0.251506
O O8 0.000000 0.000000 0.000000
O O9 0.279295 0.142231 0.297975
O O10 0.017746 0.259186 0.371247
O O11 0.341771 0.849860 0.422896
O O12 0.468636 0.550006 0.247223
O O13 0.704933 0.485410 0.484014
O O14 0.123124 0.483764 0.384717
O O15 0.000000 0.500000 0.000000
#
# Coordination Sequence:
#
# PCOD9069525 Si02
#       7
#     2   2   2   2   2   1   2
#     4  12  23  44  75 111 156 204 261 321 404 492
#     4  12  31  56  84 123 162 217 287 354 418 502
#     4  12  26  48  74 112 158 206 260 326 410 496
#     4  12  27  50  77 114 155 213 271 339 416 491
#     4  12  25  43  74 114 160 207 257 332 409 501
#     4  12  30  52  86 114 162 220 286 350 428 490
#     4  12  27  50  76 114 159 210 269 339 412 501
#
# _framework density 26.247907999999999
#
# number of rings (size 3 to 8) (size 9 to 14) (size 15 to 20)
#    0.000    0.000    4.615    4.615    6.462    1.846 
#    0.000    0.000    0.000    0.000    0.000    0.000 
#    0.000    0.000    0.000    0.000    0.000    0.000 
#
# Total GULP energy -72449.375890 kJ/mol
# GULP energy per Si atom -5573.028915 kJ/mol
# Density = 2.618817 g / cm^3
# Si number density = 26.247908 Si / 1000 Ang^3
#
#
#
# Elastic Constant Matrix: (Units=GPa)
#
#
# Indices 1 2 3 4 5 6 
#
# 1 60.9083 14.8393 27.8032 -0.8251 -6.0213 -33.4351
# 2 14.8393 152.5517 31.7521 14.2670 25.6822 -37.6973
# 3 27.8032 31.7521 92.7917 -11.3255 14.1219 -23.1323
# 4 -0.8251 14.2670 -11.3255 57.4149 2.2849 2.4982
# 5 -6.0213 25.6822 14.1219 2.2849 55.7399 -7.9451
# 6 -33.4351 -37.6973 -23.1323 2.4982 -7.9451 37.8344
#
#
#
# Elastic Compliance Matrix: (Units=1/GPa)
#
#
# Indices 1 2 3 4 5 6 
#
# 1 0.041003 0.006276 -0.006143 -0.004326 0.009106 0.040931
# 2 0.006276 0.010594 -0.002030 -0.003529 -0.001436 0.014793
# 3 -0.006143 -0.002030 0.014340 0.003366 -0.003447 0.000369
# 4 -0.004326 -0.003529 0.003366 0.019252 -0.001461 -0.006859
# 5 0.009106 -0.001436 -0.003447 -0.001461 0.021829 0.009189
# 6 0.040931 0.014793 0.000369 -0.006859 0.009189 0.079950
#
#
# Mechanical properties :
#
#
# Convention : Reuss Voigt Hill
#
# Bulk Modulus (GPa) = 16.09212 50.56010 33.32611
# Shear Modulus (GPa) = 23.64315 45.65500 34.64907
#
# Velocity S-wave (km/s) = 3.00453 4.17511 3.63722
# Velocity P-wave (km/s) = 4.26385 6.52276 5.51030
#
# Compressibility (1/GPa) = 0.06214220
#
# Stress axis : x y z
#
# Youngs Moduli (GPa) = 24.38822 94.38874 69.73610
#
# Poissons Ratio (x) = -0.59240 0.42842
# Poissons Ratio (y) = -0.15306 0.14159
# Poissons Ratio (z) = 0.14983 0.19165
#
# Static dielectric constant tensor:
#      x y z
#    x 2.262120 0.061560 -0.029070 
#    y 0.061560 2.098660 0.129990 
#    z -0.029070 0.129990 2.132110 
# 
# From -- ./inp_files/31871.got.cif
#   From: 2010.05.17/outbox.cif.g08.bks.cpg/sg2_16_cif.got.tgz:31871.got - 2010.06.03 11:33:40.
