data_PCOD9069606
_publ_section_title
;
Structure prediction by ZEFSAII (Michael W. Deem and Ramdas Pophale) SiO2 
 PCOD9069606
Probable space group: P -1
;
_chemical_formula_sum "Si O2"
_cell_formula_units_Z 12
_cell_length_a 10.453531
_cell_length_b 5.541275
_cell_length_c 9.816320
_cell_angle_alpha 82.125782
_cell_angle_beta 58.625754
_cell_angle_gamma 65.013192
_cell_volume 437.506825
_symmetry_space_group_name_H-M "P -1"
_symmetry_group_IT_number 2
_symmetry_cell_setting 'triclinic'
loop_
_space_group_symop_operation_xyz
x,y,z
-x,-y,-z
loop_
_atom_site_type_symbol
_atom_site_label
_atom_site_fract_x
_atom_site_fract_y
_atom_site_fract_z
Si Si1 0.661287 0.753170 0.591266
Si Si2 0.671210 0.502063 0.345733
Si Si3 0.819909 0.510821 0.982465
Si Si4 0.962273 0.930792 0.844385
Si Si5 0.444398 0.271276 0.092069
Si Si6 0.811623 0.120725 0.629986
O O1 0.673407 0.740924 0.423263
O O2 0.505625 0.813738 0.772195
O O3 0.743705 0.434210 0.607581
O O4 0.730721 0.953478 0.603401
O O5 0.500000 0.500000 0.500000
O O6 0.684955 0.553820 0.173713
O O7 0.843405 0.234746 0.290627
O O8 0.088428 0.299272 0.054112
O O9 0.743941 0.595969 0.867127
O O10 0.928967 0.194886 0.929542
O O11 0.830320 0.052359 0.784521
O O12 0.500000 0.500000 0.000000
O O13 0.500000 0.000000 0.000000
O O14 0.000000 0.000000 0.500000
#
# Coordination Sequence:
#
# PCOD9069606 Si02
#       6
#     2   2   2   2   2   2
#     4  12  26  46  77 112 152 198 261 322 390 459
#     4  12  30  52  77 118 170 211 254 326 406 473
#     4  12  27  52  80 116 154 211 267 317 389 475
#     4  12  25  51  85 114 153 208 276 320 382 470
#     4  12  24  45  74 110 152 202 256 318 388 460
#     4  12  23  45  81 113 146 193 266 335 377 445
#
# _framework density 27.428146000000002
#
# number of rings (size 3 to 8) (size 9 to 14) (size 15 to 20)
#    0.000    0.000    5.000    4.500    2.333    1.333 
#    0.000    6.667    0.000    0.000    0.000    0.000 
#    0.000    0.000    0.000    0.000    0.000    0.000 
#
# Total GULP energy -66973.992675 kJ/mol
# GULP energy per Si atom -5581.166056 kJ/mol
# Density = 2.736572 g / cm^3
# Si number density = 27.428146 Si / 1000 Ang^3
#
#
#
# Elastic Constant Matrix: (Units=GPa)
#
#
# Indices 1 2 3 4 5 6 
#
# 1 108.9521 55.8311 37.4547 8.0437 7.5924 40.3714
# 2 55.8311 206.0903 48.5860 21.9236 -4.6907 29.2188
# 3 37.4547 48.5860 174.4419 12.2505 11.7385 30.0769
# 4 8.0437 21.9236 12.2505 55.1533 5.0015 -0.9469
# 5 7.5924 -4.6907 11.7385 5.0015 61.8780 1.6535
# 6 40.3714 29.2188 30.0769 -0.9469 1.6535 67.4437
#
#
#
# Elastic Compliance Matrix: (Units=1/GPa)
#
#
# Indices 1 2 3 4 5 6 
#
# 1 0.013284 -0.002417 -0.000915 -0.000757 -0.001405 -0.006472
# 2 -0.002417 0.006086 -0.000974 -0.001966 0.001123 -0.000811
# 3 -0.000915 -0.000974 0.006682 -0.000898 -0.001103 -0.001995
# 4 -0.000757 -0.001966 -0.000898 0.019394 -0.001507 0.002015
# 5 -0.001405 0.001123 -0.001103 -0.001507 0.016738 0.000415
# 6 -0.006472 -0.000811 -0.001995 0.002015 0.000415 0.019961
#
#
# Mechanical properties :
#
#
# Convention : Reuss Voigt Hill
#
# Bulk Modulus (GPa) = 57.34058 85.91421 71.62740
# Shear Modulus (GPa) = 51.77604 60.06917 55.92260
#
# Velocity S-wave (km/s) = 4.34948 4.68488 4.52029
# Velocity P-wave (km/s) = 6.79522 7.78816 7.30858
#
# Compressibility (1/GPa) = 0.01743966
#
# Stress axis : x y z
#
# Youngs Moduli (GPa) = 75.28130 164.30493 149.66264
#
# Poissons Ratio (x) = 0.39706 0.13699
# Poissons Ratio (y) = 0.18192 0.14576
# Poissons Ratio (z) = 0.06891 0.16003
#
# Static dielectric constant tensor:
#      x y z
#    x 2.147270 -0.143890 -0.016860 
#    y -0.143890 2.052880 -0.142070 
#    z -0.016860 -0.142070 2.325840 
# 
# From -- ./inp_files/409267.got.cif
#   From: 2010.05.17/outbox.cif.g08.bks.cpg/sg2_205_cif.got.tgz:409267.got - 2010.06.03 11:33:40.
