data_PCOD9069935
_publ_section_title
;
Structure prediction by ZEFSAII (Michael W. Deem and Ramdas Pophale) SiO2 
 PCOD9069935
Probable space group: P -1
;
_chemical_formula_sum "Si O2"
_cell_formula_units_Z 14
_cell_length_a 11.313067
_cell_length_b 15.251331
_cell_length_c 8.312111
_cell_angle_alpha 127.806974
_cell_angle_beta 60.531613
_cell_angle_gamma 148.431786
_cell_volume 591.597644
_symmetry_space_group_name_H-M "P -1"
_symmetry_group_IT_number 2
_symmetry_cell_setting 'triclinic'
loop_
_space_group_symop_operation_xyz
x,y,z
-x,-y,-z
loop_
_atom_site_type_symbol
_atom_site_label
_atom_site_fract_x
_atom_site_fract_y
_atom_site_fract_z
Si Si1 0.332405 0.472678 0.478214
Si Si2 0.032209 0.892394 0.890266
Si Si3 0.892407 0.847281 0.267176
Si Si4 0.528242 0.179823 0.779937
Si Si5 0.551377 0.795966 0.464764
Si Si6 0.312853 0.887609 0.139334
Si Si7 0.180505 0.432539 0.861263
O O1 0.500000 0.500000 0.500000
O O2 0.444715 0.651097 0.513773
O O3 0.162702 0.408624 0.654939
O O4 0.187002 0.312534 0.263061
O O5 0.258063 0.994866 0.772451
O O6 0.049345 0.903321 0.084179
O O7 0.000000 0.000000 0.000000
O O8 0.700118 0.802854 0.276267
O O9 0.776632 0.663130 0.210598
O O10 0.000000 0.000000 0.500000
O O11 0.594172 0.237459 0.612916
O O12 0.624106 0.142704 0.780098
O O13 0.621341 0.352829 0.993728
O O14 0.694268 0.988429 0.664123
O O15 0.058425 0.685148 0.036594
O O16 0.500000 0.000000 0.000000
#
# Coordination Sequence:
#
# PCOD9069935 Si02
#       7
#     2   2   2   2   2   2   2
#     4  12  26  44  74 112 150 190 241 300 372 438
#     4  12  25  43  70 109 148 190 241 303 368 429
#     4  12  24  43  73 107 150 185 242 303 372 426
#     4  12  27  47  74 107 150 194 248 299 360 442
#     4  12  26  45  71 106 144 190 240 304 366 429
#     4  12  27  51  75 102 144 200 249 296 363 436
#     4  12  25  46  76 106 147 191 245 304 361 433
#
# _framework density 23.664733999999999
#
# number of rings (size 3 to 8) (size 9 to 14) (size 15 to 20)
#    0.000    0.000    4.286    6.000    2.000    1.143 
#    0.000    2.143    0.000    0.000    0.000    0.000 
#    0.000    0.000    0.000    0.000    0.000    0.000 
#
# Total GULP energy -78276.165640 kJ/mol
# GULP energy per Si atom -5591.154689 kJ/mol
# Density = 2.361087 g / cm^3
# Si number density = 23.664734 Si / 1000 Ang^3
#
#
#
# Elastic Constant Matrix: (Units=GPa)
#
#
# Indices 1 2 3 4 5 6 
#
# 1 127.9097 48.3889 19.4694 10.4324 6.2823 -27.2012
# 2 48.3889 117.0454 30.2977 0.0973 -0.3602 -22.7217
# 3 19.4694 30.2977 86.7667 14.3859 12.8976 -15.8349
# 4 10.4324 0.0973 14.3859 56.5628 -6.0962 -0.4840
# 5 6.2823 -0.3602 12.8976 -6.0962 34.8155 -2.0065
# 6 -27.2012 -22.7217 -15.8349 -0.4840 -2.0065 50.9747
#
#
#
# Elastic Compliance Matrix: (Units=1/GPa)
#
#
# Indices 1 2 3 4 5 6 
#
# 1 0.010221 -0.003568 0.000338 -0.002165 -0.002163 0.003863
# 2 -0.003568 0.011338 -0.003421 0.001794 0.002469 0.002201
# 3 0.000338 -0.003421 0.014854 -0.004478 -0.006211 0.002983
# 4 -0.002165 0.001794 -0.004478 0.019791 0.005456 -0.001344
# 5 -0.002163 0.002469 -0.006211 0.005456 0.032357 -0.000657
# 6 0.003863 0.002201 0.002983 -0.001344 -0.000657 0.023548
#
#
# Mechanical properties :
#
#
# Convention : Reuss Voigt Hill
#
# Bulk Modulus (GPa) = 43.27079 58.67041 50.97060
# Shear Modulus (GPa) = 37.56166 44.04163 40.80165
#
# Velocity S-wave (km/s) = 3.98834 4.31869 4.15680
# Velocity P-wave (km/s) = 6.28759 7.05083 6.68012
#
# Compressibility (1/GPa) = 0.02311028
#
# Stress axis : x y z
#
# Youngs Moduli (GPa) = 97.84173 88.20115 67.32152
#
# Poissons Ratio (x) = 0.31469 -0.02275
# Poissons Ratio (y) = 0.34908 0.23031
# Poissons Ratio (z) = -0.03306 0.30175
#
# Static dielectric constant tensor:
#      x y z
#    x 2.095890 -0.044330 0.212000 
#    y -0.044330 1.965850 -0.113150 
#    z 0.212000 -0.113150 2.099490 
# 
# From -- ./inp_files/187130.got.cif
#   From: 2010.05.17/outbox.cif.g08.bks.cpg/sg2_94_cif.got.tgz:187130.got - 2010.06.03 11:33:40.
