data_PCOD9069638
_publ_section_title
;
Structure prediction by ZEFSAII (Michael W. Deem and Ramdas Pophale) SiO2 
 PCOD9069638
Probable space group: P -1
;
_chemical_formula_sum "Si O2"
_cell_formula_units_Z 14
_cell_length_a 9.576218
_cell_length_b 11.986080
_cell_length_c 10.592007
_cell_angle_alpha 36.539230
_cell_angle_beta 128.453179
_cell_angle_gamma 117.478659
_cell_volume 564.937546
_symmetry_space_group_name_H-M "P -1"
_symmetry_group_IT_number 2
_symmetry_cell_setting 'triclinic'
loop_
_space_group_symop_operation_xyz
x,y,z
-x,-y,-z
loop_
_atom_site_type_symbol
_atom_site_label
_atom_site_fract_x
_atom_site_fract_y
_atom_site_fract_z
Si Si1 0.464901 0.430053 0.903967
Si Si2 0.692266 0.583702 0.526822
Si Si3 0.130308 0.628055 0.385697
Si Si4 0.944507 0.885884 0.869235
Si Si5 0.307675 0.037786 0.925929
Si Si6 0.610712 0.008475 0.710239
Si Si7 0.281068 0.312505 0.272665
O O1 0.311365 0.569430 0.621467
O O2 0.647750 0.480805 0.893017
O O3 0.500000 0.500000 0.000000
O O4 0.431208 0.210829 0.099667
O O5 0.500000 0.500000 0.500000
O O6 0.821913 0.420379 0.690020
O O7 0.701673 0.738434 0.282138
O O8 0.745116 0.684605 0.593450
O O9 0.000000 0.500000 0.500000
O O10 0.995451 0.808060 0.109695
O O11 0.768151 0.024968 0.681881
O O12 0.875229 0.739671 0.860706
O O13 0.115957 0.980028 0.823369
O O14 0.328118 0.940980 0.160843
O O15 0.500000 0.000000 0.000000
O O16 0.436109 0.150909 0.466894
#
# Coordination Sequence:
#
# PCOD9069638 Si02
#       7
#     2   2   2   2   2   2   2
#     4  12  24  45  77 109 146 194 247 310 380 438
#     4  12  24  46  76 102 144 200 245 305 380 449
#     4  12  23  46  73 106 147 191 251 304 371 446
#     4  12  27  46  72 114 147 196 255 309 376 446
#     4  12  24  46  72 104 145 196 251 308 379 448
#     4  12  24  49  77 106 151 197 250 310 374 450
#     4  12  26  48  75 111 155 195 253 313 374 446
#
# _framework density 24.781499
#
# number of rings (size 3 to 8) (size 9 to 14) (size 15 to 20)
#    0.000    0.000    7.143    2.571    0.000    2.286 
#    2.571    0.000    0.000    0.000    0.000    0.000 
#    0.000    0.000    0.000    0.000    0.000    0.000 
#
# Total GULP energy -78058.217672 kJ/mol
# GULP energy per Si atom -5575.586977 kJ/mol
# Density = 2.472510 g / cm^3
# Si number density = 24.781499 Si / 1000 Ang^3
#
#
#
# Elastic Constant Matrix: (Units=GPa)
#
#
# Indices 1 2 3 4 5 6 
#
# 1 127.6743 51.5466 11.4914 18.1325 9.1424 10.2959
# 2 51.5466 149.1312 57.8002 23.7603 16.0910 21.3036
# 3 11.4914 57.8002 103.2735 13.3344 2.0047 4.0424
# 4 18.1325 23.7603 13.3344 49.9779 -2.6529 -7.1493
# 5 9.1424 16.0910 2.0047 -2.6529 30.9908 -3.1775
# 6 10.2959 21.3036 4.0424 -7.1493 -3.1775 53.1693
#
#
#
# Elastic Compliance Matrix: (Units=1/GPa)
#
#
# Indices 1 2 3 4 5 6 
#
# 1 0.009501 -0.002892 0.000977 -0.002596 -0.001710 -0.001207
# 2 -0.002892 0.011727 -0.005429 -0.004040 -0.005703 -0.004610
# 3 0.000977 -0.005429 0.012658 -0.000915 0.001736 0.001004
# 4 -0.002596 -0.004040 -0.000915 0.024239 0.005590 0.005784
# 5 -0.001710 -0.005703 0.001736 0.005590 0.036656 0.005426
# 6 -0.001207 -0.004610 0.001004 0.005784 0.005426 0.021914
#
#
# Mechanical properties :
#
#
# Convention : Reuss Voigt Hill
#
# Bulk Modulus (GPa) = 52.08954 69.08394 60.58674
# Shear Modulus (GPa) = 36.28958 44.11033 40.19995
#
# Velocity S-wave (km/s) = 3.83088 4.22355 4.03199
# Velocity P-wave (km/s) = 6.37437 7.19181 6.79540
#
# Compressibility (1/GPa) = 0.01919771
#
# Stress axis : x y z
#
# Youngs Moduli (GPa) = 105.25702 85.27637 79.00314
#
# Poissons Ratio (x) = 0.24662 -0.07719
# Poissons Ratio (y) = 0.30441 0.42888
# Poissons Ratio (z) = -0.10285 0.46293
#
# Static dielectric constant tensor:
#      x y z
#    x 2.056360 -0.081890 0.046540 
#    y -0.081890 2.147430 -0.080900 
#    z 0.046540 -0.080900 2.233170 
# 
# From -- ./inp_files/391896.got.cif
#   From: 2010.05.17/outbox.cif.g08.bks.cpg/sg2_196_cif.got.tgz:391896.got - 2010.06.03 11:33:40.
