data_PCOD9069539
_publ_section_title
;
Structure prediction by ZEFSAII (Michael W. Deem and Ramdas Pophale) SiO2 
 PCOD9069539
Probable space group: P -1
;
_chemical_formula_sum "Si O2"
_cell_formula_units_Z 12
_cell_length_a 9.024524
_cell_length_b 6.490627
_cell_length_c 14.782125
_cell_angle_alpha 105.174704
_cell_angle_beta 39.788946
_cell_angle_gamma 93.641308
_cell_volume 521.350099
_symmetry_space_group_name_H-M "P -1"
_symmetry_group_IT_number 2
_symmetry_cell_setting 'triclinic'
loop_
_space_group_symop_operation_xyz
x,y,z
-x,-y,-z
loop_
_atom_site_type_symbol
_atom_site_label
_atom_site_fract_x
_atom_site_fract_y
_atom_site_fract_z
Si Si1 0.683501 0.437859 0.991516
Si Si2 0.910370 0.834019 0.954827
Si Si3 0.979161 0.054204 0.693114
Si Si4 0.743843 0.330070 0.387837
Si Si5 0.894218 0.659700 0.484257
Si Si6 0.566240 0.833919 0.805168
O O1 0.820972 0.610778 0.990808
O O2 0.885478 0.238261 0.833642
O O3 0.500000 0.500000 0.000000
O O4 0.511558 0.373727 0.140484
O O5 0.117955 0.763430 0.777273
O O6 0.664327 0.977152 0.049294
O O7 0.000000 0.000000 0.000000
O O8 0.988818 0.166371 0.603481
O O9 0.781051 0.910837 0.761839
O O10 0.223989 0.885203 0.587383
O O11 0.500000 0.500000 0.500000
O O12 0.878701 0.491526 0.393694
O O13 0.646248 0.790216 0.658802
O O14 0.000000 0.500000 0.500000
#
# Coordination Sequence:
#
# PCOD9069539 Si02
#       6
#     2   2   2   2   2   2
#     4  12  23  44  79 113 149 196 261 329 386 457
#     4  12  27  49  75 112 157 207 264 324 399 472
#     4  12  24  46  79 117 155 205 266 327 385 469
#     4  12  27  50  74 108 163 213 262 321 402 471
#     4  12  26  45  76 119 158 199 265 327 396 465
#     4  12  25  43  77 114 151 195 264 322 389 461
#
# _framework density 23.017164000000001
#
# number of rings (size 3 to 8) (size 9 to 14) (size 15 to 20)
#    0.000    0.000    6.667    4.000    0.000    1.333 
#    0.000    0.000    0.000    0.000    0.000    0.000 
#    0.000    0.000    0.000    0.000    0.000    0.000 
#
# Total GULP energy -66945.955328 kJ/mol
# GULP energy per Si atom -5578.829611 kJ/mol
# Density = 2.296478 g / cm^3
# Si number density = 23.017164 Si / 1000 Ang^3
#
#
#
# Elastic Constant Matrix: (Units=GPa)
#
#
# Indices 1 2 3 4 5 6 
#
# 1 98.9924 64.8584 48.7689 10.5336 -2.2921 18.9510
# 2 64.8584 141.0196 60.1705 -5.9863 -3.9041 13.7443
# 3 48.7689 60.1705 150.1198 10.6969 10.7649 -4.3720
# 4 10.5336 -5.9863 10.6969 54.9722 -5.4844 -2.1271
# 5 -2.2921 -3.9041 10.7649 -5.4844 41.6593 26.9892
# 6 18.9510 13.7443 -4.3720 -2.1271 26.9892 49.5476
#
#
#
# Elastic Compliance Matrix: (Units=1/GPa)
#
#
# Indices 1 2 3 4 5 6 
#
# 1 0.018315 -0.005410 -0.004456 -0.002835 0.008003 -0.010379
# 2 -0.005410 0.011813 -0.003677 0.003362 0.004793 -0.003999
# 3 -0.004456 -0.003677 0.010648 -0.002203 -0.009185 0.008573
# 4 -0.002835 0.003362 -0.002203 0.019904 0.004362 -0.001565
# 5 0.008003 0.004793 -0.009185 0.004362 0.048044 -0.031184
# 6 -0.010379 -0.003999 0.008573 -0.001565 -0.031184 0.042937
#
#
# Mechanical properties :
#
#
# Convention : Reuss Voigt Hill
#
# Bulk Modulus (GPa) = 73.04005 81.96973 77.50489
# Shear Modulus (GPa) = 27.27602 43.65809 35.46706
#
# Velocity S-wave (km/s) = 3.44616 4.35991 3.92968
# Velocity P-wave (km/s) = 6.90192 7.81248 7.37127
#
# Compressibility (1/GPa) = 0.01369112
#
# Stress axis : x y z
#
# Youngs Moduli (GPa) = 54.59981 84.64949 93.91271
#
# Poissons Ratio (x) = 0.45791 0.41846
# Poissons Ratio (y) = 0.29536 0.34535
# Poissons Ratio (z) = 0.24329 0.31129
#
# Static dielectric constant tensor:
#      x y z
#    x 1.931810 -0.055960 -0.021930 
#    y -0.055960 2.047440 -0.016230 
#    z -0.021930 -0.016230 1.875860 
# 
# From -- ./inp_files/82455.got.cif
#   From: 2010.05.17/outbox.cif.g08.bks.cpg/sg2_42_cif.got.tgz:82455.got - 2010.06.03 11:33:40.
