data_PCOD9069811
_publ_section_title
;
Structure prediction by ZEFSAII (Michael W. Deem and Ramdas Pophale) SiO2 
 PCOD9069811
Probable space group: P -1
;
_chemical_formula_sum "Si O2"
_cell_formula_units_Z 16
_cell_length_a 12.159344
_cell_length_b 9.177911
_cell_length_c 14.326378
_cell_angle_alpha 110.594615
_cell_angle_beta 149.446278
_cell_angle_gamma 71.012373
_cell_volume 759.949567
_symmetry_space_group_name_H-M "P -1"
_symmetry_group_IT_number 2
_symmetry_cell_setting 'triclinic'
loop_
_space_group_symop_operation_xyz
x,y,z
-x,-y,-z
loop_
_atom_site_type_symbol
_atom_site_label
_atom_site_fract_x
_atom_site_fract_y
_atom_site_fract_z
Si Si1 0.539822 0.805044 0.264300
Si Si2 0.229493 0.697763 0.703691
Si Si3 0.008784 0.124393 0.283808
Si Si4 0.857784 0.948361 0.972221
Si Si5 0.964571 0.561233 0.727410
Si Si6 0.467829 0.504310 0.704355
Si Si7 0.805548 0.586502 0.823392
Si Si8 0.200221 0.375018 0.727056
O O1 0.758073 0.857693 0.490614
O O2 0.450632 0.653297 0.218364
O O3 0.607909 0.738846 0.196522
O O4 0.362977 0.944594 0.163370
O O5 0.436299 0.659188 0.780547
O O6 0.220674 0.538114 0.722417
O O7 0.181110 0.840138 0.771025
O O8 0.013986 0.704954 0.484044
O O9 0.977486 0.263947 0.215928
O O10 0.982321 0.973695 0.167072
O O11 0.808468 0.770409 0.880984
O O12 0.000000 0.000000 0.000000
O O13 0.777449 0.531092 0.509025
O O14 0.856259 0.549106 0.744983
O O15 0.156943 0.434952 0.813717
O O16 0.594457 0.529347 0.707773
O O17 0.000000 0.500000 0.000000
#
# Coordination Sequence:
#
# PCOD9069811 Si02
#       8
#     2   2   2   2   2   2   2   2
#     4   9  19  38  65  91 111 143 189 242 290 331
#     4   7  12  28  57  86 114 138 179 237 280 330
#     4   9  18  37  62  90 114 146 190 238 286 330
#     4  12  24  40  57  84 119 152 194 237 277 341
#     4   9  17  36  62  85 110 151 193 233 278 333
#     4   9  18  36  61  87 112 148 189 232 286 342
#     4  12  25  40  52  79 122 154 190 233 281 342
#     4   7  12  28  59  89 108 134 188 238 276 327
#
# _framework density 21.054030000000001
#
# number of rings (size 3 to 8) (size 9 to 14) (size 15 to 20)
#    0.000    2.750    1.250    4.125    0.000    0.500 
#    6.750    2.500    0.000    2.250    0.000    0.000 
#    0.000    0.000    0.000    0.000    0.000    0.000 
#
# Total GULP energy -89155.966581 kJ/mol
# GULP energy per Si atom -5572.247911 kJ/mol
# Density = 2.100611 g / cm^3
# Si number density = 21.054030 Si / 1000 Ang^3
#
#
#
# Elastic Constant Matrix: (Units=GPa)
#
#
# Indices 1 2 3 4 5 6 
#
# 1 137.2279 35.0061 10.0639 -0.4131 4.3032 -33.3752
# 2 35.0061 77.0994 21.5199 -12.2888 12.6748 -24.2508
# 3 10.0639 21.5199 56.7541 -7.8085 -4.4149 -11.9085
# 4 -0.4131 -12.2888 -7.8085 15.8826 -21.3544 0.3634
# 5 4.3032 12.6748 -4.4149 -21.3544 -5.1788 -0.6999
# 6 -33.3752 -24.2508 -11.9085 0.3634 -0.6999 30.6484
#
#
#
# Elastic Compliance Matrix: (Units=1/GPa)
#
#
# Indices 1 2 3 4 5 6 
#
# 1 0.010074 -0.001847 0.001089 0.000193 0.000783 0.009947
# 2 -0.001847 0.021116 -0.003248 0.012702 -0.001255 0.013256
# 3 0.001089 -0.003248 0.018727 -0.003880 -0.007788 0.005760
# 4 0.000193 0.012702 -0.003880 0.017693 -0.039434 0.007643
# 5 0.000783 -0.001255 -0.007788 -0.039434 -0.025831 -0.003289
# 6 0.009947 0.013256 0.005760 0.007643 -0.003289 0.056022
#
#
# Mechanical properties :
#
#
# Convention : Reuss Voigt Hill
#
# Bulk Modulus (GPa) = 23.86364 44.91793 34.39078
# Shear Modulus (GPa) = 41.74281 21.90321 31.82301
#
# Velocity S-wave (km/s) = 4.45753 3.22892 3.89201
# Velocity P-wave (km/s) = 6.15238 5.93988 6.04706
#
# Compressibility (1/GPa) = 0.04190476
#
# Stress axis : x y z
#
# Youngs Moduli (GPa) = 99.26795 47.35825 53.39808
#
# Poissons Ratio (x) = 0.08746 -0.05813
# Poissons Ratio (y) = 0.18333 0.17342
# Poissons Ratio (z) = -0.10806 0.15381
#
# Static dielectric constant tensor:
#      x y z
#    x 1.878580 -0.037040 0.015230 
#    y -0.037040 1.737880 0.012760 
#    z 0.015230 0.012760 1.853990 
# 
# From -- ./inp_files/298860.got.cif
#   From: 2010.05.17/outbox.cif.g08.bks.cpg/sg2_150_cif.got.tgz:298860.got - 2010.06.03 11:33:40.
