data_PCOD9069822
_publ_section_title
;
Structure prediction by ZEFSAII (Michael W. Deem and Ramdas Pophale) SiO2 
 PCOD9069822
Probable space group: P -1
;
_chemical_formula_sum "Si O2"
_cell_formula_units_Z 14
_cell_length_a 8.128728
_cell_length_b 10.930969
_cell_length_c 8.694883
_cell_angle_alpha 68.198072
_cell_angle_beta 122.942371
_cell_angle_gamma 115.417998
_cell_volume 575.817818
_symmetry_space_group_name_H-M "P -1"
_symmetry_group_IT_number 2
_symmetry_cell_setting 'triclinic'
loop_
_space_group_symop_operation_xyz
x,y,z
-x,-y,-z
loop_
_atom_site_type_symbol
_atom_site_label
_atom_site_fract_x
_atom_site_fract_y
_atom_site_fract_z
Si Si1 0.223680 0.882362 0.993511
Si Si2 0.201605 0.858238 0.349947
Si Si3 0.903269 0.384507 0.380342
Si Si4 0.708631 0.595970 0.630953
Si Si5 0.715480 0.811250 0.095057
Si Si6 0.262012 0.159068 0.262696
Si Si7 0.684056 0.382307 0.970188
O O1 0.263104 0.759991 0.972161
O O2 0.981200 0.861085 0.866584
O O3 0.271486 0.858855 0.208057
O O4 0.315239 0.045087 0.924534
O O5 0.234583 0.746060 0.535211
O O6 0.284861 0.011587 0.386491
O O7 0.953040 0.822854 0.229958
O O8 0.769920 0.429467 0.160449
O O9 0.000000 0.500000 0.500000
O O10 0.097488 0.356273 0.405676
O O11 0.500000 0.500000 0.500000
O O12 0.660044 0.724066 0.627761
O O13 0.771393 0.502749 0.837724
O O14 0.664292 0.808149 0.889341
O O15 0.562021 0.671945 0.145789
#
# Coordination Sequence:
#
# PCOD9069822 Si02
#       7
#     2   2   2   2   2   2   2
#     4   9  18  41  67  93 122 162 207 257 313 363
#     4   9  20  43  68  90 122 164 210 256 303 377
#     4  12  27  42  63  95 127 166 208 255 316 368
#     4  12  27  44  63  91 126 169 213 255 305 374
#     4   9  20  38  68  95 120 162 210 255 308 371
#     4   9  20  41  67  90 122 167 209 251 310 365
#     4  12  24  41  64  92 130 164 200 263 315 363
#
# _framework density 24.313247
#
# number of rings (size 3 to 8) (size 9 to 14) (size 15 to 20)
#    0.000    1.714    1.429    4.286    6.000    1.143 
#    5.143    1.429    0.000    0.000    0.000    0.000 
#    0.000    0.000    0.000    0.000    0.000    0.000 
#
# Total GULP energy -78377.085515 kJ/mol
# GULP energy per Si atom -5598.363251 kJ/mol
# Density = 2.425791 g / cm^3
# Si number density = 24.313247 Si / 1000 Ang^3
#
#
#
# Elastic Constant Matrix: (Units=GPa)
#
#
# Indices 1 2 3 4 5 6 
#
# 1 41.1730 10.9940 0.7309 10.2678 5.1249 -5.3417
# 2 10.9940 111.9727 44.4472 19.2989 -27.4525 -2.2507
# 3 0.7309 44.4472 111.5780 6.8669 -0.0474 -5.4342
# 4 10.2678 19.2989 6.8669 45.8106 1.4121 -13.7109
# 5 5.1249 -27.4525 -0.0474 1.4121 34.6093 3.2954
# 6 -5.3417 -2.2507 -5.4342 -13.7109 3.2954 31.0238
#
#
#
# Elastic Compliance Matrix: (Units=1/GPa)
#
#
# Indices 1 2 3 4 5 6 
#
# 1 0.027979 -0.005164 0.002263 -0.002825 -0.008549 0.004499
# 2 -0.005164 0.016746 -0.006465 -0.007029 0.014848 -0.005490
# 3 0.002263 -0.006465 0.011580 0.001647 -0.005829 0.003296
# 4 -0.002825 -0.007029 0.001647 0.029318 -0.007594 0.013056
# 5 -0.008549 0.014848 -0.005829 -0.007594 0.043130 -0.009353
# 6 0.004499 -0.005490 0.003296 0.013056 -0.009353 0.039950
#
#
# Mechanical properties :
#
#
# Convention : Reuss Voigt Hill
#
# Bulk Modulus (GPa) = 26.61599 41.89645 34.25622
# Shear Modulus (GPa) = 25.00511 36.19221 30.59866
#
# Velocity S-wave (km/s) = 3.21043 3.86240 3.55141
# Velocity P-wave (km/s) = 4.97126 6.09591 5.56208
#
# Compressibility (1/GPa) = 0.03757140
#
# Stress axis : x y z
#
# Youngs Moduli (GPa) = 35.74130 59.71706 86.35817
#
# Poissons Ratio (x) = 0.30840 -0.19545
# Poissons Ratio (y) = 0.18458 0.55833
# Poissons Ratio (z) = -0.08089 0.38609
#
# Static dielectric constant tensor:
#      x y z
#    x 1.983600 0.012160 0.041520 
#    y 0.012160 1.891930 -0.003170 
#    z 0.041520 -0.003170 1.921900 
# 
# From -- ./inp_files/178286.got.cif
#   From: 2010.05.17/outbox.cif.g08.bks.cpg/sg2_90_cif.got.tgz:178286.got - 2010.06.03 11:33:40.
