data_PCOD9069627
_publ_section_title
;
Structure prediction by ZEFSAII (Michael W. Deem and Ramdas Pophale) SiO2 
 PCOD9069627
Probable space group: P -1
;
_chemical_formula_sum "Si O2"
_cell_formula_units_Z 16
_cell_length_a 27.947350
_cell_length_b 8.404570
_cell_length_c 27.853471
_cell_angle_alpha 138.292367
_cell_angle_beta 10.666590
_cell_angle_gamma 138.331192
_cell_volume 800.933990
_symmetry_space_group_name_H-M "P -1"
_symmetry_group_IT_number 2
_symmetry_cell_setting 'triclinic'
loop_
_space_group_symop_operation_xyz
x,y,z
-x,-y,-z
loop_
_atom_site_type_symbol
_atom_site_label
_atom_site_fract_x
_atom_site_fract_y
_atom_site_fract_z
Si Si1 0.664284 0.414554 0.135618
Si Si2 0.398482 0.582157 0.915033
Si Si3 0.756380 0.445398 0.262449
Si Si4 0.109266 0.649973 0.579008
Si Si5 0.439679 0.903141 0.090653
Si Si6 0.908210 0.600745 0.562845
Si Si7 0.268191 0.043068 0.773144
Si Si8 0.836038 0.779367 0.354771
O O1 0.651163 0.445744 0.098635
O O2 0.693843 0.685426 0.186569
O O3 0.408430 0.276419 0.381117
O O4 0.909844 0.287045 0.882751
O O5 0.639920 0.449914 0.666695
O O6 0.474075 0.867223 0.910468
O O7 0.146781 0.480742 0.171572
O O8 0.500000 0.500000 0.500000
O O9 0.792646 0.604874 0.311444
O O10 0.733987 0.162131 0.231333
O O11 0.000000 0.500000 0.000000
O O12 0.101549 0.576363 0.513487
O O13 0.128279 0.938615 0.630495
O O14 0.136326 0.813446 0.374058
O O15 0.627206 0.695657 0.867455
O O16 0.500000 0.000000 0.000000
O O17 0.000000 0.500000 0.500000
O O18 0.500000 0.000000 0.500000
O O19 0.000000 0.000000 0.000000
#
# Coordination Sequence:
#
# PCOD9069627 Si02
#       8
#     2   2   2   2   2   2   2   2
#     4  12  26  46  69 100 133 182 223 273 336 395
#     4  12  27  44  71 100 134 179 226 274 337 395
#     4  12  26  43  71 101 132 177 222 274 333 391
#     4  12  26  46  65 101 140 175 219 279 337 400
#     4  12  23  46  71  96 133 177 230 282 324 391
#     4  12  26  43  71 100 134 179 224 277 338 394
#     4  12  23  46  71  95 132 175 228 278 320 390
#     4  12  27  47  67  99 144 175 220 276 337 400
#
# _framework density 19.976676000000001
#
# number of rings (size 3 to 8) (size 9 to 14) (size 15 to 20)
#    0.000    0.000    5.000    4.500    7.000    0.000 
#    0.000    0.000    0.000    0.000    0.000    0.000 
#    0.000    0.000    0.000    0.000    0.000    0.000 
#
# Total GULP energy -89530.908555 kJ/mol
# GULP energy per Si atom -5595.681785 kJ/mol
# Density = 1.993121 g / cm^3
# Si number density = 19.976676 Si / 1000 Ang^3
#
#
#
# Elastic Constant Matrix: (Units=GPa)
#
#
# Indices 1 2 3 4 5 6 
#
# 1 118.3908 -1.7392 42.3771 7.6190 -10.2533 3.2076
# 2 -1.7392 79.9495 14.9675 -1.0274 5.7577 7.1651
# 3 42.3771 14.9675 149.3648 -4.4144 -17.3173 -6.6898
# 4 7.6190 -1.0274 -4.4144 31.9315 -9.3531 3.9636
# 5 -10.2533 5.7577 -17.3173 -9.3531 31.9088 1.9430
# 6 3.2076 7.1651 -6.6898 3.9636 1.9430 42.8421
#
#
#
# Elastic Compliance Matrix: (Units=1/GPa)
#
#
# Indices 1 2 3 4 5 6 
#
# 1 0.009732 0.000759 -0.002860 -0.002310 0.000830 -0.001126
# 2 0.000759 0.013359 -0.002072 -0.000724 -0.003358 -0.002395
# 3 -0.002860 -0.002072 0.008425 0.003024 0.004830 0.001377
# 4 -0.002310 -0.000724 0.003024 0.036106 0.011802 -0.003109
# 5 0.000830 -0.003358 0.004830 0.011802 0.038389 -0.001579
# 6 -0.001126 -0.002395 0.001377 -0.003109 -0.001579 0.024401
#
#
# Mechanical properties :
#
#
# Convention : Reuss Voigt Hill
#
# Bulk Modulus (GPa) = 43.15784 50.99064 47.07424
# Shear Modulus (GPa) = 34.13386 40.80979 37.47183
#
# Velocity S-wave (km/s) = 4.13811 4.52472 4.33572
# Velocity P-wave (km/s) = 6.66955 7.27172 6.97714
#
# Compressibility (1/GPa) = 0.02317076
#
# Stress axis : x y z
#
# Youngs Moduli (GPa) = 102.74931 74.85332 118.69394
#
# Poissons Ratio (x) = -0.05678 0.33944
# Poissons Ratio (y) = -0.07794 0.24592
# Poissons Ratio (z) = 0.29384 0.15509
#
# Static dielectric constant tensor:
#      x y z
#    x 1.724780 -0.030640 -0.004700 
#    y -0.030640 1.759190 -0.020480 
#    z -0.004700 -0.020480 1.705110 
# 
# From -- ./inp_files/621162.got.cif
#   From: 2010.05.17/outbox.cif.g08.bks.cpg/sg2_311_cif.got.tgz:621162.got - 2010.06.03 11:33:40.
