data_PCOD9069082
_publ_section_title
;
Structure prediction by ZEFSAII (Michael W. Deem and Ramdas Pophale) SiO2 
 PCOD9069082
Probable space group: P -1
;
_chemical_formula_sum "Si O2"
_cell_formula_units_Z 12
_cell_length_a 11.776419
_cell_length_b 10.840422
_cell_length_c 10.637432
_cell_angle_alpha 120.610338
_cell_angle_beta 117.246818
_cell_angle_gamma 23.639967
_cell_volume 468.509304
_symmetry_space_group_name_H-M "P -1"
_symmetry_group_IT_number 2
_symmetry_cell_setting 'triclinic'
loop_
_space_group_symop_operation_xyz
x,y,z
-x,-y,-z
loop_
_atom_site_type_symbol
_atom_site_label
_atom_site_fract_x
_atom_site_fract_y
_atom_site_fract_z
Si Si1 0.621820 0.585961 0.714806
Si Si2 0.855198 0.077153 0.682005
Si Si3 0.169045 0.462086 0.816133
Si Si4 0.674913 0.403421 0.150219
Si Si5 0.352320 0.020025 0.013920
Si Si6 0.897230 0.785441 0.381091
O O1 0.752269 0.297401 0.642446
O O2 0.888183 0.420042 0.733993
O O3 0.396565 0.856086 0.634770
O O4 0.463746 0.773717 0.863174
O O5 0.574763 0.307000 0.730374
O O6 0.995021 0.800539 0.542219
O O7 0.077480 0.922644 0.813326
O O8 0.153656 0.629365 0.828431
O O9 0.493373 0.130647 0.852548
O O10 0.116151 0.366815 0.666978
O O11 0.973496 0.655538 0.942994
O O12 0.500000 0.500000 0.000000
O O13 0.500000 0.000000 0.000000
#
# Coordination Sequence:
#
# PCOD9069082 Si02
#       6
#     2   2   2   2   2   2
#     4  12  24  42  71 105 148 182 233 294 348 425
#     4  12  27  47  72 103 142 194 236 283 361 424
#     4  12  25  44  72 107 143 182 239 293 349 418
#     4  12  28  50  71  99 143 192 243 293 342 424
#     4  12  22  42  69 107 143 178 231 291 359 412
#     4  12  24  44  72 107 144 182 234 296 357 421
#
# _framework density 25.613151999999999
#
# number of rings (size 3 to 8) (size 9 to 14) (size 15 to 20)
#    0.000    0.000    3.333    7.000    0.000    4.000 
#    0.000    0.000    0.000    0.000    0.000    0.000 
#    0.000    0.000    0.000    0.000    0.000    0.000 
#
# Total GULP energy -67149.776015 kJ/mol
# GULP energy per Si atom -5595.814668 kJ/mol
# Density = 2.555485 g / cm^3
# Si number density = 25.613152 Si / 1000 Ang^3
#
#
#
# Elastic Constant Matrix: (Units=GPa)
#
#
# Indices 1 2 3 4 5 6 
#
# 1 147.5421 24.4547 26.4804 12.3492 18.5833 -16.3943
# 2 24.4547 132.6804 21.0031 -4.9567 -2.3891 -13.0409
# 3 26.4804 21.0031 82.0250 14.1289 18.5405 -1.3578
# 4 12.3492 -4.9567 14.1289 31.6189 2.4074 -6.9770
# 5 18.5833 -2.3891 18.5405 2.4074 35.1569 5.9939
# 6 -16.3943 -13.0409 -1.3578 -6.9770 5.9939 34.6452
#
#
#
# Elastic Compliance Matrix: (Units=1/GPa)
#
#
# Indices 1 2 3 4 5 6 
#
# 1 0.008287 -0.001134 -0.001007 -0.001770 -0.004465 0.003871
# 2 -0.001134 0.008663 -0.002859 0.003593 0.001939 0.003000
# 3 -0.001007 -0.002859 0.016121 -0.006910 -0.007519 -0.001012
# 4 -0.001770 0.003593 -0.006910 0.037585 0.000946 0.007649
# 5 -0.004465 0.001939 -0.007519 0.000946 0.036156 -0.007743
# 6 0.003871 0.003000 -0.001012 0.007649 -0.007743 0.034666
#
#
# Mechanical properties :
#
#
# Convention : Reuss Voigt Hill
#
# Bulk Modulus (GPa) = 43.34456 56.23598 49.79027
# Shear Modulus (GPa) = 31.41322 39.63813 35.52567
#
# Velocity S-wave (km/s) = 3.50587 3.93818 3.72830
# Velocity P-wave (km/s) = 5.77474 6.53319 6.16564
#
# Compressibility (1/GPa) = 0.02307094
#
# Stress axis : x y z
#
# Youngs Moduli (GPa) = 120.66888 115.43867 62.02915
#
# Poissons Ratio (x) = 0.13092 0.06244
# Poissons Ratio (y) = 0.13686 0.17737
# Poissons Ratio (z) = 0.12146 0.33009
#
# Static dielectric constant tensor:
#      x y z
#    x 2.079320 0.064910 0.002810 
#    y 0.064910 1.971950 -0.020350 
#    z 0.002810 -0.020350 2.049500 
# 
# From -- ./inp_files/424734.got.cif
#   From: 2010.05.17/outbox.cif.g08.bks.cpg/sg2_213_cif.got.tgz:424734.got - 2010.06.03 11:33:40.
