data_PCOD9069762
_publ_section_title
;
Structure prediction by ZEFSAII (Michael W. Deem and Ramdas Pophale) SiO2 
 PCOD9069762
Probable space group: P -1
;
_chemical_formula_sum "Si O2"
_cell_formula_units_Z 8
_cell_length_a 6.977577
_cell_length_b 11.443148
_cell_length_c 4.914697
_cell_angle_alpha 104.813071
_cell_angle_beta 110.808004
_cell_angle_gamma 56.119632
_cell_volume 303.695212
_symmetry_space_group_name_H-M "P -1"
_symmetry_group_IT_number 2
_symmetry_cell_setting 'triclinic'
loop_
_space_group_symop_operation_xyz
x,y,z
-x,-y,-z
loop_
_atom_site_type_symbol
_atom_site_label
_atom_site_fract_x
_atom_site_fract_y
_atom_site_fract_z
Si Si1 0.866610 0.068627 0.693267
Si Si2 0.780435 0.631996 0.113166
Si Si3 0.642321 0.935370 0.313030
Si Si4 0.487827 0.368549 0.521244
O O1 0.603246 0.053012 0.614213
O O2 0.719641 0.237893 0.694027
O O3 0.881389 0.959932 0.384965
O O4 0.000000 0.000000 0.000000
O O5 0.708395 0.579154 0.310524
O O6 0.577340 0.690807 0.811339
O O7 0.800292 0.763851 0.294007
O O8 0.000000 0.500000 0.000000
O O9 0.500000 0.000000 0.000000
O O10 0.500000 0.500000 0.500000
#
# Coordination Sequence:
#
# PCOD9069762 Si02
#       4
#     2   2   2   2
#     4  12  26  46  77 109 147 198 251 306 377 443
#     4  12  26  49  77 111 147 202 252 307 377 446
#     4  12  23  48  77 102 148 196 256 312 362 439
#     4  12  27  51  73 111 158 195 245 314 378 449
#
# _framework density 26.342202
#
# number of rings (size 3 to 8) (size 9 to 14) (size 15 to 20)
#    0.000    0.000    5.000    4.500    3.500    0.000 
#    0.000    0.000    0.000    0.000    0.000    0.000 
#    0.000    0.000    0.000    0.000    0.000    0.000 
#
# Total GULP energy -44803.807761 kJ/mol
# GULP energy per Si atom -5600.475970 kJ/mol
# Density = 2.628225 g / cm^3
# Si number density = 26.342202 Si / 1000 Ang^3
#
#
#
# Elastic Constant Matrix: (Units=GPa)
#
#
# Indices 1 2 3 4 5 6 
#
# 1 265.3989 120.8986 72.6928 22.6588 -33.2231 22.8224
# 2 120.8986 252.8508 71.0084 3.4179 -10.8190 21.6545
# 3 72.6928 71.0084 137.4932 -2.5549 -11.3616 16.9936
# 4 22.6588 3.4179 -2.5549 39.8379 1.0931 -6.6130
# 5 -33.2231 -10.8190 -11.3616 1.0931 77.7578 -9.0722
# 6 22.8224 21.6545 16.9936 -6.6130 -9.0722 46.7046
#
#
#
# Elastic Compliance Matrix: (Units=1/GPa)
#
#
# Indices 1 2 3 4 5 6 
#
# 1 0.005839 -0.002048 -0.001770 -0.003542 0.001837 -0.001404
# 2 -0.002048 0.005452 -0.001645 0.000446 -0.000475 -0.000957
# 3 -0.001770 -0.001645 0.009287 0.001488 0.000175 -0.001507
# 4 -0.003542 0.000446 0.001488 0.027990 -0.001075 0.004737
# 5 0.001837 -0.000475 0.000175 -0.001075 0.013829 0.001793
# 6 -0.001404 -0.000957 -0.001507 0.004737 0.001793 0.024108
#
#
# Mechanical properties :
#
#
# Convention : Reuss Voigt Hill
#
# Bulk Modulus (GPa) = 103.61457 131.66029 117.63743
# Shear Modulus (GPa) = 49.67806 58.93626 54.30716
#
# Velocity S-wave (km/s) = 4.34738 4.73518 4.54541
# Velocity P-wave (km/s) = 8.03860 8.94344 8.50306
#
# Compressibility (1/GPa) = 0.00965115
#
# Stress axis : x y z
#
# Youngs Moduli (GPa) = 171.27017 183.42277 107.67880
#
# Poissons Ratio (x) = 0.37565 0.19056
# Poissons Ratio (y) = 0.35076 0.17718
# Poissons Ratio (z) = 0.30310 0.30182
#
# Static dielectric constant tensor:
#      x y z
#    x 2.685130 -0.063220 0.225360 
#    y -0.063220 2.073830 -0.154950 
#    z 0.225360 -0.154950 2.216100 
# 
# From -- ./inp_files/2033.got.cif
#   From: 2010.05.17/outbox.cif.g08.bks.cpg/sg2_2_cif.got.tgz:2033.got - 2010.06.03 11:33:40.
