data_PCOD9069958
_publ_section_title
;
Structure prediction by ZEFSAII (Michael W. Deem and Ramdas Pophale) SiO2 
 PCOD9069958
Probable space group: P -1
;
_chemical_formula_sum "Si O2"
_cell_formula_units_Z 16
_cell_length_a 14.266832
_cell_length_b 14.177798
_cell_length_c 11.299690
_cell_angle_alpha 119.756184
_cell_angle_beta 149.730479
_cell_angle_gamma 43.793513
_cell_volume 742.508982
_symmetry_space_group_name_H-M "P -1"
_symmetry_group_IT_number 2
_symmetry_cell_setting 'triclinic'
loop_
_space_group_symop_operation_xyz
x,y,z
-x,-y,-z
loop_
_atom_site_type_symbol
_atom_site_label
_atom_site_fract_x
_atom_site_fract_y
_atom_site_fract_z
Si Si1 0.980500 0.377253 0.395384
Si Si2 0.482789 0.946454 0.238543
Si Si3 0.188266 0.427212 0.050279
Si Si4 0.981596 0.930908 0.049819
Si Si5 0.128836 0.623662 0.458596
Si Si6 0.162339 0.045939 0.713884
Si Si7 0.700078 0.406413 0.874324
Si Si8 0.360608 0.901048 0.597909
O O1 0.872859 0.372109 0.398130
O O2 0.000000 0.500000 0.500000
O O3 0.257276 0.219554 0.579767
O O4 0.809886 0.407623 0.118767
O O5 0.540778 0.051738 0.360776
O O6 0.331736 0.978963 0.973357
O O7 0.299671 0.989495 0.172712
O O8 0.053308 0.404160 0.791719
O O9 0.250284 0.520028 0.122859
O O10 0.441550 0.270147 0.269129
O O11 0.000000 0.500000 0.000000
O O12 0.147707 0.759667 0.100592
O O13 0.105229 0.948860 0.303677
O O14 0.000000 0.000000 0.000000
O O15 0.405972 0.499217 0.630982
O O16 0.011413 0.779445 0.372823
O O17 0.323090 0.980549 0.728253
O O18 0.000000 0.000000 0.500000
#
# Coordination Sequence:
#
# PCOD9069958 Si02
#       8
#     2   2   2   2   2   2   2   2
#     4  12  27  47  76 105 142 195 237 296 361 421
#     4  12  26  48  75 105 147 185 246 295 355 430
#     4  12  26  45  74 106 146 192 236 295 360 427
#     4  12  30  48  71 104 145 200 240 290 352 428
#     4  12  26  49  75 108 148 184 238 301 364 422
#     4  12  24  43  78 111 137 184 236 301 363 414
#     4  12  29  47  73 108 147 191 243 291 357 433
#     4  12  24  46  73 106 143 184 242 296 363 422
#
# _framework density 21.548559999999998
#
# number of rings (size 3 to 8) (size 9 to 14) (size 15 to 20)
#    0.000    0.000    5.000    4.500    3.500    4.000 
#    0.000    0.000    0.000    0.000    0.000    0.000 
#    0.000    0.000    0.000    0.000    0.000    0.000 
#
# Total GULP energy -89666.628684 kJ/mol
# GULP energy per Si atom -5604.164293 kJ/mol
# Density = 2.149952 g / cm^3
# Si number density = 21.548560 Si / 1000 Ang^3
#
#
#
# Elastic Constant Matrix: (Units=GPa)
#
#
# Indices 1 2 3 4 5 6 
#
# 1 130.1574 34.2586 18.2823 -26.1652 26.3076 10.9957
# 2 34.2586 105.8283 12.0520 -24.1971 8.0275 26.3235
# 3 18.2823 12.0520 57.9105 -13.1510 8.7594 15.7062
# 4 -26.1652 -24.1971 -13.1510 40.8328 -3.7584 -1.3257
# 5 26.3076 8.0275 8.7594 -3.7584 40.5319 4.8957
# 6 10.9957 26.3235 15.7062 -1.3257 4.8957 42.8893
#
#
#
# Elastic Compliance Matrix: (Units=1/GPa)
#
#
# Indices 1 2 3 4 5 6 
#
# 1 0.010412 -0.001563 -0.000808 0.004937 -0.005743 -0.000606
# 2 -0.001563 0.013487 0.001600 0.007208 -0.000343 -0.008201
# 3 -0.000808 0.001600 0.021341 0.006784 -0.002802 -0.008060
# 4 0.004937 0.007208 0.006784 0.033689 -0.002142 -0.006888
# 5 -0.005743 -0.000343 -0.002802 -0.002142 0.028954 -0.000662
# 6 -0.000606 -0.008201 -0.008060 -0.006888 -0.000662 0.031319
#
#
# Mechanical properties :
#
#
# Convention : Reuss Voigt Hill
#
# Bulk Modulus (GPa) = 22.88471 47.00910 34.94690
# Shear Modulus (GPa) = 32.19344 40.13769 36.16556
#
# Velocity S-wave (km/s) = 3.86942 4.32054 4.10119
# Velocity P-wave (km/s) = 5.53230 6.83756 6.21926
#
# Compressibility (1/GPa) = 0.04369730
#
# Stress axis : x y z
#
# Youngs Moduli (GPa) = 96.03845 74.14478 46.85922
#
# Poissons Ratio (x) = 0.11592 0.03784
# Poissons Ratio (y) = 0.15016 -0.07496
# Poissons Ratio (z) = 0.07756 -0.11860
#
# Static dielectric constant tensor:
#      x y z
#    x 1.760200 -0.026450 -0.010650 
#    y -0.026450 1.747950 0.019810 
#    z -0.010650 0.019810 1.783670 
# 
# From -- ./inp_files/455850.got.cif
#   From: 2010.05.17/outbox.cif.g08.bks.cpg/sg2_228_cif.got.tgz:455850.got - 2010.06.03 11:33:40.
