data_PCOD9069923
_publ_section_title
;
Structure prediction by ZEFSAII (Michael W. Deem and Ramdas Pophale) SiO2 
 PCOD9069923
Probable space group: P -1
;
_chemical_formula_sum "Si O2"
_cell_formula_units_Z 16
_cell_length_a 15.940365
_cell_length_b 5.851551
_cell_length_c 9.479363
_cell_angle_alpha 126.395463
_cell_angle_beta 105.201980
_cell_angle_gamma 63.847710
_cell_volume 638.862534
_symmetry_space_group_name_H-M "P -1"
_symmetry_group_IT_number 2
_symmetry_cell_setting 'triclinic'
loop_
_space_group_symop_operation_xyz
x,y,z
-x,-y,-z
loop_
_atom_site_type_symbol
_atom_site_label
_atom_site_fract_x
_atom_site_fract_y
_atom_site_fract_z
Si Si1 0.493511 0.670207 0.406323
Si Si2 0.290911 0.855342 0.419234
Si Si3 0.550025 0.229419 0.036692
Si Si4 0.086794 0.957512 0.618772
Si Si5 0.948389 0.171777 0.173400
Si Si6 0.870875 0.701029 0.674659
Si Si7 0.740857 0.727022 0.869262
Si Si8 0.226674 0.295688 0.787853
O O1 0.500000 0.500000 0.500000
O O2 0.387683 0.738259 0.334535
O O3 0.565222 0.415753 0.245790
O O4 0.500000 0.000000 0.500000
O O5 0.279225 0.535124 0.325867
O O6 0.200862 0.024769 0.345424
O O7 0.302427 0.085031 0.631138
O O8 0.500000 0.500000 0.000000
O O9 0.500000 0.000000 0.000000
O O10 0.646561 0.022152 0.931277
O O11 0.137321 0.595448 0.510011
O O12 0.046564 0.070414 0.794359
O O13 0.156973 0.114234 0.670316
O O14 0.000000 0.000000 0.500000
O O15 0.021367 0.334277 0.306583
O O16 0.840601 0.371160 0.169447
O O17 0.000000 0.000000 0.000000
O O18 0.831263 0.738780 0.830777
O O19 0.752648 0.680643 0.028524
#
# Coordination Sequence:
#
# PCOD9069923 Si02
#       8
#     2   2   2   2   2   2   2   2
#     4  12  28  51  83 116 156 208 261 319 404 485
#     4  12  26  49  76 107 154 192 251 322 385 459
#     4  12  26  52  81 113 159 207 255 324 405 478
#     4  12  24  43  71  98 144 202 249 304 379 448
#     4  12  26  44  66 101 148 195 249 306 374 450
#     4  12  25  44  72 103 145 200 246 309 382 452
#     4  12  28  46  77 113 146 196 257 319 386 463
#     4  12  26  46  72 109 147 194 257 309 374 460
#
# _framework density 25.044512000000001
#
# number of rings (size 3 to 8) (size 9 to 14) (size 15 to 20)
#    0.000    0.000    5.000    4.875    3.500    2.000 
#    2.250    0.000    0.000    0.000    0.000    0.000 
#    0.000    0.000    0.000    0.000    0.000    0.000 
#
# Total GULP energy -89274.162295 kJ/mol
# GULP energy per Si atom -5579.635143 kJ/mol
# Density = 2.498751 g / cm^3
# Si number density = 25.044512 Si / 1000 Ang^3
#
#
#
# Elastic Constant Matrix: (Units=GPa)
#
#
# Indices 1 2 3 4 5 6 
#
# 1 61.5419 7.8894 -20.8664 0.4403 -3.3868 1.0567
# 2 7.8894 116.1190 31.6510 -6.3845 -7.1270 -10.7805
# 3 -20.8664 31.6510 122.7171 -6.6927 -22.1807 -0.7357
# 4 0.4403 -6.3845 -6.6927 48.4779 6.8403 2.6123
# 5 -3.3868 -7.1270 -22.1807 6.8403 40.8899 9.4340
# 6 1.0567 -10.7805 -0.7357 2.6123 9.4340 40.1151
#
#
#
# Elastic Compliance Matrix: (Units=1/GPa)
#
#
# Indices 1 2 3 4 5 6 
#
# 1 0.018317 -0.002407 0.004430 -0.000331 0.004011 -0.001970
# 2 -0.002407 0.009861 -0.003057 0.000879 -0.000937 0.002821
# 3 0.004430 -0.003057 0.010806 0.000299 0.006155 -0.002207
# 4 -0.000331 0.000879 0.000299 0.021257 -0.003179 -0.000386
# 5 0.004011 -0.000937 0.006155 -0.003179 0.030139 -0.007125
# 6 -0.001970 0.002821 -0.002207 -0.000386 -0.007125 0.027399
#
#
# Mechanical properties :
#
#
# Convention : Reuss Voigt Hill
#
# Bulk Modulus (GPa) = 27.08799 37.52511 32.30655
# Shear Modulus (GPa) = 37.83494 44.67682 41.25588
#
# Velocity S-wave (km/s) = 3.89100 4.22820 4.06310
# Velocity P-wave (km/s) = 5.57009 6.23320 5.91095
#
# Compressibility (1/GPa) = 0.03691673
#
# Stress axis : x y z
#
# Youngs Moduli (GPa) = 54.59489 101.40561 92.53892
#
# Poissons Ratio (x) = 0.24408 -0.40998
# Poissons Ratio (y) = 0.13141 0.28291
# Poissons Ratio (z) = -0.24188 0.31002
#
# Static dielectric constant tensor:
#      x y z
#    x 2.171880 -0.010290 -0.013210 
#    y -0.010290 2.011690 -0.112420 
#    z -0.013210 -0.112420 2.010450 
# 
# From -- ./inp_files/324127.got.cif
#   From: 2010.05.17/outbox.cif.g08.bks.cpg/sg2_163_cif.got.tgz:324127.got - 2010.06.03 11:33:40.
