data_PCOD9069123
_publ_section_title
;
Structure prediction by ZEFSAII (Michael W. Deem and Ramdas Pophale) SiO2 
 PCOD9069123
Probable space group: P -1
;
_chemical_formula_sum "Si O2"
_cell_formula_units_Z 12
_cell_length_a 8.264432
_cell_length_b 8.624851
_cell_length_c 14.178124
_cell_angle_alpha 65.532830
_cell_angle_beta 116.226774
_cell_angle_gamma 147.817197
_cell_volume 481.151340
_symmetry_space_group_name_H-M "P -1"
_symmetry_group_IT_number 2
_symmetry_cell_setting 'triclinic'
loop_
_space_group_symop_operation_xyz
x,y,z
-x,-y,-z
loop_
_atom_site_type_symbol
_atom_site_label
_atom_site_fract_x
_atom_site_fract_y
_atom_site_fract_z
Si Si1 0.761937 0.199917 0.820905
Si Si2 0.599622 0.412902 0.105534
Si Si3 0.805998 0.514892 0.603191
Si Si4 0.444705 0.415671 0.259247
Si Si5 0.829536 0.030032 0.246510
Si Si6 0.687006 0.974035 0.527904
O O1 0.820214 0.339081 0.700441
O O2 0.098551 0.451630 0.890858
O O3 0.663006 0.929100 0.862640
O O4 0.465578 0.073101 0.818064
O O5 0.648044 0.516719 0.197771
O O6 0.500000 0.500000 0.000000
O O7 0.459932 0.247231 0.541313
O O8 0.966008 0.751718 0.665871
O O9 0.997374 0.706431 0.510916
O O10 0.342312 0.175531 0.354843
O O11 0.107118 0.235972 0.189648
O O12 0.654900 0.716190 0.290593
O O13 0.500000 0.000000 0.500000
#
# Coordination Sequence:
#
# PCOD9069123 Si02
#       6
#     2   2   2   2   2   2
#     4  12  22  49  73 101 142 188 229 287 355 429
#     4  12  27  49  78 103 134 187 237 299 365 419
#     4  12  22  43  69  97 146 193 230 261 363 416
#     4  12  26  45  69 106 147 175 250 299 334 419
#     4  12  24  46  71 104 146 194 223 292 359 407
#     4  12  25  40  66 107 144 193 237 282 340 412
#
# _framework density 24.940175
#
# number of rings (size 3 to 8) (size 9 to 14) (size 15 to 20)
#    0.000    0.000    5.000    5.000    0.000    4.000 
#    0.000    5.000    0.000    0.000    0.000    0.000 
#    0.000    0.000    0.000    0.000    0.000    0.000 
#
# Total GULP energy -66997.396363 kJ/mol
# GULP energy per Si atom -5583.116364 kJ/mol
# Density = 2.488341 g / cm^3
# Si number density = 24.940175 Si / 1000 Ang^3
#
#
#
# Elastic Constant Matrix: (Units=GPa)
#
#
# Indices 1 2 3 4 5 6 
#
# 1 80.1277 29.5466 5.0759 -23.0447 18.6139 19.6855
# 2 29.5466 171.7790 26.2874 -36.2571 8.4483 6.2033
# 3 5.0759 26.2874 64.1827 -45.0922 38.7942 -4.9861
# 4 -23.0447 -36.2571 -45.0922 11.8514 -0.7182 27.1415
# 5 18.6139 8.4483 38.7942 -0.7182 25.7140 1.4907
# 6 19.6855 6.2033 -4.9861 27.1415 1.4907 46.2381
#
#
#
# Elastic Compliance Matrix: (Units=1/GPa)
#
#
# Indices 1 2 3 4 5 6 
#
# 1 0.011491 -0.002657 -0.006260 -0.007485 0.001841 -0.000876
# 2 -0.002657 0.007566 -0.005621 0.003452 0.008176 -0.002780
# 3 -0.006260 -0.005621 0.013213 -0.022534 -0.015262 0.018564
# 4 -0.007485 0.003452 -0.022534 0.002474 0.038489 -0.002399
# 5 0.001841 0.008176 -0.015262 0.038489 0.060598 -0.028073
# 6 -0.000876 -0.002780 0.018564 -0.002399 -0.028073 0.026689
#
#
# Mechanical properties :
#
#
# Convention : Reuss Voigt Hill
#
# Bulk Modulus (GPa) = 313.21989 48.65658 180.93823
# Shear Modulus (GPa) = 32.85734 33.77268 33.31501
#
# Velocity S-wave (km/s) = 3.63360 3.68387 3.65882
# Velocity P-wave (km/s) = 11.97770 6.13565 9.51608
#
# Compressibility (1/GPa) = 0.00319265
#
# Stress axis : x y z
#
# Youngs Moduli (GPa) = 87.02179 132.17770 75.68077
#
# Poissons Ratio (x) = 0.35125 0.47378
# Poissons Ratio (y) = 0.23125 0.42542
# Poissons Ratio (z) = 0.54478 0.74300
#
# Static dielectric constant tensor:
#      x y z
#    x 2.072930 -0.004440 0.020430 
#    y -0.004440 1.978390 0.027330 
#    z 0.020430 0.027330 1.968670 
# 
# From -- ./inp_files/208599.got.cif
#   From: 2010.05.17/outbox.cif.g08.bks.cpg/sg2_105_cif.got.tgz:208599.got - 2010.06.03 11:33:40.
