data_PCOD9069969
_publ_section_title
;
Structure prediction by ZEFSAII (Michael W. Deem and Ramdas Pophale) SiO2 
 PCOD9069969
Probable space group: P -1
;
_chemical_formula_sum "Si O2"
_cell_formula_units_Z 16
_cell_length_a 11.605640
_cell_length_b 26.535914
_cell_length_c 26.578350
_cell_angle_alpha 10.796044
_cell_angle_beta 152.092045
_cell_angle_gamma 152.082401
_cell_volume 706.224226
_symmetry_space_group_name_H-M "P -1"
_symmetry_group_IT_number 2
_symmetry_cell_setting 'triclinic'
loop_
_space_group_symop_operation_xyz
x,y,z
-x,-y,-z
loop_
_atom_site_type_symbol
_atom_site_label
_atom_site_fract_x
_atom_site_fract_y
_atom_site_fract_z
Si Si1 0.717956 0.455318 0.089272
Si Si2 0.020241 0.748096 0.133853
Si Si3 0.000215 0.214982 0.588430
Si Si4 0.548681 0.666009 0.106219
Si Si5 0.531252 0.884996 0.993299
Si Si6 0.715142 0.890940 0.482481
Si Si7 0.560794 0.874682 0.550729
Si Si8 0.774338 0.669206 0.543414
O O1 0.968330 0.398474 0.267923
O O2 0.620940 0.192568 0.275168
O O3 0.500000 0.500000 0.000000
O O4 0.745510 0.720352 0.804663
O O5 0.966163 0.939736 0.878371
O O6 0.079285 0.471267 0.404215
O O7 0.790607 0.667449 0.163132
O O8 0.246041 0.926208 0.076611
O O9 0.728351 0.233368 0.442305
O O10 0.183196 0.234757 0.592234
O O11 0.363094 0.375353 0.320732
O O12 0.617822 0.775912 0.080806
O O13 0.394789 0.869692 0.820409
O O14 0.327140 0.081677 0.713160
O O15 0.416145 0.615611 0.244519
O O16 0.583788 0.818021 0.556730
O O17 0.000000 0.000000 0.500000
#
# Coordination Sequence:
#
# PCOD9069969 Si02
#       8
#     2   2   2   2   2   2   2   2
#     4  12  26  42  71 100 140 187 228 271 345 429
#     4  12  25  49  76 102 132 192 244 296 351 410
#     4  12  25  45  76 102 144 181 243 291 345 424
#     4  12  25  50  72 104 142 186 238 288 350 429
#     4  12  29  47  72 103 145 185 236 301 358 407
#     4  12  27  44  71 108 141 183 227 291 359 412
#     4  12  24  44  69 104 139 185 230 285 343 423
#     4  12  28  46  68 110 145 186 231 293 356 421
#
# _framework density 22.655692999999999
#
# number of rings (size 3 to 8) (size 9 to 14) (size 15 to 20)
#    0.000    0.000    3.750    5.625    7.000    3.000 
#    0.000    3.750    0.000    0.000    0.000    0.000 
#    0.000    0.000    0.000    0.000    0.000    0.000 
#
# Total GULP energy -89635.196786 kJ/mol
# GULP energy per Si atom -5602.199799 kJ/mol
# Density = 2.260413 g / cm^3
# Si number density = 22.655693 Si / 1000 Ang^3
#
#
#
# Elastic Constant Matrix: (Units=GPa)
#
#
# Indices 1 2 3 4 5 6 
#
# 1 84.4038 4.1714 7.1287 -2.6446 1.4223 6.3880
# 2 4.1714 75.0994 -12.3082 -4.4599 3.3173 11.4113
# 3 7.1287 -12.3082 90.1958 0.6676 2.0056 10.6906
# 4 -2.6446 -4.4599 0.6676 39.2517 -11.8638 -8.8329
# 5 1.4223 3.3173 2.0056 -11.8638 28.8364 -20.2274
# 6 6.3880 11.4113 10.6906 -8.8329 -20.2274 6.2703
#
#
#
# Elastic Compliance Matrix: (Units=1/GPa)
#
#
# Indices 1 2 3 4 5 6 
#
# 1 0.011868 -0.001264 -0.001470 0.001908 0.002200 0.002498
# 2 -0.001264 0.012128 0.000505 0.005426 0.007093 0.008879
# 3 -0.001470 0.000505 0.010192 0.003382 0.006132 0.007749
# 4 0.001908 0.005426 0.003382 0.018122 -0.009560 -0.022899
# 5 0.002200 0.007093 0.006132 -0.009560 -0.001573 -0.044148
# 6 0.002498 0.008879 0.007749 -0.022899 -0.044148 -0.047106
#
#
# Mechanical properties :
#
#
# Convention : Reuss Voigt Hill
#
# Bulk Modulus (GPa) = 33.63434 27.52032 30.57733
# Shear Modulus (GPa) = 277.80900 31.58548 154.69724
#
# Velocity S-wave (km/s) = 11.08550 3.73789 8.27225
# Velocity P-wave (km/s) = 13.36897 5.55001 10.23552
#
# Compressibility (1/GPa) = 0.02973152
#
# Stress axis : x y z
#
# Youngs Moduli (GPa) = 84.26020 82.45157 98.11439
#
# Poissons Ratio (x) = 0.10418 0.14419
# Poissons Ratio (y) = 0.10647 -0.04951
# Poissons Ratio (z) = 0.12383 -0.04161
#
# Static dielectric constant tensor:
#      x y z
#    x 1.924930 0.064090 0.007780 
#    y 0.064090 1.865650 0.018550 
#    z 0.007780 0.018550 1.803670 
# 
# From -- ./inp_files/618859.got.cif
#   From: 2010.05.17/outbox.cif.g08.bks.cpg/sg2_310_cif.got.tgz:618859.got - 2010.06.03 11:33:40.
