data_PCOD9069660
_publ_section_title
;
Structure prediction by ZEFSAII (Michael W. Deem and Ramdas Pophale) SiO2 
 PCOD9069660
Probable space group: P -1
;
_chemical_formula_sum "Si O2"
_cell_formula_units_Z 14
_cell_length_a 18.230011
_cell_length_b 9.187048
_cell_length_c 4.982955
_cell_angle_alpha 105.725955
_cell_angle_beta 65.471179
_cell_angle_gamma 135.610823
_cell_volume 530.671717
_symmetry_space_group_name_H-M "P -1"
_symmetry_group_IT_number 2
_symmetry_cell_setting 'triclinic'
loop_
_space_group_symop_operation_xyz
x,y,z
-x,-y,-z
loop_
_atom_site_type_symbol
_atom_site_label
_atom_site_fract_x
_atom_site_fract_y
_atom_site_fract_z
Si Si1 0.555233 0.234656 0.083007
Si Si2 0.216169 0.583718 0.977511
Si Si3 0.103850 0.035445 0.264603
Si Si4 0.647924 0.597382 0.774171
Si Si5 0.624136 0.776544 0.390248
Si Si6 0.031751 0.780961 0.732087
Si Si7 0.187119 0.742709 0.595759
O O1 0.671929 0.365266 0.126884
O O2 0.469772 0.230020 0.369851
O O3 0.585990 0.362619 0.826207
O O4 0.500000 0.000000 0.000000
O O5 0.199172 0.621391 0.722548
O O6 0.099582 0.360479 0.132985
O O7 0.226691 0.737870 0.243001
O O8 0.222506 0.256367 0.269190
O O9 0.086561 0.868443 0.401604
O O10 0.087083 0.969534 0.949483
O O11 0.641568 0.668648 0.531954
O O12 0.396297 0.334375 0.912094
O O13 0.732881 0.019176 0.316681
O O14 0.065193 0.657382 0.720373
O O15 0.000000 0.000000 0.500000
#
# Coordination Sequence:
#
# PCOD9069660 Si02
#       7
#     2   2   2   2   2   2   2
#     4  12  29  51  77 112 152 196 251 316 371 434
#     4  12  27  45  73 112 155 190 243 308 378 431
#     4  12  24  43  74 106 149 191 244 305 371 440
#     4  12  26  52  77 111 147 200 250 304 371 450
#     4  12  26  51  80 105 149 203 255 300 368 442
#     4  12  24  45  72 110 147 194 243 304 368 450
#     4  12  23  46  76 106 151 200 242 299 375 450
#
# _framework density 26.381654999999999
#
# number of rings (size 3 to 8) (size 9 to 14) (size 15 to 20)
#    0.000    0.000    4.286    5.571    0.000    4.000 
#    0.000    0.000    0.000    0.000    0.000    0.000 
#    0.000    0.000    0.000    0.000    0.000    0.000 
#
# Total GULP energy -78626.469273 kJ/mol
# GULP energy per Si atom -5616.176377 kJ/mol
# Density = 2.632161 g / cm^3
# Si number density = 26.381655 Si / 1000 Ang^3
#
#
#
# Elastic Constant Matrix: (Units=GPa)
#
#
# Indices 1 2 3 4 5 6 
#
# 1 179.2640 32.2841 31.7930 -11.0666 -10.7214 18.0121
# 2 32.2841 154.3125 23.9510 -18.0264 5.3055 7.9147
# 3 31.7930 23.9510 103.6710 -0.7272 10.8738 -0.9019
# 4 -11.0666 -18.0264 -0.7272 43.1954 0.2128 -1.3757
# 5 -10.7214 5.3055 10.8738 0.2128 47.3979 -5.8360
# 6 18.0121 7.9147 -0.9019 -1.3757 -5.8360 46.6410
#
#
#
# Elastic Compliance Matrix: (Units=1/GPa)
#
#
# Indices 1 2 3 4 5 6 
#
# 1 0.006478 -0.000859 -0.001982 0.001191 0.001747 -0.002140
# 2 -0.000859 0.007265 -0.001316 0.002763 -0.000835 -0.000950
# 3 -0.001982 -0.001316 0.010840 -0.000835 -0.002681 0.000838
# 4 0.001191 0.002763 -0.000835 0.024588 0.000014 -0.000218
# 5 0.001747 -0.000835 -0.002681 0.000014 0.022476 0.002228
# 6 -0.002140 -0.000950 0.000838 -0.000218 0.002228 0.022717
#
#
# Mechanical properties :
#
#
# Convention : Reuss Voigt Hill
#
# Bulk Modulus (GPa) = 61.46617 68.14488 64.80553
# Shear Modulus (GPa) = 46.25383 50.72814 48.49098
#
# Velocity S-wave (km/s) = 4.19173 4.38980 4.29191
# Velocity P-wave (km/s) = 6.83937 7.18194 7.01274
#
# Compressibility (1/GPa) = 0.01626911
#
# Stress axis : x y z
#
# Youngs Moduli (GPa) = 154.37951 137.65516 92.24813
#
# Poissons Ratio (x) = 0.11821 0.18280
# Poissons Ratio (y) = 0.13258 0.12142
# Poissons Ratio (z) = 0.30592 0.18119
#
# Static dielectric constant tensor:
#      x y z
#    x 2.091120 0.006110 0.008540 
#    y 0.006110 2.066250 0.014680 
#    z 0.008540 0.014680 2.012150 
# 
# From -- ./inp_files/106955.got.cif
#   From: 2010.05.17/outbox.cif.g08.bks.cpg/sg2_54_cif.got.tgz:106955.got - 2010.06.03 11:33:40.
