data_PCOD9069093
_publ_section_title
;
Structure prediction by ZEFSAII (Michael W. Deem and Ramdas Pophale) SiO2 
 PCOD9069093
Probable space group: P -1
;
_chemical_formula_sum "Si O2"
_cell_formula_units_Z 16
_cell_length_a 17.740962
_cell_length_b 10.925818
_cell_length_c 9.153088
_cell_angle_alpha 75.536817
_cell_angle_beta 41.858848
_cell_angle_gamma 44.874964
_cell_volume 674.112739
_symmetry_space_group_name_H-M "P -1"
_symmetry_group_IT_number 2
_symmetry_cell_setting 'triclinic'
loop_
_space_group_symop_operation_xyz
x,y,z
-x,-y,-z
loop_
_atom_site_type_symbol
_atom_site_label
_atom_site_fract_x
_atom_site_fract_y
_atom_site_fract_z
Si Si1 0.286642 0.891673 0.773094
Si Si2 0.672195 0.302487 0.964979
Si Si3 0.931389 0.358076 0.153000
Si Si4 0.102138 0.644859 0.451823
Si Si5 0.421985 0.191206 0.970525
Si Si6 0.744919 0.064448 0.674379
Si Si7 0.730609 0.275210 0.422958
Si Si8 0.617879 0.780670 0.321889
O O1 0.284914 0.783890 0.688313
O O2 0.494765 0.764388 0.528859
O O3 0.220088 0.886937 0.020562
O O4 0.150933 0.133365 0.861030
O O5 0.796847 0.308595 0.729947
O O6 0.628069 0.249379 0.909844
O O7 0.480339 0.516585 0.263545
O O8 0.912433 0.378860 0.349863
O O9 0.834304 0.314337 0.254433
O O10 0.821917 0.569961 0.166592
O O11 0.238366 0.420668 0.242696
O O12 0.897976 0.840250 0.605012
O O13 0.599151 0.127244 0.757612
O O14 0.374146 0.207453 0.866755
O O15 0.500000 0.000000 0.000000
O O16 0.845934 0.077919 0.424254
O O17 0.500000 0.000000 0.500000
#
# Coordination Sequence:
#
# PCOD9069093 Si02
#       8
#     2   2   2   2   2   2   2   2
#     4  12  26  44  69 106 145 183 227 280 348 411
#     4  12  22  42  73 107 144 185 221 280 348 410
#     4  12  26  44  72 104 144 185 223 281 346 411
#     4  12  25  44  72 107 141 183 228 279 344 409
#     4  12  29  49  74 100 131 183 238 289 341 402
#     4  12  24  44  71 105 145 177 229 282 340 414
#     4  12  23  41  70 107 145 181 223 281 346 416
#     4  12  29  50  72  98 136 183 236 287 343 406
#
# _framework density 23.734902000000002
#
# number of rings (size 3 to 8) (size 9 to 14) (size 15 to 20)
#    0.000    0.000    6.250    3.750    5.250    1.000 
#    0.000    0.000    0.000    0.000    0.000    0.000 
#    0.000    0.000    0.000    0.000    0.000    0.000 
#
# Total GULP energy -89637.721885 kJ/mol
# GULP energy per Si atom -5602.357618 kJ/mol
# Density = 2.368088 g / cm^3
# Si number density = 23.734902 Si / 1000 Ang^3
#
#
#
# Elastic Constant Matrix: (Units=GPa)
#
#
# Indices 1 2 3 4 5 6 
#
# 1 86.3231 34.7838 21.0620 10.0296 31.8677 -22.2673
# 2 34.7838 148.8201 18.7613 22.2357 25.1100 -24.7454
# 3 21.0620 18.7613 62.8480 20.4421 15.7012 -13.5237
# 4 10.0296 22.2357 20.4421 43.0624 -1.4880 -2.4676
# 5 31.8677 25.1100 15.7012 -1.4880 37.4002 2.4138
# 6 -22.2673 -24.7454 -13.5237 -2.4676 2.4138 36.7398
#
#
#
# Elastic Compliance Matrix: (Units=1/GPa)
#
#
# Indices 1 2 3 4 5 6 
#
# 1 0.025962 0.002901 0.005018 -0.009704 -0.027899 0.020717
# 2 0.002901 0.010485 0.003623 -0.007627 -0.012009 0.010431
# 3 0.005018 0.003623 0.026266 -0.015294 -0.019337 0.015393
# 4 -0.009704 -0.007627 -0.015294 0.036553 0.022274 -0.015656
# 5 -0.027899 -0.012009 -0.019337 0.022274 0.069849 -0.035208
# 6 0.020717 0.010431 0.015393 -0.015656 -0.035208 0.053728
#
#
# Mechanical properties :
#
#
# Convention : Reuss Voigt Hill
#
# Bulk Modulus (GPa) = 11.65536 49.68947 30.67241
# Shear Modulus (GPa) = 21.89542 38.33275 30.11408
#
# Velocity S-wave (km/s) = 3.04056 4.02311 3.56584
# Velocity P-wave (km/s) = 4.15307 6.52390 5.46851
#
# Compressibility (1/GPa) = 0.08579742
#
# Stress axis : x y z
#
# Youngs Moduli (GPa) = 38.51783 95.37535 38.07176
#
# Poissons Ratio (x) = -0.27672 -0.19103
# Poissons Ratio (y) = -0.11175 -0.13795
# Poissons Ratio (z) = -0.19326 -0.34558
#
# Static dielectric constant tensor:
#      x y z
#    x 1.895520 -0.007790 -0.036700 
#    y -0.007790 1.977880 -0.006450 
#    z -0.036700 -0.006450 1.895360 
# 
# From -- ./inp_files/279905.got.cif
#   From: 2010.05.17/outbox.cif.g08.bks.cpg/sg2_140_cif.got.tgz:279905.got - 2010.06.03 11:33:40.
