data_PCOD9069615
_publ_section_title
;
Structure prediction by ZEFSAII (Michael W. Deem and Ramdas Pophale) SiO2 
 PCOD9069615
Probable space group: P -1
;
_chemical_formula_sum "Si O2"
_cell_formula_units_Z 12
_cell_length_a 9.533265
_cell_length_b 15.523940
_cell_length_c 8.638022
_cell_angle_alpha 117.715465
_cell_angle_beta 32.023559
_cell_angle_gamma 117.799217
_cell_volume 592.992643
_symmetry_space_group_name_H-M "P -1"
_symmetry_group_IT_number 2
_symmetry_cell_setting 'triclinic'
loop_
_space_group_symop_operation_xyz
x,y,z
-x,-y,-z
loop_
_atom_site_type_symbol
_atom_site_label
_atom_site_fract_x
_atom_site_fract_y
_atom_site_fract_z
Si Si1 0.355946 0.251934 0.072693
Si Si2 0.218651 0.947326 0.163455
Si Si3 0.778717 0.561925 0.836782
Si Si4 0.228561 0.439186 0.780779
Si Si5 0.909907 0.259249 0.740440
Si Si6 0.281246 0.032787 0.841995
O O1 0.249185 0.333301 0.130069
O O2 0.112349 0.226499 0.398754
O O3 0.643461 0.287255 0.923033
O O4 0.369610 0.148886 0.889540
O O5 0.189787 0.833048 0.135561
O O6 0.000000 0.000000 0.500000
O O7 0.500000 0.000000 0.000000
O O8 0.235942 0.970744 0.988279
O O9 0.000000 0.500000 0.500000
O O10 0.500000 0.500000 0.000000
O O11 0.779006 0.570017 0.031743
O O12 0.500000 0.500000 0.500000
O O13 0.110776 0.337955 0.719081
O O14 0.000000 0.500000 0.000000
O O15 0.500000 0.000000 0.500000
O O16 0.000000 0.000000 0.000000
#
# Coordination Sequence:
#
# PCOD9069615 Si02
#       6
#     2   2   2   2   2   2
#     4  12  25  46  71 103 141 190 230 285 357 410
#     4  12  23  46  70 102 139 189 235 278 345 415
#     4  12  26  47  72 101 138 180 227 289 354 416
#     4  12  26  46  71 103 134 177 234 291 344 412
#     4  12  24  45  73 101 140 186 237 286 341 420
#     4  12  26  44  69 103 149 182 232 290 343 415
#
# _framework density 20.236339000000001
#
# number of rings (size 3 to 8) (size 9 to 14) (size 15 to 20)
#    0.000    0.000    3.333    8.000    2.333    0.000 
#    3.000    0.000    0.000    0.000    0.000    0.000 
#    0.000    0.000    0.000    0.000    0.000    0.000 
#
# Total GULP energy -66929.803749 kJ/mol
# GULP energy per Si atom -5577.483646 kJ/mol
# Density = 2.019028 g / cm^3
# Si number density = 20.236339 Si / 1000 Ang^3
#
#
#
# Elastic Constant Matrix: (Units=GPa)
#
#
# Indices 1 2 3 4 5 6 
#
# 1 197.5541 74.9466 82.7057 -7.4107 3.4459 -8.5306
# 2 74.9466 170.5568 58.3787 -4.8141 9.9023 -5.2215
# 3 82.7057 58.3787 193.0743 -7.3924 -3.5910 -1.6530
# 4 -7.4107 -4.8141 -7.3924 37.7393 8.7689 -5.6429
# 5 3.4459 9.9023 -3.5910 8.7689 43.4371 -9.3915
# 6 -8.5306 -5.2215 -1.6530 -5.6429 -9.3915 41.5736
#
#
#
# Elastic Compliance Matrix: (Units=1/GPa)
#
#
# Indices 1 2 3 4 5 6 
#
# 1 0.006928 -0.002202 -0.002263 0.000843 -0.000160 0.001133
# 2 -0.002202 0.007399 -0.001299 0.000678 -0.001729 0.000127
# 3 -0.002263 -0.001299 0.006575 0.000452 0.000906 -0.000100
# 4 0.000843 0.000678 0.000452 0.028511 -0.005302 0.002948
# 5 -0.000160 -0.001729 0.000906 -0.005302 0.025624 0.004855
# 6 0.001133 0.000127 -0.000100 0.002948 0.004855 0.025795
#
#
# Mechanical properties :
#
#
# Convention : Reuss Voigt Hill
#
# Bulk Modulus (GPa) = 106.68046 110.36082 108.52064
# Shear Modulus (GPa) = 43.29625 47.56027 45.42826
#
# Velocity S-wave (km/s) = 4.63052 4.85319 4.74316
# Velocity P-wave (km/s) = 9.02334 9.27680 9.15095
#
# Compressibility (1/GPa) = 0.00937379
#
# Stress axis : x y z
#
# Youngs Moduli (GPa) = 144.34227 135.15763 152.09663
#
# Poissons Ratio (x) = 0.29762 0.34418
# Poissons Ratio (y) = 0.31784 0.19757
# Poissons Ratio (z) = 0.32663 0.17557
#
# Static dielectric constant tensor:
#      x y z
#    x 1.638600 -0.110540 -0.057110 
#    y -0.110540 1.510760 -0.158880 
#    z -0.057110 -0.158880 1.559760 
# 
# From -- ./inp_files/196019.got.cif
#   From: 2010.05.17/outbox.cif.g08.bks.cpg/sg2_99_cif.got.tgz:196019.got - 2010.06.03 11:33:40.
