data_PCOD9069190
_publ_section_title
;
Structure prediction by ZEFSAII (Michael W. Deem and Ramdas Pophale) SiO2 
 PCOD9069190
Probable space group: P -1
;
_chemical_formula_sum "Si O2"
_cell_formula_units_Z 14
_cell_length_a 18.016706
_cell_length_b 9.526194
_cell_length_c 8.454527
_cell_angle_alpha 30.555986
_cell_angle_beta 110.689886
_cell_angle_gamma 119.571307
_cell_volume 633.114881
_symmetry_space_group_name_H-M "P -1"
_symmetry_group_IT_number 2
_symmetry_cell_setting 'triclinic'
loop_
_space_group_symop_operation_xyz
x,y,z
-x,-y,-z
loop_
_atom_site_type_symbol
_atom_site_label
_atom_site_fract_x
_atom_site_fract_y
_atom_site_fract_z
Si Si1 0.295095 0.535656 0.440420
Si Si2 0.509622 0.254128 0.636592
Si Si3 0.253817 0.767298 0.498395
Si Si4 0.064963 0.336775 0.180869
Si Si5 0.805340 0.815052 0.782167
Si Si6 0.233556 0.906117 0.838857
Si Si7 0.557840 0.824511 0.665894
O O1 0.393524 0.614773 0.489840
O O2 0.245609 0.624220 0.458023
O O3 0.248929 0.185664 0.697232
O O4 0.301215 0.762442 0.079175
O O5 0.500000 0.500000 0.500000
O O6 0.440095 0.171364 0.525680
O O7 0.500000 0.000000 0.000000
O O8 0.186658 0.918823 0.346245
O O9 0.347633 0.036311 0.324242
O O10 0.252387 0.505320 0.872438
O O11 0.112726 0.255953 0.144286
O O12 0.147984 0.591510 0.084222
O O13 0.000000 0.000000 0.500000
O O14 0.000000 0.500000 0.000000
O O15 0.770394 0.936473 0.484622
O O16 0.500000 0.000000 0.500000
O O17 0.500000 0.500000 0.000000
#
# Coordination Sequence:
#
# PCOD9069190 Si02
#       7
#     2   2   2   2   2   2   2
#     4  12  26  45  66  99 144 186 225 289 359 402
#     4  12  28  43  65  97 134 181 239 298 344 397
#     4  12  26  44  71  97 147 186 236 289 339 421
#     4  12  22  44  76 110 140 169 225 287 342 414
#     4  12  24  44  71 112 127 184 232 285 337 411
#     4  12  24  44  72 106 135 175 235 273 350 410
#     4  12  26  47  65  95 135 189 243 278 355 398
#
# _framework density 22.112888999999999
#
# number of rings (size 3 to 8) (size 9 to 14) (size 15 to 20)
#    0.000    0.000    5.714    3.429    8.000    0.000 
#    0.000    0.000    0.000   17.143    0.000    0.000 
#    0.000    0.000    0.000    0.000    0.000    0.000 
#
# Total GULP energy -78020.132246 kJ/mol
# GULP energy per Si atom -5572.866589 kJ/mol
# Density = 2.206256 g / cm^3
# Si number density = 22.112889 Si / 1000 Ang^3
#
#
#
# Elastic Constant Matrix: (Units=GPa)
#
#
# Indices 1 2 3 4 5 6 
#
# 1 101.5082 14.8235 25.7077 -20.5371 14.7275 -15.9780
# 2 14.8235 77.6919 32.2170 -26.1256 -8.1468 -20.6786
# 3 25.7077 32.2170 190.8787 -32.2079 2.6556 -3.8228
# 4 -20.5371 -26.1256 -32.2079 43.8823 -7.8307 12.3035
# 5 14.7275 -8.1468 2.6556 -7.8307 49.3108 -11.7836
# 6 -15.9780 -20.6786 -3.8228 12.3035 -11.7836 34.6247
#
#
#
# Elastic Compliance Matrix: (Units=1/GPa)
#
#
# Indices 1 2 3 4 5 6 
#
# 1 0.011601 -0.000020 -0.000877 0.003477 -0.002080 0.003302
# 2 -0.000020 0.020512 -0.001813 0.009032 0.007660 0.011438
# 3 -0.000877 -0.001813 0.006239 0.003651 -0.000321 -0.002205
# 4 0.003477 0.009032 0.003651 0.034217 0.004957 -0.003070
# 5 -0.002080 0.007660 -0.000321 0.004957 0.025477 0.010488
# 6 0.003302 0.011438 -0.002205 -0.003070 0.010488 0.041653
#
#
# Mechanical properties :
#
#
# Convention : Reuss Voigt Hill
#
# Bulk Modulus (GPa) = 30.36536 57.28611 43.82573
# Shear Modulus (GPa) = 32.03131 45.38561 38.70846
#
# Velocity S-wave (km/s) = 3.81009 4.53531 4.18843
# Velocity P-wave (km/s) = 5.75478 7.30670 6.57668
#
# Compressibility (1/GPa) = 0.03293226
#
# Stress axis : x y z
#
# Youngs Moduli (GPa) = 86.19637 48.75270 160.27323
#
# Poissons Ratio (x) = 0.00097 0.14063
# Poissons Ratio (y) = 0.00171 0.29055
# Poissons Ratio (z) = 0.07563 0.08838
#
# Static dielectric constant tensor:
#      x y z
#    x 1.880180 -0.001310 -0.020300 
#    y -0.001310 1.863960 0.040040 
#    z -0.020300 0.040040 1.806310 
# 
# From -- ./inp_files/328293.got.cif
#   From: 2010.05.17/outbox.cif.g08.bks.cpg/sg2_165_cif.got.tgz:328293.got - 2010.06.03 11:33:40.
