data_PCOD9069906
_publ_section_title
;
Structure prediction by ZEFSAII (Michael W. Deem and Ramdas Pophale) SiO2 
 PCOD9069906
Probable space group: P -1
;
_chemical_formula_sum "Si O2"
_cell_formula_units_Z 15
_cell_length_a 4.980182
_cell_length_b 16.244840
_cell_length_c 16.356405
_cell_angle_alpha 153.326637
_cell_angle_beta 85.015474
_cell_angle_gamma 90.911462
_cell_volume 586.108915
_symmetry_space_group_name_H-M "P -1"
_symmetry_group_IT_number 2
_symmetry_cell_setting 'triclinic'
loop_
_space_group_symop_operation_xyz
x,y,z
-x,-y,-z
loop_
_atom_site_type_symbol
_atom_site_label
_atom_site_fract_x
_atom_site_fract_y
_atom_site_fract_z
Si Si1 0.265450 0.998966 0.938017
Si Si2 0.540840 0.620787 0.526636
Si Si3 0.771729 0.595637 0.151834
Si Si4 0.500000 0.000000 0.500000
Si Si5 0.402068 0.785501 0.122524
Si Si6 0.991372 0.115598 0.483559
Si Si7 0.058975 0.243964 0.009430
Si Si8 0.090465 0.618819 0.420614
O O1 0.366599 0.817568 0.722534
O O2 0.179014 0.153308 0.009574
O O3 0.500000 0.000000 0.000000
O O4 0.000000 0.000000 0.000000
O O5 0.500000 0.500000 0.500000
O O6 0.383843 0.550467 0.391277
O O7 0.851315 0.638136 0.512095
O O8 0.567749 0.766674 0.273880
O O9 0.914109 0.712240 0.318609
O O10 0.631675 0.423703 0.036350
O O11 0.000000 0.500000 0.000000
O O12 0.238474 0.964688 0.531587
O O13 0.712000 0.797150 0.102659
O O14 0.256466 0.957480 0.333711
O O15 0.219303 0.814336 0.069193
O O16 0.906648 0.195498 0.467301
O O17 0.017651 0.459628 0.221896
#
# Coordination Sequence:
#
# PCOD9069906 Si02
#       8
#     2   2   2   1   2   2   2   2
#     4  12  24  43  69 103 147 197 251 310 383 463
#     4  12  25  45  71 109 147 197 251 316 386 454
#     4  12  28  51  75 115 152 205 260 326 398 470
#     4  12  28  48  80 104 160 200 264 326 400 466
#     4  12  27  48  77 109 154 200 258 323 386 467
#     4  12  28  48  76 114 151 207 264 319 397 469
#     4  12  25  47  72 109 148 201 251 319 393 453
#     4  12  25  45  75 107 151 196 255 319 378 464
#
# _framework density 25.592510000000001
#
# number of rings (size 3 to 8) (size 9 to 14) (size 15 to 20)
#    0.000    0.000    2.667    7.200    3.733    0.533 
#    0.000    0.000    0.000    0.000    0.000    0.000 
#    0.000    0.000    0.000    0.000    0.000    0.000 
#
# Total GULP energy -83919.228672 kJ/mol
# GULP energy per Si atom -5594.615245 kJ/mol
# Density = 2.553426 g / cm^3
# Si number density = 25.592510 Si / 1000 Ang^3
#
#
#
# Elastic Constant Matrix: (Units=GPa)
#
#
# Indices 1 2 3 4 5 6 
#
# 1 111.6597 32.5226 4.9615 -5.3589 -13.1174 5.6164
# 2 32.5226 172.2762 25.6250 24.9686 -16.9955 3.6642
# 3 4.9615 25.6250 155.6245 9.5200 -12.5708 7.9533
# 4 -5.3589 24.9686 9.5200 41.0565 3.5949 -11.6006
# 5 -13.1174 -16.9955 -12.5708 3.5949 49.3881 -7.3594
# 6 5.6164 3.6642 7.9533 -11.6006 -7.3594 52.6666
#
#
#
# Elastic Compliance Matrix: (Units=1/GPa)
#
#
# Indices 1 2 3 4 5 6 
#
# 1 0.009869 -0.002028 0.000026 0.002318 0.001737 -0.000162
# 2 -0.002028 0.007218 -0.000606 -0.004974 0.002002 -0.001010
# 3 0.000026 -0.000606 0.006804 -0.001659 0.001480 -0.001147
# 4 0.002318 -0.004974 -0.001659 0.030177 -0.002729 0.006615
# 5 0.001737 0.002002 0.001480 -0.002729 0.022266 0.001962
# 6 -0.000162 -0.001010 -0.001147 0.006615 0.001962 0.020979
#
#
# Mechanical properties :
#
#
# Convention : Reuss Voigt Hill
#
# Bulk Modulus (GPa) = 53.54826 62.86429 58.20627
# Shear Modulus (GPa) = 45.97524 53.71900 49.84712
#
# Velocity S-wave (km/s) = 4.24303 4.58647 4.41809
# Velocity P-wave (km/s) = 6.70621 7.25703 6.98705
#
# Compressibility (1/GPa) = 0.01867474
#
# Stress axis : x y z
#
# Youngs Moduli (GPa) = 101.32999 138.55008 146.96424
#
# Poissons Ratio (x) = 0.28098 -0.00384
# Poissons Ratio (y) = 0.20550 0.08908
# Poissons Ratio (z) = -0.00265 0.08398
#
# Static dielectric constant tensor:
#      x y z
#    x 4.557070 -3.260990 1.573770 
#    y -3.260990 5.917780 -1.848760 
#    z 1.573770 -1.848760 2.842230 
# 
# From -- ./inp_files/484576.got.cif
#   From: 2010.05.17/outbox.cif.g08.bks.cpg/sg2_243_cif.got.tgz:484576.got - 2010.06.03 11:33:40.
