data_PCOD9069024
_publ_section_title
;
Structure prediction by ZEFSAII (Michael W. Deem and Ramdas Pophale) SiO2 
 PCOD9069024
Probable space group: P -1
;
_chemical_formula_sum "Si O2"
_cell_formula_units_Z 15
_cell_length_a 14.029645
_cell_length_b 12.080895
_cell_length_c 14.762562
_cell_angle_alpha 150.994172
_cell_angle_beta 37.960634
_cell_angle_gamma 148.789370
_cell_volume 620.503984
_symmetry_space_group_name_H-M "P -1"
_symmetry_group_IT_number 2
_symmetry_cell_setting 'triclinic'
loop_
_space_group_symop_operation_xyz
x,y,z
-x,-y,-z
loop_
_atom_site_type_symbol
_atom_site_label
_atom_site_fract_x
_atom_site_fract_y
_atom_site_fract_z
Si Si1 0.798165 0.728376 0.941990
Si Si2 0.731872 0.248677 0.179853
Si Si3 0.151641 0.373084 0.371911
Si Si4 0.500000 0.500000 0.500000
Si Si5 0.363156 0.952706 0.694003
Si Si6 0.232004 0.815774 0.389471
Si Si7 0.092301 0.823480 0.305467
Si Si8 0.641154 0.816532 0.793490
O O1 0.794062 0.682638 0.804930
O O2 0.790053 0.475466 0.813331
O O3 0.647647 0.788307 0.133920
O O4 0.000000 0.000000 0.000000
O O5 0.627416 0.402382 0.371664
O O6 0.728667 0.141875 0.205652
O O7 0.943131 0.497799 0.176423
O O8 0.622005 0.985888 0.008666
O O9 0.236089 0.695743 0.541809
O O10 0.934498 0.218068 0.449489
O O11 0.247429 0.298796 0.324604
O O12 0.479424 0.588655 0.687103
O O13 0.565579 0.004829 0.588497
O O14 0.208196 0.900909 0.367730
O O15 0.230667 0.948333 0.207639
O O16 0.000000 0.000000 0.500000
#
# Coordination Sequence:
#
# PCOD9069024 Si02
#       8
#     2   2   2   1   2   2   2   2
#     4  12  26  51  79 103 149 191 245 308 368 437
#     4  12  24  44  69 105 145 193 243 298 366 430
#     4  12  25  50  76 105 146 195 238 305 371 430
#     4  12  22  40  66  96 146 184 236 296 352 428
#     4  12  25  48  75 108 151 186 246 309 359 439
#     4  12  26  46  75 110 143 196 243 301 370 432
#     4  12  22  45  71 101 150 190 240 301 364 440
#     4  12  25  43  71 104 144 196 242 296 369 436
#
# _framework density 24.1739
#
# number of rings (size 3 to 8) (size 9 to 14) (size 15 to 20)
#    0.000    0.000    8.000    2.400    0.000    0.533 
#    2.400    0.000    0.000    0.000    0.000    0.000 
#    0.000    0.000    0.000    0.000    0.000    0.000 
#
# Total GULP energy -83736.951049 kJ/mol
# GULP energy per Si atom -5582.463403 kJ/mol
# Density = 2.411888 g / cm^3
# Si number density = 24.173900 Si / 1000 Ang^3
#
#
#
# Elastic Constant Matrix: (Units=GPa)
#
#
# Indices 1 2 3 4 5 6 
#
# 1 112.5479 12.5534 21.7055 -16.4646 0.2257 -8.5850
# 2 12.5534 59.3981 4.3035 6.4422 2.7607 -0.6555
# 3 21.7055 4.3035 93.0830 -12.9279 13.8433 3.0045
# 4 -16.4646 6.4422 -12.9279 20.3613 5.0787 -3.1687
# 5 0.2257 2.7607 13.8433 5.0787 53.4955 -1.7648
# 6 -8.5850 -0.6555 3.0045 -3.1687 -1.7648 26.8277
#
#
#
# Elastic Compliance Matrix: (Units=1/GPa)
#
#
# Indices 1 2 3 4 5 6 
#
# 1 0.011379 -0.003377 -0.001151 0.010400 -0.000402 0.004890
# 2 -0.003377 0.018694 -0.001444 -0.009890 0.000309 -0.001610
# 3 -0.001151 -0.001444 0.012918 0.008582 -0.004115 -0.001107
# 4 0.010400 -0.009890 0.008582 0.069635 -0.008041 0.009821
# 5 -0.000402 0.000309 -0.004115 -0.008041 0.020532 0.000741
# 6 0.004890 -0.001610 -0.001107 0.009821 0.000741 0.040133
#
#
# Mechanical properties :
#
#
# Convention : Reuss Voigt Hill
#
# Bulk Modulus (GPa) = 32.20937 38.01707 35.11322
# Shear Modulus (GPa) = 25.56446 35.23467 30.39956
#
# Velocity S-wave (km/s) = 3.25549 3.82193 3.55002
# Velocity P-wave (km/s) = 5.24251 5.93606 5.60003
#
# Compressibility (1/GPa) = 0.03104687
#
# Stress axis : x y z
#
# Youngs Moduli (GPa) = 87.88184 53.49186 77.41195
#
# Poissons Ratio (x) = 0.18063 0.08909
# Poissons Ratio (y) = 0.29676 0.11182
# Poissons Ratio (z) = 0.10114 0.07727
#
# Static dielectric constant tensor:
#      x y z
#    x 1.909510 0.053150 -0.002070 
#    y 0.053150 1.931990 0.132810 
#    z -0.002070 0.132810 1.936730 
# 
# From -- ./inp_files/519358.got.cif
#   From: 2010.05.17/outbox.cif.g08.bks.cpg/sg2_260_cif.got.tgz:519358.got - 2010.06.03 11:33:40.
