data_PCOD9069181
_publ_section_title
;
Structure prediction by ZEFSAII (Michael W. Deem and Ramdas Pophale) SiO2 
 PCOD9069181
Probable space group: P -1
;
_chemical_formula_sum "Si O2"
_cell_formula_units_Z 16
_cell_length_a 14.888419
_cell_length_b 12.230353
_cell_length_c 9.746910
_cell_angle_alpha 66.666916
_cell_angle_beta 124.966913
_cell_angle_gamma 65.455839
_cell_volume 695.451965
_symmetry_space_group_name_H-M "P -1"
_symmetry_group_IT_number 2
_symmetry_cell_setting 'triclinic'
loop_
_space_group_symop_operation_xyz
x,y,z
-x,-y,-z
loop_
_atom_site_type_symbol
_atom_site_label
_atom_site_fract_x
_atom_site_fract_y
_atom_site_fract_z
Si Si1 0.518131 0.718990 0.812844
Si Si2 0.106331 0.793318 0.612255
Si Si3 0.204150 0.318881 0.867502
Si Si4 0.637738 0.075819 0.724412
Si Si5 0.614325 0.628028 0.399695
Si Si6 0.091013 0.421566 0.269105
Si Si7 0.743964 0.981008 0.323504
Si Si8 0.059026 0.833746 0.227057
O O1 0.443612 0.845276 0.541687
O O2 0.325196 0.882691 0.668375
O O3 0.653480 0.474359 0.024877
O O4 0.668283 0.677217 0.040985
O O5 0.081071 0.837969 0.405740
O O6 0.000000 0.000000 0.500000
O O7 0.964537 0.815758 0.533266
O O8 0.000000 0.500000 0.500000
O O9 0.105518 0.408665 0.887056
O O10 0.349412 0.066087 0.121777
O O11 0.487680 0.296565 0.577918
O O12 0.871721 0.911477 0.012500
O O13 0.784819 0.573704 0.594126
O O14 0.729991 0.413728 0.531794
O O15 0.427158 0.840199 0.031369
O O16 0.240432 0.170843 0.548885
O O17 0.000000 0.500000 0.000000
O O18 0.000000 0.000000 0.000000
#
# Coordination Sequence:
#
# PCOD9069181 Si02
#       8
#     2   2   2   2   2   2   2   2
#     4  12  26  45  73 109 146 186 236 293 356 427
#     4  12  29  51  75 103 140 187 244 301 356 421
#     4  12  22  44  74 103 150 190 230 289 356 426
#     4  12  26  45  73 109 146 186 236 293 356 427
#     4  12  25  47  73 105 146 191 235 286 361 426
#     4  12  24  40  74 109 149 189 229 287 355 419
#     4  12  25  47  73 105 146 191 235 286 361 426
#     4  12  29  51  75 103 140 187 244 301 356 421
#
# _framework density 23.006623000000001
#
# number of rings (size 3 to 8) (size 9 to 14) (size 15 to 20)
#    0.000    0.000    5.000    5.250    3.500    2.000 
#    0.000    0.000    0.000    0.000    0.000    0.000 
#    0.000    0.000    0.000    0.000    0.000    0.000 
#
# Total GULP energy -89624.830197 kJ/mol
# GULP energy per Si atom -5601.551887 kJ/mol
# Density = 2.295426 g / cm^3
# Si number density = 23.006623 Si / 1000 Ang^3
#
#
#
# Elastic Constant Matrix: (Units=GPa)
#
#
# Indices 1 2 3 4 5 6 
#
# 1 50.3228 17.4103 4.2135 0.3441 -11.7241 -27.1094
# 2 17.4103 139.8649 36.9302 -15.2171 -16.3657 -32.1093
# 3 4.2135 36.9302 59.8012 -6.8916 -20.4703 -0.8130
# 4 0.3441 -15.2171 -6.8916 40.2370 -5.6755 1.7763
# 5 -11.7241 -16.3657 -20.4703 -5.6755 36.2507 -5.0480
# 6 -27.1094 -32.1093 -0.8130 1.7763 -5.0480 47.5896
#
#
#
# Elastic Compliance Matrix: (Units=1/GPa)
#
#
# Indices 1 2 3 4 5 6 
#
# 1 0.035964 0.002834 0.002575 0.002696 0.018166 0.024269
# 2 0.002834 0.011278 -0.004826 0.003725 0.005196 0.009553
# 3 0.002575 -0.004826 0.024498 0.004206 0.013127 -0.000136
# 4 0.002696 0.003725 0.004206 0.028175 0.009914 0.004121
# 5 0.018166 0.005196 0.013127 0.009914 0.047381 0.018735
# 6 0.024269 0.009553 -0.000136 0.004121 0.018735 0.043115
#
#
# Mechanical properties :
#
#
# Convention : Reuss Voigt Hill
#
# Bulk Modulus (GPa) = 13.71663 40.78856 27.25260
# Shear Modulus (GPa) = 23.41416 37.57778 30.49597
#
# Velocity S-wave (km/s) = 3.19362 4.04585 3.64473
# Velocity P-wave (km/s) = 4.42425 6.29228 5.43906
#
# Compressibility (1/GPa) = 0.07290418
#
# Stress axis : x y z
#
# Youngs Moduli (GPa) = 27.80590 88.66887 40.82045
#
# Poissons Ratio (x) = -0.25128 -0.10512
# Poissons Ratio (y) = -0.07880 0.19702
# Poissons Ratio (z) = -0.07160 0.42796
#
# Static dielectric constant tensor:
#      x y z
#    x 1.854970 0.038860 0.004600 
#    y 0.038860 1.913210 -0.052680 
#    z 0.004600 -0.052680 1.834290 
# 
# From -- ./inp_files/245875.got.cif
#   From: 2010.05.17/outbox.cif.g08.bks.cpg/sg2_123_cif.got.tgz:245875.got - 2010.06.03 11:33:40.
