data_PCOD9069639
_publ_section_title
;
Structure prediction by ZEFSAII (Michael W. Deem and Ramdas Pophale) SiO2 
 PCOD9069639
Probable space group: P -1
;
_chemical_formula_sum "Si O2"
_cell_formula_units_Z 14
_cell_length_a 15.175527
_cell_length_b 8.691239
_cell_length_c 8.213796
_cell_angle_alpha 33.746675
_cell_angle_beta 83.612269
_cell_angle_gamma 72.163376
_cell_volume 551.421479
_symmetry_space_group_name_H-M "P -1"
_symmetry_group_IT_number 2
_symmetry_cell_setting 'triclinic'
loop_
_space_group_symop_operation_xyz
x,y,z
-x,-y,-z
loop_
_atom_site_type_symbol
_atom_site_label
_atom_site_fract_x
_atom_site_fract_y
_atom_site_fract_z
Si Si1 0.772927 0.586303 0.324451
Si Si2 0.760975 0.827837 0.762394
Si Si3 0.287934 0.789386 0.071562
Si Si4 0.012103 0.776226 0.343102
Si Si5 0.838610 0.191645 0.224888
Si Si6 0.500636 0.300900 0.824209
Si Si7 0.562909 0.206656 0.343014
O O1 0.717125 0.432236 0.586728
O O2 0.880842 0.345944 0.500269
O O3 0.731695 0.751610 0.014968
O O4 0.777146 0.868943 0.173431
O O5 0.805602 0.072621 0.499489
O O6 0.667775 0.943004 0.564286
O O7 0.842753 0.512063 0.971142
O O8 0.394933 0.785611 0.036392
O O9 0.245536 0.730139 0.964007
O O10 0.000000 0.500000 0.500000
O O11 0.933374 0.945107 0.345934
O O12 0.000000 0.000000 0.000000
O O13 0.500000 0.500000 0.500000
O O14 0.423635 0.572854 0.706571
O O15 0.500000 0.000000 0.000000
O O16 0.500000 0.000000 0.500000
O O17 0.500000 0.500000 0.000000
#
# Coordination Sequence:
#
# PCOD9069639 Si02
#       7
#     2   2   2   2   2   2   2
#     4  12  25  45  72 106 150 190 240 316 376 448
#     4  12  27  45  70 109 148 191 248 308 387 438
#     4  12  24  44  73 104 138 200 252 300 374 449
#     4  12  23  46  73 109 145 188 250 304 377 449
#     4  12  25  45  74 106 144 194 250 306 364 467
#     4  12  26  44  70 107 146 189 254 321 372 440
#     4  12  26  49  73 103 151 203 250 314 381 457
#
# _framework density 25.388926999999999
#
# number of rings (size 3 to 8) (size 9 to 14) (size 15 to 20)
#    0.000    0.000    2.857    7.714    0.000    3.429 
#    0.000    0.000    0.000    0.000    0.000    0.000 
#    0.000    0.000    0.000    0.000    0.000    0.000 
#
# Total GULP energy -78012.973869 kJ/mol
# GULP energy per Si atom -5572.355276 kJ/mol
# Density = 2.533114 g / cm^3
# Si number density = 25.388927 Si / 1000 Ang^3
#
#
#
# Elastic Constant Matrix: (Units=GPa)
#
#
# Indices 1 2 3 4 5 6 
#
# 1 80.5098 17.6933 49.3218 -2.0542 -2.1234 -3.4742
# 2 17.6933 92.5296 44.2338 -23.3284 -11.3253 -0.8207
# 3 49.3218 44.2338 214.1468 -16.0730 -18.5586 -1.1461
# 4 -2.0542 -23.3284 -16.0730 55.2472 5.2941 0.6626
# 5 -2.1234 -11.3253 -18.5586 5.2941 47.0969 -9.7080
# 6 -3.4742 -0.8207 -1.1461 0.6626 -9.7080 34.5718
#
#
#
# Elastic Compliance Matrix: (Units=1/GPa)
#
#
# Indices 1 2 3 4 5 6 
#
# 1 0.014735 -0.001617 -0.003183 -0.001016 -0.000621 0.001182
# 2 -0.001617 0.013495 -0.001871 0.004895 0.002001 0.000564
# 3 -0.003183 -0.001871 0.005993 0.000663 0.001759 0.000316
# 4 -0.001016 0.004895 0.000663 0.020430 -0.001037 -0.000647
# 5 -0.000621 0.002001 0.001759 -0.001037 0.023891 0.006772
# 6 0.001182 0.000564 0.000316 -0.000647 0.006772 0.030982
#
#
# Mechanical properties :
#
#
# Convention : Reuss Voigt Hill
#
# Bulk Modulus (GPa) = 47.89369 67.74268 57.81819
# Shear Modulus (GPa) = 38.51156 45.77899 42.14527
#
# Velocity S-wave (km/s) = 3.89892 4.25091 4.07871
# Velocity P-wave (km/s) = 6.25889 7.12976 6.70847
#
# Compressibility (1/GPa) = 0.02087958
#
# Stress axis : x y z
#
# Youngs Moduli (GPa) = 67.86444 74.09996 166.85412
#
# Poissons Ratio (x) = 0.11985 0.53117
# Poissons Ratio (y) = 0.10977 0.31221
# Poissons Ratio (z) = 0.21604 0.13865
#
# Static dielectric constant tensor:
#      x y z
#    x 2.052010 -0.089690 -0.043290 
#    y -0.089690 2.196660 0.036970 
#    z -0.043290 0.036970 1.853420 
# 
# From -- ./inp_files/293720.got.cif
#   From: 2010.05.17/outbox.cif.g08.bks.cpg/sg2_147_cif.got.tgz:293720.got - 2010.06.03 11:33:40.
