data_PCOD9069039
_publ_section_title
;
Structure prediction by ZEFSAII (Michael W. Deem and Ramdas Pophale) SiO2 
 PCOD9069039
Probable space group: P -1
;
_chemical_formula_sum "Si O2"
_cell_formula_units_Z 16
_cell_length_a 17.989046
_cell_length_b 11.849269
_cell_length_c 29.637026
_cell_angle_alpha 159.934417
_cell_angle_beta 161.252246
_cell_angle_gamma 28.446600
_cell_volume 693.636019
_symmetry_space_group_name_H-M "P -1"
_symmetry_group_IT_number 2
_symmetry_cell_setting 'triclinic'
loop_
_space_group_symop_operation_xyz
x,y,z
-x,-y,-z
loop_
_atom_site_type_symbol
_atom_site_label
_atom_site_fract_x
_atom_site_fract_y
_atom_site_fract_z
Si Si1 0.366650 0.822591 0.058341
Si Si2 0.461810 0.849750 0.372416
Si Si3 0.549975 0.154590 0.201312
Si Si4 0.306443 0.865754 0.874379
Si Si5 0.903024 0.049793 0.873461
Si Si6 0.483092 0.110640 0.333097
Si Si7 0.056986 0.161254 0.471038
Si Si8 0.932579 0.211042 0.749122
O O1 0.445429 0.095843 0.168301
O O2 0.420604 0.973188 0.195594
O O3 0.500000 0.500000 0.000000
O O4 0.084516 0.773016 0.874881
O O5 0.481552 0.465160 0.249106
O O6 0.233870 0.929196 0.244456
O O7 0.500000 0.000000 0.500000
O O8 0.678255 0.024559 0.535038
O O9 0.827112 0.199029 0.381538
O O10 0.435413 0.852696 0.991463
O O11 0.177474 0.511511 0.654852
O O12 0.095122 0.098508 0.840258
O O13 0.500000 0.000000 0.000000
O O14 0.712775 0.030830 0.796821
O O15 0.053257 0.399566 0.097724
O O16 0.500000 0.500000 0.500000
O O17 0.737804 0.003460 0.448943
O O18 0.963551 0.930991 0.289695
#
# Coordination Sequence:
#
# PCOD9069039 Si02
#       8
#     2   2   2   2   2   2   2   2
#     4  12  31  53  79 113 156 211 266 328 388 447
#     4  12  27  45  76 114 152 197 248 321 402 469
#     4  12  27  46  73 118 158 198 252 323 399 465
#     4  12  22  40  71 113 158 195 245 308 390 471
#     4  12  28  52  82 111 156 205 262 324 388 473
#     4  12  29  54  81 110 149 216 277 319 377 462
#     4  12  25  43  77 111 153 202 258 318 382 460
#     4  12  23  43  74 114 154 198 248 309 393 473
#
# _framework density 23.066852999999998
#
# number of rings (size 3 to 8) (size 9 to 14) (size 15 to 20)
#    0.000    0.000    5.000    4.500    7.000    2.500 
#    0.000    0.000    0.000    0.000    0.000    0.000 
#    0.000    0.000    0.000    0.000    0.000    0.000 
#
# Total GULP energy -89500.874396 kJ/mol
# GULP energy per Si atom -5593.804650 kJ/mol
# Density = 2.301435 g / cm^3
# Si number density = 23.066853 Si / 1000 Ang^3
#
#
#
# Elastic Constant Matrix: (Units=GPa)
#
#
# Indices 1 2 3 4 5 6 
#
# 1 133.7040 36.1382 42.5353 -16.3845 -17.0907 4.2258
# 2 36.1382 142.1733 58.8058 -28.9179 -13.2623 -2.4760
# 3 42.5353 58.8058 102.9556 -11.8872 -7.6506 -3.0146
# 4 -16.3845 -28.9179 -11.8872 46.7832 -2.1744 -2.0165
# 5 -17.0907 -13.2623 -7.6506 -2.1744 25.8651 0.0373
# 6 4.2258 -2.4760 -3.0146 -2.0165 0.0373 27.3974
#
#
#
# Elastic Compliance Matrix: (Units=1/GPa)
#
#
# Indices 1 2 3 4 5 6 
#
# 1 0.009633 -0.000054 -0.003270 0.002698 0.005600 -0.001659
# 2 -0.000054 0.010713 -0.005104 0.005546 0.004413 0.000817
# 3 -0.003270 -0.005104 0.013884 -0.000741 -0.000736 0.001517
# 4 0.002698 0.005546 -0.000741 0.025948 0.006586 0.001904
# 5 0.005600 0.004413 -0.000736 0.006586 0.044961 -0.000122
# 6 -0.001659 0.000817 0.001517 0.001904 -0.000122 0.037137
#
#
# Mechanical properties :
#
#
# Convention : Reuss Voigt Hill
#
# Bulk Modulus (GPa) = 57.56138 72.64349 65.10243
# Shear Modulus (GPa) = 30.31734 36.09938 33.20836
#
# Velocity S-wave (km/s) = 3.62930 3.96029 3.79840
# Velocity P-wave (km/s) = 6.52462 7.24381 6.89360
#
# Compressibility (1/GPa) = 0.01737276
#
# Stress axis : x y z
#
# Youngs Moduli (GPa) = 103.81106 93.34851 72.02777
#
# Poissons Ratio (x) = 0.00501 0.23553
# Poissons Ratio (y) = 0.00558 0.36766
# Poissons Ratio (z) = 0.33946 0.47649
#
# Static dielectric constant tensor:
#      x y z
#    x 1.702440 -0.085010 -0.448770 
#    y -0.085010 1.964300 -0.004510 
#    z -0.448770 -0.004510 1.207220 
# 
# From -- ./inp_files/623854.got.cif
#   From: 2010.05.17/outbox.cif.g08.bks.cpg/sg2_312_cif.got.tgz:623854.got - 2010.06.03 11:33:40.
