data_PCOD9069549
_publ_section_title
;
Structure prediction by ZEFSAII (Michael W. Deem and Ramdas Pophale) SiO2 
 PCOD9069549
Probable space group: P -1
;
_chemical_formula_sum "Si O2"
_cell_formula_units_Z 16
_cell_length_a 11.026172
_cell_length_b 8.275227
_cell_length_c 14.118481
_cell_angle_alpha 75.952875
_cell_angle_beta 32.097595
_cell_angle_gamma 89.955600
_cell_volume 609.362781
_symmetry_space_group_name_H-M "P -1"
_symmetry_group_IT_number 2
_symmetry_cell_setting 'triclinic'
loop_
_space_group_symop_operation_xyz
x,y,z
-x,-y,-z
loop_
_atom_site_type_symbol
_atom_site_label
_atom_site_fract_x
_atom_site_fract_y
_atom_site_fract_z
Si Si1 0.772688 0.281520 0.504443
Si Si2 0.898183 0.344553 0.840540
Si Si3 0.496800 0.722076 0.039204
Si Si4 0.216022 0.330354 0.328952
Si Si5 0.980076 0.899229 0.788158
Si Si6 0.245680 0.975788 0.874859
Si Si7 0.597838 0.791070 0.596124
Si Si8 0.809842 0.541280 0.053721
O O1 0.858108 0.487312 0.380696
O O2 0.932086 0.286967 0.493440
O O3 0.884125 0.181450 0.368178
O O4 0.480499 0.161423 0.719998
O O5 0.796604 0.450009 0.971189
O O6 0.735391 0.272869 0.864124
O O7 0.859029 0.167291 0.950629
O O8 0.653808 0.691373 0.851357
O O9 0.713314 0.881302 0.927391
O O10 0.370485 0.545286 0.214831
O O11 0.256025 0.206087 0.401995
O O12 0.907183 0.753108 0.940612
O O13 0.195214 0.096424 0.631132
O O14 0.392093 0.878177 0.728268
O O15 0.000000 0.000000 0.000000
O O16 0.448058 0.578400 0.708782
O O17 0.000000 0.500000 0.000000
#
# Coordination Sequence:
#
# PCOD9069549 Si02
#       8
#     2   2   2   2   2   2   2   2
#     4   8  17  26  41  64  86 115 138 169 215 263
#     4   9  17  30  43  63  87 120 140 172 218 247
#     4   9  13  24  44  64  88 109 135 165 219 278
#     4   9  13  23  42  63  86 109 136 163 216 273
#     4   9  17  25  42  66  86 116 139 164 220 269
#     4  10  19  28  39  59  90 121 151 168 200 261
#     4  10  18  29  43  64  88 120 142 172 220 248
#     4  10  18  30  41  58  91 121 148 173 203 258
#
# _framework density 26.256936
#
# number of rings (size 3 to 8) (size 9 to 14) (size 15 to 20)
#    0.000    2.750    3.750    1.500    1.750    2.500 
#    0.000    0.000    0.000    0.000    0.000    0.000 
#    0.000    8.000    0.000    1.500    0.000    0.000 
#
# Total GULP energy -89335.692841 kJ/mol
# GULP energy per Si atom -5583.480803 kJ/mol
# Density = 2.619717 g / cm^3
# Si number density = 26.256936 Si / 1000 Ang^3
#
#
#
# Elastic Constant Matrix: (Units=GPa)
#
#
# Indices 1 2 3 4 5 6 
#
# 1 72.9683 47.2927 49.7101 -16.2809 -29.8213 -18.9045
# 2 47.2927 75.8863 107.7544 -20.7471 -3.2416 -10.9158
# 3 49.7101 107.7544 194.2576 -44.1203 -41.8401 -7.0605
# 4 -16.2809 -20.7471 -44.1203 65.4266 4.1114 20.6689
# 5 -29.8213 -3.2416 -41.8401 4.1114 35.8404 4.0170
# 6 -18.9045 -10.9158 -7.0605 20.6689 4.0170 34.2014
#
#
#
# Elastic Compliance Matrix: (Units=1/GPa)
#
#
# Indices 1 2 3 4 5 6 
#
# 1 0.004527 0.027438 -0.022078 -0.008231 -0.020156 0.014043
# 2 0.027438 -0.036399 0.026099 0.010873 0.049140 -0.003406
# 3 -0.022078 0.026099 -0.010015 -0.001720 -0.027314 -0.001694
# 4 -0.008231 0.010873 -0.001720 0.020026 -0.008769 -0.012507
# 5 -0.020156 0.049140 -0.027314 -0.008769 -0.015987 0.006081
# 6 0.014043 -0.003406 -0.001694 -0.012507 0.006081 0.042408
#
#
# Mechanical properties :
#
#
# Convention : Reuss Voigt Hill
#
# Bulk Modulus (GPa) = 47.55191 83.62518 65.58855
# Shear Modulus (GPa) = -97.37949 36.31736 -30.53107
#
# Velocity S-wave (km/s) = -6.09653 3.72311 -3.41366
# Velocity P-wave (km/s) = 5.60422 7.09930 3.08161
#
# Compressibility (1/GPa) = 0.02102965
#
# Stress axis : x y z
#
# Youngs Moduli (GPa) = 220.91310 -27.47342 -99.85461
#
# Poissons Ratio (x) = 0.75381 -2.20463
# Poissons Ratio (y) = -6.06133 2.60609
# Poissons Ratio (z) = 4.87740 0.71703
#
# Static dielectric constant tensor:
#      x y z
#    x 2.076300 0.024360 -0.034100 
#    y 0.024360 2.180140 0.016100 
#    z -0.034100 0.016100 2.037730 
# 
# From -- ./inp_files/283982.got.cif
#   From: 2010.05.17/outbox.cif.g08.bks.cpg/sg2_142_cif.got.tgz:283982.got - 2010.06.03 11:33:40.
