data_PCOD9069030
_publ_section_title
;
Structure prediction by ZEFSAII (Michael W. Deem and Ramdas Pophale) SiO2 
 PCOD9069030
Probable space group: P -1
;
_chemical_formula_sum "Si O2"
_cell_formula_units_Z 16
_cell_length_a 7.902176
_cell_length_b 22.369691
_cell_length_c 14.700295
_cell_angle_alpha 147.958453
_cell_angle_beta 50.264734
_cell_angle_gamma 147.836214
_cell_volume 705.106758
_symmetry_space_group_name_H-M "P -1"
_symmetry_group_IT_number 2
_symmetry_cell_setting 'triclinic'
loop_
_space_group_symop_operation_xyz
x,y,z
-x,-y,-z
loop_
_atom_site_type_symbol
_atom_site_label
_atom_site_fract_x
_atom_site_fract_y
_atom_site_fract_z
Si Si1 0.896715 0.024173 0.178807
Si Si2 0.193403 0.789938 0.022898
Si Si3 0.783131 0.481861 0.125651
Si Si4 0.844559 0.817371 0.326367
Si Si5 0.967283 0.807769 0.951134
Si Si6 0.882506 0.150266 0.533957
Si Si7 0.894048 0.449100 0.717970
Si Si8 0.870306 0.676114 0.623783
O O1 0.541187 0.890289 0.078476
O O2 0.891626 0.077872 0.348892
O O3 0.021878 0.947553 0.061829
O O4 0.094098 0.187733 0.259434
O O5 0.004500 0.792855 0.167626
O O6 0.223156 0.871957 0.024961
O O7 0.982792 0.596558 0.823595
O O8 0.389331 0.327223 0.047657
O O9 0.953524 0.668504 0.313607
O O10 0.832203 0.449501 0.166618
O O11 0.000000 0.500000 0.000000
O O12 0.450895 0.670926 0.265579
O O13 0.918631 0.811039 0.395943
O O14 0.000000 0.000000 0.500000
O O15 0.934765 0.708676 0.751048
O O16 0.500000 0.000000 0.500000
O O17 0.903190 0.335635 0.513335
O O18 0.500000 0.500000 0.500000
#
# Coordination Sequence:
#
# PCOD9069030 Si02
#       8
#     2   2   2   2   2   2   2   2
#     4  12  24  47  72 105 145 183 242 297 357 431
#     4  12  25  46  70 107 147 182 239 297 358 434
#     4  12  22  42  69 103 137 180 236 286 361 425
#     4  12  24  42  67 107 147 181 237 296 360 433
#     4  12  26  46  73 104 139 196 237 293 363 419
#     4  12  22  40  69 101 141 188 227 288 367 426
#     4  12  24  44  70 102 142 189 232 300 358 416
#     4  12  25  49  74 100 141 192 248 295 352 426
#
# _framework density 22.691597999999999
#
# number of rings (size 3 to 8) (size 9 to 14) (size 15 to 20)
#    0.000    0.000    5.000    6.000    0.000    1.000 
#    0.000    1.250    0.000    0.000    0.000    0.000 
#    0.000    0.000    0.000    0.000    0.000    0.000 
#
# Total GULP energy -89534.822160 kJ/mol
# GULP energy per Si atom -5595.926385 kJ/mol
# Density = 2.263995 g / cm^3
# Si number density = 22.691598 Si / 1000 Ang^3
#
#
#
# Elastic Constant Matrix: (Units=GPa)
#
#
# Indices 1 2 3 4 5 6 
#
# 1 133.1750 24.0517 44.8156 -3.4946 3.4301 -22.5965
# 2 24.0517 73.8297 33.4732 1.6119 -10.7802 -16.6575
# 3 44.8156 33.4732 110.7475 -6.7309 -6.8089 -17.7902
# 4 -3.4946 1.6119 -6.7309 61.1961 -15.1064 8.9066
# 5 3.4301 -10.7802 -6.8089 -15.1064 41.9641 -1.4810
# 6 -22.5965 -16.6575 -17.7902 8.9066 -1.4810 33.4594
#
#
#
# Elastic Compliance Matrix: (Units=1/GPa)
#
#
# Indices 1 2 3 4 5 6 
#
# 1 0.009461 -0.000943 -0.002973 -0.000818 -0.001634 0.004485
# 2 -0.000943 0.017602 -0.003698 -0.000919 0.003900 0.006577
# 3 -0.002973 -0.003698 0.011895 0.001359 0.001790 0.002193
# 4 -0.000818 -0.000919 0.001359 0.018840 0.006657 -0.005008
# 5 -0.001634 0.003900 0.001790 0.006657 0.027696 0.001244
# 6 0.004485 0.006577 0.002193 -0.005008 0.001244 0.038744
#
#
# Mechanical properties :
#
#
# Convention : Reuss Voigt Hill
#
# Bulk Modulus (GPa) = 42.14140 58.04813 50.09476
# Shear Modulus (GPa) = 33.92638 41.68469 37.80553
#
# Velocity S-wave (km/s) = 3.87086 4.29068 4.08617
# Velocity P-wave (km/s) = 6.21206 7.08403 6.66233
#
# Compressibility (1/GPa) = 0.02372963
#
# Stress axis : x y z
#
# Youngs Moduli (GPa) = 105.69239 56.81166 84.06592
#
# Poissons Ratio (x) = 0.05358 0.24997
# Poissons Ratio (y) = 0.09968 0.31088
# Poissons Ratio (z) = 0.31427 0.21009
#
# Static dielectric constant tensor:
#      x y z
#    x 2.756930 -0.421600 -0.051980 
#    y -0.421600 1.837260 -0.163370 
#    z -0.051980 -0.163370 1.701340 
# 
# From -- ./inp_files/428004.got.cif
#   From: 2010.05.17/outbox.cif.g08.bks.cpg/sg2_215_cif.got.tgz:428004.got - 2010.06.03 11:33:40.
