data_PCOD9069243
_publ_section_title
;
Structure prediction by ZEFSAII (Michael W. Deem and Ramdas Pophale) SiO2 
 PCOD9069243
Probable space group: P -1
;
_chemical_formula_sum "Si O2"
_cell_formula_units_Z 13
_cell_length_a 8.524708
_cell_length_b 11.777255
_cell_length_c 9.227024
_cell_angle_alpha 48.948930
_cell_angle_beta 79.812395
_cell_angle_gamma 50.750722
_cell_volume 493.766376
_symmetry_space_group_name_H-M "P -1"
_symmetry_group_IT_number 2
_symmetry_cell_setting 'triclinic'
loop_
_space_group_symop_operation_xyz
x,y,z
-x,-y,-z
loop_
_atom_site_type_symbol
_atom_site_label
_atom_site_fract_x
_atom_site_fract_y
_atom_site_fract_z
Si Si1 0.357960 0.112542 0.286277
Si Si2 0.867011 0.953683 0.142954
Si Si3 0.000000 0.500000 0.000000
Si Si4 0.228243 0.812066 0.539703
Si Si5 0.422908 0.880429 0.210448
Si Si6 0.154354 0.549407 0.644703
Si Si7 0.512993 0.314207 0.129970
O O1 0.310263 0.331423 0.112014
O O2 0.500000 0.000000 0.500000
O O3 0.474563 0.970682 0.247681
O O4 0.101275 0.253666 0.183799
O O5 0.003041 0.743353 0.392970
O O6 0.696491 0.144600 0.125083
O O7 0.730854 0.966833 0.023792
O O8 0.000000 0.000000 0.000000
O O9 0.030157 0.510843 0.798126
O O10 0.277222 0.852159 0.343761
O O11 0.256800 0.615601 0.674369
O O12 0.403867 0.778467 0.644024
O O13 0.000000 0.000000 0.500000
O O14 0.642543 0.660501 0.295995
O O15 0.500000 0.500000 0.000000
#
# Coordination Sequence:
#
# PCOD9069243 Si02
#       7
#     2   2   1   2   2   2   2
#     4  12  27  52  79 113 161 215 267 338 407 484
#     4  12  26  47  79 119 160 204 270 336 407 476
#     4  12  28  50  76 112 162 212 272 316 406 482
#     4  12  22  47  80 113 157 209 266 329 395 483
#     4  12  27  49  81 117 165 208 270 343 408 480
#     4  12  27  49  81 120 163 214 269 337 403 482
#     4  12  26  46  77 112 155 210 271 326 405 487
#
# _framework density 26.328240999999998
#
# number of rings (size 3 to 8) (size 9 to 14) (size 15 to 20)
#    0.000    0.000    4.615    5.077    2.154    4.923 
#    0.000    2.308    0.000    0.000    0.000    0.000 
#    0.000    0.000    0.000    0.000    0.000    0.000 
#
# Total GULP energy -72527.201671 kJ/mol
# GULP energy per Si atom -5579.015513 kJ/mol
# Density = 2.626832 g / cm^3
# Si number density = 26.328241 Si / 1000 Ang^3
#
#
#
# Elastic Constant Matrix: (Units=GPa)
#
#
# Indices 1 2 3 4 5 6 
#
# 1 130.8977 82.0015 76.9303 9.0582 -7.5689 17.8523
# 2 82.0015 245.0477 76.6138 3.4459 -0.3897 2.2284
# 3 76.9303 76.6138 210.3362 20.3456 17.8136 -4.4351
# 4 9.0582 3.4459 20.3456 54.2145 -1.2635 -3.9254
# 5 -7.5689 -0.3897 17.8136 -1.2635 46.5461 16.2448
# 6 17.8523 2.2284 -4.4351 -3.9254 16.2448 65.7358
#
#
#
# Elastic Compliance Matrix: (Units=1/GPa)
#
#
# Indices 1 2 3 4 5 6 
#
# 1 0.013027 -0.002987 -0.004183 -0.000660 0.005459 -0.005107
# 2 -0.002987 0.005335 -0.000858 0.000524 -0.000338 0.000687
# 3 -0.004183 -0.000858 0.007206 -0.001863 -0.004414 0.002631
# 4 -0.000660 0.000524 -0.001863 0.019312 0.000787 0.000994
# 5 0.005459 -0.000338 -0.004414 0.000787 0.027010 -0.008396
# 6 -0.005107 0.000687 0.002631 0.000994 -0.008396 0.018888
#
#
# Mechanical properties :
#
#
# Convention : Reuss Voigt Hill
#
# Bulk Modulus (GPa) = 105.13240 117.48585 111.30912
# Shear Modulus (GPa) = 45.45311 56.68169 51.06740
#
# Velocity S-wave (km/s) = 4.15951 4.64495 4.40892
# Velocity P-wave (km/s) = 7.94272 8.57250 8.26361
#
# Compressibility (1/GPa) = 0.00951182
#
# Stress axis : x y z
#
# Youngs Moduli (GPa) = 76.76446 187.45708 138.76975
#
# Poissons Ratio (x) = 0.55996 0.58043
# Poissons Ratio (y) = 0.22931 0.11907
# Poissons Ratio (z) = 0.32108 0.16085
#
# Static dielectric constant tensor:
#      x y z
#    x 2.285930 -0.101600 -0.019280 
#    y -0.101600 2.114840 -0.159330 
#    z -0.019280 -0.159330 2.445750 
# 
# From -- ./inp_files/184034.got.cif
#   From: 2010.05.17/outbox.cif.g08.bks.cpg/sg2_93_cif.got.tgz:184034.got - 2010.06.03 11:33:40.
