data_PCOD9069271
_publ_section_title
;
Structure prediction by ZEFSAII (Michael W. Deem and Ramdas Pophale) SiO2 
 PCOD9069271
Probable space group: P -1
;
_chemical_formula_sum "Si O2"
_cell_formula_units_Z 16
_cell_length_a 10.414493
_cell_length_b 10.242094
_cell_length_c 11.008772
_cell_angle_alpha 102.989665
_cell_angle_beta 76.314598
_cell_angle_gamma 59.453508
_cell_volume 895.171228
_symmetry_space_group_name_H-M "P -1"
_symmetry_group_IT_number 2
_symmetry_cell_setting 'triclinic'
loop_
_space_group_symop_operation_xyz
x,y,z
-x,-y,-z
loop_
_atom_site_type_symbol
_atom_site_label
_atom_site_fract_x
_atom_site_fract_y
_atom_site_fract_z
Si Si1 0.355330 0.401186 0.658848
Si Si2 0.178785 0.762373 0.658096
Si Si3 0.878078 0.033086 0.925736
Si Si4 0.373988 0.034397 0.930656
Si Si5 0.696187 0.392653 0.925732
Si Si6 0.663122 0.395723 0.658093
Si Si7 0.485826 0.757661 0.658844
Si Si8 0.195355 0.396257 0.930662
O O1 0.238805 0.592439 0.679156
O O2 0.514288 0.377927 0.678192
O O3 0.419874 0.287354 0.500003
O O4 0.262775 0.369864 0.772751
O O5 0.209848 0.718033 0.500002
O O6 0.307518 0.800270 0.678196
O O7 0.996267 0.909890 0.766726
O O8 0.777048 0.222957 0.945908
O O9 0.755392 0.992900 0.990441
O O10 0.000000 0.000000 0.000000
O O11 0.280295 0.219698 0.939403
O O12 0.464485 0.902885 0.772744
O O13 0.500000 0.000000 0.000000
O O14 0.737006 0.356833 0.766723
O O15 0.500000 0.500000 0.000000
O O16 0.754167 0.497549 0.990429
O O17 0.582044 0.586716 0.679153
O O18 0.000000 0.500000 0.000000
#
# Coordination Sequence:
#
# PCOD9069271 Si02
#       8
#     2   2   2   2   2   2   2   2
#     4   9  18  36  62  87 116 156 198 239 293 361
#     4   9  18  35  62  91 115 148 199 251 294 343
#     4  12  23  39  64  88 118 158 203 248 291 350
#     4  12  25  39  58  89 125 156 195 246 301 350
#     4  12  23  39  64  88 118 158 203 248 291 350
#     4   9  18  35  62  91 115 148 199 251 294 343
#     4   9  18  36  62  87 116 156 198 239 293 361
#     4  12  25  39  58  89 125 156 195 246 301 350
#
# _framework density 17.873677000000001
#
# number of rings (size 3 to 8) (size 9 to 14) (size 15 to 20)
#    0.000    1.500    2.500    6.000    0.000    1.000 
#    0.000    1.250    0.000    4.500    0.000    0.000 
#    0.000    0.000    0.000    0.000    0.000    0.000 
#
# Total GULP energy -89401.787001 kJ/mol
# GULP energy per Si atom -5587.611688 kJ/mol
# Density = 1.783300 g / cm^3
# Si number density = 17.873677 Si / 1000 Ang^3
#
#
#
# Elastic Constant Matrix: (Units=GPa)
#
#
# Indices 1 2 3 4 5 6 
#
# 1 117.9552 71.0488 70.7511 -0.4781 0.1241 3.1251
# 2 71.0488 142.9760 86.0349 -1.4647 1.5575 2.2368
# 3 70.7511 86.0349 135.6512 2.1067 0.9614 2.5716
# 4 -0.4781 -1.4647 2.1067 35.9899 -2.5649 0.8997
# 5 0.1241 1.5575 0.9614 -2.5649 22.3596 -0.0050
# 6 3.1251 2.2368 2.5716 0.8997 -0.0050 24.5730
#
#
#
# Elastic Compliance Matrix: (Units=1/GPa)
#
#
# Indices 1 2 3 4 5 6 
#
# 1 0.013669 -0.004035 -0.004561 0.000338 0.000440 -0.000906
# 2 -0.004035 0.012536 -0.005853 0.000764 -0.000511 -0.000043
# 3 -0.004561 -0.005853 0.013487 -0.001101 -0.000273 -0.000258
# 4 0.000338 0.000764 -0.001101 0.028141 0.003220 -0.001027
# 5 0.000440 -0.000511 -0.000273 0.003220 0.045138 -0.000089
# 6 -0.000906 -0.000043 -0.000258 -0.001027 -0.000089 0.040879
#
#
# Mechanical properties :
#
#
# Convention : Reuss Voigt Hill
#
# Bulk Modulus (GPa) = 92.65772 94.69468 93.67620
# Shear Modulus (GPa) = 26.83173 27.83435 27.33304
#
# Velocity S-wave (km/s) = 3.87872 3.95052 3.91478
# Velocity P-wave (km/s) = 8.48600 8.59673 8.54154
#
# Compressibility (1/GPa) = 0.01079241
#
# Stress axis : x y z
#
# Youngs Moduli (GPa) = 73.15771 79.77280 74.14336
#
# Poissons Ratio (x) = 0.32187 0.33820
# Poissons Ratio (y) = 0.29518 0.43400
# Poissons Ratio (z) = 0.33371 0.46695
#
# Static dielectric constant tensor:
#      x y z
#    x 1.600890 0.003870 0.002450 
#    y 0.003870 1.586770 -0.004420 
#    z 0.002450 -0.004420 1.636330 
# 
# From -- ./inp_files/319266.got.cif
#   From: 2010.05.17/outbox.cif.g08.bks.cpg/sg2_160_cif.got.tgz:319266.got - 2010.06.03 11:33:40.
