data_PCOD9069198
_publ_section_title
;
Structure prediction by ZEFSAII (Michael W. Deem and Ramdas Pophale) SiO2 
 PCOD9069198
Probable space group: P -1
;
_chemical_formula_sum "Si O2"
_cell_formula_units_Z 16
_cell_length_a 14.195696
_cell_length_b 14.608108
_cell_length_c 11.092848
_cell_angle_alpha 57.962038
_cell_angle_beta 149.465519
_cell_angle_gamma 141.115816
_cell_volume 659.205465
_symmetry_space_group_name_H-M "P -1"
_symmetry_group_IT_number 2
_symmetry_cell_setting 'triclinic'
loop_
_space_group_symop_operation_xyz
x,y,z
-x,-y,-z
loop_
_atom_site_type_symbol
_atom_site_label
_atom_site_fract_x
_atom_site_fract_y
_atom_site_fract_z
Si Si1 0.571306 0.431816 0.312858
Si Si2 0.299716 0.575445 0.265926
Si Si3 0.036626 0.886481 0.622493
Si Si4 0.605673 0.450564 0.860084
Si Si5 0.284326 0.048660 0.549421
Si Si6 0.202379 0.084442 0.051406
Si Si7 0.885349 0.375986 0.353138
Si Si8 0.412892 0.005877 0.178981
O O1 0.622683 0.430879 0.511389
O O2 0.350683 0.434312 0.075597
O O3 0.447530 0.272979 0.222171
O O4 0.862144 0.577659 0.464315
O O5 0.296781 0.489765 0.211826
O O6 0.532053 0.765716 0.353902
O O7 0.000000 0.500000 0.000000
O O8 0.728451 0.706288 0.395167
O O9 0.239225 0.957196 0.682387
O O10 0.000000 0.000000 0.500000
O O11 0.177159 0.905519 0.885768
O O12 0.749775 0.402553 0.092755
O O13 0.448173 0.050656 0.628786
O O14 0.980254 0.949545 0.236943
O O15 0.294173 0.004608 0.171281
O O16 0.000000 0.000000 0.000000
O O17 0.649078 0.193519 0.267363
O O18 0.000000 0.500000 0.500000
#
# Coordination Sequence:
#
# PCOD9069198 Si02
#       8
#     2   2   2   2   2   2   2   2
#     4  12  28  45  71 100 138 186 227 278 342 405
#     4  12  25  47  70 101 140 177 231 284 335 408
#     4  12  22  45  74 101 135 174 227 288 341 391
#     4  12  26  46  74  99 138 182 226 285 344 399
#     4  12  26  46  74 101 137 181 226 286 342 399
#     4  12  26  48  67 101 142 181 233 275 329 417
#     4  12  25  46  68 102 143 175 227 281 335 412
#     4  12  26  45  75 102 136 180 226 285 346 399
#
# _framework density 24.271643999999998
#
# number of rings (size 3 to 8) (size 9 to 14) (size 15 to 20)
#    0.000    0.000    7.500    1.500    3.500    2.000 
#    0.000    0.000    0.000    0.000    0.000    0.000 
#    0.000    0.000    0.000    0.000    0.000    0.000 
#
# Total GULP energy -89658.277445 kJ/mol
# GULP energy per Si atom -5603.642340 kJ/mol
# Density = 2.421640 g / cm^3
# Si number density = 24.271644 Si / 1000 Ang^3
#
#
#
# Elastic Constant Matrix: (Units=GPa)
#
#
# Indices 1 2 3 4 5 6 
#
# 1 164.0339 3.6018 8.8849 0.0786 18.8916 -11.2130
# 2 3.6018 23.1867 -3.8972 1.0740 -3.7768 -2.2815
# 3 8.8849 -3.8972 58.4058 4.1458 -2.6523 -1.4261
# 4 0.0786 1.0740 4.1458 24.5896 -7.8350 10.2919
# 5 18.8916 -3.7768 -2.6523 -7.8350 39.1195 -5.3260
# 6 -11.2130 -2.2815 -1.4261 10.2919 -5.3260 47.7837
#
#
#
# Elastic Compliance Matrix: (Units=1/GPa)
#
#
# Indices 1 2 3 4 5 6 
#
# 1 0.006701 -0.001613 -0.001151 -0.001474 -0.003577 0.001380
# 2 -0.001613 0.045271 0.003733 -0.002123 0.005380 0.002951
# 3 -0.001151 0.003733 0.017880 -0.003193 0.001668 0.001315
# 4 -0.001474 -0.002123 -0.003193 0.048213 0.008590 -0.009970
# 5 -0.003577 0.005380 0.001668 0.008590 0.029770 0.000935
# 6 0.001380 0.002951 0.001315 -0.009970 0.000935 0.023683
#
#
# Mechanical properties :
#
#
# Convention : Reuss Voigt Hill
#
# Bulk Modulus (GPa) = 13.92938 29.20061 21.56499
# Shear Modulus (GPa) = 25.83826 38.10102 31.96964
#
# Velocity S-wave (km/s) = 3.26628 3.96634 3.63321
# Velocity P-wave (km/s) = 4.46947 5.74740 5.14824
#
# Compressibility (1/GPa) = 0.07179070
#
# Stress axis : x y z
#
# Youngs Moduli (GPa) = 149.22928 22.08906 55.92741
#
# Poissons Ratio (x) = 0.03563 0.06438
# Poissons Ratio (y) = 0.24072 -0.20879
# Poissons Ratio (z) = 0.17178 -0.08246
#
# Static dielectric constant tensor:
#      x y z
#    x 2.006690 -0.027320 -0.052660 
#    y -0.027320 1.958000 -0.037430 
#    z -0.052660 -0.037430 2.029400 
# 
# From -- ./inp_files/428946.got.cif
#   From: 2010.05.17/outbox.cif.g08.bks.cpg/sg2_215_cif.got.tgz:428946.got - 2010.06.03 11:33:40.
