data_PCOD9069441
_publ_section_title
;
Structure prediction by ZEFSAII (Michael W. Deem and Ramdas Pophale) SiO2 
 PCOD9069441
Probable space group: P -1
;
_chemical_formula_sum "Si O2"
_cell_formula_units_Z 12
_cell_length_a 6.904057
_cell_length_b 4.925829
_cell_length_c 15.322677
_cell_angle_alpha 64.355364
_cell_angle_beta 92.684416
_cell_angle_gamma 111.124082
_cell_volume 434.492988
_symmetry_space_group_name_H-M "P -1"
_symmetry_group_IT_number 2
_symmetry_cell_setting 'triclinic'
loop_
_space_group_symop_operation_xyz
x,y,z
-x,-y,-z
loop_
_atom_site_type_symbol
_atom_site_label
_atom_site_fract_x
_atom_site_fract_y
_atom_site_fract_z
Si Si1 0.877537 0.349294 0.299889
Si Si2 0.845216 0.696789 0.090865
Si Si3 0.507177 0.241799 0.386908
Si Si4 0.994591 0.259538 0.611665
Si Si5 0.577062 0.060817 0.091891
Si Si6 0.369442 0.846516 0.298122
O O1 0.932835 0.485395 0.183027
O O2 0.774956 0.480463 0.365873
O O3 0.601793 0.153524 0.302430
O O4 0.926237 0.030395 0.364558
O O5 0.705441 0.441404 0.053530
O O6 0.718440 0.842830 0.132845
O O7 0.000000 0.000000 0.000000
O O8 0.428919 0.535388 0.362736
O O9 0.500000 0.000000 0.500000
O O10 0.277440 0.989292 0.364034
O O11 0.900317 0.352852 0.691416
O O12 0.000000 0.500000 0.500000
O O13 0.415823 0.958021 0.182049
O O14 0.500000 0.000000 0.000000
#
# Coordination Sequence:
#
# PCOD9069441 Si02
#       6
#     2   2   2   2   2   2
#     4  12  24  46  72 102 150 186 246 306 365 442
#     4  12  27  51  76 109 146 197 255 311 379 445
#     4  12  23  43  74 103 139 192 241 305 371 444
#     4  12  26  44  71 109 148 194 242 298 374 447
#     4  12  26  50  76 109 147 195 252 315 378 445
#     4  12  24  46  69 103 150 184 246 305 369 444
#
# _framework density 27.618396000000001
#
# number of rings (size 3 to 8) (size 9 to 14) (size 15 to 20)
#    0.000    0.000    3.333    7.000    2.333    0.000 
#    0.000    0.000    0.000    0.000    0.000    0.000 
#    0.000    0.000    0.000    0.000    0.000    0.000 
#
# Total GULP energy -67225.385836 kJ/mol
# GULP energy per Si atom -5602.115486 kJ/mol
# Density = 2.755553 g / cm^3
# Si number density = 27.618396 Si / 1000 Ang^3
#
#
#
# Elastic Constant Matrix: (Units=GPa)
#
#
# Indices 1 2 3 4 5 6 
#
# 1 147.0976 4.2648 2.5021 -0.8955 -34.2464 30.0309
# 2 4.2648 247.0018 25.4298 1.1418 -22.3671 32.0831
# 3 2.5021 25.4298 107.4744 -0.9137 -13.5114 4.7156
# 4 -0.8955 1.1418 -0.9137 60.2149 9.6967 9.1055
# 5 -34.2464 -22.3671 -13.5114 9.6967 45.0135 -6.0445
# 6 30.0309 32.0831 4.7156 9.1055 -6.0445 69.1567
#
#
#
# Elastic Compliance Matrix: (Units=1/GPa)
#
#
# Indices 1 2 3 4 5 6 
#
# 1 0.009220 0.000925 0.000641 -0.000468 0.007260 -0.003780
# 2 0.000925 0.004627 -0.000702 -0.000149 0.002521 -0.002261
# 3 0.000641 -0.000702 0.009859 -0.000282 0.003117 -0.000316
# 4 -0.000468 -0.000149 -0.000282 0.017720 -0.004661 -0.002449
# 5 0.007260 0.002521 0.003117 -0.004661 0.030766 -0.001232
# 6 -0.003780 -0.002261 -0.000316 -0.002449 -0.001232 0.017387
#
#
# Mechanical properties :
#
#
# Convention : Reuss Voigt Hill
#
# Bulk Modulus (GPa) = 39.31497 62.88524 51.10011
# Shear Modulus (GPa) = 51.90666 66.16881 59.03774
#
# Velocity S-wave (km/s) = 4.33993 4.90003 4.62846
# Velocity P-wave (km/s) = 6.27530 7.40489 6.86337
#
# Compressibility (1/GPa) = 0.02543560
#
# Stress axis : x y z
#
# Youngs Moduli (GPa) = 108.46466 216.10098 101.43133
#
# Poissons Ratio (x) = -0.19999 -0.06501
# Poissons Ratio (y) = -0.10038 0.07116
# Poissons Ratio (z) = -0.06952 0.15161
#
# Static dielectric constant tensor:
#      x y z
#    x 2.416100 0.313550 0.001570 
#    y 0.313550 2.313790 -0.018760 
#    z 0.001570 -0.018760 2.021480 
# 
# From -- ./inp_files/487516.got.cif
#   From: 2010.05.17/outbox.cif.g08.bks.cpg/sg2_244_cif.got.tgz:487516.got - 2010.06.03 11:33:40.
