data_PCOD9069107
_publ_section_title
;
Structure prediction by ZEFSAII (Michael W. Deem and Ramdas Pophale) SiO2 
 PCOD9069107
Probable space group: P -1
;
_chemical_formula_sum "Si O2"
_cell_formula_units_Z 16
_cell_length_a 11.831941
_cell_length_b 11.489259
_cell_length_c 12.112456
_cell_angle_alpha 75.938035
_cell_angle_beta 107.285043
_cell_angle_gamma 39.810782
_cell_volume 641.306849
_symmetry_space_group_name_H-M "P -1"
_symmetry_group_IT_number 2
_symmetry_cell_setting 'triclinic'
loop_
_space_group_symop_operation_xyz
x,y,z
-x,-y,-z
loop_
_atom_site_type_symbol
_atom_site_label
_atom_site_fract_x
_atom_site_fract_y
_atom_site_fract_z
Si Si1 0.265186 0.104144 0.481636
Si Si2 0.736641 0.010865 0.942791
Si Si3 0.322529 0.159388 0.164676
Si Si4 0.428100 0.576734 0.261864
Si Si5 0.713405 0.519166 0.636431
Si Si6 0.718525 0.632202 0.084877
Si Si7 0.466416 0.413272 0.081948
Si Si8 0.959889 0.236059 0.551862
O O1 0.024353 0.389781 0.273867
O O2 0.080786 0.200734 0.494672
O O3 0.479905 0.986418 0.642689
O O4 0.453690 0.837900 0.527937
O O5 0.743218 0.143789 0.877525
O O6 0.485694 0.219808 0.909428
O O7 0.681069 0.976566 0.831727
O O8 0.019036 0.707197 0.154533
O O9 0.421787 0.138874 0.086999
O O10 0.000000 0.500000 0.000000
O O11 0.348889 0.565827 0.344026
O O12 0.406793 0.508463 0.166628
O O13 0.745184 0.333471 0.423288
O O14 0.804963 0.452507 0.552580
O O15 0.750979 0.482427 0.054143
O O16 0.500000 0.500000 0.000000
O O17 0.767756 0.072627 0.243042
#
# Coordination Sequence:
#
# PCOD9069107 Si02
#       8
#     2   2   2   2   2   2   2   2
#     4  12  26  52  81 112 150 202 254 314 381 450
#     4  12  25  49  73 106 149 201 253 309 376 454
#     4  12  27  51  77 107 152 195 257 325 376 443
#     4  12  25  44  72 113 153 199 251 310 379 458
#     4  12  25  46  76 110 159 196 247 313 382 450
#     4  12  26  49  80 110 146 205 257 310 385 449
#     4  12  22  42  76 104 152 200 246 306 379 448
#     4  12  24  47  72 114 156 198 252 310 375 459
#
# _framework density 24.949055000000001
#
# number of rings (size 3 to 8) (size 9 to 14) (size 15 to 20)
#    0.000    0.000    7.500    1.500    1.750    2.000 
#    4.500    0.000    0.000    0.000    0.000    0.000 
#    0.000    0.000    0.000    0.000    0.000    0.000 
#
# Total GULP energy -89757.087769 kJ/mol
# GULP energy per Si atom -5609.817986 kJ/mol
# Density = 2.489227 g / cm^3
# Si number density = 24.949055 Si / 1000 Ang^3
#
#
#
# Elastic Constant Matrix: (Units=GPa)
#
#
# Indices 1 2 3 4 5 6 
#
# 1 89.3829 46.3739 26.5148 -8.7719 6.8076 -5.0313
# 2 46.3739 139.8556 39.0160 22.4220 6.6165 -0.2847
# 3 26.5148 39.0160 140.4083 1.2770 22.1173 4.1301
# 4 -8.7719 22.4220 1.2770 15.7044 8.0940 11.2477
# 5 6.8076 6.6165 22.1173 8.0940 47.5684 2.6168
# 6 -5.0313 -0.2847 4.1301 11.2477 2.6168 42.2425
#
#
#
# Elastic Compliance Matrix: (Units=1/GPa)
#
#
# Indices 1 2 3 4 5 6 
#
# 1 0.023051 -0.014649 0.000956 0.044518 -0.008799 -0.008755
# 2 -0.014649 0.021020 -0.004419 -0.051109 0.009271 0.011863
# 3 0.000956 -0.004419 0.009031 0.011443 -0.005475 -0.003506
# 4 0.044518 -0.051109 0.011443 0.217587 -0.038762 -0.051696
# 5 -0.008799 0.009271 -0.005475 -0.038762 0.029692 0.008031
# 6 -0.008755 0.011863 -0.003506 -0.051696 0.008031 0.036320
#
#
# Mechanical properties :
#
#
# Convention : Reuss Voigt Hill
#
# Bulk Modulus (GPa) = 59.24782 65.93959 62.59370
# Shear Modulus (GPa) = 13.20830 38.28586 25.74708
#
# Velocity S-wave (km/s) = 2.30339 3.92160 3.21594
# Velocity P-wave (km/s) = 5.55637 6.85509 6.23961
#
# Compressibility (1/GPa) = 0.01687826
#
# Stress axis : x y z
#
# Youngs Moduli (GPa) = 43.38287 47.57407 110.72956
#
# Poissons Ratio (x) = 0.69690 -0.10590
# Poissons Ratio (y) = 0.63551 0.48933
# Poissons Ratio (z) = -0.04149 0.21024
#
# Static dielectric constant tensor:
#      x y z
#    x 1.997200 -0.050120 -0.005680 
#    y -0.050120 1.964840 0.025650 
#    z -0.005680 0.025650 1.991210 
# 
# From -- ./inp_files/428182.got.cif
#   From: 2010.05.17/outbox.cif.g08.bks.cpg/sg2_215_cif.got.tgz:428182.got - 2010.06.03 11:33:40.
