data_PCOD9069669
_publ_section_title
;
Structure prediction by ZEFSAII (Michael W. Deem and Ramdas Pophale) SiO2 
 PCOD9069669
Probable space group: P -1
;
_chemical_formula_sum "Si O2"
_cell_formula_units_Z 15
_cell_length_a 6.356191
_cell_length_b 11.839203
_cell_length_c 10.808702
_cell_angle_alpha 126.256969
_cell_angle_beta 65.906923
_cell_angle_gamma 100.078281
_cell_volume 596.304956
_symmetry_space_group_name_H-M "P -1"
_symmetry_group_IT_number 2
_symmetry_cell_setting 'triclinic'
loop_
_space_group_symop_operation_xyz
x,y,z
-x,-y,-z
loop_
_atom_site_type_symbol
_atom_site_label
_atom_site_fract_x
_atom_site_fract_y
_atom_site_fract_z
Si Si1 0.237809 0.839679 0.580680
Si Si2 0.620071 0.266702 0.119329
Si Si3 0.268265 0.000377 0.921463
Si Si4 0.000000 0.000000 0.500000
Si Si5 0.717514 0.738843 0.301701
Si Si6 0.047396 0.504148 0.788540
Si Si7 0.859178 0.639178 0.575818
Si Si8 0.628668 0.710691 0.021997
O O1 0.334663 0.931229 0.727749
O O2 0.132548 0.920664 0.537658
O O3 0.461944 0.738627 0.422381
O O4 0.022498 0.763897 0.636892
O O5 0.643666 0.106885 0.059945
O O6 0.831882 0.351978 0.165716
O O7 0.391159 0.338667 0.288367
O O8 0.618629 0.293152 0.987517
O O9 0.304929 0.163645 0.003133
O O10 0.000000 0.000000 0.000000
O O11 0.864144 0.857439 0.403765
O O12 0.863293 0.588124 0.176540
O O13 0.659126 0.763979 0.186797
O O14 0.144393 0.394198 0.589504
O O15 0.778799 0.561025 0.878188
O O16 0.000000 0.500000 0.500000
#
# Coordination Sequence:
#
# PCOD9069669 Si02
#       8
#     2   2   2   1   2   2   2   2
#     4  12  27  48  78 108 143 194 252 307 367 436
#     4  12  26  46  77 109 152 202 237 308 378 426
#     4  12  25  48  73 108 150 189 249 307 370 447
#     4  12  26  50  76 104 142 194 246 310 368 420
#     4  12  28  50  78 107 146 194 256 307 365 445
#     4  12  25  48  71 112 148 197 246 305 371 439
#     4  12  23  46  77 106 151 188 247 302 364 447
#     4  12  27  47  71 109 151 196 247 303 371 444
#
# _framework density 25.154916
#
# number of rings (size 3 to 8) (size 9 to 14) (size 15 to 20)
#    0.000    0.000    5.333    4.800    0.000    2.667 
#    0.000    0.000    0.000    0.000    0.000    0.000 
#    0.000    0.000    0.000    0.000    0.000    0.000 
#
# Total GULP energy -83557.263160 kJ/mol
# GULP energy per Si atom -5570.484211 kJ/mol
# Density = 2.509766 g / cm^3
# Si number density = 25.154916 Si / 1000 Ang^3
#
#
#
# Elastic Constant Matrix: (Units=GPa)
#
#
# Indices 1 2 3 4 5 6 
#
# 1 72.5535 29.0552 15.7193 -7.9730 0.7907 -34.2773
# 2 29.0552 105.1471 7.2450 20.4730 -6.4313 -33.7684
# 3 15.7193 7.2450 47.5167 -9.9465 11.0385 -6.2430
# 4 -7.9730 20.4730 -9.9465 30.8955 -2.9762 8.2725
# 5 0.7907 -6.4313 11.0385 -2.9762 49.2252 4.4966
# 6 -34.2773 -33.7684 -6.2430 8.2725 4.4966 52.2177
#
#
#
# Elastic Compliance Matrix: (Units=1/GPa)
#
#
# Indices 1 2 3 4 5 6 
#
# 1 0.021539 -0.002401 -0.004573 0.002494 -0.000551 0.011692
# 2 -0.002401 0.017561 -0.004079 -0.016624 0.001162 0.011826
# 3 -0.004573 -0.004079 0.026114 0.010407 -0.005348 -0.003706
# 4 0.002494 -0.016624 0.010407 0.051682 0.000046 -0.016061
# 5 -0.000551 0.001162 -0.005348 0.000046 0.021873 -0.002140
# 6 0.011692 0.011826 -0.003706 -0.016061 -0.002140 0.036759
#
#
# Mechanical properties :
#
#
# Convention : Reuss Voigt Hill
#
# Bulk Modulus (GPa) = 23.19819 36.58402 29.89110
# Shear Modulus (GPa) = 23.58436 38.01421 30.79928
#
# Velocity S-wave (km/s) = 3.06529 3.89164 3.50292
# Velocity P-wave (km/s) = 4.66585 5.89646 5.31688
#
# Compressibility (1/GPa) = 0.04310682
#
# Stress axis : x y z
#
# Youngs Moduli (GPa) = 46.42726 56.94392 38.29363
#
# Poissons Ratio (x) = 0.13673 0.17512
# Poissons Ratio (y) = 0.11148 0.15621
# Poissons Ratio (z) = 0.21232 0.23230
#
# Static dielectric constant tensor:
#      x y z
#    x 2.249180 -0.091930 0.333500 
#    y -0.091930 2.061250 -0.132070 
#    z 0.333500 -0.132070 2.332760 
# 
# From -- ./inp_files/93991.got.cif
#   From: 2010.05.17/outbox.cif.g08.bks.cpg/sg2_47_cif.got.tgz:93991.got - 2010.06.03 11:33:40.
