data_PCOD9069808
_publ_section_title
;
Structure prediction by ZEFSAII (Michael W. Deem and Ramdas Pophale) SiO2 
 PCOD9069808
Probable space group: P -1
;
_chemical_formula_sum "Si O2"
_cell_formula_units_Z 13
_cell_length_a 16.181449
_cell_length_b 9.493630
_cell_length_c 8.150273
_cell_angle_alpha 81.006105
_cell_angle_beta 77.833098
_cell_angle_gamma 26.590756
_cell_volume 546.368034
_symmetry_space_group_name_H-M "P -1"
_symmetry_group_IT_number 2
_symmetry_cell_setting 'triclinic'
loop_
_space_group_symop_operation_xyz
x,y,z
-x,-y,-z
loop_
_atom_site_type_symbol
_atom_site_label
_atom_site_fract_x
_atom_site_fract_y
_atom_site_fract_z
Si Si1 0.500000 0.500000 0.000000
Si Si2 0.253211 0.574038 0.615203
Si Si3 0.384936 0.096174 0.233435
Si Si4 0.072295 0.453967 0.146894
Si Si5 0.876447 0.053260 0.111129
Si Si6 0.154122 0.428136 0.600137
Si Si7 0.519757 0.752331 0.750185
O O1 0.693305 0.293949 0.034710
O O2 0.528964 0.325751 0.144271
O O3 0.175738 0.821056 0.704860
O O4 0.114588 0.647777 0.639266
O O5 0.333774 0.485885 0.417996
O O6 0.426966 0.253050 0.709456
O O7 0.295032 0.136054 0.122702
O O8 0.231087 0.320612 0.403502
O O9 0.407139 0.230262 0.166457
O O10 0.007017 0.439792 0.314260
O O11 0.993019 0.732414 0.134748
O O12 0.000000 0.500000 0.000000
O O13 0.000000 0.000000 0.000000
O O14 0.333484 0.099352 0.684087
#
# Coordination Sequence:
#
# PCOD9069808 Si02
#       7
#     1   2   2   2   2   2   2
#     4  12  24  42  66  96 146 172 220 268 346 388
#     4   9  21  43  72  94 129 174 224 276 336 393
#     4   9  20  40  71  93 126 173 222 270 336 394
#     4  12  24  39  60  97 136 172 221 273 329 401
#     4  12  27  45  63  99 140 178 222 281 334 398
#     4   9  18  41  65  95 126 168 222 273 326 401
#     4   9  19  41  68  98 128 176 220 272 333 407
#
# _framework density 23.793483999999999
#
# number of rings (size 3 to 8) (size 9 to 14) (size 15 to 20)
#    0.000    1.846    1.538    4.154    2.154    0.615 
#    0.000   12.308    0.000    0.000    0.000    0.000 
#    0.000    0.000    0.000    0.000    0.000    0.000 
#
# Total GULP energy -72489.352596 kJ/mol
# GULP energy per Si atom -5576.104046 kJ/mol
# Density = 2.373933 g / cm^3
# Si number density = 23.793484 Si / 1000 Ang^3
#
#
#
# Elastic Constant Matrix: (Units=GPa)
#
#
# Indices 1 2 3 4 5 6 
#
# 1 208.9010 42.0964 57.3422 4.4750 -28.0811 -11.9761
# 2 42.0964 40.6047 13.1808 3.2232 -5.5055 3.9545
# 3 57.3422 13.1808 52.8525 4.3000 -17.6829 2.7390
# 4 4.4750 3.2232 4.3000 30.4189 -4.7210 3.5682
# 5 -28.0811 -5.5055 -17.6829 -4.7210 39.2608 -9.3454
# 6 -11.9761 3.9545 2.7390 3.5682 -9.3454 44.1616
#
#
#
# Elastic Compliance Matrix: (Units=1/GPa)
#
#
# Indices 1 2 3 4 5 6 
#
# 1 0.008703 -0.006768 -0.006941 0.000436 0.003161 0.004030
# 2 -0.006768 0.032327 -0.001032 -0.002043 -0.002200 -0.004967
# 3 -0.006941 -0.001032 0.029452 -0.001646 0.007507 -0.001895
# 4 0.000436 -0.002043 -0.001646 0.033919 0.002955 -0.001712
# 5 0.003161 -0.002200 0.007507 0.002955 0.032900 0.007312
# 6 0.004030 -0.004967 -0.001895 -0.001712 0.007312 0.025985
#
#
# Mechanical properties :
#
#
# Convention : Reuss Voigt Hill
#
# Bulk Modulus (GPa) = 24.38979 58.62188 41.50584
# Shear Modulus (GPa) = 24.22100 35.41752 29.81926
#
# Velocity S-wave (km/s) = 3.19402 3.86234 3.54397
# Velocity P-wave (km/s) = 4.88623 6.67694 5.85050
#
# Compressibility (1/GPa) = 0.04100076
#
# Stress axis : x y z
#
# Youngs Moduli (GPa) = 114.90811 30.93437 33.95354
#
# Poissons Ratio (x) = 0.20936 0.23566
# Poissons Ratio (y) = 0.77767 0.03503
# Poissons Ratio (z) = 0.79755 0.03191
#
# Static dielectric constant tensor:
#      x y z
#    x 1.928410 -0.032910 0.044290 
#    y -0.032910 1.917990 -0.001500 
#    z 0.044290 -0.001500 2.031540 
# 
# From -- ./inp_files/148259.got.cif
#   From: 2010.05.17/outbox.cif.g08.bks.cpg/sg2_75_cif.got.tgz:148259.got - 2010.06.03 11:33:40.
