data_PCOD9069905
_publ_section_title
;
Structure prediction by ZEFSAII (Michael W. Deem and Ramdas Pophale) SiO2 
 PCOD9069905
Probable space group: P -1
;
_chemical_formula_sum "Si O2"
_cell_formula_units_Z 12
_cell_length_a 7.181733
_cell_length_b 20.260918
_cell_length_c 20.659448
_cell_angle_alpha 13.151046
_cell_angle_beta 134.231806
_cell_angle_gamma 133.274311
_cell_volume 489.709351
_symmetry_space_group_name_H-M "P -1"
_symmetry_group_IT_number 2
_symmetry_cell_setting 'triclinic'
loop_
_space_group_symop_operation_xyz
x,y,z
-x,-y,-z
loop_
_atom_site_type_symbol
_atom_site_label
_atom_site_fract_x
_atom_site_fract_y
_atom_site_fract_z
Si Si1 0.041928 0.612454 0.475085
Si Si2 0.483545 0.248943 0.180457
Si Si3 0.902280 0.042910 0.218368
Si Si4 0.642718 0.587699 0.673975
Si Si5 0.215852 0.853992 0.058574
Si Si6 0.252809 0.312557 0.255682
O O1 0.335851 0.573904 0.604708
O O2 0.840665 0.457578 0.624870
O O3 0.000000 0.500000 0.500000
O O4 0.986843 0.950043 0.140286
O O5 0.521162 0.448901 0.935250
O O6 0.500000 0.500000 0.000000
O O7 0.308234 0.009283 0.521758
O O8 0.205201 0.085786 0.266462
O O9 0.783286 0.734683 0.505859
O O10 0.750525 0.269515 0.008456
O O11 0.847415 0.117894 0.059173
O O12 0.728635 0.754295 0.600557
O O13 0.500000 0.000000 0.000000
O O14 0.000000 0.500000 0.000000
#
# Coordination Sequence:
#
# PCOD9069905 Si02
#       6
#     2   2   2   2   2   2
#     4  12  24  43  69 102 138 179 224 277 338 407
#     4  12  26  46  70 100 136 181 231 288 348 413
#     4  12  25  45  69 100 137 180 228 283 342 408
#     4  12  25  45  69 100 137 180 228 283 342 408
#     4  12  24  43  69 102 138 179 224 277 338 407
#     4  12  26  46  70 100 136 181 231 288 348 413
#
# _framework density 24.50433
#
# number of rings (size 3 to 8) (size 9 to 14) (size 15 to 20)
#    0.000    0.000    0.000   11.000    0.000    2.667 
#    0.000    0.000    0.000    0.000    0.000    0.000 
#    0.000    0.000    0.000    0.000    0.000    0.000 
#
# Total GULP energy -67230.290323 kJ/mol
# GULP energy per Si atom -5602.524194 kJ/mol
# Density = 2.444856 g / cm^3
# Si number density = 24.504330 Si / 1000 Ang^3
#
#
#
# Elastic Constant Matrix: (Units=GPa)
#
#
# Indices 1 2 3 4 5 6 
#
# 1 96.0038 66.3739 31.2452 7.2101 15.9380 21.1421
# 2 66.3739 145.5924 33.9350 13.2442 7.5749 -2.4770
# 3 31.2452 33.9350 130.9474 -5.2150 14.8195 0.0192
# 4 7.2101 13.2442 -5.2150 35.7823 -12.7890 -2.5630
# 5 15.9380 7.5749 14.8195 -12.7890 62.9911 -3.4498
# 6 21.1421 -2.4770 0.0192 -2.5630 -3.4498 57.0790
#
#
#
# Elastic Compliance Matrix: (Units=1/GPa)
#
#
# Indices 1 2 3 4 5 6 
#
# 1 0.019362 -0.007893 -0.002194 -0.003506 -0.004580 -0.007948
# 2 -0.007893 0.010942 -0.001116 -0.002135 0.000694 0.003345
# 3 -0.002194 -0.001116 0.008627 0.001839 -0.000924 0.000788
# 4 -0.003506 -0.002135 0.001839 0.032617 0.007504 0.003124
# 5 -0.004580 0.000694 -0.000924 0.007504 0.018867 0.003204
# 6 -0.007948 0.003345 0.000788 0.003124 0.003204 0.020942
#
#
# Mechanical properties :
#
#
# Convention : Reuss Voigt Hill
#
# Bulk Modulus (GPa) = 60.52135 70.62799 65.57467
# Shear Modulus (GPa) = 35.90074 47.23644 41.56859
#
# Velocity S-wave (km/s) = 3.83179 4.39530 4.12318
# Velocity P-wave (km/s) = 6.65797 7.39212 7.03463
#
# Compressibility (1/GPa) = 0.01652310
#
# Stress axis : x y z
#
# Youngs Moduli (GPa) = 51.64887 91.39014 115.91256
#
# Poissons Ratio (x) = 0.72136 0.25436
# Poissons Ratio (y) = 0.40767 0.12939
# Poissons Ratio (z) = 0.11334 0.10202
#
# Static dielectric constant tensor:
#      x y z
#    x 2.021650 -0.000670 0.001520 
#    y -0.000670 2.007700 -0.036190 
#    z 0.001520 -0.036190 1.891880 
# 
# From -- ./inp_files/137659.got.cif
#   From: 2010.05.17/outbox.cif.g08.bks.cpg/sg2_69_cif.got.tgz:137659.got - 2010.06.03 11:33:40.
