data_PCOD9069174
_publ_section_title
;
Structure prediction by ZEFSAII (Michael W. Deem and Ramdas Pophale) SiO2 
 PCOD9069174
Probable space group: P -1
;
_chemical_formula_sum "Si O2"
_cell_formula_units_Z 14
_cell_length_a 15.983007
_cell_length_b 19.670833
_cell_length_c 14.591102
_cell_angle_alpha 19.206599
_cell_angle_beta 149.263532
_cell_angle_gamma 159.225422
_cell_volume 524.397484
_symmetry_space_group_name_H-M "P -1"
_symmetry_group_IT_number 2
_symmetry_cell_setting 'triclinic'
loop_
_space_group_symop_operation_xyz
x,y,z
-x,-y,-z
loop_
_atom_site_type_symbol
_atom_site_label
_atom_site_fract_x
_atom_site_fract_y
_atom_site_fract_z
Si Si1 0.236478 0.286030 0.409839
Si Si2 0.446946 0.744195 0.719110
Si Si3 0.266364 0.723945 0.927925
Si Si4 0.625467 0.331316 0.716385
Si Si5 0.995468 0.129809 0.722796
Si Si6 0.957944 0.134107 0.059959
Si Si7 0.720096 0.361350 0.510676
O O1 0.534943 0.629483 0.517610
O O2 0.168641 0.124602 0.653156
O O3 0.000000 0.000000 0.500000
O O4 0.267878 0.556736 0.063417
O O5 0.317079 0.667415 0.596689
O O6 0.500000 0.000000 0.500000
O O7 0.242176 0.416193 0.991002
O O8 0.708319 0.884856 0.770754
O O9 0.438578 0.077990 0.636153
O O10 0.376564 0.671090 0.173974
O O11 0.000000 0.500000 0.000000
O O12 0.890046 0.586273 0.597643
O O13 0.500000 0.000000 0.000000
O O14 0.133139 0.319590 0.705847
O O15 0.061335 0.992846 0.896813
O O16 0.847083 0.262481 0.784671
#
# Coordination Sequence:
#
# PCOD9069174 Si02
#       7
#     2   2   2   2   2   2   2
#     4  12  27  44  74 114 152 197 247 315 384 454
#     4  12  29  52  76 110 153 201 260 314 376 451
#     4  12  24  43  72 107 150 191 248 306 382 452
#     4  12  22  44  71 107 148 188 240 308 378 449
#     4  12  26  48  79 108 152 198 257 313 375 453
#     4  12  26  52  77 110 155 199 256 315 374 453
#     4  12  27  50  79 109 151 205 250 315 386 444
#
# _framework density 26.697309000000001
#
# number of rings (size 3 to 8) (size 9 to 14) (size 15 to 20)
#    0.000    0.000    5.714    3.857    2.000    0.571 
#    2.571    0.000    0.000    0.000    0.000    0.000 
#    0.000    0.000    0.000    0.000    0.000    0.000 
#
# Total GULP energy -78239.858951 kJ/mol
# GULP energy per Si atom -5588.561354 kJ/mol
# Density = 2.663654 g / cm^3
# Si number density = 26.697309 Si / 1000 Ang^3
#
#
#
# Elastic Constant Matrix: (Units=GPa)
#
#
# Indices 1 2 3 4 5 6 
#
# 1 111.6841 41.6212 34.9322 -7.8086 5.5288 -3.6473
# 2 41.6212 139.4939 48.8384 -47.2074 2.7831 17.1521
# 3 34.9322 48.8384 88.6619 -28.2601 17.3032 2.1507
# 4 -7.8086 -47.2074 -28.2601 53.7626 -5.7798 -9.2182
# 5 5.5288 2.7831 17.3032 -5.7798 51.9282 0.7305
# 6 -3.6473 17.1521 2.1507 -9.2182 0.7305 62.0443
#
#
#
# Elastic Compliance Matrix: (Units=1/GPa)
#
#
# Indices 1 2 3 4 5 6 
#
# 1 0.011092 -0.003190 -0.003516 -0.002845 -0.000172 0.001235
# 2 -0.003190 0.012335 -0.003091 0.008540 0.001691 -0.002241
# 3 -0.003516 -0.003091 0.016930 0.005344 -0.004519 0.000908
# 4 -0.002845 0.008540 0.005344 0.028899 0.001259 0.001565
# 5 -0.000172 0.001691 -0.004519 0.001259 0.020836 -0.000379
# 6 0.001235 -0.002241 0.000908 0.001565 -0.000379 0.017015
#
#
# Mechanical properties :
#
#
# Convention : Reuss Voigt Hill
#
# Bulk Modulus (GPa) = 48.16310 65.62482 56.89396
# Shear Modulus (GPa) = 37.41853 47.84356 42.63105
#
# Velocity S-wave (km/s) = 3.74784 4.23788 4.00037
# Velocity P-wave (km/s) = 6.06696 6.96998 6.53409
#
# Compressibility (1/GPa) = 0.02076278
#
# Stress axis : x y z
#
# Youngs Moduli (GPa) = 90.15233 81.07169 59.06546
#
# Poissons Ratio (x) = 0.25860 0.20770
# Poissons Ratio (y) = 0.28756 0.18259
# Poissons Ratio (z) = 0.31701 0.25061
#
# Static dielectric constant tensor:
#      x y z
#    x 2.160820 -0.022560 -0.139310 
#    y -0.022560 2.002010 0.046790 
#    z -0.139310 0.046790 2.112590 
# 
# From -- ./inp_files/539166.got.cif
#   From: 2010.05.17/outbox.cif.g08.bks.cpg/sg2_270_cif.got.tgz:539166.got - 2010.06.03 11:33:40.
