data_PCOD9069550
_publ_section_title
;
Structure prediction by ZEFSAII (Michael W. Deem and Ramdas Pophale) SiO2 
 PCOD9069550
Probable space group: P -1
;
_chemical_formula_sum "Si O2"
_cell_formula_units_Z 16
_cell_length_a 9.430739
_cell_length_b 26.256974
_cell_length_c 25.515035
_cell_angle_alpha 10.939669
_cell_angle_beta 140.947311
_cell_angle_gamma 143.043350
_cell_volume 719.087884
_symmetry_space_group_name_H-M "P -1"
_symmetry_group_IT_number 2
_symmetry_cell_setting 'triclinic'
loop_
_space_group_symop_operation_xyz
x,y,z
-x,-y,-z
loop_
_atom_site_type_symbol
_atom_site_label
_atom_site_fract_x
_atom_site_fract_y
_atom_site_fract_z
Si Si1 0.506390 0.130837 0.622292
Si Si2 0.915971 0.261361 0.923535
Si Si3 0.235794 0.287036 0.635227
Si Si4 0.051711 0.756762 0.294966
Si Si5 0.050284 0.808320 0.880907
Si Si6 0.858329 0.195981 0.285608
Si Si7 0.771830 0.193322 0.384837
Si Si8 0.573018 0.698153 0.002402
O O1 0.685969 0.222965 0.628971
O O2 0.484882 0.391982 0.316152
O O3 0.253084 0.932472 0.770353
O O4 0.626463 0.930443 0.828119
O O5 0.832850 0.222634 0.998816
O O6 0.193083 0.291680 0.971689
O O7 0.787381 0.010214 0.099826
O O8 0.896166 0.552590 0.602295
O O9 0.500000 0.500000 0.500000
O O10 0.114096 0.268510 0.675805
O O11 0.000000 0.500000 0.500000
O O12 0.000000 0.000000 0.000000
O O13 0.916457 0.039074 0.617343
O O14 0.855678 0.518731 0.098496
O O15 0.855934 0.180365 0.362716
O O16 0.600667 0.186627 0.199965
O O17 0.000000 0.000000 0.500000
O O18 0.000000 0.500000 0.000000
O O19 0.500000 0.000000 0.500000
#
# Coordination Sequence:
#
# PCOD9069550 Si02
#       8
#     2   2   2   2   2   2   2   2
#     4  12  25  45  70 102 142 178 238 289 348 419
#     4  12  25  48  69 105 138 190 239 278 353 416
#     4  12  27  47  72 104 145 185 235 289 343 423
#     4  12  26  45  73 105 142 185 230 286 357 413
#     4  12  27  44  71 101 139 185 229 292 348 411
#     4  12  25  42  71 103 134 179 232 287 352 412
#     4  12  26  48  67 102 141 181 233 288 353 419
#     4  12  23  45  70  97 138 184 229 294 343 421
#
# _framework density 22.250408
#
# number of rings (size 3 to 8) (size 9 to 14) (size 15 to 20)
#    0.000    0.000    2.500    8.250    3.500    2.000 
#    0.000    0.000    0.000    0.000    0.000    0.000 
#    0.000    0.000    0.000    0.000    0.000    0.000 
#
# Total GULP energy -89433.790657 kJ/mol
# GULP energy per Si atom -5589.611916 kJ/mol
# Density = 2.219977 g / cm^3
# Si number density = 22.250408 Si / 1000 Ang^3
#
#
#
# Elastic Constant Matrix: (Units=GPa)
#
#
# Indices 1 2 3 4 5 6 
#
# 1 97.2371 12.0667 26.6283 -0.4242 -22.7291 -11.9328
# 2 12.0667 76.4857 2.8468 -1.8539 -8.3611 4.6963
# 3 26.6283 2.8468 134.0339 2.0350 -7.0489 -8.9311
# 4 -0.4242 -1.8539 2.0350 50.4316 -4.7797 -0.1017
# 5 -22.7291 -8.3611 -7.0489 -4.7797 35.3874 4.2000
# 6 -11.9328 4.6963 -8.9311 -0.1017 4.2000 45.8529
#
#
#
# Elastic Compliance Matrix: (Units=1/GPa)
#
#
# Indices 1 2 3 4 5 6 
#
# 1 0.013057 -0.001294 -0.002022 0.000860 0.007503 0.002451
# 2 -0.001294 0.013720 -0.000035 0.000751 0.002742 -0.001998
# 3 -0.002022 -0.000035 0.007941 -0.000326 0.000111 0.001013
# 4 0.000860 0.000751 -0.000326 0.020200 0.003415 -0.000185
# 5 0.007503 0.002742 0.000111 0.003415 0.034381 -0.001448
# 6 0.002451 -0.001998 0.001013 -0.000185 -0.001448 0.022981
#
#
# Mechanical properties :
#
#
# Convention : Reuss Voigt Hill
#
# Bulk Modulus (GPa) = 35.69139 43.42671 39.55905
# Shear Modulus (GPa) = 38.96479 44.08204 41.52342
#
# Velocity S-wave (km/s) = 4.18927 4.45587 4.32462
# Velocity P-wave (km/s) = 6.28296 6.78474 6.53866
#
# Compressibility (1/GPa) = 0.02801796
#
# Stress axis : x y z
#
# Youngs Moduli (GPa) = 76.58872 72.88381 125.92123
#
# Poissons Ratio (x) = 0.09432 0.25456
# Poissons Ratio (y) = 0.09911 0.00436
# Poissons Ratio (z) = 0.15483 0.00253
#
# Static dielectric constant tensor:
#      x y z
#    x 1.799910 0.002940 -0.013250 
#    y 0.002940 1.898430 -0.022760 
#    z -0.013250 -0.022760 1.759980 
# 
# From -- ./inp_files/617680.got.cif
#   From: 2010.05.17/outbox.cif.g08.bks.cpg/sg2_309_cif.got.tgz:617680.got - 2010.06.03 11:33:40.
