data_PCOD9069490
_publ_section_title
;
Structure prediction by ZEFSAII (Michael W. Deem and Ramdas Pophale) SiO2 
 PCOD9069490
Probable space group: P -1
;
_chemical_formula_sum "Si O2"
_cell_formula_units_Z 14
_cell_length_a 9.460474
_cell_length_b 22.248422
_cell_length_c 9.369660
_cell_angle_alpha 46.783512
_cell_angle_beta 43.432070
_cell_angle_gamma 28.254239
_cell_volume 635.639475
_symmetry_space_group_name_H-M "P -1"
_symmetry_group_IT_number 2
_symmetry_cell_setting 'triclinic'
loop_
_space_group_symop_operation_xyz
x,y,z
-x,-y,-z
loop_
_atom_site_type_symbol
_atom_site_label
_atom_site_fract_x
_atom_site_fract_y
_atom_site_fract_z
Si Si1 0.104093 0.043499 0.950867
Si Si2 0.876079 0.371781 0.952634
Si Si3 0.896037 0.676537 0.457737
Si Si4 0.810228 0.044599 0.422760
Si Si5 0.196077 0.706677 0.385287
Si Si6 0.082012 0.463855 0.831102
Si Si7 0.146576 0.161491 0.293822
O O1 0.958713 0.170908 0.787397
O O2 0.484777 0.932237 0.853603
O O3 0.953170 0.067053 0.173534
O O4 0.000000 0.000000 0.000000
O O5 0.037600 0.338354 0.734908
O O6 0.011637 0.395431 0.930371
O O7 0.500000 0.500000 0.000000
O O8 0.950819 0.258609 0.146473
O O9 0.565361 0.824207 0.495157
O O10 0.176739 0.635876 0.407214
O O11 0.887354 0.587515 0.673257
O O12 0.875621 0.929933 0.516507
O O13 0.000000 0.000000 0.500000
O O14 0.545617 0.627136 0.306587
O O15 0.982536 0.756825 0.600160
O O16 0.000000 0.500000 0.000000
#
# Coordination Sequence:
#
# PCOD9069490 Si02
#       7
#     2   2   2   2   2   2   2
#     4  12  23  44  70 104 142 185 235 285 351 416
#     4  12  28  47  73 102 144 187 236 298 351 420
#     4  12  26  46  72 106 143 185 238 294 355 417
#     4  12  28  43  72 106 147 188 232 293 355 423
#     4  12  24  45  74 105 143 185 237 295 350 421
#     4  12  26  48  74 104 141 187 241 291 354 423
#     4  12  26  47  71 107 145 185 240 289 353 421
#
# _framework density 22.025061999999998
#
# number of rings (size 3 to 8) (size 9 to 14) (size 15 to 20)
#    0.000    0.000    2.857    7.286    6.000    1.143 
#    0.000    0.000    0.000    0.000    0.000    0.000 
#    0.000    0.000    0.000    0.000    0.000    0.000 
#
# Total GULP energy -78437.647316 kJ/mol
# GULP energy per Si atom -5602.689094 kJ/mol
# Density = 2.197493 g / cm^3
# Si number density = 22.025062 Si / 1000 Ang^3
#
#
#
# Elastic Constant Matrix: (Units=GPa)
#
#
# Indices 1 2 3 4 5 6 
#
# 1 83.9478 18.0197 17.4126 20.3321 4.3226 -5.5428
# 2 18.0197 98.7166 45.8884 -9.0420 5.0101 -14.7823
# 3 17.4126 45.8884 158.4391 -3.2138 32.8254 6.2854
# 4 20.3321 -9.0420 -3.2138 39.8699 1.9412 8.1069
# 5 4.3226 5.0101 32.8254 1.9412 45.7633 5.9471
# 6 -5.5428 -14.7823 6.2854 8.1069 5.9471 38.3802
#
#
#
# Elastic Compliance Matrix: (Units=1/GPa)
#
#
# Indices 1 2 3 4 5 6 
#
# 1 0.015131 -0.002521 -0.001174 -0.009051 -0.000365 0.003375
# 2 -0.002521 0.013320 -0.003875 0.003011 0.000829 0.004636
# 3 -0.001174 -0.003875 0.008832 0.001211 -0.005525 -0.002508
# 4 -0.009051 0.003011 0.001211 0.031933 -0.000792 -0.006968
# 5 -0.000365 0.000829 -0.005525 -0.000792 0.026144 -0.002712
# 6 0.003375 0.004636 -0.002508 -0.006968 -0.002712 0.030631
#
#
# Mechanical properties :
#
#
# Convention : Reuss Voigt Hill
#
# Bulk Modulus (GPa) = 45.16652 55.97166 50.56909
# Shear Modulus (GPa) = 33.66716 42.12155 37.89435
#
# Velocity S-wave (km/s) = 3.91395 4.37789 4.15240
# Velocity P-wave (km/s) = 6.40131 7.14300 6.78230
#
# Compressibility (1/GPa) = 0.02214029
#
# Stress axis : x y z
#
# Youngs Moduli (GPa) = 66.09067 75.07739 113.22692
#
# Poissons Ratio (x) = 0.18928 0.13298
# Poissons Ratio (y) = 0.16662 0.43879
# Poissons Ratio (z) = 0.07762 0.29095
#
# Static dielectric constant tensor:
#      x y z
#    x 1.794780 0.029550 -0.027920 
#    y 0.029550 1.816890 -0.064270 
#    z -0.027920 -0.064270 1.748610 
# 
# From -- ./inp_files/27916.got.cif
#   From: 2010.05.17/outbox.cif.g08.bks.cpg/sg2_14_cif.got.tgz:27916.got - 2010.06.03 11:33:40.
