data_PCOD9069724
_publ_section_title
;
Structure prediction by ZEFSAII (Michael W. Deem and Ramdas Pophale) SiO2 
 PCOD9069724
Probable space group: P -1
;
_chemical_formula_sum "Si O2"
_cell_formula_units_Z 14
_cell_length_a 7.614003
_cell_length_b 7.456495
_cell_length_c 13.555279
_cell_angle_alpha 65.825824
_cell_angle_beta 78.613702
_cell_angle_gamma 119.300850
_cell_volume 530.222984
_symmetry_space_group_name_H-M "P -1"
_symmetry_group_IT_number 2
_symmetry_cell_setting 'triclinic'
loop_
_space_group_symop_operation_xyz
x,y,z
-x,-y,-z
loop_
_atom_site_type_symbol
_atom_site_label
_atom_site_fract_x
_atom_site_fract_y
_atom_site_fract_z
Si Si1 0.026679 0.542260 0.105577
Si Si2 0.290307 0.009067 0.771949
Si Si3 0.253631 0.152189 0.390148
Si Si4 0.568111 0.331242 0.494623
Si Si5 0.521571 0.317012 0.868717
Si Si6 0.898236 0.045350 0.873374
Si Si7 0.915335 0.286165 0.641320
O O1 0.265888 0.624215 0.105199
O O2 0.986090 0.734082 0.105591
O O3 0.824985 0.247443 0.219714
O O4 0.000000 0.500000 0.000000
O O5 0.519490 0.195762 0.635779
O O6 0.391731 0.086848 0.853974
O O7 0.080581 0.024981 0.803895
O O8 0.405621 0.166988 0.458041
O O9 0.373932 0.430515 0.266852
O O10 0.000000 0.000000 0.500000
O O11 0.195084 0.962757 0.354024
O O12 0.500000 0.500000 0.500000
O O13 0.824690 0.528962 0.381748
O O14 0.317693 0.218535 0.992680
O O15 0.793602 0.138413 0.790571
O O16 0.000000 0.500000 0.500000
#
# Coordination Sequence:
#
# PCOD9069724 Si02
#       7
#     2   2   2   2   2   2   2
#     4  12  29  48  75 111 152 199 248 312 387 449
#     4  12  26  51  76 109 154 200 249 317 372 453
#     4  12  24  47  79 107 143 206 251 294 389 444
#     4  12  23  47  76 106 149 195 249 309 379 439
#     4  12  26  47  80 106 151 201 246 315 378 448
#     4  12  27  52  73 114 154 193 263 312 374 455
#     4  12  29  47  72 113 154 192 253 322 365 456
#
# _framework density 26.403984999999999
#
# number of rings (size 3 to 8) (size 9 to 14) (size 15 to 20)
#    0.000    0.000    5.714    2.571    6.000    2.857 
#    5.143    0.000    0.000    0.000    0.000    0.000 
#    0.000    0.000    0.000    0.000    0.000    0.000 
#
# Total GULP energy -77999.983285 kJ/mol
# GULP energy per Si atom -5571.427377 kJ/mol
# Density = 2.634389 g / cm^3
# Si number density = 26.403985 Si / 1000 Ang^3
#
#
#
# Elastic Constant Matrix: (Units=GPa)
#
#
# Indices 1 2 3 4 5 6 
#
# 1 44.0847 -2.0430 21.3525 -2.4757 0.2065 -0.2399
# 2 -2.0430 148.0688 9.9891 7.5833 -7.7522 10.5761
# 3 21.3525 9.9891 160.2292 9.4989 2.3349 -8.8038
# 4 -2.4757 7.5833 9.4989 51.7310 9.5821 13.2277
# 5 0.2065 -7.7522 2.3349 9.5821 38.4631 15.4266
# 6 -0.2399 10.5761 -8.8038 13.2277 15.4266 31.9621
#
#
#
# Elastic Compliance Matrix: (Units=1/GPa)
#
#
# Indices 1 2 3 4 5 6 
#
# 1 0.024552 0.000652 -0.003571 0.002193 0.000547 -0.002187
# 2 0.000652 0.007293 -0.000780 -0.000474 0.003231 -0.003986
# 3 -0.003571 -0.000780 0.007119 -0.002042 -0.001587 0.003803
# 4 0.002193 -0.000474 -0.002042 0.022490 -0.002104 -0.008681
# 5 0.000547 0.003231 -0.001587 -0.002104 0.034127 -0.017103
# 6 -0.002187 -0.003986 0.003803 -0.008681 -0.017103 0.045484
#
#
# Mechanical properties :
#
#
# Convention : Reuss Voigt Hill
#
# Bulk Modulus (GPa) = 31.67783 45.66444 38.67114
# Shear Modulus (GPa) = 31.44970 45.97018 38.70994
#
# Velocity S-wave (km/s) = 3.45497 4.17709 3.83308
# Velocity P-wave (km/s) = 5.28575 6.37152 5.85386
#
# Compressibility (1/GPa) = 0.03156782
#
# Stress axis : x y z
#
# Youngs Moduli (GPa) = 40.72994 137.11111 140.47633
#
# Poissons Ratio (x) = -0.08942 0.50159
# Poissons Ratio (y) = -0.02656 0.10952
# Poissons Ratio (z) = 0.14543 0.10689
#
# Static dielectric constant tensor:
#      x y z
#    x 2.199820 0.042260 0.266270 
#    y 0.042260 2.085850 -0.465330 
#    z 0.266270 -0.465330 2.616790 
# 
# From -- ./inp_files/492312.got.cif
#   From: 2010.05.17/outbox.cif.g08.bks.cpg/sg2_247_cif.got.tgz:492312.got - 2010.06.03 11:33:40.
