data_PCOD9069602
_publ_section_title
;
Structure prediction by ZEFSAII (Michael W. Deem and Ramdas Pophale) SiO2 
 PCOD9069602
Probable space group: P -1
;
_chemical_formula_sum "Si O2"
_cell_formula_units_Z 16
_cell_length_a 11.045561
_cell_length_b 8.632409
_cell_length_c 18.584254
_cell_angle_alpha 31.712554
_cell_angle_beta 63.612321
_cell_angle_gamma 53.036270
_cell_volume 734.702705
_symmetry_space_group_name_H-M "P -1"
_symmetry_group_IT_number 2
_symmetry_cell_setting 'triclinic'
loop_
_space_group_symop_operation_xyz
x,y,z
-x,-y,-z
loop_
_atom_site_type_symbol
_atom_site_label
_atom_site_fract_x
_atom_site_fract_y
_atom_site_fract_z
Si Si1 0.067374 0.758752 0.862349
Si Si2 0.869143 0.826270 0.561295
Si Si3 0.712786 0.616400 0.280847
Si Si4 0.421641 0.286500 0.577930
Si Si5 0.093967 0.682535 0.433813
Si Si6 0.599511 0.754405 0.632556
Si Si7 0.964131 0.823668 0.144929
Si Si8 0.591825 0.628201 0.150876
O O1 0.244064 0.583575 0.851878
O O2 0.058748 0.970195 0.854610
O O3 0.958469 0.005346 0.730210
O O4 0.000000 0.500000 0.000000
O O5 0.769661 0.689067 0.596272
O O6 0.015200 0.780202 0.494858
O O7 0.916326 0.566655 0.716732
O O8 0.782790 0.223392 0.438549
O O9 0.627925 0.815324 0.295571
O O10 0.823500 0.772772 0.175496
O O11 0.627456 0.636311 0.222128
O O12 0.500000 0.500000 0.500000
O O13 0.275166 0.471746 0.489312
O O14 0.555683 0.971520 0.629740
O O15 0.000000 0.500000 0.500000
O O16 0.533898 0.502566 0.764396
O O17 0.500000 0.000000 0.500000
O O18 0.000000 0.000000 0.000000
O O19 0.500000 0.000000 0.000000
#
# Coordination Sequence:
#
# PCOD9069602 Si02
#       8
#     2   2   2   2   2   2   2   2
#     4  12  27  49  73 106 143 199 251 295 361 449
#     4  12  24  43  78 102 140 191 241 301 354 431
#     4  12  24  47  70 107 142 186 240 302 361 435
#     4  12  25  43  71 112 147 182 241 313 370 427
#     4  12  23  45  78 105 139 193 250 300 354 436
#     4  12  24  46  71 105 143 185 245 293 365 437
#     4  12  28  46  72 109 149 186 243 305 366 428
#     4  12  28  48  72 104 148 196 241 303 369 445
#
# _framework density 21.777515000000001
#
# number of rings (size 3 to 8) (size 9 to 14) (size 15 to 20)
#    0.000    0.000    6.250    3.375    3.500    1.000 
#    2.250    1.250    0.000    0.000    0.000    0.000 
#    0.000    0.000    0.000    0.000    0.000    0.000 
#
# Total GULP energy -89210.141785 kJ/mol
# GULP energy per Si atom -5575.633862 kJ/mol
# Density = 2.172795 g / cm^3
# Si number density = 21.777515 Si / 1000 Ang^3
#
#
#
# Elastic Constant Matrix: (Units=GPa)
#
#
# Indices 1 2 3 4 5 6 
#
# 1 128.6255 22.3898 41.4780 -2.0626 -20.2183 14.2782
# 2 22.3898 79.7565 45.1788 1.2927 13.0378 0.5667
# 3 41.4780 45.1788 176.5263 14.7990 -19.3095 7.7893
# 4 -2.0626 1.2927 14.7990 23.7949 5.9290 -3.9671
# 5 -20.2183 13.0378 -19.3095 5.9290 50.1747 4.3563
# 6 14.2782 0.5667 7.7893 -3.9671 4.3563 38.1599
#
#
#
# Elastic Compliance Matrix: (Units=1/GPa)
#
#
# Indices 1 2 3 4 5 6 
#
# 1 0.009756 -0.003055 -0.000773 -0.000383 0.004823 -0.004038
# 2 -0.003055 0.017757 -0.005349 0.004865 -0.008780 0.003479
# 3 -0.000773 -0.005349 0.008499 -0.006855 0.005393 -0.002695
# 4 -0.000383 0.004865 -0.006855 0.049958 -0.010644 0.007879
# 5 0.004823 -0.008780 0.005393 -0.010644 0.028104 -0.007090
# 6 -0.004038 0.003479 -0.002695 0.007879 -0.007090 0.029843
#
#
# Mechanical properties :
#
#
# Convention : Reuss Voigt Hill
#
# Bulk Modulus (GPa) = 56.62562 67.00017 61.81290
# Shear Modulus (GPa) = 29.73437 40.81667 35.27552
#
# Velocity S-wave (km/s) = 3.69910 4.33397 4.02906
# Velocity P-wave (km/s) = 6.65603 7.47509 7.07742
#
# Compressibility (1/GPa) = 0.01765985
#
# Stress axis : x y z
#
# Youngs Moduli (GPa) = 102.50543 56.31496 117.66214
#
# Poissons Ratio (x) = 0.17202 0.09091
# Poissons Ratio (y) = 0.31311 0.62935
# Poissons Ratio (z) = 0.07920 0.30122
#
# Static dielectric constant tensor:
#      x y z
#    x 1.904740 0.133600 0.041680 
#    y 0.133600 1.729550 -0.125890 
#    z 0.041680 -0.125890 1.686350 
# 
# From -- ./inp_files/418872.got.cif
#   From: 2010.05.17/outbox.cif.g08.bks.cpg/sg2_210_cif.got.tgz:418872.got - 2010.06.03 11:33:40.
