data_PCOD9069732
_publ_section_title
;
Structure prediction by ZEFSAII (Michael W. Deem and Ramdas Pophale) SiO2 
 PCOD9069732
Probable space group: P -1
;
_chemical_formula_sum "Si O2"
_cell_formula_units_Z 16
_cell_length_a 17.711065
_cell_length_b 9.673917
_cell_length_c 7.641712
_cell_angle_alpha 76.641496
_cell_angle_beta 119.943796
_cell_angle_gamma 142.822470
_cell_volume 649.924156
_symmetry_space_group_name_H-M "P -1"
_symmetry_group_IT_number 2
_symmetry_cell_setting 'triclinic'
loop_
_space_group_symop_operation_xyz
x,y,z
-x,-y,-z
loop_
_atom_site_type_symbol
_atom_site_label
_atom_site_fract_x
_atom_site_fract_y
_atom_site_fract_z
Si Si1 0.858899 0.216288 0.895578
Si Si2 0.452327 0.877364 0.289102
Si Si3 0.403850 0.503872 0.465195
Si Si4 0.074169 0.967906 0.193328
Si Si5 0.115686 0.267605 0.628179
Si Si6 0.770477 0.292687 0.459236
Si Si7 0.282079 0.884533 0.899567
Si Si8 0.442607 0.583798 0.887603
O O1 0.899736 0.122172 0.886463
O O2 0.768713 0.183884 0.652285
O O3 0.788675 0.108991 0.036315
O O4 0.000000 0.500000 0.000000
O O5 0.414907 0.661689 0.318499
O O6 0.500000 0.000000 0.500000
O O7 0.599357 0.104876 0.282432
O O8 0.318340 0.788123 0.075668
O O9 0.500000 0.500000 0.500000
O O10 0.454366 0.620649 0.681270
O O11 0.235678 0.228528 0.371039
O O12 0.962849 0.779787 0.273785
O O13 0.000000 0.000000 0.000000
O O14 0.145545 0.447882 0.493056
O O15 0.274844 0.401061 0.800686
O O16 0.000000 0.000000 0.500000
O O17 0.814604 0.270682 0.338248
O O18 0.437260 0.161872 0.950807
O O19 0.500000 0.500000 0.000000
#
# Coordination Sequence:
#
# PCOD9069732 Si02
#       8
#     2   2   2   2   2   2   2   2
#     4  12  30  53  79 114 160 212 266 330 396 478
#     4  12  23  47  79 111 155 199 259 325 394 461
#     4  12  27  49  78 113 156 206 263 326 396 473
#     4  12  31  50  76 114 158 211 258 320 408 476
#     4  12  28  51  77 112 159 209 259 329 401 473
#     4  12  27  49  82 117 153 202 273 325 397 474
#     4  12  27  48  82 117 152 207 269 331 394 468
#     4  12  28  46  75 117 158 205 261 331 396 470
#
# _framework density 24.618258000000001
#
# number of rings (size 3 to 8) (size 9 to 14) (size 15 to 20)
#    0.000    0.000    5.000    2.625   12.250    2.000 
#    0.000    0.000    0.000    0.000    0.000    0.000 
#    0.000    0.000    0.000    0.000    0.000    0.000 
#
# Total GULP energy -89673.070321 kJ/mol
# GULP energy per Si atom -5604.566895 kJ/mol
# Density = 2.456223 g / cm^3
# Si number density = 24.618258 Si / 1000 Ang^3
#
#
#
# Elastic Constant Matrix: (Units=GPa)
#
#
# Indices 1 2 3 4 5 6 
#
# 1 139.7608 40.8359 17.8447 1.7338 -0.1014 -2.2634
# 2 40.8359 113.0865 -2.4014 16.1889 4.6956 -12.5286
# 3 17.8447 -2.4014 46.9401 13.8078 -8.6646 -0.5195
# 4 1.7338 16.1889 13.8078 44.8839 -2.3937 1.4436
# 5 -0.1014 4.6956 -8.6646 -2.3937 46.6372 -0.2214
# 6 -2.2634 -12.5286 -0.5195 1.4436 -0.2214 50.0391
#
#
#
# Elastic Compliance Matrix: (Units=1/GPa)
#
#
# Indices 1 2 3 4 5 6 
#
# 1 0.008714 -0.003619 -0.004227 0.002274 -0.000288 -0.000623
# 2 -0.003619 0.011297 0.003341 -0.005095 -0.000773 0.002843
# 3 -0.004227 0.003341 0.026507 -0.009015 0.004122 0.001199
# 4 0.002274 -0.005095 -0.009015 0.026880 0.000213 -0.002041
# 5 -0.000288 -0.000773 0.004122 0.000213 0.022296 -0.000071
# 6 -0.000623 0.002843 0.001199 -0.002041 -0.000071 0.020739
#
#
# Mechanical properties :
#
#
# Convention : Reuss Voigt Hill
#
# Bulk Modulus (GPa) = 26.65942 45.81622 36.23782
# Shear Modulus (GPa) = 36.24656 44.54592 40.39624
#
# Velocity S-wave (km/s) = 3.84128 4.25840 4.05520
# Velocity P-wave (km/s) = 5.52508 6.54444 6.05624
#
# Compressibility (1/GPa) = 0.03751019
#
# Stress axis : x y z
#
# Youngs Moduli (GPa) = 114.76356 88.51932 37.72519
#
# Poissons Ratio (x) = 0.32033 0.15945
# Poissons Ratio (y) = 0.41530 -0.12605
# Poissons Ratio (z) = 0.48505 -0.29577
#
# Static dielectric constant tensor:
#      x y z
#    x 2.026600 0.058660 0.042060 
#    y 0.058660 1.936930 -0.032960 
#    z 0.042060 -0.032960 1.742540 
# 
# From -- ./inp_files/328913.got.cif
#   From: 2010.05.17/outbox.cif.g08.bks.cpg/sg2_165_cif.got.tgz:328913.got - 2010.06.03 11:33:40.
