data_PCOD9069220
_publ_section_title
;
Structure prediction by ZEFSAII (Michael W. Deem and Ramdas Pophale) SiO2 
 PCOD9069220
Probable space group: P -1
;
_chemical_formula_sum "Si O2"
_cell_formula_units_Z 15
_cell_length_a 9.542037
_cell_length_b 11.623882
_cell_length_c 9.033756
_cell_angle_alpha 110.432242
_cell_angle_beta 129.101034
_cell_angle_gamma 52.624867
_cell_volume 616.995429
_symmetry_space_group_name_H-M "P -1"
_symmetry_group_IT_number 2
_symmetry_cell_setting 'triclinic'
loop_
_space_group_symop_operation_xyz
x,y,z
-x,-y,-z
loop_
_atom_site_type_symbol
_atom_site_label
_atom_site_fract_x
_atom_site_fract_y
_atom_site_fract_z
Si Si1 0.578705 0.610526 0.612337
Si Si2 0.682362 0.832088 0.311210
Si Si3 0.500000 0.000000 0.500000
Si Si4 0.901631 0.618569 0.618112
Si Si5 0.534190 0.243512 0.100288
Si Si6 0.123854 0.052364 0.706931
Si Si7 0.283273 0.655641 0.945026
Si Si8 0.238473 0.848369 0.280578
O O1 0.500000 0.500000 0.500000
O O2 0.782606 0.575744 0.636134
O O3 0.597321 0.641958 0.809196
O O4 0.387508 0.753416 0.472816
O O5 0.509678 0.993939 0.318793
O O6 0.734632 0.771441 0.490339
O O7 0.858825 0.831130 0.326689
O O8 0.602365 0.745869 0.127628
O O9 0.299086 0.966930 0.346707
O O10 0.000000 0.500000 0.500000
O O11 0.085160 0.636124 0.814929
O O12 0.722105 0.262879 0.172880
O O13 0.642152 0.082617 0.162385
O O14 0.997259 0.099096 0.797276
O O15 0.000000 0.000000 0.500000
O O16 0.500000 0.500000 0.000000
O O17 0.290785 0.744309 0.128208
#
# Coordination Sequence:
#
# PCOD9069220 Si02
#       8
#     2   2   1   2   2   2   2   2
#     4  12  26  47  75 109 148 197 251 313 373 441
#     4  12  26  46  72 102 148 191 248 300 373 444
#     4  12  22  46  74 100 146 200 234 300 364 446
#     4  12  27  48  76 104 144 201 249 306 376 446
#     4  12  25  46  72 106 149 192 246 311 369 442
#     4  12  25  42  69 108 146 191 238 302 368 440
#     4  12  27  51  75 110 148 194 253 311 373 455
#     4  12  26  47  75 107 153 194 250 303 379 446
#
# _framework density 24.311363
#
# number of rings (size 3 to 8) (size 9 to 14) (size 15 to 20)
#    0.000    0.000    5.333    4.400    3.733    1.600 
#    0.000    2.000    0.000    0.000    0.000    0.000 
#    0.000    0.000    0.000    0.000    0.000    0.000 
#
# Total GULP energy -83764.032714 kJ/mol
# GULP energy per Si atom -5584.268848 kJ/mol
# Density = 2.425603 g / cm^3
# Si number density = 24.311363 Si / 1000 Ang^3
#
#
#
# Elastic Constant Matrix: (Units=GPa)
#
#
# Indices 1 2 3 4 5 6 
#
# 1 236.7626 52.6981 60.8526 40.5999 -0.5241 9.3853
# 2 52.6981 53.6681 33.5321 24.5440 -5.4271 10.7791
# 3 60.8526 33.5321 118.1460 40.9523 -6.0872 2.8056
# 4 40.5999 24.5440 40.9523 50.3487 -4.9030 -4.3793
# 5 -0.5241 -5.4271 -6.0872 -4.9030 44.3698 13.6920
# 6 9.3853 10.7791 2.8056 -4.3793 13.6920 36.2553
#
#
#
# Elastic Compliance Matrix: (Units=1/GPa)
#
#
# Indices 1 2 3 4 5 6 
#
# 1 0.005761 -0.004182 -0.001236 -0.001683 -0.000780 -0.000061
# 2 -0.004182 0.032281 -0.002753 -0.010570 0.006010 -0.011848
# 3 -0.001236 -0.002753 0.012740 -0.008040 0.000861 -0.001144
# 4 -0.001683 -0.010570 -0.008040 0.033537 -0.001422 0.008788
# 5 -0.000780 0.006010 0.000861 -0.001422 0.026925 -0.011992
# 6 -0.000061 -0.011848 -0.001144 0.008788 -0.011992 0.036799
#
#
# Mechanical properties :
#
#
# Convention : Reuss Voigt Hill
#
# Bulk Modulus (GPa) = 29.03519 78.08248 53.55884
# Shear Modulus (GPa) = 28.43070 43.62766 36.02918
#
# Velocity S-wave (km/s) = 3.42342 4.24079 3.85384
# Velocity P-wave (km/s) = 5.25313 7.49443 6.47155
#
# Compressibility (1/GPa) = 0.03444096
#
# Stress axis : x y z
#
# Youngs Moduli (GPa) = 173.56788 30.97795 78.49113
#
# Poissons Ratio (x) = 0.12955 0.09700
# Poissons Ratio (y) = 0.72584 0.21610
# Poissons Ratio (z) = 0.21450 0.08529
#
# Static dielectric constant tensor:
#      x y z
#    x 1.957790 0.086350 0.007150 
#    y 0.086350 1.678650 -0.061570 
#    z 0.007150 -0.061570 1.906870 
# 
# From -- ./inp_files/189607.got.cif
#   From: 2010.05.17/outbox.cif.g08.bks.cpg/sg2_95_cif.got.tgz:189607.got - 2010.06.03 11:33:40.
