data_PCOD9069195
_publ_section_title
;
Structure prediction by ZEFSAII (Michael W. Deem and Ramdas Pophale) SiO2 
 PCOD9069195
Probable space group: P -1
;
_chemical_formula_sum "Si O2"
_cell_formula_units_Z 16
_cell_length_a 10.509807
_cell_length_b 8.412539
_cell_length_c 20.042640
_cell_angle_alpha 30.996041
_cell_angle_beta 120.420787
_cell_angle_gamma 118.903453
_cell_volume 782.073435
_symmetry_space_group_name_H-M "P -1"
_symmetry_group_IT_number 2
_symmetry_cell_setting 'triclinic'
loop_
_space_group_symop_operation_xyz
x,y,z
-x,-y,-z
loop_
_atom_site_type_symbol
_atom_site_label
_atom_site_fract_x
_atom_site_fract_y
_atom_site_fract_z
Si Si1 0.647940 0.081195 0.968102
Si Si2 0.285568 0.416168 0.578563
Si Si3 0.114846 0.376989 0.125144
Si Si4 0.052233 0.881333 0.700034
Si Si5 0.174337 0.506169 0.750095
Si Si6 0.614986 0.367541 0.711616
Si Si7 0.749090 0.079280 0.500853
Si Si8 0.155251 0.720827 0.309126
O O1 0.742829 0.376875 0.919481
O O2 0.616082 0.183959 0.847376
O O3 0.500000 0.000000 0.000000
O O4 0.743274 0.790128 0.102873
O O5 0.450271 0.318712 0.654775
O O6 0.289432 0.709967 0.523133
O O7 0.223357 0.496142 0.461015
O O8 0.163684 0.145258 0.670398
O O9 0.035073 0.335799 0.190337
O O10 0.154345 0.047142 0.228705
O O11 0.000000 0.500000 0.000000
O O12 0.144468 0.699709 0.738298
O O13 0.922168 0.028070 0.573199
O O14 0.264833 0.727769 0.640032
O O15 0.012352 0.394836 0.715754
O O16 0.738839 0.260259 0.733735
O O17 0.658647 0.738925 0.599855
#
# Coordination Sequence:
#
# PCOD9069195 Si02
#       8
#     2   2   2   2   2   2   2   2
#     4  12  28  49  68 102 141 181 223 279 349 408
#     4  12  25  42  71 104 140 174 228 289 339 394
#     4  12  26  43  72 101 135 181 230 281 338 407
#     4  12  24  44  71 103 133 179 235 281 334 405
#     4  12  25  43  75 101 137 181 229 283 336 405
#     4  12  27  45  69 101 143 182 225 280 345 407
#     4  12  22  45  71 101 136 179 231 279 339 405
#     4  12  23  44  72 104 134 178 233 283 335 401
#
# _framework density 20.458437
#
# number of rings (size 3 to 8) (size 9 to 14) (size 15 to 20)
#    0.000    0.000    6.250    3.750    3.500    3.000 
#    0.000    1.250    0.000    0.000    0.000    0.000 
#    0.000    0.000    0.000    0.000    0.000    0.000 
#
# Total GULP energy -89590.766959 kJ/mol
# GULP energy per Si atom -5599.422935 kJ/mol
# Density = 2.041187 g / cm^3
# Si number density = 20.458437 Si / 1000 Ang^3
#
#
#
# Elastic Constant Matrix: (Units=GPa)
#
#
# Indices 1 2 3 4 5 6 
#
# 1 100.4765 26.6572 49.1404 12.7700 -16.1970 5.8179
# 2 26.6572 38.1325 35.3163 30.0340 -7.0401 5.8105
# 3 49.1404 35.3163 130.7004 19.0127 -11.0087 10.6928
# 4 12.7700 30.0340 19.0127 4.5798 5.4665 3.7441
# 5 -16.1970 -7.0401 -11.0087 5.4665 40.8809 3.4950
# 6 5.8179 5.8105 10.6928 3.7441 3.4950 45.5080
#
#
#
# Elastic Compliance Matrix: (Units=1/GPa)
#
#
# Indices 1 2 3 4 5 6 
#
# 1 0.013603 -0.004043 -0.003348 -0.001928 0.004100 -0.000593
# 2 -0.004043 0.000386 -0.005111 0.040668 -0.008260 -0.001043
# 3 -0.003348 -0.005111 0.010915 -0.002827 0.001226 -0.001346
# 4 -0.001928 0.040668 -0.002827 -0.043612 0.011444 -0.001573
# 5 0.004100 -0.008260 0.001226 0.011444 0.023678 -0.002518
# 6 -0.000593 -0.001043 -0.001346 -0.001573 -0.002518 0.022822
#
#
# Mechanical properties :
#
#
# Convention : Reuss Voigt Hill
#
# Bulk Modulus (GPa) = -10205.30896 54.61526 -5075.34685
# Shear Modulus (GPa) = 94.76333 28.74009 61.75171
#
# Velocity S-wave (km/s) = 6.81326 3.75214 5.49996
# Velocity P-wave (km/s) = 70.26556 6.74723 49.45565
#
# Compressibility (1/GPa) = -0.00009799
#
# Stress axis : x y z
#
# Youngs Moduli (GPa) = 73.51466 2587.69828 91.61446
#
# Poissons Ratio (x) = 10.46186 0.30669
# Poissons Ratio (y) = 0.29721 0.46822
# Poissons Ratio (z) = 0.24610 13.22507
#
# Static dielectric constant tensor:
#      x y z
#    x 1.698520 -0.000140 -0.012110 
#    y -0.000140 1.714820 0.002130 
#    z -0.012110 0.002130 1.735370 
# 
# From -- ./inp_files/207878.got.cif
#   From: 2010.05.17/outbox.cif.g08.bks.cpg/sg2_104_cif.got.tgz:207878.got - 2010.06.03 11:33:40.
