data_PCOD9069290
_publ_section_title
;
Structure prediction by ZEFSAII (Michael W. Deem and Ramdas Pophale) SiO2 
 PCOD9069290
Probable space group: P -1
;
_chemical_formula_sum "Si O2"
_cell_formula_units_Z 13
_cell_length_a 14.290381
_cell_length_b 11.591303
_cell_length_c 5.320295
_cell_angle_alpha 103.221791
_cell_angle_beta 109.122704
_cell_angle_gamma 33.661916
_cell_volume 459.901071
_symmetry_space_group_name_H-M "P -1"
_symmetry_group_IT_number 2
_symmetry_cell_setting 'triclinic'
loop_
_space_group_symop_operation_xyz
x,y,z
-x,-y,-z
loop_
_atom_site_type_symbol
_atom_site_label
_atom_site_fract_x
_atom_site_fract_y
_atom_site_fract_z
Si Si1 0.656252 0.996864 0.360942
Si Si2 0.223488 0.591335 0.674818
Si Si3 0.293633 0.337494 0.959688
Si Si4 0.565895 0.321004 0.606754
Si Si5 0.500000 0.000000 0.500000
Si Si6 0.970393 0.706792 0.178467
Si Si7 0.866424 0.073365 0.114009
O O1 0.657066 0.948081 0.620184
O O2 0.798554 0.815525 0.198125
O O3 0.673758 0.121311 0.436949
O O4 0.451830 0.156894 0.210655
O O5 0.282916 0.489000 0.951778
O O6 0.398364 0.412852 0.583847
O O7 0.083298 0.633408 0.486678
O O8 0.155266 0.791371 0.656508
O O9 0.369316 0.200492 0.705479
O O10 0.105237 0.508849 0.012519
O O11 0.500000 0.500000 0.500000
O O12 0.677832 0.248198 0.906573
O O13 0.923814 0.882782 0.116448
O O14 0.000000 0.000000 0.000000
#
# Coordination Sequence:
#
# PCOD9069290 Si02
#       7
#     2   2   2   2   1   2   2
#     4  12  27  49  77 109 147 197 253 306 379 440
#     4  12  23  45  71 108 157 198 245 298 371 445
#     4  12  25  51  75 107 143 195 247 315 375 437
#     4  12  23  43  73 111 153 203 244 300 369 447
#     4  12  28  52  82 102 148 192 258 318 376 444
#     4  12  26  45  76 111 154 197 249 307 368 451
#     4  12  23  40  70 113 159 200 243 297 366 448
#
# _framework density 28.266949
#
# number of rings (size 3 to 8) (size 9 to 14) (size 15 to 20)
#    0.000    0.000    4.615    6.000    0.000    0.615 
#    0.000    3.846    0.000    0.000    0.000    0.000 
#    0.000    0.000    0.000    0.000    0.000    0.000 
#
# Total GULP energy -72503.548233 kJ/mol
# GULP energy per Si atom -5577.196018 kJ/mol
# Density = 2.820261 g / cm^3
# Si number density = 28.266949 Si / 1000 Ang^3
#
#
#
# Elastic Constant Matrix: (Units=GPa)
#
#
# Indices 1 2 3 4 5 6 
#
# 1 157.9419 85.7174 27.7903 33.8585 -37.9506 -18.2136
# 2 85.7174 161.3456 36.3998 40.7901 -23.7720 1.7787
# 3 27.7903 36.3998 71.5693 29.4355 -7.6865 -17.4064
# 4 33.8585 40.7901 29.4355 63.1706 0.3608 -0.6467
# 5 -37.9506 -23.7720 -7.6865 0.3608 27.7406 20.1366
# 6 -18.2136 1.7787 -17.4064 -0.6467 20.1366 58.3141
#
#
#
# Elastic Compliance Matrix: (Units=1/GPa)
#
#
# Indices 1 2 3 4 5 6 
#
# 1 0.012738 -0.003200 0.000041 -0.004885 0.015789 -0.001418
# 2 -0.003200 0.010732 -0.002974 -0.003922 0.007587 -0.004878
# 3 0.000041 -0.002974 0.019877 -0.007288 -0.001619 0.006515
# 4 -0.004885 -0.003922 -0.007288 0.024466 -0.013317 0.001288
# 5 0.015789 0.007587 -0.001619 -0.013317 0.081299 -0.024004
# 6 -0.001418 -0.004878 0.006515 0.001288 -0.024004 0.027102
#
#
# Mechanical properties :
#
#
# Convention : Reuss Voigt Hill
#
# Bulk Modulus (GPa) = 32.17279 76.74133 54.45706
# Shear Modulus (GPa) = 25.14577 45.90834 35.52705
#
# Velocity S-wave (km/s) = 2.98582 4.03438 3.54904
# Velocity P-wave (km/s) = 4.82632 6.99352 6.00844
#
# Compressibility (1/GPa) = 0.03108216
#
# Stress axis : x y z
#
# Youngs Moduli (GPa) = 78.50357 93.17985 50.30907
#
# Poissons Ratio (x) = 0.29816 -0.00208
# Poissons Ratio (y) = 0.25120 0.14963
# Poissons Ratio (z) = -0.00324 0.27713
#
# Static dielectric constant tensor:
#      x y z
#    x 1.766400 -0.109860 0.364050 
#    y -0.109860 2.214170 0.229750 
#    z 0.364050 0.229750 1.840940 
# 
# From -- ./inp_files/95380.got.cif
#   From: 2010.05.17/outbox.cif.g08.bks.cpg/sg2_48_cif.got.tgz:95380.got - 2010.06.03 11:33:40.
