data_PCOD9069915
_publ_section_title
;
Structure prediction by ZEFSAII (Michael W. Deem and Ramdas Pophale) SiO2 
 PCOD9069915
Probable space group: P -1
;
_chemical_formula_sum "Si O2"
_cell_formula_units_Z 16
_cell_length_a 14.955449
_cell_length_b 16.627512
_cell_length_c 7.069515
_cell_angle_alpha 105.687560
_cell_angle_beta 64.050869
_cell_angle_gamma 151.843098
_cell_volume 717.821886
_symmetry_space_group_name_H-M "P -1"
_symmetry_group_IT_number 2
_symmetry_cell_setting 'triclinic'
loop_
_space_group_symop_operation_xyz
x,y,z
-x,-y,-z
loop_
_atom_site_type_symbol
_atom_site_label
_atom_site_fract_x
_atom_site_fract_y
_atom_site_fract_z
Si Si1 0.108897 0.666360 0.073636
Si Si2 0.486708 0.728611 0.684969
Si Si3 0.692709 0.083705 0.289476
Si Si4 0.640353 0.252654 0.844961
Si Si5 0.022510 0.919452 0.487118
Si Si6 0.100510 0.289854 0.206394
Si Si7 0.759903 0.451262 0.541852
Si Si8 0.698591 0.591494 0.309322
O O1 0.286839 0.775995 0.132283
O O2 0.943297 0.592606 0.307720
O O3 0.187797 0.770766 0.882103
O O4 0.000000 0.500000 0.000000
O O5 0.436187 0.723152 0.517463
O O6 0.390526 0.565755 0.667285
O O7 0.377030 0.695495 0.935713
O O8 0.730116 0.912680 0.623905
O O9 0.878714 0.176836 0.300513
O O10 0.500000 0.000000 0.500000
O O11 0.575666 0.926209 0.175159
O O12 0.791857 0.404464 0.642422
O O13 0.936417 0.820052 0.703166
O O14 0.897905 0.771215 0.357558
O O15 0.000000 0.000000 0.500000
O O16 0.247724 0.466091 0.292503
O O17 0.219706 0.350922 0.944745
O O18 0.500000 0.500000 0.500000
#
# Coordination Sequence:
#
# PCOD9069915 Si02
#       8
#     2   2   2   2   2   2   2   2
#     4  12  24  43  71 104 154 196 256 305 367 446
#     4  12  25  47  76 108 152 197 251 317 383 452
#     4  12  27  47  74 114 156 203 255 311 376 456
#     4  12  25  44  71 105 152 199 253 309 376 445
#     4  12  28  49  77 112 148 193 255 318 386 457
#     4  12  27  48  79 109 152 203 253 310 389 457
#     4  12  24  45  73 107 148 205 249 311 375 450
#     4  12  26  54  77 109 153 195 254 326 387 457
#
# _framework density 22.289650999999999
#
# number of rings (size 3 to 8) (size 9 to 14) (size 15 to 20)
#    0.000    0.000    5.000    5.250    3.500    1.000 
#    2.250    0.000    0.000    0.000    0.000    0.000 
#    0.000    0.000    0.000    0.000    0.000    0.000 
#
# Total GULP energy -89399.778439 kJ/mol
# GULP energy per Si atom -5587.486152 kJ/mol
# Density = 2.223892 g / cm^3
# Si number density = 22.289651 Si / 1000 Ang^3
#
#
#
# Elastic Constant Matrix: (Units=GPa)
#
#
# Indices 1 2 3 4 5 6 
#
# 1 91.4479 18.2944 64.3749 -1.4887 12.4278 1.8430
# 2 18.2944 110.2085 53.1748 20.1770 3.3217 4.6916
# 3 64.3749 53.1748 168.0730 3.1559 8.4102 7.4969
# 4 -1.4887 20.1770 3.1559 40.6430 -9.3790 7.9439
# 5 12.4278 3.3217 8.4102 -9.3790 42.1495 -7.7720
# 6 1.8430 4.6916 7.4969 7.9439 -7.7720 44.0748
#
#
#
# Elastic Compliance Matrix: (Units=1/GPa)
#
#
# Indices 1 2 3 4 5 6 
#
# 1 0.015459 0.000353 -0.005848 0.000111 -0.003453 -0.000318
# 2 0.000353 0.011964 -0.003733 -0.006040 -0.001618 0.000150
# 3 -0.005848 -0.003733 0.009389 0.001177 0.000198 -0.001132
# 4 0.000111 -0.006040 0.001177 0.029673 0.006105 -0.003834
# 5 -0.003453 -0.001618 0.000198 0.006105 0.026914 0.003929
# 6 -0.000318 0.000150 -0.001132 -0.003834 0.003929 0.024262
#
#
# Mechanical properties :
#
#
# Convention : Reuss Voigt Hill
#
# Bulk Modulus (GPa) = 54.47591 71.26863 62.87227
# Shear Modulus (GPa) = 35.15297 40.96582 38.05939
#
# Velocity S-wave (km/s) = 3.97558 4.29171 4.13666
# Velocity P-wave (km/s) = 6.75031 7.52340 7.14732
#
# Compressibility (1/GPa) = 0.01835674
#
# Stress axis : x y z
#
# Youngs Moduli (GPa) = 64.68925 83.58226 106.50813
#
# Poissons Ratio (x) = -0.02948 0.62281
# Poissons Ratio (y) = -0.02282 0.39756
# Poissons Ratio (z) = 0.37828 0.31198
#
# Static dielectric constant tensor:
#      x y z
#    x 1.888170 0.052010 0.029270 
#    y 0.052010 1.864290 0.002820 
#    z 0.029270 0.002820 1.818870 
# 
# From -- ./inp_files/99801.got.cif
#   From: 2010.05.17/outbox.cif.g08.bks.cpg/sg2_50_cif.got.tgz:99801.got - 2010.06.03 11:33:40.
