data_PCOD9069500
_publ_section_title
;
Structure prediction by ZEFSAII (Michael W. Deem and Ramdas Pophale) SiO2 
 PCOD9069500
Probable space group: P -1
;
_chemical_formula_sum "Si O2"
_cell_formula_units_Z 16
_cell_length_a 9.515941
_cell_length_b 14.275845
_cell_length_c 11.796488
_cell_angle_alpha 31.127588
_cell_angle_beta 110.840165
_cell_angle_gamma 110.387155
_cell_volume 771.031165
_symmetry_space_group_name_H-M "P -1"
_symmetry_group_IT_number 2
_symmetry_cell_setting 'triclinic'
loop_
_space_group_symop_operation_xyz
x,y,z
-x,-y,-z
loop_
_atom_site_type_symbol
_atom_site_label
_atom_site_fract_x
_atom_site_fract_y
_atom_site_fract_z
Si Si1 0.196401 0.629062 0.733760
Si Si2 0.506120 0.035422 0.099568
Si Si3 0.366847 0.397454 0.646621
Si Si4 0.063035 0.484657 0.408355
Si Si5 0.836443 0.212338 0.033027
Si Si6 0.554059 0.344755 0.400822
Si Si7 0.214795 0.454610 0.160656
Si Si8 0.996002 0.096205 0.519847
O O1 0.357168 0.640673 0.706640
O O2 0.069083 0.573752 0.658877
O O3 0.157401 0.823482 0.570383
O O4 0.189935 0.494492 0.979223
O O5 0.455874 0.858586 0.341289
O O6 0.414012 0.210286 0.904435
O O7 0.677189 0.097552 0.116585
O O8 0.500000 0.000000 0.000000
O O9 0.500000 0.500000 0.500000
O O10 0.206309 0.364157 0.572039
O O11 0.352495 0.531233 0.608768
O O12 0.142197 0.678080 0.190268
O O13 0.000000 0.500000 0.500000
O O14 0.833734 0.370034 0.965182
O O15 0.958297 0.066390 0.220665
O O16 0.388676 0.418485 0.269192
O O17 0.114146 0.275206 0.359128
O O18 0.000000 0.000000 0.500000
#
# Coordination Sequence:
#
# PCOD9069500 Si02
#       8
#     2   2   2   2   2   2   2   2
#     4  12  27  46  70 108 150 182 234 302 365 421
#     4  12  25  41  71 106 138 186 244 287 343 424
#     4  12  23  44  71  98 142 192 235 283 348 425
#     4  12  25  45  70 104 147 186 229 293 363 420
#     4  12  24  44  74 104 136 189 241 289 349 426
#     4  12  25  47  69 108 145 182 237 298 357 422
#     4  12  24  49  76 102 140 191 242 292 354 432
#     4  12  25  46  74 104 140 185 240 291 354 430
#
# _framework density 20.751431
#
# number of rings (size 3 to 8) (size 9 to 14) (size 15 to 20)
#    0.000    0.000    8.750    1.500    1.750    1.000 
#    2.250    2.500    0.000    0.000    0.000    0.000 
#    0.000    0.000    0.000    0.000    0.000    0.000 
#
# Total GULP energy -89435.408164 kJ/mol
# GULP energy per Si atom -5589.713010 kJ/mol
# Density = 2.070420 g / cm^3
# Si number density = 20.751431 Si / 1000 Ang^3
#
#
#
# Elastic Constant Matrix: (Units=GPa)
#
#
# Indices 1 2 3 4 5 6 
#
# 1 94.4346 16.0721 28.0373 0.7458 -3.4517 -17.5448
# 2 16.0721 82.5838 10.8174 -3.7601 -12.4172 -11.3677
# 3 28.0373 10.8174 112.4524 -3.4310 9.6561 -20.0647
# 4 0.7458 -3.7601 -3.4310 40.0364 -2.2571 0.8385
# 5 -3.4517 -12.4172 9.6561 -2.2571 32.8522 10.5835
# 6 -17.5448 -11.3677 -20.0647 0.8385 10.5835 32.4231
#
#
#
# Elastic Compliance Matrix: (Units=1/GPa)
#
#
# Indices 1 2 3 4 5 6 
#
# 1 0.012382 -0.001534 -0.002031 -0.000674 -0.000351 0.005037
# 2 -0.001534 0.013560 -0.000985 0.001453 0.004803 0.001709
# 3 -0.002031 -0.000985 0.011431 0.000403 -0.006401 0.007709
# 4 -0.000674 0.001453 0.000403 0.025320 0.002440 -0.001058
# 5 -0.000351 0.004803 -0.006401 0.002440 0.039205 -0.015328
# 6 0.005037 0.001709 0.007709 -0.001058 -0.015328 0.043968
#
#
# Mechanical properties :
#
#
# Convention : Reuss Voigt Hill
#
# Bulk Modulus (GPa) = 35.36935 44.36936 39.86936
# Shear Modulus (GPa) = 30.41524 36.69861 33.55692
#
# Velocity S-wave (km/s) = 3.83259 4.20990 4.02567
# Velocity P-wave (km/s) = 6.05527 6.71258 6.39238
#
# Compressibility (1/GPa) = 0.02827306
#
# Stress axis : x y z
#
# Youngs Moduli (GPa) = 80.76380 73.74625 87.47928
#
# Poissons Ratio (x) = 0.11310 0.17769
# Poissons Ratio (y) = 0.12387 0.08618
# Poissons Ratio (z) = 0.16405 0.07265
#
# Static dielectric constant tensor:
#      x y z
#    x 1.776770 0.001630 0.056720 
#    y 0.001630 1.770910 0.012790 
#    z 0.056720 0.012790 1.735350 
# 
# From -- ./inp_files/273637.got.cif
#   From: 2010.05.17/outbox.cif.g08.bks.cpg/sg2_137_cif.got.tgz:273637.got - 2010.06.03 11:33:40.
