data_PCOD9069231
_publ_section_title
;
Structure prediction by ZEFSAII (Michael W. Deem and Ramdas Pophale) SiO2 
 PCOD9069231
Probable space group: P -1
;
_chemical_formula_sum "Si O2"
_cell_formula_units_Z 12
_cell_length_a 11.749519
_cell_length_b 5.703939
_cell_length_c 11.981789
_cell_angle_alpha 109.851266
_cell_angle_beta 127.997336
_cell_angle_gamma 50.691640
_cell_volume 487.948942
_symmetry_space_group_name_H-M "P -1"
_symmetry_group_IT_number 2
_symmetry_cell_setting 'triclinic'
loop_
_space_group_symop_operation_xyz
x,y,z
-x,-y,-z
loop_
_atom_site_type_symbol
_atom_site_label
_atom_site_fract_x
_atom_site_fract_y
_atom_site_fract_z
Si Si1 0.575230 0.709113 0.580931
Si Si2 0.509475 0.147891 0.802460
Si Si3 0.925320 0.202303 0.739057
Si Si4 0.874045 0.480861 0.336135
Si Si5 0.255880 0.196087 0.918692
Si Si6 0.793044 0.243379 0.899290
O O1 0.500000 0.500000 0.500000
O O2 0.780502 0.489445 0.625687
O O3 0.500000 0.000000 0.500000
O O4 0.524498 0.874543 0.699633
O O5 0.311382 0.441479 0.716835
O O6 0.659343 0.162162 0.836988
O O7 0.570660 0.083494 0.960085
O O8 0.795632 0.282427 0.776293
O O9 0.087805 0.217330 0.871730
O O10 0.010946 0.862813 0.695038
O O11 0.796601 0.738447 0.232762
O O12 0.000000 0.500000 0.500000
O O13 0.253002 0.477893 0.007536
O O14 0.000000 0.000000 0.000000
#
# Coordination Sequence:
#
# PCOD9069231 Si02
#       6
#     2   2   2   2   2   2
#     4  12  28  49  80 118 162 215 274 337 407 486
#     4  12  27  48  79 118 158 211 268 333 403 484
#     4  12  26  49  80 113 154 213 265 335 403 484
#     4  12  30  51  74 112 166 210 266 332 414 484
#     4  12  25  46  81 111 157 203 274 324 405 476
#     4  12  22  46  81 116 152 197 275 336 394 474
#
# _framework density 24.592735000000001
#
# number of rings (size 3 to 8) (size 9 to 14) (size 15 to 20)
#    0.000    0.000    5.000    4.000    4.667    4.667 
#    0.000    0.000    0.000    0.000    0.000    0.000 
#    0.000    0.000    0.000    0.000    0.000    0.000 
#
# Total GULP energy -67028.451520 kJ/mol
# GULP energy per Si atom -5585.704293 kJ/mol
# Density = 2.453676 g / cm^3
# Si number density = 24.592735 Si / 1000 Ang^3
#
#
#
# Elastic Constant Matrix: (Units=GPa)
#
#
# Indices 1 2 3 4 5 6 
#
# 1 80.2266 8.2855 36.8360 -4.3952 4.4453 0.8299
# 2 8.2855 87.0044 34.3451 -15.2818 -1.7279 -9.9386
# 3 36.8360 34.3451 154.5544 -13.7531 14.1840 2.9785
# 4 -4.3952 -15.2818 -13.7531 51.8484 -4.7223 14.3750
# 5 4.4453 -1.7279 14.1840 -4.7223 34.9617 2.5976
# 6 0.8299 -9.9386 2.9785 14.3750 2.5976 38.8666
#
#
#
# Elastic Compliance Matrix: (Units=1/GPa)
#
#
# Indices 1 2 3 4 5 6 
#
# 1 0.014008 -0.000012 -0.003268 0.000320 -0.000402 -0.000143
# 2 -0.000012 0.013475 -0.002993 0.002655 0.002050 0.002556
# 3 -0.003268 -0.002993 0.008313 0.001233 -0.002820 -0.001600
# 4 0.000320 0.002655 0.001233 0.022982 0.003299 -0.008143
# 5 -0.000402 0.002050 -0.002820 0.003299 0.030531 -0.002512
# 6 -0.000143 0.002556 -0.001600 -0.008143 -0.002512 0.029688
#
#
# Mechanical properties :
#
#
# Convention : Reuss Voigt Hill
#
# Bulk Modulus (GPa) = 43.00880 53.41319 48.21099
# Shear Modulus (GPa) = 35.89552 41.28992 38.59272
#
# Velocity S-wave (km/s) = 3.82461 4.10194 3.96570
# Velocity P-wave (km/s) = 6.08522 6.64837 6.37302
#
# Compressibility (1/GPa) = 0.02325106
#
# Stress axis : x y z
#
# Youngs Moduli (GPa) = 71.38986 74.20994 120.28771
#
# Poissons Ratio (x) = 0.00090 0.39306
# Poissons Ratio (y) = 0.00087 0.35999
# Poissons Ratio (z) = 0.23328 0.22209
#
# Static dielectric constant tensor:
#      x y z
#    x 1.976880 0.043900 -0.116760 
#    y 0.043900 2.112820 -0.275450 
#    z -0.116760 -0.275450 2.227300 
# 
# From -- ./inp_files/411353.got.cif
#   From: 2010.05.17/outbox.cif.g08.bks.cpg/sg2_206_cif.got.tgz:411353.got - 2010.06.03 11:33:40.
