data_PCOD9069318
_publ_section_title
;
Structure prediction by ZEFSAII (Michael W. Deem and Ramdas Pophale) SiO2 
 PCOD9069318
Probable space group: P -1
;
_chemical_formula_sum "Si O2"
_cell_formula_units_Z 16
_cell_length_a 14.953205
_cell_length_b 8.948165
_cell_length_c 14.530923
_cell_angle_alpha 37.520297
_cell_angle_beta 123.766347
_cell_angle_gamma 95.748425
_cell_volume 728.231852
_symmetry_space_group_name_H-M "P -1"
_symmetry_group_IT_number 2
_symmetry_cell_setting 'triclinic'
loop_
_space_group_symop_operation_xyz
x,y,z
-x,-y,-z
loop_
_atom_site_type_symbol
_atom_site_label
_atom_site_fract_x
_atom_site_fract_y
_atom_site_fract_z
Si Si1 0.535262 0.155171 0.205502
Si Si2 0.027956 0.250059 0.879160
Si Si3 0.652241 0.845293 0.619428
Si Si4 0.882968 0.824230 0.832155
Si Si5 0.258378 0.158068 0.685420
Si Si6 0.227235 0.393986 0.913701
Si Si7 0.143657 0.627776 0.553007
Si Si8 0.828606 0.206432 0.137571
O O1 0.634247 0.965920 0.446014
O O2 0.617539 0.940716 0.264602
O O3 0.500000 0.500000 0.000000
O O4 0.396540 0.192105 0.126037
O O5 0.168821 0.205197 0.950840
O O6 0.893121 0.554350 0.594576
O O7 0.039819 0.300904 0.966172
O O8 0.000000 0.000000 0.000000
O O9 0.726530 0.937842 0.680041
O O10 0.500000 0.000000 0.500000
O O11 0.761584 0.450832 0.893053
O O12 0.859609 0.125187 0.630536
O O13 0.000000 0.500000 0.000000
O O14 0.239579 0.296926 0.708674
O O15 0.278766 0.836106 0.865980
O O16 0.198836 0.580038 0.711101
O O17 0.148372 0.643917 0.835262
O O18 0.972363 0.842193 0.365714
#
# Coordination Sequence:
#
# PCOD9069318 Si02
#       8
#     2   2   2   2   2   2   2   2
#     4  12  25  48  75 112 146 193 241 306 367 440
#     4  12  25  45  69 103 150 186 239 306 364 428
#     4  12  23  44  75 109 140 182 245 304 355 427
#     4  12  23  41  71 105 135 187 245 295 352 428
#     4  12  27  45  71 107 151 194 236 304 377 428
#     4  12  25  47  75 104 145 191 252 292 366 436
#     4  12  26  44  72 108 147 189 241 306 362 431
#     4  12  24  44  74 110 139 191 247 302 356 436
#
# _framework density 21.971025000000001
#
# number of rings (size 3 to 8) (size 9 to 14) (size 15 to 20)
#    0.000    0.000    7.500    2.250    1.750    0.500 
#    0.000    0.625    0.000    0.000    0.000    0.000 
#    0.000    0.000    0.000    0.000    0.000    0.000 
#
# Total GULP energy -89182.206574 kJ/mol
# GULP energy per Si atom -5573.887911 kJ/mol
# Density = 2.192102 g / cm^3
# Si number density = 21.971025 Si / 1000 Ang^3
#
#
#
# Elastic Constant Matrix: (Units=GPa)
#
#
# Indices 1 2 3 4 5 6 
#
# 1 95.2660 25.5995 2.9504 -12.7708 4.8298 -1.7294
# 2 25.5995 65.1128 13.5126 -3.8298 10.2979 -16.4850
# 3 2.9504 13.5126 67.9886 8.2759 -17.7193 -14.4191
# 4 -12.7708 -3.8298 8.2759 23.3143 -2.4326 -9.9490
# 5 4.8298 10.2979 -17.7193 -2.4326 55.2667 6.0357
# 6 -1.7294 -16.4850 -14.4191 -9.9490 6.0357 45.4689
#
#
#
# Elastic Compliance Matrix: (Units=1/GPa)
#
#
# Indices 1 2 3 4 5 6 
#
# 1 0.012559 -0.004406 -0.000453 0.006364 -0.000158 0.000150
# 2 -0.004406 0.021287 -0.004470 0.005534 -0.005655 0.008094
# 3 -0.000453 -0.004470 0.018421 -0.005987 0.006290 0.002059
# 4 0.006364 0.005534 -0.005987 0.054535 -0.002484 0.012612
# 5 -0.000158 -0.005655 0.006290 -0.002484 0.021446 -0.003452
# 6 0.000150 0.008094 0.002059 0.012612 -0.003452 0.028804
#
#
# Mechanical properties :
#
#
# Convention : Reuss Voigt Hill
#
# Bulk Modulus (GPa) = 29.75546 34.72137 32.23842
# Shear Modulus (GPa) = 26.75012 37.23032 31.99022
#
# Velocity S-wave (km/s) = 3.49308 4.12092 3.81992
# Velocity P-wave (km/s) = 5.46272 6.20324 5.84472
#
# Compressibility (1/GPa) = 0.03360727
#
# Stress axis : x y z
#
# Youngs Moduli (GPa) = 79.62524 46.97672 54.28492
#
# Poissons Ratio (x) = 0.20699 0.02461
# Poissons Ratio (y) = 0.35085 0.24268
# Poissons Ratio (z) = 0.03610 0.21001
#
# Static dielectric constant tensor:
#      x y z
#    x 2.180120 0.152690 0.197380 
#    y 0.152690 1.758870 -0.007060 
#    z 0.197380 -0.007060 1.869150 
# 
# From -- ./inp_files/529298.got.cif
#   From: 2010.05.17/outbox.cif.g08.bks.cpg/sg2_265_cif.got.tgz:529298.got - 2010.06.03 11:33:40.
