data_PCOD9069125
_publ_section_title
;
Structure prediction by ZEFSAII (Michael W. Deem and Ramdas Pophale) SiO2 
 PCOD9069125
Probable space group: P -1
;
_chemical_formula_sum "Si O2"
_cell_formula_units_Z 14
_cell_length_a 13.992380
_cell_length_b 11.554239
_cell_length_c 14.399703
_cell_angle_alpha 92.848101
_cell_angle_beta 55.628362
_cell_angle_gamma 144.580316
_cell_volume 572.222058
_symmetry_space_group_name_H-M "P -1"
_symmetry_group_IT_number 2
_symmetry_cell_setting 'triclinic'
loop_
_space_group_symop_operation_xyz
x,y,z
-x,-y,-z
loop_
_atom_site_type_symbol
_atom_site_label
_atom_site_fract_x
_atom_site_fract_y
_atom_site_fract_z
Si Si1 0.108196 0.509573 0.517880
Si Si2 0.578674 0.236511 0.026920
Si Si3 0.727069 0.909215 0.139508
Si Si4 0.729067 0.820419 0.833940
Si Si5 0.546466 0.614260 0.724787
Si Si6 0.081939 0.521198 0.738547
Si Si7 0.255552 0.446712 0.705610
O O1 0.426063 0.637677 0.997132
O O2 0.444188 0.740623 0.317650
O O3 0.000000 0.500000 0.500000
O O4 0.207295 0.663227 0.569050
O O5 0.959242 0.525535 0.850285
O O6 0.279659 0.934977 0.264388
O O7 0.337311 0.943702 0.063878
O O8 0.562038 0.623937 0.233388
O O9 0.858301 0.054081 0.967514
O O10 0.155848 0.309456 0.963596
O O11 0.809129 0.872265 0.682655
O O12 0.500000 0.500000 0.000000
O O13 0.132154 0.253000 0.676160
O O14 0.578222 0.703863 0.609138
O O15 0.326765 0.649999 0.652700
#
# Coordination Sequence:
#
# PCOD9069125 Si02
#       7
#     2   2   2   2   2   2   2
#     4  10  18  28  55  81 103 137 179 221 264 306
#     4   8  18  30  50  83  98 136 186 207 261 321
#     4   9  17  32  50  78 107 136 178 216 258 312
#     4  11  17  31  58  77 105 141 177 215 256 314
#     4   9  19  31  52  80 105 138 180 209 260 315
#     4   8  16  31  50  75 102 132 181 217 251 314
#     4   9  17  33  55  74 103 140 181 210 256 313
#
# _framework density 24.46603
#
# number of rings (size 3 to 8) (size 9 to 14) (size 15 to 20)
#    1.714    1.143    1.429    0.857    2.000    0.000 
#    0.000    2.143    0.000    0.857    0.000    0.000 
#    0.000    0.000    0.000    0.000    0.000    0.000 
#
# Total GULP energy -77946.886030 kJ/mol
# GULP energy per Si atom -5567.634716 kJ/mol
# Density = 2.441034 g / cm^3
# Si number density = 24.466030 Si / 1000 Ang^3
#
#
#
# Elastic Constant Matrix: (Units=GPa)
#
#
# Indices 1 2 3 4 5 6 
#
# 1 197.5812 38.2823 -78.4248 -15.7464 -3.3963 23.1412
# 2 38.2823 77.9613 33.4459 -0.0437 -5.0304 24.5689
# 3 -78.4248 33.4459 -338.1349 -46.9626 42.2692 32.2177
# 4 -15.7464 -0.0437 -46.9626 26.9511 12.1555 6.5796
# 5 -3.3963 -5.0304 42.2692 12.1555 34.3554 -2.0327
# 6 23.1412 24.5689 32.2177 6.5796 -2.0327 34.5546
#
#
#
# Elastic Compliance Matrix: (Units=1/GPa)
#
#
# Indices 1 2 3 4 5 6 
#
# 1 0.005032 -0.001478 -0.001251 0.000282 0.001655 -0.001109
# 2 -0.001478 0.017215 0.000470 0.002963 0.000024 -0.012251
# 3 -0.001251 0.000470 -0.001221 -0.005082 0.003411 0.002810
# 4 0.000282 0.002963 -0.005082 0.031441 -0.004636 -0.003817
# 5 0.001655 0.000024 0.003411 -0.004636 0.026608 -0.001858
# 6 -0.001109 -0.012251 0.002810 -0.003817 -0.001858 0.036390
#
#
# Mechanical properties :
#
#
# Convention : Reuss Voigt Hill
#
# Bulk Modulus (GPa) = 60.57726 -8.44282 26.06722
# Shear Modulus (GPa) = 39.84525 15.44582 27.64553
#
# Velocity S-wave (km/s) = 4.03996 2.51533 3.36513
# Velocity P-wave (km/s) = 6.82461 2.23103 5.07704
#
# Compressibility (1/GPa) = 0.01650784
#
# Stress axis : x y z
#
# Youngs Moduli (GPa) = 198.73965 58.08849 -819.18910
#
# Poissons Ratio (x) = 0.08583 -1.02486
# Poissons Ratio (y) = 0.29367 0.38469
# Poissons Ratio (z) = 0.24864 -0.02728
#
# Static dielectric constant tensor:
#      x y z
#    x 1.942240 0.005600 -0.038560 
#    y 0.005600 2.117210 -0.002850 
#    z -0.038560 -0.002850 2.040640 
# 
# From -- ./inp_files/454833.got.cif
#   From: 2010.05.17/outbox.cif.g08.bks.cpg/sg2_228_cif.got.tgz:454833.got - 2010.06.03 11:33:40.
