data_PCOD9069121
_publ_section_title
;
Structure prediction by ZEFSAII (Michael W. Deem and Ramdas Pophale) SiO2 
 PCOD9069121
Probable space group: P -1
;
_chemical_formula_sum "Si O2"
_cell_formula_units_Z 16
_cell_length_a 27.693063
_cell_length_b 12.011564
_cell_length_c 26.695515
_cell_angle_alpha 28.192530
_cell_angle_beta 169.801564
_cell_angle_gamma 152.612042
_cell_volume 720.202153
_symmetry_space_group_name_H-M "P -1"
_symmetry_group_IT_number 2
_symmetry_cell_setting 'triclinic'
loop_
_space_group_symop_operation_xyz
x,y,z
-x,-y,-z
loop_
_atom_site_type_symbol
_atom_site_label
_atom_site_fract_x
_atom_site_fract_y
_atom_site_fract_z
Si Si1 0.169935 0.749830 0.862422
Si Si2 0.059941 0.113120 0.763208
Si Si3 0.282675 0.245461 0.521949
Si Si4 0.102699 0.945966 0.978882
Si Si5 0.466050 0.376632 0.459087
Si Si6 0.276940 0.499013 0.975568
Si Si7 0.807495 0.735650 0.363157
Si Si8 0.363719 0.586716 0.778081
O O1 0.214053 0.543087 0.951536
O O2 0.903017 0.671849 0.657235
O O3 0.140806 0.979501 0.707725
O O4 0.453353 0.827119 0.154111
O O5 0.932493 0.348228 0.542683
O O6 0.396191 0.172683 0.085177
O O7 0.931391 0.975188 0.637090
O O8 0.970748 0.967556 0.780827
O O9 0.402905 0.435417 0.525408
O O10 0.857987 0.748661 0.834557
O O11 0.190481 0.216026 0.984384
O O12 0.368653 0.834394 0.289292
O O13 0.500000 0.500000 0.500000
O O14 0.087201 0.643011 0.693465
O O15 0.596022 0.629038 0.234779
O O16 0.660941 0.601641 0.217043
O O17 0.500000 0.500000 0.000000
#
# Coordination Sequence:
#
# PCOD9069121 Si02
#       8
#     2   2   2   2   2   2   2   2
#     4  12  27  46  67 100 138 184 228 279 330 390
#     4  12  23  40  65  96 138 173 212 278 341 394
#     4  12  26  45  67  99 138 175 225 285 344 402
#     4  12  24  44  70 103 129 171 229 279 333 396
#     4  12  26  44  74 101 133 173 224 278 348 412
#     4  12  25  46  71  98 138 182 233 276 320 398
#     4  12  22  43  69 101 135 183 233 267 326 405
#     4  12  23  37  60 101 141 177 213 267 340 406
#
# _framework density 22.215983000000001
#
# number of rings (size 3 to 8) (size 9 to 14) (size 15 to 20)
#    0.000    0.000    3.750    7.500    1.750    0.000 
#    0.000    3.750    0.000    0.000    0.000    0.000 
#    0.000    0.000    0.000    0.000    0.000    0.000 
#
# Total GULP energy -89588.319682 kJ/mol
# GULP energy per Si atom -5599.269980 kJ/mol
# Density = 2.216542 g / cm^3
# Si number density = 22.215983 Si / 1000 Ang^3
#
#
#
# Elastic Constant Matrix: (Units=GPa)
#
#
# Indices 1 2 3 4 5 6 
#
# 1 99.9071 35.4687 3.6739 -3.3708 23.4453 -9.8768
# 2 35.4687 92.3787 10.0583 -0.4867 9.9031 -13.4052
# 3 3.6739 10.0583 80.5731 1.6432 9.8102 -7.4226
# 4 -3.3708 -0.4867 1.6432 34.5295 0.4900 5.6201
# 5 23.4453 9.9031 9.8102 0.4900 34.8802 7.2226
# 6 -9.8768 -13.4052 -7.4226 5.6201 7.2226 29.6767
#
#
#
# Elastic Compliance Matrix: (Units=1/GPa)
#
#
# Indices 1 2 3 4 5 6 
#
# 1 0.014252 -0.003698 0.001584 0.000454 -0.010196 0.005864
# 2 -0.003698 0.013325 -0.000718 -0.000975 -0.002184 0.005325
# 3 0.001584 -0.000718 0.013642 -0.001279 -0.005769 0.005261
# 4 0.000454 -0.000975 -0.001279 0.030112 0.001280 -0.006623
# 5 -0.010196 -0.002184 -0.005769 0.001280 0.041073 -0.016062
# 6 0.005864 0.005325 0.005261 -0.006623 -0.016062 0.044533
#
#
# Mechanical properties :
#
#
# Convention : Reuss Voigt Hill
#
# Bulk Modulus (GPa) = 28.12654 41.25120 34.68887
# Shear Modulus (GPa) = 28.66120 34.72782 31.69451
#
# Velocity S-wave (km/s) = 3.59572 3.95801 3.78120
# Velocity P-wave (km/s) = 5.47055 6.28461 5.89166
#
# Compressibility (1/GPa) = 0.03555361
#
# Stress axis : x y z
#
# Youngs Moduli (GPa) = 70.16733 75.04829 73.30467
#
# Poissons Ratio (x) = 0.27753 -0.11613
# Poissons Ratio (y) = 0.25948 0.05266
# Poissons Ratio (z) = -0.11116 0.05392
#
# Static dielectric constant tensor:
#      x y z
#    x 1.919840 0.085020 0.065830 
#    y 0.085020 1.869210 0.068090 
#    z 0.065830 0.068090 1.825560 
# 
# From -- ./inp_files/434003.got.cif
#   From: 2010.05.17/outbox.cif.g08.bks.cpg/sg2_218_cif.got.tgz:434003.got - 2010.06.03 11:33:40.
