data_PCOD9069188
_publ_section_title
;
Structure prediction by ZEFSAII (Michael W. Deem and Ramdas Pophale) SiO2 
 PCOD9069188
Probable space group: P -1
;
_chemical_formula_sum "Si O2"
_cell_formula_units_Z 15
_cell_length_a 9.148774
_cell_length_b 11.891107
_cell_length_c 20.320608
_cell_angle_alpha 29.786462
_cell_angle_beta 142.892583
_cell_angle_gamma 142.028998
_cell_volume 627.504747
_symmetry_space_group_name_H-M "P -1"
_symmetry_group_IT_number 2
_symmetry_cell_setting 'triclinic'
loop_
_space_group_symop_operation_xyz
x,y,z
-x,-y,-z
loop_
_atom_site_type_symbol
_atom_site_label
_atom_site_fract_x
_atom_site_fract_y
_atom_site_fract_z
Si Si1 0.639659 0.763431 0.938914
Si Si2 0.479903 0.104448 0.368220
Si Si3 0.184565 0.150396 0.434963
Si Si4 0.353781 0.614765 0.336089
Si Si5 0.000000 0.500000 0.000000
Si Si6 0.754045 0.084729 0.221911
Si Si7 0.157288 0.345274 0.797628
Si Si8 0.016673 0.923815 0.874259
O O1 0.416728 0.880992 0.795467
O O2 0.870955 0.855828 0.925618
O O3 0.500000 0.500000 0.000000
O O4 0.727383 0.765931 0.044224
O O5 0.670245 0.376558 0.290699
O O6 0.198728 0.098870 0.248101
O O7 0.500000 0.000000 0.500000
O O8 0.565930 0.927607 0.441091
O O9 0.232611 0.419786 0.336108
O O10 0.025441 0.078415 0.347356
O O11 0.000000 0.000000 0.500000
O O12 0.500000 0.500000 0.500000
O O13 0.123650 0.666288 0.268535
O O14 0.562517 0.828474 0.263123
O O15 0.118022 0.713361 0.992605
O O16 0.180349 0.684930 0.917324
O O17 0.165757 0.199009 0.807546
#
# Coordination Sequence:
#
# PCOD9069188 Si02
#       8
#     2   2   2   2   1   2   2   2
#     4  12  22  44  76 101 135 182 236 294 350 406
#     4  12  26  46  68 102 145 192 229 280 364 425
#     4  12  23  41  73 102 136 179 234 296 343 405
#     4  12  24  40  70 108 133 174 235 294 345 399
#     4  12  28  46  68  98 148 194 218 286 366 418
#     4  12  25  44  67 103 140 179 235 284 349 419
#     4  12  25  43  76 107 134 186 241 295 352 413
#     4  12  26  46  72 102 142 182 242 292 349 424
#
# _framework density 23.904202999999999
#
# number of rings (size 3 to 8) (size 9 to 14) (size 15 to 20)
#    0.000    0.000    6.667    3.600    0.000    1.600 
#    0.000    3.333    0.000    0.000    0.000    0.000 
#    0.000    0.000    0.000    0.000    0.000    0.000 
#
# Total GULP energy -83528.112775 kJ/mol
# GULP energy per Si atom -5568.540852 kJ/mol
# Density = 2.384980 g / cm^3
# Si number density = 23.904203 Si / 1000 Ang^3
#
#
#
# Elastic Constant Matrix: (Units=GPa)
#
#
# Indices 1 2 3 4 5 6 
#
# 1 71.7809 17.9902 14.1824 -1.6133 -14.5703 -16.4194
# 2 17.9902 142.1729 21.2235 -22.4839 -4.0916 -18.1771
# 3 14.1824 21.2235 52.2909 5.6691 -17.6963 8.0926
# 4 -1.6133 -22.4839 5.6691 42.0039 -7.0592 14.2908
# 5 -14.5703 -4.0916 -17.6963 -7.0592 37.2454 -1.6942
# 6 -16.4194 -18.1771 8.0926 14.2908 -1.6942 23.8360
#
#
#
# Elastic Compliance Matrix: (Units=1/GPa)
#
#
# Indices 1 2 3 4 5 6 
#
# 1 0.020493 0.000397 -0.006569 -0.003826 0.005092 0.019306
# 2 0.000397 0.009208 -0.005479 0.003134 -0.000513 0.007240
# 3 -0.006569 -0.005479 0.029299 0.000822 0.010066 -0.018428
# 4 -0.003826 0.003134 0.000822 0.032736 0.004541 -0.019829
# 5 0.005092 -0.000513 0.010066 0.004541 0.034402 -0.000578
# 6 0.019306 0.007240 -0.018428 -0.019829 -0.000578 0.078877
#
#
# Mechanical properties :
#
#
# Convention : Reuss Voigt Hill
#
# Bulk Modulus (GPa) = 28.01227 41.44853 34.73040
# Shear Modulus (GPa) = 20.81458 34.80697 27.81078
#
# Velocity S-wave (km/s) = 2.95405 3.82003 3.41460
# Velocity P-wave (km/s) = 4.83520 6.06910 5.48694
#
# Compressibility (1/GPa) = 0.03569864
#
# Stress axis : x y z
#
# Youngs Moduli (GPa) = 48.79608 108.60336 34.13131
#
# Poissons Ratio (x) = -0.04314 0.22421
# Poissons Ratio (y) = -0.01938 0.18700
# Poissons Ratio (z) = 0.32055 0.59501
#
# Static dielectric constant tensor:
#      x y z
#    x 1.903990 -0.088950 0.068850 
#    y -0.088950 1.896850 0.008880 
#    z 0.068850 0.008880 1.971860 
# 
# From -- ./inp_files/588919.got.cif
#   From: 2010.05.17/outbox.cif.g08.bks.cpg/sg2_295_cif.got.tgz:588919.got - 2010.06.03 11:33:40.
