data_PCOD9069118
_publ_section_title
;
Structure prediction by ZEFSAII (Michael W. Deem and Ramdas Pophale) SiO2 
 PCOD9069118
Probable space group: P -1
;
_chemical_formula_sum "Si O2"
_cell_formula_units_Z 16
_cell_length_a 15.575307
_cell_length_b 15.022845
_cell_length_c 16.012777
_cell_angle_alpha 141.693039
_cell_angle_beta 161.481515
_cell_angle_gamma 37.891386
_cell_volume 718.035718
_symmetry_space_group_name_H-M "P -1"
_symmetry_group_IT_number 2
_symmetry_cell_setting 'triclinic'
loop_
_space_group_symop_operation_xyz
x,y,z
-x,-y,-z
loop_
_atom_site_type_symbol
_atom_site_label
_atom_site_fract_x
_atom_site_fract_y
_atom_site_fract_z
Si Si1 0.733245 0.318109 0.193412
Si Si2 0.932785 0.431220 0.760612
Si Si3 0.184813 0.242966 0.696384
Si Si4 0.598837 0.393278 0.681666
Si Si5 0.104092 0.793457 0.307594
Si Si6 0.130435 0.828525 0.967672
Si Si7 0.329378 0.353649 0.579716
Si Si8 0.492354 0.957790 0.865197
O O1 0.814286 0.214489 0.110884
O O2 0.746637 0.491053 0.325385
O O3 0.948432 0.250543 0.415174
O O4 0.418317 0.321269 0.932856
O O5 0.615868 0.508087 0.507325
O O6 0.969304 0.349428 0.822362
O O7 0.037689 0.317371 0.698848
O O8 0.126998 0.545245 0.012509
O O9 0.352856 0.085365 0.767008
O O10 0.704287 0.237212 0.619528
O O11 0.445060 0.391856 0.625515
O O12 0.291022 0.846424 0.588971
O O13 0.811801 0.897417 0.092710
O O14 0.923914 0.724035 0.726031
O O15 0.426298 0.764920 0.237476
O O16 0.000000 0.000000 0.000000
O O17 0.500000 0.000000 0.000000
#
# Coordination Sequence:
#
# PCOD9069118 Si02
#       8
#     2   2   2   2   2   2   2   2
#     4  12  25  47  74 108 134 184 244 284 349 421
#     4  12  22  43  67  98 140 180 235 285 340 388
#     4  12  24  42  73 100 137 183 233 289 332 405
#     4  12  25  43  70 104 135 178 235 288 346 404
#     4  12  26  42  67  98 142 190 231 285 344 406
#     4  12  28  48  74 105 144 180 220 292 364 426
#     4  12  24  47  76 102 140 181 234 288 349 424
#     4  12  26  43  65  96 140 190 236 280 341 408
#
# _framework density 22.283013
#
# number of rings (size 3 to 8) (size 9 to 14) (size 15 to 20)
#    0.000    0.000    3.750    6.750    1.750    3.000 
#    0.000    0.000    0.000    0.000    0.000    0.000 
#    0.000    0.000    0.000    0.000    0.000    0.000 
#
# Total GULP energy -89533.483019 kJ/mol
# GULP energy per Si atom -5595.842689 kJ/mol
# Density = 2.223230 g / cm^3
# Si number density = 22.283013 Si / 1000 Ang^3
#
#
#
# Elastic Constant Matrix: (Units=GPa)
#
#
# Indices 1 2 3 4 5 6 
#
# 1 103.9025 16.7525 -9.6139 13.8719 -23.1790 -34.4609
# 2 16.7525 117.4528 12.7974 -17.2411 -5.2016 -15.2860
# 3 -9.6139 12.7974 100.3329 -14.2494 17.7306 -4.1909
# 4 13.8719 -17.2411 -14.2494 57.7844 -3.3289 -2.7891
# 5 -23.1790 -5.2016 17.7306 -3.3289 59.3100 9.8046
# 6 -34.4609 -15.2860 -4.1909 -2.7891 9.8046 46.5288
#
#
#
# Elastic Compliance Matrix: (Units=1/GPa)
#
#
# Indices 1 2 3 4 5 6 
#
# 1 0.014118 -0.001174 0.000867 -0.002880 0.003465 0.009246
# 2 -0.001174 0.009540 -0.000878 0.003047 0.000435 0.002276
# 3 0.000867 -0.000878 0.011150 0.002194 -0.003310 0.002187
# 4 -0.002880 0.003047 0.002194 0.019436 -0.000478 0.000331
# 5 0.003465 0.000435 -0.003310 -0.000478 0.019501 -0.001727
# 6 0.009246 0.002276 0.002187 0.000331 -0.001727 0.029668
#
#
# Mechanical properties :
#
#
# Convention : Reuss Voigt Hill
#
# Bulk Modulus (GPa) = 30.82857 40.17339 35.50098
# Shear Modulus (GPa) = 42.88326 52.84144 47.86235
#
# Velocity S-wave (km/s) = 4.39165 4.87496 4.63960
# Velocity P-wave (km/s) = 6.29130 7.05371 6.68339
#
# Compressibility (1/GPa) = 0.03243745
#
# Stress axis : x y z
#
# Youngs Moduli (GPa) = 70.83157 104.82189 89.68766
#
# Poissons Ratio (x) = 0.12308 -0.07780
# Poissons Ratio (y) = 0.08317 0.07879
# Poissons Ratio (z) = -0.06144 0.09208
#
# Static dielectric constant tensor:
#      x y z
#    x 1.802920 -0.011020 -0.032070 
#    y -0.011020 1.871230 0.124570 
#    z -0.032070 0.124570 1.642550 
# 
# From -- ./inp_files/534274.got.cif
#   From: 2010.05.17/outbox.cif.g08.bks.cpg/sg2_268_cif.got.tgz:534274.got - 2010.06.03 11:33:40.
