data_PCOD9069433
_publ_section_title
;
Structure prediction by ZEFSAII (Michael W. Deem and Ramdas Pophale) SiO2 
 PCOD9069433
Probable space group: P -1
;
_chemical_formula_sum "Si O2"
_cell_formula_units_Z 14
_cell_length_a 13.083507
_cell_length_b 11.918223
_cell_length_c 4.891682
_cell_angle_alpha 75.866637
_cell_angle_beta 83.598238
_cell_angle_gamma 55.738291
_cell_volume 611.007052
_symmetry_space_group_name_H-M "P -1"
_symmetry_group_IT_number 2
_symmetry_cell_setting 'triclinic'
loop_
_space_group_symop_operation_xyz
x,y,z
-x,-y,-z
loop_
_atom_site_type_symbol
_atom_site_label
_atom_site_fract_x
_atom_site_fract_y
_atom_site_fract_z
Si Si1 0.228289 0.636662 0.226707
Si Si2 0.944887 0.269463 0.303335
Si Si3 0.350701 0.329257 0.329064
Si Si4 0.095944 0.003349 0.763048
Si Si5 0.740413 0.119599 0.740865
Si Si6 0.510909 0.853982 0.103324
Si Si7 0.921391 0.595773 0.719259
O O1 0.335760 0.477784 0.224168
O O2 0.267382 0.744650 0.209971
O O3 0.165740 0.624060 0.526087
O O4 0.120012 0.701195 0.988166
O O5 0.061665 0.279179 0.312526
O O6 0.998172 0.122727 0.515295
O O7 0.199973 0.902929 0.565377
O O8 0.382476 0.257656 0.657763
O O9 0.216930 0.362232 0.267553
O O10 0.453709 0.217443 0.160329
O O11 0.179187 0.003743 0.985640
O O12 0.000000 0.000000 0.000000
O O13 0.612137 0.132219 0.759948
O O14 0.500000 0.000000 0.000000
O O15 0.000000 0.500000 0.500000
O O16 0.000000 0.500000 0.000000
#
# Coordination Sequence:
#
# PCOD9069433 Si02
#       7
#     2   2   2   2   2   2   2
#     4  12  25  44  73 107 148 190 239 304 362 446
#     4  12  24  41  69 113 153 187 231 300 372 448
#     4  12  26  49  76 106 145 196 246 302 368 428
#     4  12  26  45  72 111 149 196 234 299 380 438
#     4  12  28  47  72 107 150 195 253 298 363 436
#     4  12  30  52  75 105 143 197 254 307 353 440
#     4  12  23  43  72 113 147 187 236 295 379 437
#
# _framework density 22.912993
#
# number of rings (size 3 to 8) (size 9 to 14) (size 15 to 20)
#    0.000    0.000    4.286    5.143    4.000    1.143 
#    0.000    0.000    0.000    0.000    0.000    0.000 
#    0.000    0.000    0.000    0.000    0.000    0.000 
#
# Total GULP energy -78126.877014 kJ/mol
# GULP energy per Si atom -5580.491215 kJ/mol
# Density = 2.286084 g / cm^3
# Si number density = 22.912993 Si / 1000 Ang^3
#
#
#
# Elastic Constant Matrix: (Units=GPa)
#
#
# Indices 1 2 3 4 5 6 
#
# 1 139.7237 25.8525 28.9934 -1.0946 -10.4414 2.7839
# 2 25.8525 114.5954 27.9805 4.7178 -14.2191 13.2779
# 3 28.9934 27.9805 133.0570 14.9418 13.0210 8.9989
# 4 -1.0946 4.7178 14.9418 46.7479 -6.3424 -0.2218
# 5 -10.4414 -14.2191 13.0210 -6.3424 41.2382 -4.9689
# 6 2.7839 13.2779 8.9989 -0.2218 -4.9689 31.0383
#
#
#
# Elastic Compliance Matrix: (Units=1/GPa)
#
#
# Indices 1 2 3 4 5 6 
#
# 1 0.007953 -0.001150 -0.001929 0.001263 0.002511 0.000749
# 2 -0.001150 0.010287 -0.002053 0.000056 0.003534 -0.003136
# 3 -0.001929 -0.002053 0.009427 -0.003544 -0.005020 -0.002511
# 4 0.001263 0.000056 -0.003544 0.023272 0.005266 0.001900
# 5 0.002511 0.003534 -0.005020 0.005266 0.029029 0.004403
# 6 0.000749 -0.003136 -0.002511 0.001900 0.004403 0.034939
#
#
# Mechanical properties :
#
#
# Convention : Reuss Voigt Hill
#
# Bulk Modulus (GPa) = 57.46502 61.44765 59.45633
# Shear Modulus (GPa) = 38.17638 44.10819 41.14228
#
# Velocity S-wave (km/s) = 4.08627 4.39228 4.24203
# Velocity P-wave (km/s) = 6.88459 7.25250 7.07094
#
# Compressibility (1/GPa) = 0.01740189
#
# Stress axis : x y z
#
# Youngs Moduli (GPa) = 125.74291 97.21322 106.08184
#
# Poissons Ratio (x) = 0.11183 0.20465
# Poissons Ratio (y) = 0.14465 0.21774
# Poissons Ratio (z) = 0.24258 0.19953
#
# Static dielectric constant tensor:
#      x y z
#    x 1.862630 0.055170 0.006350 
#    y 0.055170 1.989310 -0.011520 
#    z 0.006350 -0.011520 1.825300 
# 
# From -- ./inp_files/91438.got.cif
#   From: 2010.05.17/outbox.cif.g08.bks.cpg/sg2_46_cif.got.tgz:91438.got - 2010.06.03 11:33:40.
