data_PCOD9069260
_publ_section_title
;
Structure prediction by ZEFSAII (Michael W. Deem and Ramdas Pophale) SiO2 
 PCOD9069260
Probable space group: P -1
;
_chemical_formula_sum "Si O2"
_cell_formula_units_Z 16
_cell_length_a 8.174498
_cell_length_b 23.188266
_cell_length_c 21.404797
_cell_angle_alpha 161.388703
_cell_angle_beta 128.210547
_cell_angle_gamma 43.820111
_cell_volume 856.615308
_symmetry_space_group_name_H-M "P -1"
_symmetry_group_IT_number 2
_symmetry_cell_setting 'triclinic'
loop_
_space_group_symop_operation_xyz
x,y,z
-x,-y,-z
loop_
_atom_site_type_symbol
_atom_site_label
_atom_site_fract_x
_atom_site_fract_y
_atom_site_fract_z
Si Si1 0.269407 0.158018 0.794372
Si Si2 0.286947 0.570862 0.072569
Si Si3 0.272616 0.149851 0.644276
Si Si4 0.341428 0.837654 0.826000
Si Si5 0.859947 0.449039 0.532241
Si Si6 0.591784 0.744528 0.528476
Si Si7 0.715300 0.412401 0.767912
Si Si8 0.635748 0.800742 0.742024
O O1 0.320644 0.070975 0.645891
O O2 0.443132 0.972032 0.691889
O O3 0.301393 0.362075 0.014340
O O4 0.981248 0.241248 0.821688
O O5 0.251952 0.374656 0.872557
O O6 0.500000 0.500000 0.000000
O O7 0.342704 0.609753 0.195964
O O8 0.001622 0.217830 0.627055
O O9 0.500000 0.000000 0.500000
O O10 0.610234 0.626696 0.692252
O O11 0.157435 0.756486 0.694663
O O12 0.395254 0.890458 0.823030
O O13 0.275170 0.036102 0.057684
O O14 0.820370 0.573583 0.585684
O O15 0.120274 0.382982 0.554004
O O16 0.464506 0.616310 0.347963
O O17 0.586098 0.780452 0.638244
#
# Coordination Sequence:
#
# PCOD9069260 Si02
#       8
#     2   2   2   2   2   2   2   2
#     4   9  22  41  51  83 123 142 192 236 275 336
#     4   9  19  38  62  78 105 158 192 222 281 344
#     4   9  19  38  62  78 105 158 192 222 281 344
#     4   8  18  40  60  76 106 148 194 224 256 342
#     4   9  19  38  58  81 109 149 187 222 276 337
#     4  12  23  34  57  88 115 143 179 238 293 318
#     4   9  22  41  52  81 123 141 181 244 279 331
#     4   9  19  38  58  81 109 149 187 222 276 337
#
# _framework density 18.678160999999999
#
# number of rings (size 3 to 8) (size 9 to 14) (size 15 to 20)
#    0.750    2.000    0.000    1.875    3.500    3.500 
#    4.500    0.000    0.000    0.000    0.000    0.000 
#    0.000    0.000    0.000    0.000    0.000    0.000 
#
# Total GULP energy -89109.604932 kJ/mol
# GULP energy per Si atom -5569.350308 kJ/mol
# Density = 1.863565 g / cm^3
# Si number density = 18.678161 Si / 1000 Ang^3
#
#
#
# Elastic Constant Matrix: (Units=GPa)
#
#
# Indices 1 2 3 4 5 6 
#
# 1 66.8866 24.2224 20.1946 -3.1924 -6.7183 -13.8999
# 2 24.2224 82.9518 6.0993 3.3388 0.6343 -5.8909
# 3 20.1946 6.0993 42.2362 -10.9793 16.1061 -3.7318
# 4 -3.1924 3.3388 -10.9793 26.3644 -2.8282 12.1055
# 5 -6.7183 0.6343 16.1061 -2.8282 38.2976 0.9587
# 6 -13.8999 -5.8909 -3.7318 12.1055 0.9587 22.4120
#
#
#
# Elastic Compliance Matrix: (Units=1/GPa)
#
#
# Indices 1 2 3 4 5 6 
#
# 1 0.025820 -0.004799 -0.016723 -0.009831 0.010494 0.016829
# 2 -0.004799 0.013798 0.000149 -0.003675 -0.001473 0.002723
# 3 -0.016723 0.000149 0.042968 0.019774 -0.019220 -0.013036
# 4 -0.009831 -0.003675 0.019774 0.061973 -0.004476 -0.037053
# 5 0.010494 -0.001473 -0.019220 -0.004476 0.035634 0.003814
# 6 0.016829 0.002723 -0.013036 -0.037053 0.003814 0.073451
#
#
# Mechanical properties :
#
#
# Convention : Reuss Voigt Hill
#
# Bulk Modulus (GPa) = 25.10049 32.56749 28.83399
# Shear Modulus (GPa) = 16.14620 26.85201 21.49911
#
# Velocity S-wave (km/s) = 2.94333 3.79570 3.39636
# Velocity P-wave (km/s) = 5.00185 6.05672 5.55438
#
# Compressibility (1/GPa) = 0.03983986
#
# Stress axis : x y z
#
# Youngs Moduli (GPa) = 38.72992 72.47317 23.27300
#
# Poissons Ratio (x) = 0.34783 0.38919
# Poissons Ratio (y) = 0.18588 -0.00347
# Poissons Ratio (z) = 0.64768 -0.01080
#
# Static dielectric constant tensor:
#      x y z
#    x 1.560340 -0.003000 0.096840 
#    y -0.003000 1.612970 0.008210 
#    z 0.096840 0.008210 1.593180 
# 
# From -- ./inp_files/591904.got.cif
#   From: 2010.05.17/outbox.cif.g08.bks.cpg/sg2_296_cif.got.tgz:591904.got - 2010.06.03 11:33:40.
