data_PCOD9069122
_publ_section_title
;
Structure prediction by ZEFSAII (Michael W. Deem and Ramdas Pophale) SiO2 
 PCOD9069122
Probable space group: P -1
;
_chemical_formula_sum "Si O2"
_cell_formula_units_Z 14
_cell_length_a 11.773313
_cell_length_b 12.992351
_cell_length_c 22.672301
_cell_angle_alpha 18.336548
_cell_angle_beta 141.021305
_cell_angle_gamma 134.115007
_cell_volume 670.803770
_symmetry_space_group_name_H-M "P -1"
_symmetry_group_IT_number 2
_symmetry_cell_setting 'triclinic'
loop_
_space_group_symop_operation_xyz
x,y,z
-x,-y,-z
loop_
_atom_site_type_symbol
_atom_site_label
_atom_site_fract_x
_atom_site_fract_y
_atom_site_fract_z
Si Si1 0.762307 0.551611 0.706127
Si Si2 0.488909 0.857075 0.332608
Si Si3 0.862132 0.251313 0.577793
Si Si4 0.847318 0.751798 0.941392
Si Si5 0.463586 0.183501 0.823048
Si Si6 0.335922 0.925554 0.515705
Si Si7 0.577619 0.320103 0.014056
O O1 0.658864 0.790102 0.483456
O O2 0.649892 0.255145 0.830360
O O3 0.737326 0.762332 0.641722
O O4 0.978193 0.415123 0.858216
O O5 0.500000 0.500000 0.500000
O O6 0.301929 0.989225 0.221768
O O7 0.505251 0.137651 0.138975
O O8 0.668129 0.460723 0.410891
O O9 0.820424 0.145915 0.552549
O O10 0.000000 0.500000 0.500000
O O11 0.922374 0.942612 0.813904
O O12 0.739608 0.490153 0.010732
O O13 0.369535 0.962188 0.861391
O O14 0.500000 0.000000 0.000000
O O15 0.500000 0.000000 0.500000
O O16 0.424172 0.608805 0.764270
#
# Coordination Sequence:
#
# PCOD9069122 Si02
#       7
#     2   2   2   2   2   2   2
#     4  12  26  46  69 102 143 185 234 292 348 417
#     4  12  25  51  72  98 143 186 237 293 350 416
#     4  12  25  42  69 105 146 181 237 289 351 423
#     4  12  27  46  71 106 137 183 242 287 352 422
#     4  12  22  43  69 102 141 184 227 290 359 408
#     4  12  22  46  71  99 148 183 227 296 354 415
#     4  12  24  44  75 100 136 191 229 289 356 412
#
# _framework density 20.870484999999999
#
# number of rings (size 3 to 8) (size 9 to 14) (size 15 to 20)
#    0.000    0.000    8.571    1.286    2.000    1.714 
#    0.000    0.000    0.000    0.000    0.000    0.000 
#    0.000    0.000    0.000    0.000    0.000    0.000 
#
# Total GULP energy -78349.148158 kJ/mol
# GULP energy per Si atom -5596.367726 kJ/mol
# Density = 2.082298 g / cm^3
# Si number density = 20.870485 Si / 1000 Ang^3
#
#
#
# Elastic Constant Matrix: (Units=GPa)
#
#
# Indices 1 2 3 4 5 6 
#
# 1 75.4582 50.5964 46.3077 11.3678 -26.6907 -3.7218
# 2 50.5964 141.3630 23.3167 -7.5115 9.8273 -5.1347
# 3 46.3077 23.3167 104.8381 16.6677 -8.7807 -6.0228
# 4 11.3678 -7.5115 16.6677 43.7149 0.4610 -1.2601
# 5 -26.6907 9.8273 -8.7807 0.4610 52.1422 -7.0894
# 6 -3.7218 -5.1347 -6.0228 -1.2601 -7.0894 28.2326
#
#
#
# Elastic Compliance Matrix: (Units=1/GPa)
#
#
# Indices 1 2 3 4 5 6 
#
# 1 0.037163 -0.013308 -0.010140 -0.008154 0.020592 0.005122
# 2 -0.013308 0.012457 0.001460 0.005105 -0.009128 -0.001241
# 3 -0.010140 0.001460 0.013876 -0.002342 -0.002967 0.001039
# 4 -0.008154 0.005105 -0.002342 0.026801 -0.005894 -0.000930
# 5 0.020592 -0.009128 -0.002967 -0.005894 0.032110 0.008221
# 6 0.005122 -0.001241 0.001039 -0.000930 0.008221 0.038114
#
#
# Mechanical properties :
#
#
# Convention : Reuss Voigt Hill
#
# Bulk Modulus (GPa) = 51.22664 62.45564 56.84114
# Shear Modulus (GPa) = 23.69630 38.24718 30.97174
#
# Velocity S-wave (km/s) = 3.37322 4.28553 3.85645
# Velocity P-wave (km/s) = 6.30633 7.38092 6.86468
#
# Compressibility (1/GPa) = 0.01952109
#
# Stress axis : x y z
#
# Youngs Moduli (GPa) = 26.90846 80.27719 72.06545
#
# Poissons Ratio (x) = 1.06829 0.73076
# Poissons Ratio (y) = 0.35808 -0.10523
# Poissons Ratio (z) = 0.27286 -0.11722
#
# Static dielectric constant tensor:
#      x y z
#    x 1.764490 0.005070 0.001230 
#    y 0.005070 1.754280 0.000650 
#    z 0.001230 0.000650 1.745330 
# 
# From -- ./inp_files/221599.got.cif
#   From: 2010.05.17/outbox.cif.g08.bks.cpg/sg2_111_cif.got.tgz:221599.got - 2010.06.03 11:33:40.
