data_PCOD9069855
_publ_section_title
;
Structure prediction by ZEFSAII (Michael W. Deem and Ramdas Pophale) SiO2 
 PCOD9069855
Probable space group: P -1
;
_chemical_formula_sum "Si O2"
_cell_formula_units_Z 15
_cell_length_a 18.078157
_cell_length_b 9.355140
_cell_length_c 7.944827
_cell_angle_alpha 146.712937
_cell_angle_beta 79.042040
_cell_angle_gamma 116.071653
_cell_volume 618.085599
_symmetry_space_group_name_H-M "P -1"
_symmetry_group_IT_number 2
_symmetry_cell_setting 'triclinic'
loop_
_space_group_symop_operation_xyz
x,y,z
-x,-y,-z
loop_
_atom_site_type_symbol
_atom_site_label
_atom_site_fract_x
_atom_site_fract_y
_atom_site_fract_z
Si Si1 0.510027 0.263890 0.370260
Si Si2 0.557847 0.852619 0.373061
Si Si3 0.203352 0.633095 0.539309
Si Si4 0.290788 0.300217 0.259575
Si Si5 0.980209 0.722197 0.610582
Si Si6 0.755920 0.147217 0.600492
Si Si7 0.000000 0.000000 0.500000
Si Si8 0.796575 0.716044 0.363227
O O1 0.500000 0.500000 0.500000
O O2 0.436697 0.135192 0.416605
O O3 0.608956 0.450544 0.580384
O O4 0.500000 0.000000 0.000000
O O5 0.500000 0.000000 0.500000
O O6 0.658642 0.022361 0.440189
O O7 0.500000 0.500000 0.000000
O O8 0.233274 0.390733 0.259689
O O9 0.125330 0.491846 0.566892
O O10 0.177214 0.693303 0.426559
O O11 0.273016 0.965002 0.909557
O O12 0.258713 0.327282 0.485826
O O13 0.000000 0.500000 0.500000
O O14 0.014016 0.853963 0.536761
O O15 0.000000 0.000000 0.000000
O O16 0.762511 0.874468 0.404978
O O17 0.776346 0.398014 0.979349
O O18 0.096967 0.074086 0.464076
#
# Coordination Sequence:
#
# PCOD9069855 Si02
#       8
#     2   2   2   2   2   2   1   2
#     4  12  24  42  66  99 138 181 231 288 349 425
#     4  12  24  43  69 104 140 184 237 292 363 444
#     4  12  24  45  68  99 136 182 234 288 367 429
#     4  12  24  44  68  99 137 184 229 289 358 435
#     4  12  27  48  74 109 147 193 253 314 378 452
#     4  12  25  45  70 103 141 188 236 301 366 440
#     4  12  28  50  78 110 152 200 264 314 390 452
#     4  12  26  45  70 101 140 186 242 300 367 440
#
# _framework density 24.268481999999999
#
# number of rings (size 3 to 8) (size 9 to 14) (size 15 to 20)
#    0.000    0.000    1.333    9.600    0.000    1.067 
#    0.000    0.000    0.000    0.000    0.000    0.000 
#    0.000    0.000    0.000    0.000    0.000    0.000 
#
# Total GULP energy -83651.948685 kJ/mol
# GULP energy per Si atom -5576.796579 kJ/mol
# Density = 2.421325 g / cm^3
# Si number density = 24.268482 Si / 1000 Ang^3
#
#
#
# Elastic Constant Matrix: (Units=GPa)
#
#
# Indices 1 2 3 4 5 6 
#
# 1 88.1509 -0.2227 -4.7886 17.5824 -20.4075 -3.3929
# 2 -0.2227 162.5642 20.3444 -5.0221 -4.0447 0.9604
# 3 -4.7886 20.3444 115.8381 -0.9586 -13.2996 -1.6502
# 4 17.5824 -5.0221 -0.9586 36.4074 -8.2553 -8.9756
# 5 -20.4075 -4.0447 -13.2996 -8.2553 29.9375 13.1902
# 6 -3.3929 0.9604 -1.6502 -8.9756 13.1902 50.0299
#
#
#
# Elastic Compliance Matrix: (Units=1/GPa)
#
#
# Indices 1 2 3 4 5 6 
#
# 1 0.014870 -0.000088 0.001765 -0.005407 0.010606 -0.002698
# 2 -0.000088 0.006329 -0.001030 0.001004 0.000686 -0.000162
# 3 0.001765 -0.001030 0.009546 0.000330 0.005849 -0.001028
# 4 -0.005407 0.001004 0.000330 0.032117 0.003484 0.004468
# 5 0.010606 0.000686 0.005849 0.003484 0.049345 -0.011485
# 6 -0.002698 -0.000162 -0.001028 0.004468 -0.011485 0.023604
#
#
# Mechanical properties :
#
#
# Convention : Reuss Voigt Hill
#
# Bulk Modulus (GPa) = 31.21269 44.13550 37.67409
# Shear Modulus (GPa) = 34.43591 46.68965 40.56278
#
# Velocity S-wave (km/s) = 3.77099 4.39096 4.09273
# Velocity P-wave (km/s) = 5.64356 6.62822 6.15561
#
# Compressibility (1/GPa) = 0.03203825
#
# Stress axis : x y z
#
# Youngs Moduli (GPa) = 67.25027 157.99559 104.75342
#
# Poissons Ratio (x) = 0.01385 -0.18485
# Poissons Ratio (y) = 0.00590 0.10795
# Poissons Ratio (z) = -0.11867 0.16281
#
# Static dielectric constant tensor:
#      x y z
#    x 2.001040 -0.009850 0.082350 
#    y -0.009850 1.948440 0.017090 
#    z 0.082350 0.017090 1.902710 
# 
# From -- ./inp_files/329718.got.cif
#   From: 2010.05.17/outbox.cif.g08.bks.cpg/sg2_165_cif.got.tgz:329718.got - 2010.06.03 11:33:40.
