data_PCOD9069335
_publ_section_title
;
Structure prediction by ZEFSAII (Michael W. Deem and Ramdas Pophale) SiO2 
 PCOD9069335
Probable space group: P -1
;
_chemical_formula_sum "Si O2"
_cell_formula_units_Z 16
_cell_length_a 5.180774
_cell_length_b 22.065682
_cell_length_c 9.959924
_cell_angle_alpha 136.308137
_cell_angle_beta 91.240839
_cell_angle_gamma 96.112778
_cell_volume 773.935698
_symmetry_space_group_name_H-M "P -1"
_symmetry_group_IT_number 2
_symmetry_cell_setting 'triclinic'
loop_
_space_group_symop_operation_xyz
x,y,z
-x,-y,-z
loop_
_atom_site_type_symbol
_atom_site_label
_atom_site_fract_x
_atom_site_fract_y
_atom_site_fract_z
Si Si1 0.404529 0.199645 0.217248
Si Si2 0.431653 0.411083 0.765656
Si Si3 0.966774 0.871433 0.688548
Si Si4 0.914563 0.234864 0.127422
Si Si5 0.435797 0.476416 0.307631
Si Si6 0.007573 0.941326 0.090326
Si Si7 0.125385 0.637584 0.916990
Si Si8 0.879259 0.304997 0.687463
O O1 0.310182 0.179045 0.334913
O O2 0.691779 0.242171 0.245961
O O3 0.196823 0.254287 0.234169
O O4 0.303581 0.101344 0.991147
O O5 0.473001 0.443085 0.664549
O O6 0.138031 0.364073 0.719870
O O7 0.633582 0.346629 0.701659
O O8 0.500000 0.500000 0.000000
O O9 0.113175 0.797118 0.512441
O O10 0.939817 0.953866 0.725030
O O11 0.100450 0.917368 0.901453
O O12 0.888518 0.294476 0.095818
O O13 0.885168 0.128614 0.924709
O O14 0.500000 0.500000 0.500000
O O15 0.606033 0.400992 0.149753
O O16 0.126978 0.440660 0.227427
O O17 0.104676 0.682212 0.131849
#
# Coordination Sequence:
#
# PCOD9069335 Si02
#       8
#     2   2   2   2   2   2   2   2
#     4   8  17  33  55  83 118 163 189 252 302 344
#     4  12  24  47  67  90 127 165 204 262 328 372
#     4   8  18  37  57  96 116 162 209 248 307 365
#     4   9  19  33  58  82 118 163 191 246 308 347
#     4  12  27  43  68  92 121 162 206 263 323 378
#     4   7  17  36  57  86 129 161 192 265 301 353
#     4  12  23  42  62  91 126 160 210 259 306 375
#     4  12  24  40  69  92 123 169 211 255 305 391
#
# _framework density 20.673553999999999
#
# number of rings (size 3 to 8) (size 9 to 14) (size 15 to 20)
#    1.500    0.250    2.500    2.250    0.000    7.500 
#    2.250    0.625    0.000    0.750    0.000    0.000 
#    0.000    0.000    0.000    0.000    0.000    0.000 
#
# Total GULP energy -89219.296609 kJ/mol
# GULP energy per Si atom -5576.206038 kJ/mol
# Density = 2.062650 g / cm^3
# Si number density = 20.673554 Si / 1000 Ang^3
#
#
#
# Elastic Constant Matrix: (Units=GPa)
#
#
# Indices 1 2 3 4 5 6 
#
# 1 81.6365 10.1182 5.7005 7.2094 -8.6453 2.1312
# 2 10.1182 88.7560 28.5060 9.6701 -4.9979 1.1737
# 3 5.7005 28.5060 92.5949 10.6170 -8.8904 1.9154
# 4 7.2094 9.6701 10.6170 28.2581 -3.0907 -11.7373
# 5 -8.6453 -4.9979 -8.8904 -3.0907 19.3043 -2.8484
# 6 2.1312 1.1737 1.9154 -11.7373 -2.8484 14.9809
#
#
#
# Elastic Compliance Matrix: (Units=1/GPa)
#
#
# Indices 1 2 3 4 5 6 
#
# 1 0.013347 -0.000847 0.000525 -0.004819 0.004518 -0.004816
# 2 -0.000847 0.013000 -0.003317 -0.004691 0.000098 -0.004131
# 3 0.000525 -0.003317 0.012885 -0.005570 0.003662 -0.005130
# 4 -0.004819 -0.004691 -0.005570 0.064315 0.012403 0.054513
# 5 0.004518 0.000098 0.003662 0.012403 0.060488 0.020100
# 6 -0.004816 -0.004131 -0.005130 0.054513 0.020100 0.114948
#
#
# Mechanical properties :
#
#
# Convention : Reuss Voigt Hill
#
# Bulk Modulus (GPa) = 31.29509 39.07077 35.18293
# Shear Modulus (GPa) = 16.83987 27.08618 21.96302
#
# Velocity S-wave (km/s) = 2.85715 3.62357 3.26294
# Velocity P-wave (km/s) = 5.10441 6.03713 5.59026
#
# Compressibility (1/GPa) = 0.03195389
#
# Stress axis : x y z
#
# Youngs Moduli (GPa) = 74.92042 76.92251 77.60954
#
# Poissons Ratio (x) = 0.06516 -0.04075
# Poissons Ratio (y) = 0.06347 0.25745
# Poissons Ratio (z) = -0.03933 0.25517
#
# Static dielectric constant tensor:
#      x y z
#    x 1.769460 -0.003120 0.016150 
#    y -0.003120 1.749120 0.027030 
#    z 0.016150 0.027030 1.774300 
# 
# From -- ./inp_files/141590.got.cif
#   From: 2010.05.17/outbox.cif.g08.bks.cpg/sg2_71_cif.got.tgz:141590.got - 2010.06.03 11:33:40.
