data_PCOD9069378
_publ_section_title
;
Structure prediction by ZEFSAII (Michael W. Deem and Ramdas Pophale) SiO2 
 PCOD9069378
Probable space group: P -1
;
_chemical_formula_sum "Si O2"
_cell_formula_units_Z 14
_cell_length_a 9.247260
_cell_length_b 20.383992
_cell_length_c 7.533780
_cell_angle_alpha 70.391397
_cell_angle_beta 64.467150
_cell_angle_gamma 30.100361
_cell_volume 640.454788
_symmetry_space_group_name_H-M "P -1"
_symmetry_group_IT_number 2
_symmetry_cell_setting 'triclinic'
loop_
_space_group_symop_operation_xyz
x,y,z
-x,-y,-z
loop_
_atom_site_type_symbol
_atom_site_label
_atom_site_fract_x
_atom_site_fract_y
_atom_site_fract_z
Si Si1 0.660093 0.618551 0.494470
Si Si2 0.350002 0.879036 0.472585
Si Si3 0.613440 0.791032 0.776508
Si Si4 0.702532 0.362326 0.947808
Si Si5 0.362939 0.363673 0.929586
Si Si6 0.660816 0.866661 0.026030
Si Si7 0.242051 0.564805 0.455579
O O1 0.487443 0.750096 0.533569
O O2 0.583653 0.648280 0.297570
O O3 0.614690 0.553772 0.616503
O O4 0.000000 0.500000 0.500000
O O5 0.406263 0.888127 0.631660
O O6 0.524064 0.861881 0.248259
O O7 0.000000 0.000000 0.500000
O O8 0.950142 0.652947 0.645365
O O9 0.521395 0.752679 0.953565
O O10 0.622667 0.845198 0.874436
O O11 0.505399 0.370539 0.973335
O O12 0.855573 0.338931 0.712058
O O13 0.985890 0.246851 0.028679
O O14 0.500000 0.500000 0.000000
O O15 0.000000 0.500000 0.000000
O O16 0.500000 0.000000 0.000000
O O17 0.500000 0.500000 0.500000
#
# Coordination Sequence:
#
# PCOD9069378 Si02
#       7
#     2   2   2   2   2   2   2
#     4  12  23  43  74 105 147 186 244 297 359 431
#     4  12  29  49  75 109 148 197 248 298 368 444
#     4  12  26  49  75 103 150 192 248 305 361 446
#     4  12  27  44  74 112 152 188 245 306 368 429
#     4  12  23  42  72 111 146 193 240 301 368 435
#     4  12  29  53  74 108 147 193 247 309 372 438
#     4  12  23  43  71 110 146 189 236 303 366 421
#
# _framework density 21.859469000000001
#
# number of rings (size 3 to 8) (size 9 to 14) (size 15 to 20)
#    0.000    0.000    7.143    1.714    6.000    3.429 
#    0.000    0.000    0.000    0.000    0.000    0.000 
#    0.000    0.000    0.000    0.000    0.000    0.000 
#
# Total GULP energy -78223.241844 kJ/mol
# GULP energy per Si atom -5587.374417 kJ/mol
# Density = 2.180972 g / cm^3
# Si number density = 21.859469 Si / 1000 Ang^3
#
#
#
# Elastic Constant Matrix: (Units=GPa)
#
#
# Indices 1 2 3 4 5 6 
#
# 1 216.6358 82.3795 52.0482 -7.5611 28.3044 -3.8116
# 2 82.3795 143.2238 22.3557 -12.6346 10.1268 -10.9847
# 3 52.0482 22.3557 80.5995 -10.6718 18.1697 -6.9074
# 4 -7.5611 -12.6346 -10.6718 21.6277 -4.2080 1.2745
# 5 28.3044 10.1268 18.1697 -4.2080 48.9394 -7.7301
# 6 -3.8116 -10.9847 -6.9074 1.2745 -7.7301 50.2895
#
#
#
# Elastic Compliance Matrix: (Units=1/GPa)
#
#
# Indices 1 2 3 4 5 6 
#
# 1 0.007003 -0.003570 -0.003302 -0.001671 -0.002392 -0.001028
# 2 -0.003570 0.009478 0.000270 0.004445 0.000674 0.001828
# 3 -0.003302 0.000270 0.016174 0.006242 -0.003401 0.001349
# 4 -0.001671 0.004445 0.006242 0.051732 0.002295 0.000743
# 5 -0.002392 0.000674 -0.003401 0.002295 0.023622 0.003072
# 6 -0.001028 0.001828 0.001349 0.000743 0.003072 0.020845
#
#
# Mechanical properties :
#
#
# Convention : Reuss Voigt Hill
#
# Bulk Modulus (GPa) = 51.41546 83.78066 67.59806
# Shear Modulus (GPa) = 33.66052 43.08303 38.37178
#
# Velocity S-wave (km/s) = 3.92836 4.44431 4.19428
# Velocity P-wave (km/s) = 6.64440 8.04649 7.37882
#
# Compressibility (1/GPa) = 0.01944940
#
# Stress axis : x y z
#
# Youngs Moduli (GPa) = 142.79750 105.50913 61.82914
#
# Poissons Ratio (x) = 0.37663 0.20418
# Poissons Ratio (y) = 0.50974 -0.01666
# Poissons Ratio (z) = 0.47157 -0.02844
#
# Static dielectric constant tensor:
#      x y z
#    x 1.789740 0.024590 -0.018870 
#    y 0.024590 1.764540 0.023040 
#    z -0.018870 0.023040 1.910140 
# 
# From -- ./inp_files/220726.got.cif
#   From: 2010.05.17/outbox.cif.g08.bks.cpg/sg2_111_cif.got.tgz:220726.got - 2010.06.03 11:33:40.
