data_PCOD9069102
_publ_section_title
;
Structure prediction by ZEFSAII (Michael W. Deem and Ramdas Pophale) SiO2 
 PCOD9069102
Probable space group: P -1
;
_chemical_formula_sum "Si O2"
_cell_formula_units_Z 16
_cell_length_a 21.387265
_cell_length_b 8.702182
_cell_length_c 12.164101
_cell_angle_alpha 142.722995
_cell_angle_beta 150.212895
_cell_angle_gamma 41.684878
_cell_volume 669.179189
_symmetry_space_group_name_H-M "P -1"
_symmetry_group_IT_number 2
_symmetry_cell_setting 'triclinic'
loop_
_space_group_symop_operation_xyz
x,y,z
-x,-y,-z
loop_
_atom_site_type_symbol
_atom_site_label
_atom_site_fract_x
_atom_site_fract_y
_atom_site_fract_z
Si Si1 0.747136 0.351633 0.060116
Si Si2 0.670751 0.636115 0.311756
Si Si3 0.919403 0.840225 0.091676
Si Si4 0.062145 0.235211 0.184650
Si Si5 0.280977 0.497369 0.308643
Si Si6 0.836876 0.602996 0.137474
Si Si7 0.208594 0.801054 0.578887
Si Si8 0.464550 0.901196 0.507595
O O1 0.666654 0.197730 0.770899
O O2 0.653466 0.506220 0.095569
O O3 0.813293 0.531785 0.185702
O O4 0.851085 0.138555 0.158659
O O5 0.793105 0.773798 0.563924
O O6 0.716461 0.413748 0.346387
O O7 0.443386 0.144399 0.695409
O O8 0.056623 0.794461 0.333920
O O9 0.943269 0.771855 0.960169
O O10 0.817236 0.678918 0.892041
O O11 0.981986 0.496045 0.263025
O O12 0.000000 0.000000 0.000000
O O13 0.266776 0.730028 0.505686
O O14 0.422327 0.331295 0.422749
O O15 0.235895 0.554396 0.148507
O O16 0.788317 0.906027 0.217254
O O17 0.500000 0.000000 0.500000
#
# Coordination Sequence:
#
# PCOD9069102 Si02
#       8
#     2   2   2   2   2   2   2   2
#     4  12  27  46  69 104 142 181 235 280 344 420
#     4  12  26  45  74 103 139 183 234 285 343 416
#     4  12  22  45  72 103 138 180 231 285 342 417
#     4  12  22  42  74 102 141 186 228 280 350 410
#     4  12  25  47  73 100 136 181 237 291 340 401
#     4  12  28  43  70 107 142 182 222 286 355 413
#     4  12  25  42  69 107 140 174 222 288 351 406
#     4  12  24  49  77  98 131 188 241 287 339 401
#
# _framework density 23.909890000000001
#
# number of rings (size 3 to 8) (size 9 to 14) (size 15 to 20)
#    0.000    0.000    7.500    2.625    1.750    5.500 
#    0.000    1.250    0.000    0.000    0.000    0.000 
#    0.000    0.000    0.000    0.000    0.000    0.000 
#
# Total GULP energy -89670.153190 kJ/mol
# GULP energy per Si atom -5604.384574 kJ/mol
# Density = 2.385547 g / cm^3
# Si number density = 23.909890 Si / 1000 Ang^3
#
#
#
# Elastic Constant Matrix: (Units=GPa)
#
#
# Indices 1 2 3 4 5 6 
#
# 1 105.7355 37.4712 16.3515 15.9849 -34.3580 -22.5583
# 2 37.4712 85.2337 16.8166 14.7420 -1.5985 -32.7935
# 3 16.3515 16.8166 46.3178 8.6717 -16.6404 -4.8867
# 4 15.9849 14.7420 8.6717 39.1924 -10.8527 -1.8174
# 5 -34.3580 -1.5985 -16.6404 -10.8527 42.2121 7.8361
# 6 -22.5583 -32.7935 -4.8867 -1.8174 7.8361 52.7920
#
#
#
# Elastic Compliance Matrix: (Units=1/GPa)
#
#
# Indices 1 2 3 4 5 6 
#
# 1 0.016182 -0.006729 0.001720 -0.000742 0.013236 0.000904
# 2 -0.006729 0.021199 -0.006965 -0.006243 -0.011082 0.011079
# 3 0.001720 -0.006965 0.027840 -0.000940 0.012405 -0.002888
# 4 -0.000742 -0.006243 -0.000940 0.030212 0.007361 -0.004335
# 5 0.013236 -0.011082 0.012405 0.007361 0.041950 -0.006053
# 6 0.000904 0.011079 -0.002888 -0.004335 -0.006053 0.026692
#
#
# Mechanical properties :
#
#
# Convention : Reuss Voigt Hill
#
# Bulk Modulus (GPa) = 24.22884 42.06283 33.14584
# Shear Modulus (GPa) = 24.77932 37.94913 31.36423
#
# Velocity S-wave (km/s) = 3.22275 3.98826 3.62576
# Velocity P-wave (km/s) = 4.89934 6.23207 5.60545
#
# Compressibility (1/GPa) = 0.04127312
#
# Stress axis : x y z
#
# Youngs Moduli (GPa) = 61.79591 47.17097 35.92004
#
# Poissons Ratio (x) = 0.31742 -0.06178
# Poissons Ratio (y) = 0.41584 0.25018
# Poissons Ratio (z) = -0.10629 0.32854
#
# Static dielectric constant tensor:
#      x y z
#    x 0.820690 0.944110 -1.437480 
#    y 0.944110 1.088350 1.265740 
#    z -1.437480 1.265740 -0.004210 
# 
# From -- ./inp_files/474361.got.cif
#   From: 2010.05.17/outbox.cif.g08.bks.cpg/sg2_238_cif.got.tgz:474361.got - 2010.06.03 11:33:40.
