data_PCOD9069069
_publ_section_title
;
Structure prediction by ZEFSAII (Michael W. Deem and Ramdas Pophale) SiO2 
 PCOD9069069
Probable space group: P -1
;
_chemical_formula_sum "Si O2"
_cell_formula_units_Z 14
_cell_length_a 14.673028
_cell_length_b 20.141440
_cell_length_c 11.954626
_cell_angle_alpha 149.455777
_cell_angle_beta 28.930050
_cell_angle_gamma 159.553056
_cell_volume 579.058661
_symmetry_space_group_name_H-M "P -1"
_symmetry_group_IT_number 2
_symmetry_cell_setting 'triclinic'
loop_
_space_group_symop_operation_xyz
x,y,z
-x,-y,-z
loop_
_atom_site_type_symbol
_atom_site_label
_atom_site_fract_x
_atom_site_fract_y
_atom_site_fract_z
Si Si1 0.228077 0.649912 0.070314
Si Si2 0.197999 0.136001 0.352700
Si Si3 0.338279 0.959490 0.003927
Si Si4 0.262164 0.411799 0.831683
Si Si5 0.637416 0.888226 0.454481
Si Si6 0.210072 0.883893 0.583275
Si Si7 0.661753 0.522144 0.755019
O O1 0.133336 0.728817 0.352801
O O2 0.541567 0.808307 0.908222
O O3 0.262187 0.553991 0.985294
O O4 0.000000 0.500000 0.000000
O O5 0.261598 0.312881 0.582611
O O6 0.923505 0.994506 0.365842
O O7 0.226952 0.047458 0.292766
O O8 0.525689 0.973368 0.734401
O O9 0.022973 0.740385 0.010631
O O10 0.500000 0.000000 0.000000
O O11 0.510299 0.490844 0.758571
O O12 0.395235 0.660639 0.423322
O O13 0.732118 0.956581 0.321975
O O14 0.970868 0.744037 0.731491
O O15 0.500000 0.000000 0.500000
O O16 0.500000 0.500000 0.000000
#
# Coordination Sequence:
#
# PCOD9069069 Si02
#       7
#     2   2   2   2   2   2   2
#     4  12  25  47  77 112 157 198 261 327 393 465
#     4  12  23  44  76 112 148 200 250 316 399 461
#     4  12  22  41  72 111 151 196 246 311 389 463
#     4  12  24  44  73 111 157 195 261 319 386 468
#     4  12  26  50  80 110 159 201 261 322 392 469
#     4  12  30  52  79 115 156 210 266 323 398 470
#     4  12  30  50  77 113 154 208 267 321 389 468
#
# _framework density 24.17717
#
# number of rings (size 3 to 8) (size 9 to 14) (size 15 to 20)
#    0.000    0.000    4.286    6.000    6.000    1.143 
#    0.000    0.000    0.000    0.000    0.000    0.000 
#    0.000    0.000    0.000    0.000    0.000    0.000 
#
# Total GULP energy -78062.897322 kJ/mol
# GULP energy per Si atom -5575.921237 kJ/mol
# Density = 2.412214 g / cm^3
# Si number density = 24.177170 Si / 1000 Ang^3
#
#
#
# Elastic Constant Matrix: (Units=GPa)
#
#
# Indices 1 2 3 4 5 6 
#
# 1 111.5977 43.2426 -13.1828 -10.7543 -19.8716 -10.9135
# 2 43.2426 134.7969 -28.4702 -66.2602 -1.3961 -20.5779
# 3 -13.1828 -28.4702 94.1384 -5.9100 -20.1181 15.9434
# 4 -10.7543 -66.2602 -5.9100 54.8220 -4.3958 12.4373
# 5 -19.8716 -1.3961 -20.1181 -4.3958 46.8901 -6.6330
# 6 -10.9135 -20.5779 15.9434 12.4373 -6.6330 61.3453
#
#
#
# Elastic Compliance Matrix: (Units=1/GPa)
#
#
# Indices 1 2 3 4 5 6 
#
# 1 0.011730 -0.005378 0.000547 -0.004089 0.004874 0.001496
# 2 -0.005378 0.030165 0.012448 0.037537 0.007353 -0.000889
# 3 0.000547 0.012448 0.018253 0.018625 0.009728 -0.003195
# 4 -0.004089 0.037537 0.018625 0.067024 0.012928 -0.005167
# 5 0.004874 0.007353 0.009728 0.012928 0.029186 0.001340
# 6 0.001496 -0.000889 -0.003195 -0.005167 0.001340 0.018292
#
#
# Mechanical properties :
#
#
# Convention : Reuss Voigt Hill
#
# Bulk Modulus (GPa) = 13.26576 38.19024 25.72800
# Shear Modulus (GPa) = 27.09386 55.20771 41.15079
#
# Velocity S-wave (km/s) = 3.35123 4.78375 4.13007
# Velocity P-wave (km/s) = 4.52472 6.80754 5.77995
#
# Compressibility (1/GPa) = 0.07538206
#
# Stress axis : x y z
#
# Youngs Moduli (GPa) = 85.25413 33.15112 54.78429
#
# Poissons Ratio (x) = 0.17830 -0.02999
# Poissons Ratio (y) = 0.45853 -0.68195
# Poissons Ratio (z) = -0.04667 -0.41266
#
# Static dielectric constant tensor:
#      x y z
#    x 1.864760 -0.097580 0.055020 
#    y -0.097580 2.290240 0.016220 
#    z 0.055020 0.016220 2.015110 
# 
# From -- ./inp_files/373043.got.cif
#   From: 2010.05.17/outbox.cif.g08.bks.cpg/sg2_187_cif.got.tgz:373043.got - 2010.06.03 11:33:40.
