data_PCOD9069733
_publ_section_title
;
Structure prediction by ZEFSAII (Michael W. Deem and Ramdas Pophale) SiO2 
 PCOD9069733
Probable space group: P -1
;
_chemical_formula_sum "Si O2"
_cell_formula_units_Z 14
_cell_length_a 7.816068
_cell_length_b 9.095215
_cell_length_c 10.148508
_cell_angle_alpha 82.252239
_cell_angle_beta 115.143109
_cell_angle_gamma 70.405028
_cell_volume 581.831575
_symmetry_space_group_name_H-M "P -1"
_symmetry_group_IT_number 2
_symmetry_cell_setting 'triclinic'
loop_
_space_group_symop_operation_xyz
x,y,z
-x,-y,-z
loop_
_atom_site_type_symbol
_atom_site_label
_atom_site_fract_x
_atom_site_fract_y
_atom_site_fract_z
Si Si1 0.035376 0.890299 0.727923
Si Si2 0.076644 0.591677 0.624562
Si Si3 0.573688 0.072344 0.634739
Si Si4 0.908205 0.196128 0.954131
Si Si5 0.531264 0.090947 0.129718
Si Si6 0.518956 0.590380 0.364501
Si Si7 0.863129 0.605431 0.065450
O O1 0.995196 0.784862 0.610924
O O2 0.227964 0.938269 0.765141
O O3 0.685492 0.304347 0.802361
O O4 0.099756 0.775493 0.894794
O O5 0.313032 0.539930 0.659491
O O6 0.078211 0.499169 0.771203
O O7 0.000000 0.500000 0.500000
O O8 0.811012 0.038801 0.676021
O O9 0.425280 0.264263 0.583443
O O10 0.500000 0.000000 0.500000
O O11 0.556269 0.977340 0.769999
O O12 0.062909 0.249876 0.920240
O O13 0.000000 0.000000 0.000000
O O14 0.386164 0.288981 0.049009
O O15 0.500000 0.000000 0.000000
O O16 0.500000 0.500000 0.500000
O O17 0.000000 0.500000 0.000000
#
# Coordination Sequence:
#
# PCOD9069733 Si02
#       7
#     2   2   2   2   2   2   2
#     4  12  26  48  83 116 154 210 273 326 398 480
#     4  12  27  49  72 116 163 207 264 333 405 476
#     4  12  27  52  76 109 161 208 266 330 397 476
#     4  12  23  47  80 111 154 205 262 324 396 472
#     4  12  27  47  78 116 152 204 269 329 395 480
#     4  12  28  48  77 112 158 207 260 330 408 469
#     4  12  24  45  78 110 155 199 260 335 396 466
#
# _framework density 24.061945999999999
#
# number of rings (size 3 to 8) (size 9 to 14) (size 15 to 20)
#    0.000    0.000    4.286    5.143    4.000    1.714 
#    2.571    0.000    0.000    0.000    0.000    0.000 
#    0.000    0.000    0.000    0.000    0.000    0.000 
#
# Total GULP energy -78305.851651 kJ/mol
# GULP energy per Si atom -5593.275118 kJ/mol
# Density = 2.400718 g / cm^3
# Si number density = 24.061946 Si / 1000 Ang^3
#
#
#
# Elastic Constant Matrix: (Units=GPa)
#
#
# Indices 1 2 3 4 5 6 
#
# 1 115.2910 22.7469 7.8722 12.0811 -3.6853 -14.3823
# 2 22.7469 96.1087 34.1664 15.1646 -7.8798 -15.0236
# 3 7.8722 34.1664 110.2692 20.9552 -21.5573 -7.7727
# 4 12.0811 15.1646 20.9552 37.1895 5.5260 -3.6391
# 5 -3.6853 -7.8798 -21.5573 5.5260 39.7464 4.0913
# 6 -14.3823 -15.0236 -7.7727 -3.6391 4.0913 47.5196
#
#
#
# Elastic Compliance Matrix: (Units=1/GPa)
#
#
# Indices 1 2 3 4 5 6 
#
# 1 0.009549 -0.001647 0.000733 -0.002797 0.001121 0.002179
# 2 -0.001647 0.012800 -0.002922 -0.002904 0.000919 0.002769
# 3 0.000733 -0.002922 0.012779 -0.007331 0.007419 0.000188
# 4 -0.002797 -0.002904 -0.007331 0.034601 -0.009675 0.000519
# 5 0.001121 0.000919 0.007419 -0.009675 0.030976 -0.001564
# 6 0.002179 0.002769 0.000188 0.000519 -0.001564 0.022784
#
#
# Mechanical properties :
#
#
# Convention : Reuss Voigt Hill
#
# Bulk Modulus (GPa) = 36.42222 50.13779 43.28000
# Shear Modulus (GPa) = 35.63491 42.01668 38.82580
#
# Velocity S-wave (km/s) = 3.85251 4.18327 4.02129
# Velocity P-wave (km/s) = 5.91260 6.64945 6.29182
#
# Compressibility (1/GPa) = 0.02745577
#
# Stress axis : x y z
#
# Youngs Moduli (GPa) = 104.71997 78.12722 78.25610
#
# Poissons Ratio (x) = 0.12866 -0.05734
# Poissons Ratio (y) = 0.17246 0.22865
# Poissons Ratio (z) = -0.07673 0.22827
#
# Static dielectric constant tensor:
#      x y z
#    x 1.983110 -0.003220 0.118160 
#    y -0.003220 1.941320 0.020470 
#    z 0.118160 0.020470 2.001880 
# 
# From -- ./inp_files/158844.got.cif
#   From: 2010.05.17/outbox.cif.g08.bks.cpg/sg2_80_cif.got.tgz:158844.got - 2010.06.03 11:33:40.
