data_PCOD9069425
_publ_section_title
;
Structure prediction by ZEFSAII (Michael W. Deem and Ramdas Pophale) SiO2 
 PCOD9069425
Probable space group: P -1
;
_chemical_formula_sum "Si O2"
_cell_formula_units_Z 16
_cell_length_a 22.339969
_cell_length_b 19.442219
_cell_length_c 13.284279
_cell_angle_alpha 32.371365
_cell_angle_beta 155.527271
_cell_angle_gamma 163.332749
_cell_volume 667.174232
_symmetry_space_group_name_H-M "P -1"
_symmetry_group_IT_number 2
_symmetry_cell_setting 'triclinic'
loop_
_space_group_symop_operation_xyz
x,y,z
-x,-y,-z
loop_
_atom_site_type_symbol
_atom_site_label
_atom_site_fract_x
_atom_site_fract_y
_atom_site_fract_z
Si Si1 0.815280 0.762231 0.694711
Si Si2 0.790666 0.005848 0.283593
Si Si3 0.183276 0.613101 0.356719
Si Si4 0.611319 0.228139 0.872070
Si Si5 0.888765 0.525414 0.373417
Si Si6 0.684968 0.009826 0.892357
Si Si7 0.153051 0.211530 0.051486
Si Si8 0.345002 0.559804 0.507254
O O1 0.500000 0.500000 0.500000
O O2 0.853179 0.822712 0.796172
O O3 0.914784 0.957597 0.538690
O O4 0.015470 0.795462 0.935308
O O5 0.030186 0.283576 0.342381
O O6 0.541512 0.814037 0.219537
O O7 0.685804 0.968352 0.061133
O O8 0.019071 0.437483 0.419031
O O9 0.351938 0.628515 0.542494
O O10 0.942241 0.477919 0.080178
O O11 0.363671 0.875022 0.332421
O O12 0.548850 0.252641 0.641712
O O13 0.500000 0.000000 0.000000
O O14 0.000000 0.500000 0.500000
O O15 0.556973 0.252996 0.205449
O O16 0.943692 0.714745 0.198135
O O17 0.471311 0.427305 0.240622
O O18 0.000000 0.000000 0.000000
#
# Coordination Sequence:
#
# PCOD9069425 Si02
#       8
#     2   2   2   2   2   2   2   2
#     4  12  25  48  78 110 153 200 260 321 392 457
#     4  12  23  44  77 107 150 192 249 322 381 451
#     4  12  26  44  76 107 154 199 252 313 384 461
#     4  12  23  43  71 112 151 191 247 317 389 450
#     4  12  29  51  74 107 155 207 260 313 390 466
#     4  12  25  46  74 108 147 202 260 309 384 470
#     4  12  30  49  78 113 157 204 260 321 390 466
#     4  12  26  47  73 116 150 193 259 317 389 457
#
# _framework density 23.981739999999999
#
# number of rings (size 3 to 8) (size 9 to 14) (size 15 to 20)
#    0.000    0.000    3.750    6.375    7.000    0.500 
#    0.000    0.000    0.000    0.000    0.000    0.000 
#    0.000    0.000    0.000    0.000    0.000    0.000 
#
# Total GULP energy -89585.168581 kJ/mol
# GULP energy per Si atom -5599.073036 kJ/mol
# Density = 2.392716 g / cm^3
# Si number density = 23.981740 Si / 1000 Ang^3
#
#
#
# Elastic Constant Matrix: (Units=GPa)
#
#
# Indices 1 2 3 4 5 6 
#
# 1 144.9925 8.0793 35.1431 -18.8461 0.3383 0.1267
# 2 8.0793 105.2637 20.8982 -10.3867 -4.6927 -17.8942
# 3 35.1431 20.8982 78.4270 -19.8649 -5.3650 -8.0018
# 4 -18.8461 -10.3867 -19.8649 52.8697 2.3166 6.8077
# 5 0.3383 -4.6927 -5.3650 2.3166 45.7295 0.3941
# 6 0.1267 -17.8942 -8.0018 6.8077 0.3941 31.9728
#
#
#
# Elastic Compliance Matrix: (Units=1/GPa)
#
#
# Indices 1 2 3 4 5 6 
#
# 1 0.007920 -0.000018 -0.003255 0.001778 -0.000522 -0.001228
# 2 -0.000018 0.010949 -0.002146 0.000601 0.000794 0.005453
# 3 -0.003255 -0.002146 0.016135 0.004166 0.001469 0.001945
# 4 0.001778 0.000601 0.004166 0.021671 -0.000533 -0.003236
# 5 -0.000522 0.000794 0.001469 -0.000533 0.022147 0.000655
# 6 -0.001228 0.005453 0.001945 -0.003236 0.000655 0.035501
#
#
# Mechanical properties :
#
#
# Convention : Reuss Voigt Hill
#
# Bulk Modulus (GPa) = 41.38159 50.76938 46.07548
# Shear Modulus (GPa) = 37.53239 43.75190 40.64214
#
# Velocity S-wave (km/s) = 3.96035 4.27591 4.12115
# Velocity P-wave (km/s) = 6.18105 6.75233 6.47299
#
# Compressibility (1/GPa) = 0.02416534
#
# Stress axis : x y z
#
# Youngs Moduli (GPa) = 126.25940 91.33084 61.97614
#
# Poissons Ratio (x) = 0.00168 0.20173
# Poissons Ratio (y) = 0.00232 0.13303
# Poissons Ratio (z) = 0.41096 0.19603
#
# Static dielectric constant tensor:
#      x y z
#    x 1.936810 -0.042580 0.038620 
#    y -0.042580 1.927190 -0.002170 
#    z 0.038620 -0.002170 1.946670 
# 
# From -- ./inp_files/472405.got.cif
#   From: 2010.05.17/outbox.cif.g08.bks.cpg/sg2_237_cif.got.tgz:472405.got - 2010.06.03 11:33:40.
