data_PCOD9069684
_publ_section_title
;
Structure prediction by ZEFSAII (Michael W. Deem and Ramdas Pophale) SiO2 
 PCOD9069684
Probable space group: P -1
;
_chemical_formula_sum "Si O2"
_cell_formula_units_Z 12
_cell_length_a 11.098925
_cell_length_b 8.856399
_cell_length_c 8.957029
_cell_angle_alpha 89.955966
_cell_angle_beta 138.144601
_cell_angle_gamma 68.018613
_cell_volume 485.996590
_symmetry_space_group_name_H-M "P -1"
_symmetry_group_IT_number 2
_symmetry_cell_setting 'triclinic'
loop_
_space_group_symop_operation_xyz
x,y,z
-x,-y,-z
loop_
_atom_site_type_symbol
_atom_site_label
_atom_site_fract_x
_atom_site_fract_y
_atom_site_fract_z
Si Si1 0.571513 0.573097 0.932499
Si Si2 0.006999 0.209693 0.276047
Si Si3 0.828917 0.719465 0.859987
Si Si4 0.227731 0.950836 0.037362
Si Si5 0.415753 0.700168 0.485906
Si Si6 0.364564 0.190194 0.794103
O O1 0.386710 0.687386 0.636977
O O2 0.500000 0.500000 0.000000
O O3 0.662490 0.673583 0.103642
O O4 0.776573 0.400893 0.042043
O O5 0.153203 0.187454 0.270874
O O6 0.140243 0.221618 0.532882
O O7 0.939625 0.066569 0.218205
O O8 0.600474 0.742511 0.659182
O O9 0.843809 0.841975 0.001042
O O10 0.000000 0.500000 0.000000
O O11 0.244291 0.847566 0.208603
O O12 0.470164 0.831417 0.185399
O O13 0.500000 0.500000 0.500000
O O14 0.500000 0.000000 0.000000
#
# Coordination Sequence:
#
# PCOD9069684 Si02
#       6
#     2   2   2   2   2   2
#     4  12  25  50  76 110 159 203 246 309 387 461
#     4  12  26  49  77 111 153 201 259 311 387 457
#     4  12  25  46  77 115 146 198 258 324 378 443
#     4  12  26  51  76 114 155 196 262 321 378 456
#     4  12  23  46  81 113 149 199 251 316 381 448
#     4  12  28  49  75 109 157 205 253 313 385 459
#
# _framework density 24.691531000000001
#
# number of rings (size 3 to 8) (size 9 to 14) (size 15 to 20)
#    0.000    0.000    6.667    2.500    2.333    0.667 
#    0.000    0.000    0.000    0.000    0.000    0.000 
#    0.000    0.000    0.000    0.000    0.000    0.000 
#
# Total GULP energy -67114.494116 kJ/mol
# GULP energy per Si atom -5592.874510 kJ/mol
# Density = 2.463533 g / cm^3
# Si number density = 24.691531 Si / 1000 Ang^3
#
#
#
# Elastic Constant Matrix: (Units=GPa)
#
#
# Indices 1 2 3 4 5 6 
#
# 1 91.6557 6.5693 19.5978 8.6320 -9.0419 13.4630
# 2 6.5693 200.0312 53.7957 37.5132 12.1881 10.2092
# 3 19.5978 53.7957 129.1126 21.9099 -3.5872 9.6566
# 4 8.6320 37.5132 21.9099 55.7788 2.0352 9.2906
# 5 -9.0419 12.1881 -3.5872 2.0352 29.8338 12.0067
# 6 13.4630 10.2092 9.6566 9.2906 12.0067 35.3152
#
#
#
# Elastic Compliance Matrix: (Units=1/GPa)
#
#
# Indices 1 2 3 4 5 6 
#
# 1 0.012825 -0.000051 -0.001144 -0.000639 0.006467 -0.006592
# 2 -0.000051 0.006378 -0.002200 -0.003423 -0.002923 0.000671
# 3 -0.001144 -0.002200 0.009352 -0.001797 0.002556 -0.001881
# 4 -0.000639 -0.003423 -0.001797 0.021725 0.001289 -0.004429
# 5 0.006467 -0.002923 0.002556 0.001289 0.043980 -0.017611
# 6 -0.006592 0.000671 -0.001881 -0.004429 -0.017611 0.038303
#
#
# Mechanical properties :
#
#
# Convention : Reuss Voigt Hill
#
# Bulk Modulus (GPa) = 45.94752 64.52502 55.23627
# Shear Modulus (GPa) = 34.10406 46.90801 40.50603
#
# Velocity S-wave (km/s) = 3.72049 4.36335 4.05468
# Velocity P-wave (km/s) = 6.09139 7.18153 6.65881
#
# Compressibility (1/GPa) = 0.02176396
#
# Stress axis : x y z
#
# Youngs Moduli (GPa) = 77.97177 156.78041 106.92563
#
# Poissons Ratio (x) = 0.00804 0.12235
# Poissons Ratio (y) = 0.00400 0.23528
# Poissons Ratio (z) = 0.08922 0.34498
#
# Static dielectric constant tensor:
#      x y z
#    x 2.106340 -0.056220 0.038260 
#    y -0.056220 1.862570 -0.110050 
#    z 0.038260 -0.110050 1.938560 
# 
# From -- ./inp_files/175845.got.cif
#   From: 2010.05.17/outbox.cif.g08.bks.cpg/sg2_88_cif.got.tgz:175845.got - 2010.06.03 11:33:40.
