data_PCOD9069577
_publ_section_title
;
Structure prediction by ZEFSAII (Michael W. Deem and Ramdas Pophale) SiO2 
 PCOD9069577
Probable space group: P -1
;
_chemical_formula_sum "Si O2"
_cell_formula_units_Z 14
_cell_length_a 10.884254
_cell_length_b 8.407995
_cell_length_c 9.519407
_cell_angle_alpha 132.729054
_cell_angle_beta 84.211219
_cell_angle_gamma 86.952913
_cell_volume 627.795666
_symmetry_space_group_name_H-M "P -1"
_symmetry_group_IT_number 2
_symmetry_cell_setting 'triclinic'
loop_
_space_group_symop_operation_xyz
x,y,z
-x,-y,-z
loop_
_atom_site_type_symbol
_atom_site_label
_atom_site_fract_x
_atom_site_fract_y
_atom_site_fract_z
Si Si1 0.898583 0.484688 0.212065
Si Si2 0.192141 0.352893 0.097749
Si Si3 0.856046 0.985020 0.476095
Si Si4 0.301910 0.900792 0.711311
Si Si5 0.274015 0.691789 0.084264
Si Si6 0.549067 0.004751 0.835506
Si Si7 0.744332 0.558668 0.541149
O O1 0.863869 0.508744 0.394640
O O2 0.851547 0.729516 0.309715
O O3 0.729557 0.524691 0.949372
O O4 0.818022 0.328723 0.047485
O O5 0.044687 0.418084 0.123665
O O6 0.215983 0.435935 0.299077
O O7 0.229613 0.090106 0.933453
O O8 0.787859 0.088249 0.406550
O O9 0.783895 0.110423 0.688889
O O10 0.000000 0.000000 0.500000
O O11 0.436025 0.976024 0.726932
O O12 0.324642 0.648860 0.605285
O O13 0.400046 0.767687 0.060225
O O14 0.655597 0.792048 0.669776
O O15 0.500000 0.000000 0.000000
#
# Coordination Sequence:
#
# PCOD9069577 Si02
#       7
#     2   2   2   2   2   2   2
#     4  12  25  44  75 109 145 187 232 298 371 417
#     4  12  25  46  73 111 143 183 241 295 358 433
#     4  12  23  45  74 108 144 183 239 299 357 427
#     4  12  26  46  72 105 147 192 238 293 355 419
#     4  12  25  46  73 105 142 190 240 294 349 425
#     4  12  27  50  72 101 148 190 245 294 348 427
#     4  12  26  48  71 106 146 191 235 297 363 418
#
# _framework density 22.300248
#
# number of rings (size 3 to 8) (size 9 to 14) (size 15 to 20)
#    0.000    0.000    7.143    3.000    0.000    1.714 
#    0.000    0.000    0.000    0.000    0.000    0.000 
#    0.000    0.000    0.000    0.000    0.000    0.000 
#
# Total GULP energy -78238.929065 kJ/mol
# GULP energy per Si atom -5588.494933 kJ/mol
# Density = 2.224949 g / cm^3
# Si number density = 22.300248 Si / 1000 Ang^3
#
#
#
# Elastic Constant Matrix: (Units=GPa)
#
#
# Indices 1 2 3 4 5 6 
#
# 1 78.0134 30.2233 11.6034 -2.8414 20.9529 13.7030
# 2 30.2233 71.0842 33.5510 4.0600 11.6017 15.4972
# 3 11.6034 33.5510 117.1425 11.4072 7.2981 13.4911
# 4 -2.8414 4.0600 11.4072 42.4582 6.7067 -0.7443
# 5 20.9529 11.6017 7.2981 6.7067 22.1363 -5.9430
# 6 13.7030 15.4972 13.4911 -0.7443 -5.9430 30.9693
#
#
#
# Elastic Compliance Matrix: (Units=1/GPa)
#
#
# Indices 1 2 3 4 5 6 
#
# 1 0.023943 -0.003685 0.001469 0.005534 -0.026757 -0.014392
# 2 -0.003685 0.020808 -0.004083 0.000036 -0.008394 -0.008613
# 3 0.001469 -0.004083 0.010371 -0.001872 -0.003114 -0.003767
# 4 0.005534 0.000036 -0.001872 0.026515 -0.013649 -0.003633
# 5 -0.026757 -0.008394 -0.003114 -0.013649 0.089243 0.034194
# 6 -0.014392 -0.008613 -0.003767 -0.003633 0.034194 0.051084
#
#
# Mechanical properties :
#
#
# Convention : Reuss Voigt Hill
#
# Bulk Modulus (GPa) = 23.51613 46.33285 34.92449
# Shear Modulus (GPa) = 20.10170 31.83692 25.96931
#
# Velocity S-wave (km/s) = 3.00561 3.78252 3.41622
# Velocity P-wave (km/s) = 4.75532 6.31653 5.59069
#
# Compressibility (1/GPa) = 0.04252401
#
# Stress axis : x y z
#
# Youngs Moduli (GPa) = 41.76525 48.05954 96.42589
#
# Poissons Ratio (x) = 0.17710 -0.14168
# Poissons Ratio (y) = 0.15391 0.39371
# Poissons Ratio (z) = -0.06137 0.19623
#
# Static dielectric constant tensor:
#      x y z
#    x 1.874380 0.040560 0.038930 
#    y 0.040560 1.884060 -0.011500 
#    z 0.038930 -0.011500 1.827180 
# 
# From -- ./inp_files/241410.got.cif
#   From: 2010.05.17/outbox.cif.g08.bks.cpg/sg2_121_cif.got.tgz:241410.got - 2010.06.03 11:33:40.
