data_PCOD9069735
_publ_section_title
;
Structure prediction by ZEFSAII (Michael W. Deem and Ramdas Pophale) SiO2 
 PCOD9069735
Probable space group: P -1
;
_chemical_formula_sum "Si O2"
_cell_formula_units_Z 15
_cell_length_a 16.429092
_cell_length_b 9.321389
_cell_length_c 11.678515
_cell_angle_alpha 51.667941
_cell_angle_beta 155.361287
_cell_angle_gamma 120.371185
_cell_volume 575.553500
_symmetry_space_group_name_H-M "P -1"
_symmetry_group_IT_number 2
_symmetry_cell_setting 'triclinic'
loop_
_space_group_symop_operation_xyz
x,y,z
-x,-y,-z
loop_
_atom_site_type_symbol
_atom_site_label
_atom_site_fract_x
_atom_site_fract_y
_atom_site_fract_z
Si Si1 0.529753 0.458412 0.298597
Si Si2 0.221506 0.400424 0.099532
Si Si3 0.796525 0.864726 0.199726
Si Si4 0.000000 0.500000 0.500000
Si Si5 0.840390 0.268410 0.972212
Si Si6 0.640112 0.991865 0.424934
Si Si7 0.808087 0.318951 0.533215
Si Si8 0.275329 0.194706 0.596219
O O1 0.313833 0.422878 0.080104
O O2 0.688258 0.317806 0.648968
O O3 0.612951 0.419587 0.297893
O O4 0.572333 0.662266 0.282254
O O5 0.235024 0.582551 0.098793
O O6 0.340177 0.215660 0.400077
O O7 0.998505 0.367832 0.818129
O O8 0.787949 0.844949 0.336272
O O9 0.922252 0.686351 0.390638
O O10 0.566950 0.891756 0.857225
O O11 0.855267 0.058184 0.139101
O O12 0.160072 0.609472 0.586766
O O13 0.066150 0.288888 0.223119
O O14 0.804758 0.100896 0.628481
O O15 0.646537 0.975822 0.303434
#
# Coordination Sequence:
#
# PCOD9069735 Si02
#       8
#     2   2   2   1   2   2   2   2
#     4  12  24  47  80 112 153 209 258 319 388 457
#     4  12  25  48  80 118 162 201 262 327 386 464
#     4  12  27  48  80 115 156 210 264 323 394 461
#     4  12  28  54  70 112 162 206 256 324 392 464
#     4  12  23  47  81 116 157 202 265 330 385 458
#     4  12  27  48  78 119 159 203 265 324 387 469
#     4  12  29  49  75 113 158 214 255 316 396 466
#     4  12  24  48  78 115 156 205 260 327 387 461
#
# _framework density 26.061869000000002
#
# number of rings (size 3 to 8) (size 9 to 14) (size 15 to 20)
#    0.000    0.000    5.333    4.400    1.867    4.267 
#    0.000    0.000    0.000    0.000    0.000    0.000 
#    0.000    0.000    0.000    0.000    0.000    0.000 
#
# Total GULP energy -83924.897593 kJ/mol
# GULP energy per Si atom -5594.993173 kJ/mol
# Density = 2.600255 g / cm^3
# Si number density = 26.061869 Si / 1000 Ang^3
#
#
#
# Elastic Constant Matrix: (Units=GPa)
#
#
# Indices 1 2 3 4 5 6 
#
# 1 166.1907 34.7839 35.8457 -11.3398 33.6529 -1.7882
# 2 34.7839 153.1309 30.6449 -10.3498 16.4103 2.9846
# 3 35.8457 30.6449 86.2505 -21.2169 11.1512 -0.0294
# 4 -11.3398 -10.3498 -21.2169 34.5152 2.8259 5.5610
# 5 33.6529 16.4103 11.1512 2.8259 52.0649 -5.7336
# 6 -1.7882 2.9846 -0.0294 5.5610 -5.7336 36.8513
#
#
#
# Elastic Compliance Matrix: (Units=1/GPa)
#
#
# Indices 1 2 3 4 5 6 
#
# 1 0.007579 -0.000752 -0.001947 0.001504 -0.004379 -0.000481
# 2 -0.000752 0.007333 -0.001802 0.001147 -0.001618 -0.001057
# 3 -0.001947 -0.001802 0.015476 0.008765 -0.002139 -0.001592
# 4 0.001504 0.001147 0.008765 0.036726 -0.005917 -0.006476
# 5 -0.004379 -0.001618 -0.002139 -0.005917 0.023824 0.004517
# 6 -0.000481 -0.001057 -0.001592 -0.006476 0.004517 0.028877
#
#
# Mechanical properties :
#
#
# Convention : Reuss Voigt Hill
#
# Bulk Modulus (GPa) = 46.75808 67.56902 57.16355
# Shear Modulus (GPa) = 36.77967 44.97277 40.87622
#
# Velocity S-wave (km/s) = 3.76073 4.15856 3.96464
# Velocity P-wave (km/s) = 6.06940 7.00292 6.55280
#
# Compressibility (1/GPa) = 0.02138668
#
# Stress axis : x y z
#
# Youngs Moduli (GPa) = 131.95044 136.36485 64.61814
#
# Poissons Ratio (x) = 0.10249 0.12579
# Poissons Ratio (y) = 0.09917 0.11645
# Poissons Ratio (z) = 0.25686 0.24575
#
# Static dielectric constant tensor:
#      x y z
#    x 2.056300 0.000050 -0.102580 
#    y 0.000050 1.979960 0.028550 
#    z -0.102580 0.028550 2.231580 
# 
# From -- ./inp_files/446879.got.cif
#   From: 2010.05.17/outbox.cif.g08.bks.cpg/sg2_224_cif.got.tgz:446879.got - 2010.06.03 11:33:40.
