data_PCOD9069960
_publ_section_title
;
Structure prediction by ZEFSAII (Michael W. Deem and Ramdas Pophale) SiO2 
 PCOD9069960
Probable space group: P -1
;
_chemical_formula_sum "Si O2"
_cell_formula_units_Z 15
_cell_length_a 12.657016
_cell_length_b 8.928909
_cell_length_c 12.738610
_cell_angle_alpha 38.320592
_cell_angle_beta 126.410529
_cell_angle_gamma 130.881324
_cell_volume 664.991386
_symmetry_space_group_name_H-M "P -1"
_symmetry_group_IT_number 2
_symmetry_cell_setting 'triclinic'
loop_
_space_group_symop_operation_xyz
x,y,z
-x,-y,-z
loop_
_atom_site_type_symbol
_atom_site_label
_atom_site_fract_x
_atom_site_fract_y
_atom_site_fract_z
Si Si1 0.500000 0.000000 0.500000
Si Si2 0.150673 0.108723 0.474229
Si Si3 0.240532 0.053510 0.967655
Si Si4 0.377333 0.643455 0.291132
Si Si5 0.055037 0.276834 0.110990
Si Si6 0.691616 0.655992 0.932287
Si Si7 0.540188 0.482329 0.291510
Si Si8 0.373194 0.889388 0.710571
O O1 0.401220 0.731571 0.520787
O O2 0.611734 0.096255 0.412204
O O3 0.272708 0.383905 0.430686
O O4 0.119930 0.173048 0.302802
O O5 0.221551 0.897687 0.643404
O O6 0.000000 0.000000 0.500000
O O7 0.283141 0.805196 0.114725
O O8 0.261658 0.151888 0.046724
O O9 0.079672 0.956549 0.888080
O O10 0.346530 0.279419 0.832296
O O11 0.448366 0.561619 0.277706
O O12 0.509620 0.855640 0.310280
O O13 0.178266 0.357618 0.051356
O O14 0.000000 0.500000 0.000000
O O15 0.611727 0.366365 0.091483
O O16 0.579716 0.712727 0.755857
#
# Coordination Sequence:
#
# PCOD9069960 Si02
#       8
#     1   2   2   2   2   2   2   2
#     4  12  24  44  68 104 152 174 220 300 362 406
#     4  12  27  46  69 104 142 185 233 290 352 414
#     4  12  25  42  74 108 133 188 235 291 350 422
#     4  12  25  44  74 107 136 183 243 295 346 416
#     4  12  25  47  70 100 143 185 236 288 345 426
#     4  12  24  47  71 103 142 184 235 288 356 423
#     4  12  24  45  72 107 139 178 238 294 352 417
#     4  12  26  45  75 104 142 188 233 295 354 420
#
# _framework density 22.556683
#
# number of rings (size 3 to 8) (size 9 to 14) (size 15 to 20)
#    0.000    0.000    6.667    3.200    3.733    0.000 
#    0.000    0.667    0.000    0.000    0.000    0.000 
#    0.000    0.000    0.000    0.000    0.000    0.000 
#
# Total GULP energy -83711.251530 kJ/mol
# GULP energy per Si atom -5580.750102 kJ/mol
# Density = 2.250534 g / cm^3
# Si number density = 22.556683 Si / 1000 Ang^3
#
#
#
# Elastic Constant Matrix: (Units=GPa)
#
#
# Indices 1 2 3 4 5 6 
#
# 1 144.4704 42.0815 10.1248 -14.4946 -13.7248 1.9978
# 2 42.0815 132.7219 7.2968 0.6243 -0.0615 -5.1266
# 3 10.1248 7.2968 64.4775 -14.8206 -7.0844 2.7311
# 4 -14.4946 0.6243 -14.8206 34.2127 6.4851 6.3021
# 5 -13.7248 -0.0615 -7.0844 6.4851 43.0238 -2.2839
# 6 1.9978 -5.1266 2.7311 6.3021 -2.2839 43.7853
#
#
#
# Elastic Compliance Matrix: (Units=1/GPa)
#
#
# Indices 1 2 3 4 5 6 
#
# 1 0.008247 -0.002674 0.000055 0.003371 0.002071 -0.001070
# 2 -0.002674 0.008507 -0.001115 -0.001909 -0.000661 0.001428
# 3 0.000055 -0.001115 0.017700 0.007822 0.001631 -0.002278
# 4 0.003371 -0.001909 0.007822 0.035863 -0.003374 -0.006203
# 5 0.002071 -0.000661 0.001631 -0.003374 0.024760 0.001504
# 6 -0.001070 0.001428 -0.002278 -0.006203 0.001504 0.024168
#
#
# Mechanical properties :
#
#
# Convention : Reuss Voigt Hill
#
# Bulk Modulus (GPa) = 37.05381 51.18624 44.12003
# Shear Modulus (GPa) = 36.84406 43.01548 39.92977
#
# Velocity S-wave (km/s) = 4.04592 4.37165 4.21194
# Velocity P-wave (km/s) = 6.18778 6.94430 6.57693
#
# Compressibility (1/GPa) = 0.02698778
#
# Stress axis : x y z
#
# Youngs Moduli (GPa) = 121.26215 117.54349 56.49625
#
# Poissons Ratio (x) = 0.31431 -0.00313
# Poissons Ratio (y) = 0.32425 0.06298
# Poissons Ratio (z) = -0.00672 0.13103
#
# Static dielectric constant tensor:
#      x y z
#    x 1.796060 -0.012270 -0.146670 
#    y -0.012270 1.858360 0.126020 
#    z -0.146670 0.126020 1.146640 
# 
# From -- ./inp_files/512666.got.cif
#   From: 2010.05.17/outbox.cif.g08.bks.cpg/sg2_257_cif.got.tgz:512666.got - 2010.06.03 11:33:40.
