data_PCOD9069363
_publ_section_title
;
Structure prediction by ZEFSAII (Michael W. Deem and Ramdas Pophale) SiO2 
 PCOD9069363
Probable space group: P -1
;
_chemical_formula_sum "Si O2"
_cell_formula_units_Z 16
_cell_length_a 9.353500
_cell_length_b 9.140837
_cell_length_c 19.867785
_cell_angle_alpha 54.261711
_cell_angle_beta 53.161133
_cell_angle_gamma 31.331968
_cell_volume 696.282728
_symmetry_space_group_name_H-M "P -1"
_symmetry_group_IT_number 2
_symmetry_cell_setting 'triclinic'
loop_
_space_group_symop_operation_xyz
x,y,z
-x,-y,-z
loop_
_atom_site_type_symbol
_atom_site_label
_atom_site_fract_x
_atom_site_fract_y
_atom_site_fract_z
Si Si1 0.854645 0.972114 0.406786
Si Si2 0.557746 0.127846 0.249047
Si Si3 0.595604 0.071083 0.010117
Si Si4 0.669030 0.496100 0.504091
Si Si5 0.774994 0.332442 0.093802
Si Si6 0.576896 0.011519 0.795566
Si Si7 0.806676 0.374058 0.230248
Si Si8 0.000973 0.413323 0.642778
O O1 0.122244 0.780671 0.432430
O O2 0.913326 0.745089 0.409301
O O3 0.567455 0.207500 0.467278
O O4 0.831452 0.155480 0.312166
O O5 0.627343 0.254528 0.154913
O O6 0.332711 0.333686 0.317134
O O7 0.422712 0.087132 0.248873
O O8 0.846567 0.824842 0.279297
O O9 0.368753 0.408303 0.982773
O O10 0.893246 0.925906 0.945345
O O11 0.500000 0.000000 0.000000
O O12 0.608042 0.958837 0.107348
O O13 0.500000 0.500000 0.500000
O O14 0.873371 0.484684 0.415762
O O15 0.740425 0.421571 0.157231
O O16 0.433577 0.319112 0.749264
O O17 0.888498 0.777692 0.801424
#
# Coordination Sequence:
#
# PCOD9069363 Si02
#       8
#     2   2   2   2   2   2   2   2
#     4  12  26  47  75 104 140 190 232 280 349 418
#     4  12  28  46  69 106 140 186 232 293 350 403
#     4  12  23  42  71 102 139 185 232 294 346 413
#     4  12  28  47  73 111 145 178 229 289 352 413
#     4  12  24  44  71 100 138 182 241 285 342 417
#     4  12  27  43  69 104 144 182 234 293 357 403
#     4  12  24  43  72 102 135 184 239 290 335 421
#     4  12  26  49  74  99 145 187 231 285 344 425
#
# _framework density 22.979171000000001
#
# number of rings (size 3 to 8) (size 9 to 14) (size 15 to 20)
#    0.000    0.000    3.750    6.000    7.000    1.000 
#    0.000    0.000    0.000    0.000    0.000    0.000 
#    0.000    0.000    0.000    0.000    0.000    0.000 
#
# Total GULP energy -89693.862831 kJ/mol
# GULP energy per Si atom -5605.866427 kJ/mol
# Density = 2.292687 g / cm^3
# Si number density = 22.979171 Si / 1000 Ang^3
#
#
#
# Elastic Constant Matrix: (Units=GPa)
#
#
# Indices 1 2 3 4 5 6 
#
# 1 63.8167 12.0849 9.0719 -6.8767 0.2245 -3.5492
# 2 12.0849 93.5166 9.8545 -4.5771 3.5048 -11.6678
# 3 9.0719 9.8545 63.9881 -8.6392 -10.4926 -3.2898
# 4 -6.8767 -4.5771 -8.6392 42.0054 1.1841 -4.7325
# 5 0.2245 3.5048 -10.4926 1.1841 18.0886 13.6931
# 6 -3.5492 -11.6678 -3.2898 -4.7325 13.6931 23.1320
#
#
#
# Elastic Compliance Matrix: (Units=1/GPa)
#
#
# Indices 1 2 3 4 5 6 
#
# 1 0.016889 -0.000700 -0.002638 0.003061 -0.006685 0.006446
# 2 -0.000700 0.014454 -0.003917 0.003338 -0.019597 0.018909
# 3 -0.002638 -0.003917 0.019612 0.001259 0.020985 -0.011756
# 4 0.003061 0.003338 0.001259 0.027142 -0.013953 0.016144
# 5 -0.006685 -0.019597 0.020985 -0.013953 0.145701 -0.097029
# 6 0.006446 0.018909 -0.011756 0.016144 -0.097029 0.112825
#
#
# Mechanical properties :
#
#
# Convention : Reuss Voigt Hill
#
# Bulk Modulus (GPa) = 27.43948 31.48267 29.46108
# Shear Modulus (GPa) = 13.76340 29.33253 21.54796
#
# Velocity S-wave (km/s) = 2.45000 3.57667 3.06554
# Velocity P-wave (km/s) = 4.46881 5.54860 5.03772
#
# Compressibility (1/GPa) = 0.03644383
#
# Stress axis : x y z
#
# Youngs Moduli (GPa) = 59.20904 69.18679 50.98959
#
# Poissons Ratio (x) = 0.04843 0.13452
# Poissons Ratio (y) = 0.04144 0.19975
# Poissons Ratio (z) = 0.15620 0.27103
#
# Static dielectric constant tensor:
#      x y z
#    x 1.836430 0.031630 -0.000620 
#    y 0.031630 1.812890 0.009980 
#    z -0.000620 0.009980 1.842970 
# 
# From -- ./inp_files/223358.got.cif
#   From: 2010.05.17/outbox.cif.g08.bks.cpg/sg2_112_cif.got.tgz:223358.got - 2010.06.03 11:33:40.
