data_PCOD9069058
_publ_section_title
;
Structure prediction by ZEFSAII (Michael W. Deem and Ramdas Pophale) SiO2 
 PCOD9069058
Probable space group: P -1
;
_chemical_formula_sum "Si O2"
_cell_formula_units_Z 16
_cell_length_a 23.651012
_cell_length_b 14.918224
_cell_length_c 9.556453
_cell_angle_alpha 29.835591
_cell_angle_beta 45.099248
_cell_angle_gamma 26.910518
_cell_volume 724.175744
_symmetry_space_group_name_H-M "P -1"
_symmetry_group_IT_number 2
_symmetry_cell_setting 'triclinic'
loop_
_space_group_symop_operation_xyz
x,y,z
-x,-y,-z
loop_
_atom_site_type_symbol
_atom_site_label
_atom_site_fract_x
_atom_site_fract_y
_atom_site_fract_z
Si Si1 0.592769 0.196756 0.663371
Si Si2 0.902807 0.144407 0.102416
Si Si3 0.541532 0.250853 0.350768
Si Si4 0.724896 0.738861 0.498470
Si Si5 0.946089 0.633250 0.259138
Si Si6 0.650378 0.741648 0.325244
Si Si7 0.887031 0.760766 0.738157
Si Si8 0.081723 0.924617 0.327344
O O1 0.500000 0.500000 0.500000
O O2 0.576968 0.236798 0.468450
O O3 0.741892 0.973735 0.748550
O O4 0.579488 0.012341 0.982137
O O5 0.892771 0.961138 0.422518
O O6 0.767547 0.468884 0.849248
O O7 0.970982 0.133496 0.119595
O O8 0.000000 0.000000 0.000000
O O9 0.427949 0.304358 0.477777
O O10 0.654089 0.964009 0.445090
O O11 0.500000 0.500000 0.000000
O O12 0.851782 0.634913 0.383501
O O13 0.652020 0.828855 0.358683
O O14 0.000000 0.500000 0.500000
O O15 0.074042 0.408220 0.243381
O O16 0.869913 0.954817 0.920068
O O17 0.799684 0.422137 0.450982
O O18 0.000000 0.500000 0.000000
O O19 0.000000 0.000000 0.500000
#
# Coordination Sequence:
#
# PCOD9069058 Si02
#       8
#     2   2   2   2   2   2   2   2
#     4  12  29  51  76 108 151 198 243 303 375 444
#     4  12  23  43  70 105 142 188 240 301 367 437
#     4  12  29  50  76 106 142 195 252 302 363 443
#     4  12  25  44  76 104 144 191 248 301 370 429
#     4  12  22  41  68 105 144 186 239 305 359 432
#     4  12  27  49  72 104 150 193 248 302 365 440
#     4  12  26  46  72 107 147 190 242 299 367 443
#     4  12  25  41  69 107 146 188 240 305 371 429
#
# _framework density 22.094083999999999
#
# number of rings (size 3 to 8) (size 9 to 14) (size 15 to 20)
#    0.000    0.000    3.750    6.000    5.250    2.000 
#    0.000    0.000    0.000    0.000    0.000    0.000 
#    0.000    0.000    0.000    0.000    0.000    0.000 
#
# Total GULP energy -89491.083537 kJ/mol
# GULP energy per Si atom -5593.192721 kJ/mol
# Density = 2.204380 g / cm^3
# Si number density = 22.094084 Si / 1000 Ang^3
#
#
#
# Elastic Constant Matrix: (Units=GPa)
#
#
# Indices 1 2 3 4 5 6 
#
# 1 85.6505 24.1701 43.0778 8.8184 6.7442 5.6397
# 2 24.1701 121.4092 37.8500 -6.1713 6.5123 23.4235
# 3 43.0778 37.8500 191.9967 8.7252 -7.6695 17.4584
# 4 8.8184 -6.1713 8.7252 34.8299 2.6655 -8.7137
# 5 6.7442 6.5123 -7.6695 2.6655 45.8445 6.1590
# 6 5.6397 23.4235 17.4584 -8.7137 6.1590 39.0850
#
#
#
# Elastic Compliance Matrix: (Units=1/GPa)
#
#
# Indices 1 2 3 4 5 6 
#
# 1 0.014082 -0.002009 -0.002708 -0.003080 -0.002063 0.000020
# 2 -0.002009 0.010040 -0.001194 0.001459 -0.000778 -0.004746
# 3 -0.002708 -0.001194 0.006454 -0.001939 0.002102 -0.002540
# 4 -0.003080 0.001459 -0.001939 0.032513 -0.003066 0.008168
# 5 -0.002063 -0.000778 0.002102 -0.003066 0.023367 -0.004541
# 6 0.000020 -0.004746 -0.002540 0.008168 -0.004541 0.032098
#
#
# Mechanical properties :
#
#
# Convention : Reuss Voigt Hill
#
# Bulk Modulus (GPa) = 53.31980 67.69469 60.50725
# Shear Modulus (GPa) = 36.59533 43.54912 40.07223
#
# Velocity S-wave (km/s) = 4.07423 4.44450 4.26339
# Velocity P-wave (km/s) = 6.80573 7.55274 7.18894
#
# Compressibility (1/GPa) = 0.01875476
#
# Stress axis : x y z
#
# Youngs Moduli (GPa) = 71.01027 99.59700 154.93084
#
# Poissons Ratio (x) = 0.20010 0.41952
# Poissons Ratio (y) = 0.14267 0.18505
# Poissons Ratio (z) = 0.19228 0.11896
#
# Static dielectric constant tensor:
#      x y z
#    x 1.893470 0.014570 -0.028130 
#    y 0.014570 1.817440 -0.094110 
#    z -0.028130 -0.094110 2.150890 
# 
# From -- ./inp_files/354489.got.cif
#   From: 2010.05.17/outbox.cif.g08.bks.cpg/sg2_178_cif.got.tgz:354489.got - 2010.06.03 11:33:40.
