data_PCOD9069352
_publ_section_title
;
Structure prediction by ZEFSAII (Michael W. Deem and Ramdas Pophale) SiO2 
 PCOD9069352
Probable space group: P -1
;
_chemical_formula_sum "Si O2"
_cell_formula_units_Z 12
_cell_length_a 21.901912
_cell_length_b 9.986146
_cell_length_c 9.238708
_cell_angle_alpha 29.343959
_cell_angle_beta 37.446973
_cell_angle_gamma 34.548040
_cell_volume 540.177188
_symmetry_space_group_name_H-M "P -1"
_symmetry_group_IT_number 2
_symmetry_cell_setting 'triclinic'
loop_
_space_group_symop_operation_xyz
x,y,z
-x,-y,-z
loop_
_atom_site_type_symbol
_atom_site_label
_atom_site_fract_x
_atom_site_fract_y
_atom_site_fract_z
Si Si1 0.908718 0.293381 0.477703
Si Si2 0.225970 0.051652 0.984164
Si Si3 0.536506 0.220865 0.305032
Si Si4 0.443916 0.299482 0.726936
Si Si5 0.944218 0.967779 0.283502
Si Si6 0.791478 0.660424 0.944792
O O1 0.877579 0.635258 0.166441
O O2 0.000000 0.000000 0.500000
O O3 0.956749 0.240301 0.598989
O O4 0.800691 0.236394 0.704776
O O5 0.329819 0.960325 0.768182
O O6 0.247998 0.132765 0.029678
O O7 0.478605 0.287637 0.505581
O O8 0.500000 0.000000 0.500000
O O9 0.500000 0.500000 0.000000
O O10 0.500000 0.500000 0.500000
O O11 0.312612 0.370880 0.904051
O O12 0.500000 0.000000 0.000000
O O13 0.857555 0.815931 0.583516
O O14 0.878352 0.312059 0.144898
O O15 0.000000 0.000000 0.000000
#
# Coordination Sequence:
#
# PCOD9069352 Si02
#       6
#     2   2   2   2   2   2
#     4  12  23  42  69 102 137 178 240 290 343 420
#     4  12  24  42  75 104 135 186 241 292 353 421
#     4  12  26  46  75 107 141 189 251 301 354 437
#     4  12  28  48  74 108 150 191 242 307 372 442
#     4  12  27  44  69 105 144 187 234 295 358 437
#     4  12  24  46  74  97 143 193 234 290 376 422
#
# _framework density 22.214932000000001
#
# number of rings (size 3 to 8) (size 9 to 14) (size 15 to 20)
#    0.000    0.000    5.000    5.000    2.333    4.000 
#    0.000    0.000    0.000    0.000    0.000    0.000 
#    0.000    0.000    0.000    0.000    0.000    0.000 
#
# Total GULP energy -67040.802836 kJ/mol
# GULP energy per Si atom -5586.733570 kJ/mol
# Density = 2.216437 g / cm^3
# Si number density = 22.214932 Si / 1000 Ang^3
#
#
#
# Elastic Constant Matrix: (Units=GPa)
#
#
# Indices 1 2 3 4 5 6 
#
# 1 112.1675 14.1483 51.7489 1.9614 -6.2468 12.6391
# 2 14.1483 51.6562 40.0893 2.5287 -0.5896 -1.4704
# 3 51.7489 40.0893 179.5850 -8.7294 -12.6603 10.1953
# 4 1.9614 2.5287 -8.7294 46.7668 -4.8348 1.2681
# 5 -6.2468 -0.5896 -12.6603 -4.8348 57.5136 -2.9714
# 6 12.6391 -1.4704 10.1953 1.2681 -2.9714 33.9622
#
#
#
# Elastic Compliance Matrix: (Units=1/GPa)
#
#
# Indices 1 2 3 4 5 6 
#
# 1 0.010662 -0.000857 -0.002719 -0.000790 0.000323 -0.003131
# 2 -0.000857 0.024050 -0.005491 -0.002486 -0.001109 0.003004
# 3 -0.002719 -0.005491 0.007870 0.002074 0.001476 -0.001537
# 4 -0.000790 -0.002486 0.002074 0.022189 0.002155 -0.001076
# 5 0.000323 -0.001109 0.001476 0.002155 0.017962 0.000880
# 6 -0.003131 0.003004 -0.001537 -0.001076 0.000880 0.031318
#
#
# Mechanical properties :
#
#
# Convention : Reuss Voigt Hill
#
# Bulk Modulus (GPa) = 40.90428 61.70909 51.30669
# Shear Modulus (GPa) = 35.62888 43.47667 39.55278
#
# Velocity S-wave (km/s) = 4.00912 4.42870 4.22413
# Velocity P-wave (km/s) = 6.31535 7.34777 6.85104
#
# Compressibility (1/GPa) = 0.02444732
#
# Stress axis : x y z
#
# Youngs Moduli (GPa) = 93.78773 41.58058 127.06714
#
# Poissons Ratio (x) = 0.03563 0.34550
# Poissons Ratio (y) = 0.08037 0.69777
# Poissons Ratio (z) = 0.25502 0.22833
#
# Static dielectric constant tensor:
#      x y z
#    x 1.914920 -0.067630 -0.106320 
#    y -0.067630 1.857250 0.059860 
#    z -0.106320 0.059860 1.839070 
# 
# From -- ./inp_files/77749.got.cif
#   From: 2010.05.17/outbox.cif.g08.bks.cpg/sg2_39_cif.got.tgz:77749.got - 2010.06.03 11:33:40.
