data_PCOD9069373
_publ_section_title
;
Structure prediction by ZEFSAII (Michael W. Deem and Ramdas Pophale) SiO2 
 PCOD9069373
Probable space group: P -1
;
_chemical_formula_sum "Si O2"
_cell_formula_units_Z 12
_cell_length_a 9.310932
_cell_length_b 11.332476
_cell_length_c 13.275478
_cell_angle_alpha 147.987075
_cell_angle_beta 73.871373
_cell_angle_gamma 127.777372
_cell_volume 479.482899
_symmetry_space_group_name_H-M "P -1"
_symmetry_group_IT_number 2
_symmetry_cell_setting 'triclinic'
loop_
_space_group_symop_operation_xyz
x,y,z
-x,-y,-z
loop_
_atom_site_type_symbol
_atom_site_label
_atom_site_fract_x
_atom_site_fract_y
_atom_site_fract_z
Si Si1 0.763425 0.126825 0.260348
Si Si2 0.924444 0.728232 0.394947
Si Si3 0.441325 0.331439 0.214130
Si Si4 0.762907 0.767609 0.138621
Si Si5 0.036343 0.728636 0.967995
Si Si6 0.626328 0.254452 0.563718
O O1 0.615502 0.087346 0.345567
O O2 0.000000 0.500000 0.500000
O O3 0.816888 0.933132 0.140841
O O4 0.638075 0.952072 0.053601
O O5 0.688429 0.539423 0.349889
O O6 0.905937 0.463112 0.160903
O O7 0.000000 0.000000 0.500000
O O8 0.119380 0.947854 0.597659
O O9 0.451108 0.584170 0.340176
O O10 0.256328 0.113021 0.178987
O O11 0.500000 0.500000 0.000000
O O12 0.884487 0.666521 0.040343
O O13 0.878529 0.553503 0.772569
O O14 0.500000 0.000000 0.500000
#
# Coordination Sequence:
#
# PCOD9069373 Si02
#       6
#     2   2   2   2   2   2
#     4  12  23  42  72 105 140 189 243 291 357 433
#     4  12  28  47  69 106 148 190 239 307 370 427
#     4  12  26  46  73 109 150 186 243 307 364 432
#     4  12  26  45  74 104 140 191 247 296 360 439
#     4  12  25  45  75 104 144 193 244 298 364 433
#     4  12  24  41  73 108 143 192 246 299 356 431
#
# _framework density 25.026962000000001
#
# number of rings (size 3 to 8) (size 9 to 14) (size 15 to 20)
#    0.000    0.000    5.000    5.000    0.000    2.667 
#    0.000    0.000    0.000    0.000    0.000    0.000 
#    0.000    0.000    0.000    0.000    0.000    0.000 
#
# Total GULP energy -67120.411048 kJ/mol
# GULP energy per Si atom -5593.367587 kJ/mol
# Density = 2.497000 g / cm^3
# Si number density = 25.026962 Si / 1000 Ang^3
#
#
#
# Elastic Constant Matrix: (Units=GPa)
#
#
# Indices 1 2 3 4 5 6 
#
# 1 118.7806 35.2320 51.6387 31.4397 -19.1765 30.3892
# 2 35.2320 104.4514 52.6771 18.9287 -8.6659 29.8024
# 3 51.6387 52.6771 113.6905 15.8809 -2.9273 21.3745
# 4 31.4397 18.9287 15.8809 55.3223 7.9153 2.3611
# 5 -19.1765 -8.6659 -2.9273 7.9153 58.4446 2.3825
# 6 30.3892 29.8024 21.3745 2.3611 2.3825 41.0085
#
#
#
# Elastic Compliance Matrix: (Units=1/GPa)
#
#
# Indices 1 2 3 4 5 6 
#
# 1 0.016311 0.002463 -0.004975 -0.009234 0.007174 -0.011169
# 2 0.002463 0.015845 -0.005674 -0.005326 0.004015 -0.010309
# 3 -0.004975 -0.005674 0.013290 0.001202 -0.002009 0.000931
# 4 -0.009234 -0.005326 0.001202 0.025499 -0.007582 0.009060
# 5 0.007174 0.004015 -0.002009 -0.007582 0.021311 -0.007988
# 6 -0.011169 -0.010309 0.000931 0.009060 -0.007988 0.039611
#
#
# Mechanical properties :
#
#
# Convention : Reuss Voigt Hill
#
# Bulk Modulus (GPa) = 34.39789 68.44645 51.42217
# Shear Modulus (GPa) = 31.65934 44.11340 37.88637
#
# Velocity S-wave (km/s) = 3.56056 4.20293 3.89501
# Velocity P-wave (km/s) = 5.53873 7.13872 6.38901
#
# Compressibility (1/GPa) = 0.02907155
#
# Stress axis : x y z
#
# Youngs Moduli (GPa) = 61.30815 63.11314 75.24382
#
# Poissons Ratio (x) = -0.15542 0.37435
# Poissons Ratio (y) = -0.15097 0.42697
# Poissons Ratio (z) = 0.30502 0.35813
#
# Static dielectric constant tensor:
#      x y z
#    x 2.078650 -0.013280 -0.015380 
#    y -0.013280 2.026810 0.091480 
#    z -0.015380 0.091480 1.843530 
# 
# From -- ./inp_files/156450.got.cif
#   From: 2010.05.17/outbox.cif.g08.bks.cpg/sg2_79_cif.got.tgz:156450.got - 2010.06.03 11:33:40.
