data_PCOD9069434
_publ_section_title
;
Structure prediction by ZEFSAII (Michael W. Deem and Ramdas Pophale) SiO2 
 PCOD9069434
Probable space group: P -1
;
_chemical_formula_sum "Si O2"
_cell_formula_units_Z 16
_cell_length_a 12.243828
_cell_length_b 18.750017
_cell_length_c 22.135348
_cell_angle_alpha 16.794709
_cell_angle_beta 151.591255
_cell_angle_gamma 149.601176
_cell_volume 690.776622
_symmetry_space_group_name_H-M "P -1"
_symmetry_group_IT_number 2
_symmetry_cell_setting 'triclinic'
loop_
_space_group_symop_operation_xyz
x,y,z
-x,-y,-z
loop_
_atom_site_type_symbol
_atom_site_label
_atom_site_fract_x
_atom_site_fract_y
_atom_site_fract_z
Si Si1 0.009759 0.623767 0.535813
Si Si2 0.092028 0.337738 0.342816
Si Si3 0.258174 0.909952 0.989342
Si Si4 0.410811 0.811391 0.493519
Si Si5 0.318669 0.692569 0.747790
Si Si6 0.774425 0.540170 0.822121
Si Si7 0.541559 0.999061 0.166586
Si Si8 0.765264 0.111845 0.785451
O O1 0.217556 0.635682 0.579106
O O2 0.130073 0.608000 0.672309
O O3 0.814851 0.396418 0.604574
O O4 0.905866 0.882615 0.270609
O O5 0.147721 0.307435 0.324023
O O6 0.262838 0.181104 0.589236
O O7 0.831343 0.270429 0.295058
O O8 0.152070 0.634262 0.141601
O O9 0.324132 0.892226 0.106058
O O10 0.500000 0.000000 0.000000
O O11 0.612621 0.673744 0.677791
O O12 0.293335 0.899704 0.304173
O O13 0.525132 0.041603 0.403126
O O14 0.500000 0.500000 0.000000
O O15 0.000000 0.500000 0.000000
O O16 0.639552 0.263193 0.970536
O O17 0.443535 0.027555 0.162786
O O18 0.000000 0.000000 0.000000
#
# Coordination Sequence:
#
# PCOD9069434 Si02
#       8
#     2   2   2   2   2   2   2   2
#     4  12  26  47  73 107 144 189 241 294 361 422
#     4  12  26  47  72 106 145 183 243 290 357 425
#     4  12  23  43  73 102 140 186 236 290 355 421
#     4  12  26  47  72 105 145 185 240 294 356 425
#     4  12  28  47  73 104 145 191 238 298 354 424
#     4  12  28  44  73 104 143 192 233 294 355 423
#     4  12  24  46  70 107 143 183 240 291 358 422
#     4  12  24  44  72 106 145 185 233 296 355 423
#
# _framework density 23.162337000000001
#
# number of rings (size 3 to 8) (size 9 to 14) (size 15 to 20)
#    0.000    0.000    2.500    7.875    5.250    1.000 
#    0.000    0.000    0.000    0.000    0.000    0.000 
#    0.000    0.000    0.000    0.000    0.000    0.000 
#
# Total GULP energy -89652.963617 kJ/mol
# GULP energy per Si atom -5603.310226 kJ/mol
# Density = 2.310962 g / cm^3
# Si number density = 23.162337 Si / 1000 Ang^3
#
#
#
# Elastic Constant Matrix: (Units=GPa)
#
#
# Indices 1 2 3 4 5 6 
#
# 1 119.0381 0.6599 22.2447 15.0459 -4.6842 13.9066
# 2 0.6599 59.7235 4.9299 1.2598 -2.6466 -0.6972
# 3 22.2447 4.9299 131.2881 19.4834 33.5932 4.3071
# 4 15.0459 1.2598 19.4834 41.8609 9.7999 2.5401
# 5 -4.6842 -2.6466 33.5932 9.7999 44.9018 2.3781
# 6 13.9066 -0.6972 4.3071 2.5401 2.3781 36.5388
#
#
#
# Elastic Compliance Matrix: (Units=1/GPa)
#
#
# Indices 1 2 3 4 5 6 
#
# 1 0.009694 0.000226 -0.001921 -0.003168 0.003336 -0.003456
# 2 0.000226 0.016934 -0.001100 -0.000552 0.001951 0.000278
# 3 -0.001921 -0.001100 0.010218 -0.002305 -0.007415 0.000149
# 4 -0.003168 -0.000552 -0.002305 0.027194 -0.004567 -0.000126
# 5 0.003336 0.001951 -0.007415 -0.004567 0.029381 -0.001953
# 6 -0.003456 0.000278 0.000149 -0.000126 -0.001953 0.028807
#
#
# Mechanical properties :
#
#
# Convention : Reuss Voigt Hill
#
# Bulk Modulus (GPa) = 31.99589 40.63543 36.31566
# Shear Modulus (GPa) = 36.16973 43.47462 39.82217
#
# Velocity S-wave (km/s) = 3.95596 4.33708 4.15090
# Velocity P-wave (km/s) = 5.89151 6.53163 6.21981
#
# Compressibility (1/GPa) = 0.03125401
#
# Stress axis : x y z
#
# Youngs Moduli (GPa) = 103.15812 59.05452 97.86524
#
# Poissons Ratio (x) = -0.01333 0.18801
# Poissons Ratio (y) = -0.02329 0.10770
# Poissons Ratio (z) = 0.19818 0.06499
#
# Static dielectric constant tensor:
#      x y z
#    x 1.889350 -0.085740 -0.012980 
#    y -0.085740 2.405090 -0.127160 
#    z -0.012980 -0.127160 1.850160 
# 
# From -- ./inp_files/363845.got.cif
#   From: 2010.05.17/outbox.cif.g08.bks.cpg/sg2_182_cif.got.tgz:363845.got - 2010.06.03 11:33:40.
