data_PCOD9069209
_publ_section_title
;
Structure prediction by ZEFSAII (Michael W. Deem and Ramdas Pophale) SiO2 
 PCOD9069209
Probable space group: P -1
;
_chemical_formula_sum "Si O2"
_cell_formula_units_Z 15
_cell_length_a 8.900942
_cell_length_b 11.558604
_cell_length_c 8.956702
_cell_angle_alpha 39.104543
_cell_angle_beta 81.816928
_cell_angle_gamma 72.329203
_cell_volume 547.090568
_symmetry_space_group_name_H-M "P -1"
_symmetry_group_IT_number 2
_symmetry_cell_setting 'triclinic'
loop_
_space_group_symop_operation_xyz
x,y,z
-x,-y,-z
loop_
_atom_site_type_symbol
_atom_site_label
_atom_site_fract_x
_atom_site_fract_y
_atom_site_fract_z
Si Si1 0.330751 0.848869 0.959494
Si Si2 0.720867 0.880271 0.046977
Si Si3 0.500000 0.500000 0.500000
Si Si4 0.462440 0.807390 0.456007
Si Si5 0.084414 0.511024 0.631542
Si Si6 0.029889 0.776761 0.918389
Si Si7 0.838009 0.290076 0.331329
Si Si8 0.411759 0.344788 0.121149
O O1 0.272690 0.053308 0.851170
O O2 0.380623 0.698301 0.239736
O O3 0.184990 0.814723 0.923626
O O4 0.478003 0.795396 0.875837
O O5 0.579093 0.017722 0.832034
O O6 0.879841 0.885668 0.932497
O O7 0.739455 0.650890 0.256487
O O8 0.499085 0.616531 0.542316
O O9 0.294293 0.818832 0.547610
O O10 0.588779 0.772299 0.608843
O O11 0.108012 0.695120 0.521641
O O12 0.000000 0.500000 0.500000
O O13 0.974578 0.438917 0.833487
O O14 0.026913 0.797842 0.720580
O O15 0.749745 0.514518 0.069248
O O16 0.500000 0.500000 0.000000
#
# Coordination Sequence:
#
# PCOD9069209 Si02
#       8
#     2   2   1   2   2   2   2   2
#     4  11  18  36  59  90 120 147 196 249 291 335
#     4   9  24  37  56  90 123 151 193 246 293 345
#     4  10  18  28  58  86 118 150 182 242 292 338
#     4  10  19  36  61  92 116 148 199 247 291 339
#     4  10  25  42  56  83 121 164 198 230 296 364
#     4  10  21  38  60  83 120 153 199 242 289 345
#     4  11  20  39  63  87 118 156 199 238 289 356
#     4  10  18  35  59  94 114 149 195 247 289 348
#
# _framework density 27.417763000000001
#
# number of rings (size 3 to 8) (size 9 to 14) (size 15 to 20)
#    0.800    1.067    5.333    0.800    3.733    0.533 
#    2.400    1.333    0.000    0.000    0.000    0.000 
#    0.000    0.000    0.000    0.000    0.000    0.000 
#
# Total GULP energy -83688.086692 kJ/mol
# GULP energy per Si atom -5579.205779 kJ/mol
# Density = 2.735536 g / cm^3
# Si number density = 27.417763 Si / 1000 Ang^3
#
#
#
# Elastic Constant Matrix: (Units=GPa)
#
#
# Indices 1 2 3 4 5 6 
#
# 1 64.1975 28.2339 -1.5412 16.5190 9.2657 -7.9305
# 2 28.2339 156.6422 20.9175 36.2086 -1.1109 -4.5127
# 3 -1.5412 20.9175 113.4544 21.0177 3.7400 -0.8226
# 4 16.5190 36.2086 21.0177 42.4228 -0.6279 -0.6631
# 5 9.2657 -1.1109 3.7400 -0.6279 38.6561 15.7423
# 6 -7.9305 -4.5127 -0.8226 -0.6631 15.7423 45.9676
#
#
#
# Elastic Compliance Matrix: (Units=1/GPa)
#
#
# Indices 1 2 3 4 5 6 
#
# 1 0.020266 -0.002185 0.002304 -0.007190 -0.007636 0.005835
# 2 -0.002185 0.008216 -0.000469 -0.005918 0.000665 0.000108
# 3 0.002304 -0.000469 0.010024 -0.005476 -0.002102 0.001172
# 4 -0.007190 -0.005918 -0.005476 0.034149 0.003741 -0.002708
# 5 -0.007636 0.000665 -0.002102 0.003741 0.033103 -0.012572
# 6 0.005835 0.000108 0.001172 -0.002708 -0.012572 0.027059
#
#
# Mechanical properties :
#
#
# Convention : Reuss Voigt Hill
#
# Bulk Modulus (GPa) = 26.45025 47.72382 37.08703
# Shear Modulus (GPa) = 34.21871 44.52157 39.37014
#
# Velocity S-wave (km/s) = 3.53661 4.03404 3.79349
# Velocity P-wave (km/s) = 5.13272 6.25635 5.72218
#
# Compressibility (1/GPa) = 0.03780683
#
# Stress axis : x y z
#
# Youngs Moduli (GPa) = 49.34363 121.71076 99.75954
#
# Poissons Ratio (x) = 0.26588 -0.22986
# Poissons Ratio (y) = 0.10779 0.04682
# Poissons Ratio (z) = -0.11369 0.05712
#
# Static dielectric constant tensor:
#      x y z
#    x 2.486540 -0.407020 -0.205520 
#    y -0.407020 2.030280 0.067580 
#    z -0.205520 0.067580 2.361690 
# 
# From -- ./inp_files/237877.got.cif
#   From: 2010.05.17/outbox.cif.g08.bks.cpg/sg2_119_cif.got.tgz:237877.got - 2010.06.03 11:33:40.
