data_PCOD9069645
_publ_section_title
;
Structure prediction by ZEFSAII (Michael W. Deem and Ramdas Pophale) SiO2 
 PCOD9069645
Probable space group: P -1
;
_chemical_formula_sum "Si O2"
_cell_formula_units_Z 16
_cell_length_a 16.156567
_cell_length_b 9.658027
_cell_length_c 8.824044
_cell_angle_alpha 110.603953
_cell_angle_beta 106.865295
_cell_angle_gamma 34.616714
_cell_volume 732.166085
_symmetry_space_group_name_H-M "P -1"
_symmetry_group_IT_number 2
_symmetry_cell_setting 'triclinic'
loop_
_space_group_symop_operation_xyz
x,y,z
-x,-y,-z
loop_
_atom_site_type_symbol
_atom_site_label
_atom_site_fract_x
_atom_site_fract_y
_atom_site_fract_z
Si Si1 0.066854 0.264596 0.025944
Si Si2 0.623419 0.902789 0.426577
Si Si3 0.110641 0.784504 0.101033
Si Si4 0.075687 0.034076 0.470587
Si Si5 0.586083 0.765727 0.067628
Si Si6 0.084617 0.446117 0.384257
Si Si7 0.388791 0.778307 0.101044
Si Si8 0.622986 0.234621 0.540399
O O1 0.065695 0.336155 0.219488
O O2 0.236557 0.981230 0.003942
O O3 0.000000 0.500000 0.000000
O O4 0.963536 0.272192 0.927755
O O5 0.658283 0.756224 0.242230
O O6 0.752509 0.750596 0.553895
O O7 0.500000 0.000000 0.500000
O O8 0.588827 0.113250 0.429526
O O9 0.096303 0.930121 0.276403
O O10 0.279906 0.512884 0.043648
O O11 0.000000 0.000000 0.000000
O O12 0.976231 0.307166 0.578606
O O13 0.232185 0.899079 0.511446
O O14 0.000000 0.000000 0.500000
O O15 0.467443 0.822232 0.107033
O O16 0.500000 0.000000 0.000000
O O17 0.000000 0.500000 0.500000
O O18 0.371029 0.778965 0.275413
O O19 0.500000 0.500000 0.000000
O O20 0.500000 0.500000 0.500000
#
# Coordination Sequence:
#
# PCOD9069645 Si02
#       8
#     2   2   2   2   2   2   2   2
#     4  12  25  46  72 106 144 194 245 307 371 445
#     4  12  25  47  77 107 147 201 252 308 377 451
#     4  12  26  47  71 104 146 189 246 303 374 445
#     4  12  28  47  73 108 143 193 251 313 371 450
#     4  12  27  46  76 114 150 197 251 313 379 456
#     4  12  23  46  74 101 145 191 248 303 374 439
#     4  12  26  49  73 108 157 198 245 313 383 451
#     4  12  28  48  74 107 153 197 254 310 379 452
#
# _framework density 21.852964
#
# number of rings (size 3 to 8) (size 9 to 14) (size 15 to 20)
#    0.000    0.000    3.750    6.000    5.250    3.000 
#    0.000    0.000    0.000    0.000    0.000    0.000 
#    0.000    0.000    0.000    0.000    0.000    0.000 
#
# Total GULP energy -89145.691024 kJ/mol
# GULP energy per Si atom -5571.605689 kJ/mol
# Density = 2.180323 g / cm^3
# Si number density = 21.852964 Si / 1000 Ang^3
#
#
#
# Elastic Constant Matrix: (Units=GPa)
#
#
# Indices 1 2 3 4 5 6 
#
# 1 152.7645 37.8706 -10.8245 -5.3167 2.0107 6.1709
# 2 37.8706 135.1330 1.7296 4.1472 -14.7839 0.0057
# 3 -10.8245 1.7296 63.8038 13.9687 0.0870 -9.9047
# 4 -5.3167 4.1472 13.9687 33.8138 9.0502 5.0101
# 5 2.0107 -14.7839 0.0870 9.0502 34.2134 5.7370
# 6 6.1709 0.0057 -9.9047 5.0101 5.7370 43.1330
#
#
#
# Elastic Compliance Matrix: (Units=1/GPa)
#
#
# Indices 1 2 3 4 5 6 
#
# 1 0.007286 -0.002293 0.000806 0.001678 -0.001727 -0.000822
# 2 -0.002293 0.008621 -0.000054 -0.002615 0.004550 0.000013
# 3 0.000806 -0.000054 0.018454 -0.008577 0.001322 0.004943
# 4 0.001678 -0.002615 -0.008577 0.037192 -0.010177 -0.005176
# 5 -0.001727 0.004550 0.001322 -0.010177 0.034463 -0.002852
# 6 -0.000822 0.000013 0.004943 -0.005176 -0.002852 0.025417
#
#
# Mechanical properties :
#
#
# Convention : Reuss Voigt Hill
#
# Bulk Modulus (GPa) = 31.97047 45.47252 38.72150
# Shear Modulus (GPa) = 34.49651 43.76041 39.12846
#
# Velocity S-wave (km/s) = 3.97744 4.47978 4.23606
# Velocity P-wave (km/s) = 5.97954 6.90010 6.45625
#
# Compressibility (1/GPa) = 0.03127886
#
# Stress axis : x y z
#
# Youngs Moduli (GPa) = 137.25397 115.99188 54.18772
#
# Poissons Ratio (x) = 0.26591 -0.04365
# Poissons Ratio (y) = 0.31466 0.00294
# Poissons Ratio (z) = -0.11056 0.00630
#
# Static dielectric constant tensor:
#      x y z
#    x 1.125380 -0.328030 -0.646480 
#    y -0.328030 1.578820 -0.389710 
#    z -0.646480 -0.389710 1.195870 
# 
# From -- ./inp_files/299302.got.cif
#   From: 2010.05.17/outbox.cif.g08.bks.cpg/sg2_150_cif.got.tgz:299302.got - 2010.06.03 11:33:40.
