data_PCOD9069264
_publ_section_title
;
Structure prediction by ZEFSAII (Michael W. Deem and Ramdas Pophale) SiO2 
 PCOD9069264
Probable space group: P -1
;
_chemical_formula_sum "Si O2"
_cell_formula_units_Z 16
_cell_length_a 18.117646
_cell_length_b 16.660664
_cell_length_c 13.165268
_cell_angle_alpha 126.998155
_cell_angle_beta 27.248101
_cell_angle_gamma 145.308690
_cell_volume 899.306601
_symmetry_space_group_name_H-M "P -1"
_symmetry_group_IT_number 2
_symmetry_cell_setting 'triclinic'
loop_
_space_group_symop_operation_xyz
x,y,z
-x,-y,-z
loop_
_atom_site_type_symbol
_atom_site_label
_atom_site_fract_x
_atom_site_fract_y
_atom_site_fract_z
Si Si1 0.974862 0.232025 0.908668
Si Si2 0.517374 0.417027 0.837427
Si Si3 0.878905 0.417029 0.475897
Si Si4 0.735278 0.472514 0.074431
Si Si5 0.662306 0.767970 0.454159
Si Si6 0.372559 0.472511 0.437146
Si Si7 0.045838 0.936735 0.811280
Si Si8 0.592750 0.063267 0.550134
O O1 0.067830 0.366460 0.973215
O O2 0.114351 0.199561 0.755635
O O3 0.105291 0.319992 0.707798
O O4 0.666964 0.070714 0.166228
O O5 0.682869 0.408143 0.675817
O O6 0.646315 0.515487 0.648887
O O7 0.500000 0.500000 0.000000
O O8 0.229440 0.237274 0.024715
O O9 0.728231 0.237278 0.525924
O O10 0.000000 0.500000 0.500000
O O11 0.104935 0.515487 0.190264
O O12 0.541611 0.319999 0.271486
O O13 0.561096 0.469888 0.226385
O O14 0.509492 0.633535 0.449456
O O15 0.787999 0.929279 0.378803
O O16 0.204648 0.923438 0.656371
O O17 0.000000 0.000000 0.000000
O O18 0.500000 0.000000 0.500000
#
# Coordination Sequence:
#
# PCOD9069264 Si02
#       8
#     2   2   2   2   2   2   2   2
#     4   9  18  34  59  89 120 153 191 240 295 345
#     4  12  25  41  61  86 119 159 198 243 295 353
#     4  12  25  41  61  86 119 159 198 243 295 353
#     4   9  18  35  59  87 120 155 192 238 293 350
#     4   9  18  34  59  89 120 153 191 240 295 345
#     4   9  18  35  59  87 120 155 192 238 293 350
#     4  12  23  37  59  89 121 154 198 247 290 343
#     4  12  23  37  59  89 121 154 198 247 290 343
#
# _framework density 17.791484000000001
#
# number of rings (size 3 to 8) (size 9 to 14) (size 15 to 20)
#    0.000    1.500    2.500    6.000    0.000    1.000 
#    0.000    3.750    0.000    7.500    0.000    0.000 
#    0.000    0.000    0.000    0.000    0.000    0.000 
#
# Total GULP energy -89413.854505 kJ/mol
# GULP energy per Si atom -5588.365907 kJ/mol
# Density = 1.775099 g / cm^3
# Si number density = 17.791484 Si / 1000 Ang^3
#
#
#
# Elastic Constant Matrix: (Units=GPa)
#
#
# Indices 1 2 3 4 5 6 
#
# 1 150.8348 77.2156 78.8471 4.2725 2.9867 -4.8557
# 2 77.2156 115.5280 70.3143 6.2277 4.0317 0.8693
# 3 78.8471 70.3143 150.3091 6.8387 1.4222 2.6369
# 4 4.2725 6.2277 6.8387 26.1034 -1.0785 -0.1770
# 5 2.9867 4.0317 1.4222 -1.0785 24.1500 -2.0269
# 6 -4.8557 0.8693 2.6369 -0.1770 -2.0269 28.3580
#
#
#
# Elastic Compliance Matrix: (Units=1/GPa)
#
#
# Indices 1 2 3 4 5 6 
#
# 1 0.011304 -0.005518 -0.003407 0.000373 -0.000056 0.002420
# 2 -0.005518 0.014923 -0.003972 -0.001697 -0.001749 -0.001168
# 3 -0.003407 -0.003972 0.010376 -0.001210 0.000301 -0.001413
# 4 0.000373 -0.001697 -0.001210 0.039061 0.002105 0.000623
# 5 -0.000056 -0.001749 0.000301 0.002105 0.042038 0.003034
# 6 0.002420 -0.001168 -0.001413 0.000623 0.003034 0.036066
#
#
# Mechanical properties :
#
#
# Convention : Reuss Voigt Hill
#
# Bulk Modulus (GPa) = 92.52731 96.60287 94.56509
# Shear Modulus (GPa) = 27.29795 28.40862 27.85328
#
# Velocity S-wave (km/s) = 3.92130 4.00027 3.96098
# Velocity P-wave (km/s) = 8.52183 8.70353 8.61316
#
# Compressibility (1/GPa) = 0.01080762
#
# Stress axis : x y z
#
# Youngs Moduli (GPa) = 88.46352 67.01208 96.38082
#
# Poissons Ratio (x) = 0.36976 0.32841
# Poissons Ratio (y) = 0.48812 0.38284
# Poissons Ratio (z) = 0.30143 0.26618
#
# Static dielectric constant tensor:
#      x y z
#    x 1.597780 -0.012970 0.013720 
#    y -0.012970 1.578790 -0.007310 
#    z 0.013720 -0.007310 1.609250 
# 
# From -- ./inp_files/226643.got.cif
#   From: 2010.05.17/outbox.cif.g08.bks.cpg/sg2_114_cif.got.tgz:226643.got - 2010.06.03 11:33:40.
