data_PCOD9069473
_publ_section_title
;
Structure prediction by ZEFSAII (Michael W. Deem and Ramdas Pophale) SiO2 
 PCOD9069473
Probable space group: P -1
;
_chemical_formula_sum "Si O2"
_cell_formula_units_Z 12
_cell_length_a 27.965786
_cell_length_b 9.442287
_cell_length_c 25.422873
_cell_angle_alpha 146.284031
_cell_angle_beta 8.996745
_cell_angle_gamma 148.811822
_cell_volume 536.426007
_symmetry_space_group_name_H-M "P -1"
_symmetry_group_IT_number 2
_symmetry_cell_setting 'triclinic'
loop_
_space_group_symop_operation_xyz
x,y,z
-x,-y,-z
loop_
_atom_site_type_symbol
_atom_site_label
_atom_site_fract_x
_atom_site_fract_y
_atom_site_fract_z
Si Si1 0.170554 0.433391 0.242691
Si Si2 0.932939 0.431871 0.815289
Si Si3 0.710000 0.966120 0.345228
Si Si4 0.940800 0.682549 0.475154
Si Si5 0.151029 0.213709 0.608275
Si Si6 0.997139 0.387591 0.026792
O O1 0.000000 0.500000 0.500000
O O2 0.153014 0.627377 0.273867
O O3 0.559010 0.505914 0.851313
O O4 0.979660 0.109691 0.335323
O O5 0.967299 0.404955 0.707882
O O6 0.037892 0.231420 0.676720
O O7 0.549543 0.364159 0.224751
O O8 0.187359 0.737728 0.648466
O O9 0.363362 0.864558 0.660706
O O10 0.736348 0.741543 0.288396
O O11 0.000000 0.000000 0.000000
O O12 0.000000 0.000000 0.500000
O O13 0.001803 0.384865 0.861191
O O14 0.000000 0.500000 0.000000
#
# Coordination Sequence:
#
# PCOD9069473 Si02
#       6
#     2   2   2   2   2   2
#     4  12  26  46  72  98 135 169 212 269 334 392
#     4  12  25  42  70  95 134 172 223 269 318 389
#     4  12  23  44  65  95 130 181 221 261 324 381
#     4  12  26  46  71 101 129 169 220 269 324 392
#     4  12  24  44  65  98 133 176 215 269 332 379
#     4  12  26  41  65  95 137 174 221 271 320 386
#
# _framework density 22.370279
#
# number of rings (size 3 to 8) (size 9 to 14) (size 15 to 20)
#    0.000    0.000    3.333    7.000    4.667    0.000 
#    0.000    0.000    0.000    0.000    0.000    0.000 
#    0.000    0.000    0.000    0.000    0.000    0.000 
#
# Total GULP energy -67209.606947 kJ/mol
# GULP energy per Si atom -5600.800579 kJ/mol
# Density = 2.231936 g / cm^3
# Si number density = 22.370279 Si / 1000 Ang^3
#
#
#
# Elastic Constant Matrix: (Units=GPa)
#
#
# Indices 1 2 3 4 5 6 
#
# 1 92.9653 -1.0300 -17.0383 7.0243 1.4787 -19.3973
# 2 -1.0300 114.6106 -6.3242 7.8947 9.2827 0.8413
# 3 -17.0383 -6.3242 41.7745 -11.1357 -14.9781 1.6088
# 4 7.0243 7.8947 -11.1357 31.0624 -0.6973 -1.4347
# 5 1.4787 9.2827 -14.9781 -0.6973 47.4835 6.7572
# 6 -19.3973 0.8413 1.6088 -1.4347 6.7572 45.6171
#
#
#
# Elastic Compliance Matrix: (Units=1/GPa)
#
#
# Indices 1 2 3 4 5 6 
#
# 1 0.012819 0.000391 0.004946 -0.000978 0.000332 0.005189
# 2 0.000391 0.009044 0.000275 -0.002320 -0.001753 0.000176
# 3 0.004946 0.000275 0.032529 0.010692 0.010243 -0.000230
# 4 -0.000978 -0.002320 0.010692 0.036925 0.004434 -0.000246
# 5 0.000332 -0.001753 0.010243 0.004434 0.025227 -0.003785
# 6 0.005189 0.000176 -0.000230 -0.000246 -0.003785 0.024686
#
#
# Mechanical properties :
#
#
# Convention : Reuss Voigt Hill
#
# Bulk Modulus (GPa) = 15.24055 22.28504 18.76280
# Shear Modulus (GPa) = 32.92101 43.08213 38.00157
#
# Velocity S-wave (km/s) = 3.84036 4.39323 4.12606
# Velocity P-wave (km/s) = 5.14705 5.97641 5.57717
#
# Compressibility (1/GPa) = 0.06561442
#
# Stress axis : x y z
#
# Youngs Moduli (GPa) = 78.01009 110.56663 30.74226
#
# Poissons Ratio (x) = -0.04318 -0.15205
# Poissons Ratio (y) = -0.03046 -0.00845
# Poissons Ratio (z) = -0.38583 -0.03040
#
# Static dielectric constant tensor:
#      x y z
#    x 1.423970 0.222190 -0.126490 
#    y 0.222190 1.504340 0.059590 
#    z -0.126490 0.059590 1.749610 
# 
# From -- ./inp_files/89554.got.cif
#   From: 2010.05.17/outbox.cif.g08.bks.cpg/sg2_45_cif.got.tgz:89554.got - 2010.06.03 11:33:40.
