data_PCOD9069485
_publ_section_title
;
Structure prediction by ZEFSAII (Michael W. Deem and Ramdas Pophale) SiO2 
 PCOD9069485
Probable space group: P -1
;
_chemical_formula_sum "Si O2"
_cell_formula_units_Z 16
_cell_length_a 23.860988
_cell_length_b 12.224244
_cell_length_c 5.265197
_cell_angle_alpha 67.590571
_cell_angle_beta 121.621375
_cell_angle_gamma 149.710836
_cell_volume 650.377085
_symmetry_space_group_name_H-M "P -1"
_symmetry_group_IT_number 2
_symmetry_cell_setting 'triclinic'
loop_
_space_group_symop_operation_xyz
x,y,z
-x,-y,-z
loop_
_atom_site_type_symbol
_atom_site_label
_atom_site_fract_x
_atom_site_fract_y
_atom_site_fract_z
Si Si1 0.127231 0.261249 0.039406
Si Si2 0.258939 0.790201 0.503014
Si Si3 0.345436 0.490664 0.641320
Si Si4 0.179673 0.910649 0.458885
Si Si5 0.974897 0.691129 0.498549
Si Si6 0.834781 0.882119 0.111475
Si Si7 0.574952 0.997387 0.785612
Si Si8 0.577008 0.602125 0.341572
O O1 0.231772 0.400503 0.371591
O O2 0.096125 0.350218 0.858982
O O3 0.169377 0.254883 0.894262
O O4 0.000000 0.000000 0.000000
O O5 0.197727 0.823117 0.407477
O O6 0.135827 0.526283 0.407251
O O7 0.339504 0.912454 0.329556
O O8 0.343271 0.873834 0.872755
O O9 0.286787 0.301780 0.847941
O O10 0.378306 0.465853 0.491684
O O11 0.463966 0.737164 0.801382
O O12 0.074150 0.750487 0.564274
O O13 0.315805 0.141086 0.672291
O O14 0.158699 0.001132 0.175249
O O15 0.051768 0.911430 0.622715
O O16 0.500000 0.000000 0.500000
O O17 0.500000 0.500000 0.500000
O O18 0.500000 0.500000 0.000000
#
# Coordination Sequence:
#
# PCOD9069485 Si02
#       8
#     2   2   2   2   2   2   2   2
#     4  12  23  44  69 116 148 192 255 317 391 447
#     4  12  31  52  79 113 153 211 258 310 378 466
#     4  12  26  44  75 110 148 195 252 324 384 451
#     4  12  26  48  71 114 157 195 257 309 388 456
#     4  12  27  47  76 108 154 204 255 318 381 458
#     4  12  24  42  77 108 153 192 251 318 390 438
#     4  12  30  55  79 112 153 207 261 313 380 459
#     4  12  24  42  70 104 145 192 239 304 372 443
#
# _framework density 24.601112000000001
#
# number of rings (size 3 to 8) (size 9 to 14) (size 15 to 20)
#    0.000    0.000    5.000    4.125    7.000    0.500 
#    0.000    0.000    0.000    0.000    0.000    0.000 
#    0.000    0.000    0.000    0.000    0.000    0.000 
#
# Total GULP energy -89405.549035 kJ/mol
# GULP energy per Si atom -5587.846815 kJ/mol
# Density = 2.454512 g / cm^3
# Si number density = 24.601112 Si / 1000 Ang^3
#
#
#
# Elastic Constant Matrix: (Units=GPa)
#
#
# Indices 1 2 3 4 5 6 
#
# 1 82.6798 12.9435 25.4230 11.4989 -0.7035 20.5562
# 2 12.9435 154.3416 25.8314 25.5653 -8.0546 26.6902
# 3 25.4230 25.8314 102.5645 13.8078 -11.4301 22.6357
# 4 11.4989 25.5653 13.8078 23.4349 1.1558 6.5618
# 5 -0.7035 -8.0546 -11.4301 1.1558 35.1676 -2.8442
# 6 20.5562 26.6902 22.6357 6.5618 -2.8442 38.2318
#
#
#
# Elastic Compliance Matrix: (Units=1/GPa)
#
#
# Indices 1 2 3 4 5 6 
#
# 1 0.014937 0.001132 -0.001768 -0.005587 -0.000386 -0.006845
# 2 0.001132 0.008837 0.000037 -0.008876 0.001935 -0.005132
# 3 -0.001768 0.000037 0.012468 -0.005227 0.003770 -0.005280
# 4 -0.005587 -0.008876 -0.005227 0.057907 -0.005590 0.001940
# 5 -0.000386 0.001935 0.003770 -0.005590 0.030267 -0.000164
# 6 -0.006845 -0.005132 -0.005280 0.001940 -0.000164 0.036200
#
#
# Mechanical properties :
#
#
# Convention : Reuss Voigt Hill
#
# Bulk Modulus (GPa) = 28.53571 51.99797 40.26684
# Shear Modulus (GPa) = 28.81952 37.72608 33.27280
#
# Velocity S-wave (km/s) = 3.42639 3.92026 3.68161
# Velocity P-wave (km/s) = 5.22284 6.45550 5.87161
#
# Compressibility (1/GPa) = 0.03504380
#
# Stress axis : x y z
#
# Youngs Moduli (GPa) = 66.94938 113.16427 80.20653
#
# Poissons Ratio (x) = -0.12812 0.14180
# Poissons Ratio (y) = -0.07580 -0.00297
# Poissons Ratio (z) = 0.11836 -0.00420
#
# Static dielectric constant tensor:
#      x y z
#    x 1.620140 0.395470 0.846810 
#    y 0.395470 1.987920 0.128510 
#    z 0.846810 0.128510 2.438430 
# 
# From -- ./inp_files/123637.got.cif
#   From: 2010.05.17/outbox.cif.g08.bks.cpg/sg2_62_cif.got.tgz:123637.got - 2010.06.03 11:33:40.
