data_PCOD9069860
_publ_section_title
;
Structure prediction by ZEFSAII (Michael W. Deem and Ramdas Pophale) SiO2 
 PCOD9069860
Probable space group: P -1
;
_chemical_formula_sum "Si O2"
_cell_formula_units_Z 14
_cell_length_a 6.015673
_cell_length_b 14.564868
_cell_length_c 14.366245
_cell_angle_alpha 29.893848
_cell_angle_beta 102.160853
_cell_angle_gamma 103.858177
_cell_volume 609.073599
_symmetry_space_group_name_H-M "P -1"
_symmetry_group_IT_number 2
_symmetry_cell_setting 'triclinic'
loop_
_space_group_symop_operation_xyz
x,y,z
-x,-y,-z
loop_
_atom_site_type_symbol
_atom_site_label
_atom_site_fract_x
_atom_site_fract_y
_atom_site_fract_z
Si Si1 0.781092 0.779039 0.913034
Si Si2 0.570903 0.799798 0.689459
Si Si3 0.754016 0.712075 0.588982
Si Si4 0.538623 0.309277 0.878314
Si Si5 0.120053 0.578787 0.847398
Si Si6 0.802880 0.966292 0.197112
Si Si7 0.755454 0.598219 0.393444
O O1 0.766193 0.819321 0.766764
O O2 0.544180 0.748445 0.974502
O O3 0.872656 0.581161 0.087653
O O4 0.946921 0.931565 0.847313
O O5 0.601290 0.727103 0.652859
O O6 0.365479 0.660498 0.832836
O O7 0.500000 0.000000 0.500000
O O8 0.695331 0.506686 0.721490
O O9 0.718907 0.865846 0.374815
O O10 0.000087 0.730343 0.645765
O O11 0.319509 0.351804 0.761195
O O12 0.656937 0.132438 0.007789
O O13 0.000000 0.500000 0.000000
O O14 0.805717 0.794301 0.278824
O O15 0.500000 0.500000 0.500000
O O16 0.000000 0.500000 0.500000
#
# Coordination Sequence:
#
# PCOD9069860 Si02
#       7
#     2   2   2   2   2   2   2
#     4  12  26  43  73 110 149 205 261 321 390 469
#     4  12  26  42  66 105 153 203 259 314 382 466
#     4  12  25  46  75 106 156 203 260 322 391 467
#     4  12  27  51  81 110 156 203 263 330 405 473
#     4  12  24  42  68 102 153 206 258 319 385 455
#     4  12  29  49  81 116 152 204 269 322 405 478
#     4  12  31  56  88 120 161 206 264 335 411 486
#
# _framework density 22.985728000000002
#
# number of rings (size 3 to 8) (size 9 to 14) (size 15 to 20)
#    0.000    0.000    5.714    3.429    8.000    2.857 
#    0.000    0.000    0.000    0.000    0.000    0.000 
#    0.000    0.000    0.000    0.000    0.000    0.000 
#
# Total GULP energy -78078.876147 kJ/mol
# GULP energy per Si atom -5577.062582 kJ/mol
# Density = 2.293341 g / cm^3
# Si number density = 22.985728 Si / 1000 Ang^3
#
#
#
# Elastic Constant Matrix: (Units=GPa)
#
#
# Indices 1 2 3 4 5 6 
#
# 1 62.4987 20.1914 35.4595 -15.6096 14.3651 5.0540
# 2 20.1914 113.5175 25.9118 -9.6274 10.2956 14.5053
# 3 35.4595 25.9118 109.9184 -8.7696 23.3148 8.5265
# 4 -15.6096 -9.6274 -8.7696 45.6144 9.3358 -2.9663
# 5 14.3651 10.2956 23.3148 9.3358 43.5956 1.7728
# 6 5.0540 14.5053 8.5265 -2.9663 1.7728 35.2674
#
#
#
# Elastic Compliance Matrix: (Units=1/GPa)
#
#
# Indices 1 2 3 4 5 6 
#
# 1 0.022715 -0.001644 -0.005014 0.007671 -0.006040 -0.000418
# 2 -0.001644 0.010049 -0.001173 0.001389 -0.001362 -0.003429
# 3 -0.005014 -0.001173 0.012227 0.001284 -0.004828 -0.001404
# 4 0.007671 0.001389 0.001284 0.027055 -0.009367 0.000766
# 5 -0.006040 -0.001362 -0.004828 -0.009367 0.029825 0.000306
# 6 -0.000418 -0.003429 -0.001404 0.000766 0.000306 0.030213
#
#
# Mechanical properties :
#
#
# Convention : Reuss Voigt Hill
#
# Bulk Modulus (GPa) = 34.09698 49.89557 41.99628
# Shear Modulus (GPa) = 31.74150 38.52028 35.13089
#
# Velocity S-wave (km/s) = 3.72011 4.09814 3.91369
# Velocity P-wave (km/s) = 5.77221 6.64434 6.22357
#
# Compressibility (1/GPa) = 0.02932811
#
# Stress axis : x y z
#
# Youngs Moduli (GPa) = 44.02469 99.51486 81.78505
#
# Poissons Ratio (x) = 0.16358 0.41011
# Poissons Ratio (y) = 0.07237 0.09592
# Poissons Ratio (z) = 0.22076 0.11672
#
# Static dielectric constant tensor:
#      x y z
#    x 2.034670 0.024160 0.059570 
#    y 0.024160 1.895290 0.097660 
#    z 0.059570 0.097660 1.984420 
# 
# From -- ./inp_files/97673.got.cif
#   From: 2010.05.17/outbox.cif.g08.bks.cpg/sg2_49_cif.got.tgz:97673.got - 2010.06.03 11:33:40.
