data_PCOD9069845
_publ_section_title
;
Structure prediction by ZEFSAII (Michael W. Deem and Ramdas Pophale) SiO2 
 PCOD9069845
Probable space group: P -1
;
_chemical_formula_sum "Si O2"
_cell_formula_units_Z 16
_cell_length_a 12.901119
_cell_length_b 15.141097
_cell_length_c 8.833274
_cell_angle_alpha 40.165227
_cell_angle_beta 120.089507
_cell_angle_gamma 97.327107
_cell_volume 856.014953
_symmetry_space_group_name_H-M "P -1"
_symmetry_group_IT_number 2
_symmetry_cell_setting 'triclinic'
loop_
_space_group_symop_operation_xyz
x,y,z
-x,-y,-z
loop_
_atom_site_type_symbol
_atom_site_label
_atom_site_fract_x
_atom_site_fract_y
_atom_site_fract_z
Si Si1 0.569626 0.336301 0.846544
Si Si2 0.392604 0.967187 0.873514
Si Si3 0.610115 0.865562 0.653154
Si Si4 0.146054 0.142028 0.014389
Si Si5 0.847466 0.986859 0.144286
Si Si6 0.569912 0.584700 0.034701
Si Si7 0.841572 0.163409 0.430978
Si Si8 0.836832 0.290036 0.596461
O O1 0.500000 0.500000 0.500000
O O2 0.502700 0.357628 0.934199
O O3 0.549813 0.210754 0.898078
O O4 0.729553 0.263021 0.096487
O O5 0.366376 0.062985 0.575286
O O6 0.258283 0.011518 0.814137
O O7 0.500000 0.000000 0.000000
O O8 0.748991 0.799009 0.935365
O O9 0.500000 0.000000 0.500000
O O10 0.564517 0.735419 0.754823
O O11 0.174506 0.987115 0.333095
O O12 0.164286 0.091476 0.918463
O O13 0.989850 0.258462 0.772247
O O14 0.003756 0.897813 0.425884
O O15 0.818986 0.159169 0.849960
O O16 0.723182 0.456940 0.336209
O O17 0.500000 0.500000 0.000000
O O18 0.822613 0.256451 0.452434
#
# Coordination Sequence:
#
# PCOD9069845 Si02
#       8
#     2   2   2   2   2   2   2   2
#     4  12  25  41  62  94 127 161 209 264 309 368
#     4  12  26  40  61  93 128 164 212 256 314 366
#     4  12  24  42  65  89 127 169 209 261 307 374
#     4   9  18  39  66  94 122 160 212 255 310 370
#     4   9  20  37  68  94 123 161 205 261 311 371
#     4  12  25  41  66  91 125 168 212 255 314 372
#     4   9  17  39  64  94 125 160 210 254 307 376
#     4   9  19  37  67  95 121 163 206 258 310 373
#
# _framework density 18.691261000000001
#
# number of rings (size 3 to 8) (size 9 to 14) (size 15 to 20)
#    0.000    1.500    3.750    3.000    5.250    1.000 
#    2.250    0.000    0.000    2.250    0.000    0.000 
#    0.000    0.000    0.000    0.000    0.000    0.000 
#
# Total GULP energy -89386.833532 kJ/mol
# GULP energy per Si atom -5586.677096 kJ/mol
# Density = 1.864872 g / cm^3
# Si number density = 18.691261 Si / 1000 Ang^3
#
#
#
# Elastic Constant Matrix: (Units=GPa)
#
#
# Indices 1 2 3 4 5 6 
#
# 1 142.7119 59.7122 47.4357 -6.8178 -0.2502 -11.3025
# 2 59.7122 106.3278 46.1612 -2.1172 11.3103 16.1516
# 3 47.4357 46.1612 109.8256 -4.8277 7.5151 3.6819
# 4 -6.8178 -2.1172 -4.8277 27.9685 1.4320 1.9848
# 5 -0.2502 11.3103 7.5151 1.4320 28.7200 -0.3445
# 6 -11.3025 16.1516 3.6819 1.9848 -0.3445 27.6849
#
#
#
# Elastic Compliance Matrix: (Units=1/GPa)
#
#
# Indices 1 2 3 4 5 6 
#
# 1 0.011663 -0.007241 -0.002512 0.001014 0.003671 0.009293
# 2 -0.007241 0.017562 -0.003386 0.000212 -0.006258 -0.012845
# 3 -0.002512 -0.003386 0.011823 0.001320 -0.001857 -0.000740
# 4 0.001014 0.000212 0.001320 0.036542 -0.002272 -0.002533
# 5 0.003671 -0.006258 -0.001857 -0.002272 0.037987 0.006032
# 6 0.009293 -0.012845 -0.000740 -0.002533 0.006032 0.047763
#
#
# Mechanical properties :
#
#
# Convention : Reuss Voigt Hill
#
# Bulk Modulus (GPa) = 67.70312 73.94260 70.82286
# Shear Modulus (GPa) = 25.70139 30.57843 28.13991
#
# Velocity S-wave (km/s) = 3.71219 4.04911 3.88430
# Velocity P-wave (km/s) = 7.39420 7.84259 7.62169
#
# Compressibility (1/GPa) = 0.01477037
#
# Stress axis : x y z
#
# Youngs Moduli (GPa) = 85.74410 56.93992 84.57778
#
# Poissons Ratio (x) = 0.41230 0.21246
# Poissons Ratio (y) = 0.62087 0.28639
# Poissons Ratio (z) = 0.21539 0.19280
#
# Static dielectric constant tensor:
#      x y z
#    x 1.643350 0.009470 0.010800 
#    y 0.009470 1.650110 0.017430 
#    z 0.010800 0.017430 1.649190 
# 
# From -- ./inp_files/271620.got.cif
#   From: 2010.05.17/outbox.cif.g08.bks.cpg/sg2_136_cif.got.tgz:271620.got - 2010.06.03 11:33:40.
