data_PCOD9069019
_publ_section_title
;
Structure prediction by ZEFSAII (Michael W. Deem and Ramdas Pophale) SiO2 
 PCOD9069019
Probable space group: P -1
;
_chemical_formula_sum "Si O2"
_cell_formula_units_Z 16
_cell_length_a 27.191454
_cell_length_b 26.314463
_cell_length_c 12.095893
_cell_angle_alpha 25.504332
_cell_angle_beta 153.931981
_cell_angle_gamma 169.074247
_cell_volume 698.555296
_symmetry_space_group_name_H-M "P -1"
_symmetry_group_IT_number 2
_symmetry_cell_setting 'triclinic'
loop_
_space_group_symop_operation_xyz
x,y,z
-x,-y,-z
loop_
_atom_site_type_symbol
_atom_site_label
_atom_site_fract_x
_atom_site_fract_y
_atom_site_fract_z
Si Si1 0.407942 0.450067 0.292790
Si Si2 0.744812 0.112566 0.511640
Si Si3 0.881747 0.065807 0.050458
Si Si4 0.495939 0.923745 0.757811
Si Si5 0.952178 0.673250 0.912091
Si Si6 0.768988 0.508103 0.397353
Si Si7 0.310801 0.285283 0.196065
Si Si8 0.172745 0.346302 0.543299
O O1 0.500000 0.500000 0.500000
O O2 0.390641 0.339008 0.380054
O O3 0.126152 0.238117 0.149920
O O4 0.625765 0.753604 0.107944
O O5 0.504699 0.809824 0.568907
O O6 0.618969 0.115382 0.291287
O O7 0.994030 0.329309 0.509465
O O8 0.845722 0.159387 0.742011
O O9 0.936926 0.121479 0.182825
O O10 0.500000 0.000000 0.500000
O O11 0.293092 0.619948 0.942012
O O12 0.796499 0.172610 0.896091
O O13 0.868132 0.639124 0.689725
O O14 0.814576 0.544112 0.550329
O O15 0.752071 0.634893 0.094747
O O16 0.562004 0.477106 0.262607
O O17 0.063585 0.969161 0.291068
#
# Coordination Sequence:
#
# PCOD9069019 Si02
#       8
#     2   2   2   2   2   2   2   2
#     4  12  23  37  60  97 137 176 214 266 334 399
#     4  12  24  44  69  99 127 172 226 280 330 388
#     4  12  22  40  64  93 137 167 213 275 336 387
#     4  12  26  45  74 101 132 172 222 276 343 406
#     4  12  26  45  69 102 137 172 221 278 339 402
#     4  12  25  45  69  98 137 179 229 273 319 394
#     4  12  22  42  67  98 135 180 232 263 322 398
#     4  12  26  45  67  99 137 181 223 275 328 389
#
# _framework density 22.904413999999999
#
# number of rings (size 3 to 8) (size 9 to 14) (size 15 to 20)
#    0.000    0.000    3.750    7.500    1.750    0.000 
#    0.000    3.750    0.000    0.000    0.000    0.000 
#    0.000    0.000    0.000    0.000    0.000    0.000 
#
# Total GULP energy -89508.172053 kJ/mol
# GULP energy per Si atom -5594.260753 kJ/mol
# Density = 2.285228 g / cm^3
# Si number density = 22.904414 Si / 1000 Ang^3
#
#
#
# Elastic Constant Matrix: (Units=GPa)
#
#
# Indices 1 2 3 4 5 6 
#
# 1 134.0690 29.0255 12.3235 15.4066 -16.4789 5.8003
# 2 29.0255 191.9710 29.4313 24.2446 1.3312 5.1127
# 3 12.3235 29.4313 50.7855 14.6840 -13.9941 6.8476
# 4 15.4066 24.2446 14.6840 53.7493 -0.0048 -8.1745
# 5 -16.4789 1.3312 -13.9941 -0.0048 38.9845 11.1382
# 6 5.8003 5.1127 6.8476 -8.1745 11.1382 64.9085
#
#
#
# Elastic Compliance Matrix: (Units=1/GPa)
#
#
# Indices 1 2 3 4 5 6 
#
# 1 0.008527 -0.001075 0.000719 -0.002432 0.004418 -0.001818
# 2 -0.001075 0.006089 -0.003374 -0.001500 -0.001905 0.000110
# 3 0.000719 -0.003374 0.027563 -0.007072 0.011925 -0.005643
# 4 -0.002432 -0.001500 -0.007072 0.022635 -0.004875 0.004769
# 5 0.004418 -0.001905 0.011925 -0.004875 0.034143 -0.007976
# 6 -0.001818 0.000110 -0.005643 0.004769 -0.007976 0.018125
#
#
# Mechanical properties :
#
#
# Convention : Reuss Voigt Hill
#
# Bulk Modulus (GPa) = 28.80194 57.59846 43.20020
# Shear Modulus (GPa) = 36.73464 51.93147 44.33305
#
# Velocity S-wave (km/s) = 4.00912 4.76680 4.40428
# Velocity P-wave (km/s) = 5.83377 7.44972 6.69071
#
# Compressibility (1/GPa) = 0.03471988
#
# Stress axis : x y z
#
# Youngs Moduli (GPa) = 117.28134 164.24298 36.28086
#
# Poissons Ratio (x) = 0.17649 -0.02610
# Poissons Ratio (y) = 0.12603 0.12240
# Poissons Ratio (z) = -0.08437 0.55412
#
# Static dielectric constant tensor:
#      x y z
#    x 4.244150 0.695550 2.130010 
#    y 0.695550 2.023450 0.588570 
#    z 2.130010 0.588570 3.877320 
# 
# From -- ./inp_files/75834.got.cif
#   From: 2010.05.17/outbox.cif.g08.bks.cpg/sg2_38_cif.got.tgz:75834.got - 2010.06.03 11:33:40.
