data_PCOD9069235
_publ_section_title
;
Structure prediction by ZEFSAII (Michael W. Deem and Ramdas Pophale) SiO2 
 PCOD9069235
Probable space group: P -1
;
_chemical_formula_sum "Si O2"
_cell_formula_units_Z 16
_cell_length_a 11.538391
_cell_length_b 9.763200
_cell_length_c 17.708415
_cell_angle_alpha 49.171786
_cell_angle_beta 29.815063
_cell_angle_gamma 55.942255
_cell_volume 750.374911
_symmetry_space_group_name_H-M "P -1"
_symmetry_group_IT_number 2
_symmetry_cell_setting 'triclinic'
loop_
_space_group_symop_operation_xyz
x,y,z
-x,-y,-z
loop_
_atom_site_type_symbol
_atom_site_label
_atom_site_fract_x
_atom_site_fract_y
_atom_site_fract_z
Si Si1 0.543802 0.820286 0.993450
Si Si2 0.001536 0.684340 0.578523
Si Si3 0.914901 0.208402 0.339446
Si Si4 0.650445 0.841702 0.611406
Si Si5 0.829994 0.531715 0.155267
Si Si6 0.714446 0.365698 0.916115
Si Si7 0.624567 0.460080 0.686566
Si Si8 0.121612 0.827515 0.959763
O O1 0.810128 0.817966 0.818063
O O2 0.376913 0.800005 0.022967
O O3 0.484864 0.644985 0.141791
O O4 0.500000 0.000000 0.000000
O O5 0.776663 0.792489 0.637537
O O6 0.912965 0.481866 0.720340
O O7 0.112516 0.762413 0.565008
O O8 0.175491 0.662621 0.417953
O O9 0.851682 0.382455 0.262497
O O10 0.772794 0.032631 0.453238
O O11 0.694554 0.663710 0.599404
O O12 0.371042 0.863780 0.765511
O O13 0.571156 0.528735 0.270734
O O14 0.000000 0.500000 0.000000
O O15 0.924506 0.724137 0.061039
O O16 0.500000 0.500000 0.000000
O O17 0.807457 0.304484 0.965171
O O18 0.000000 0.000000 0.000000
#
# Coordination Sequence:
#
# PCOD9069235 Si02
#       8
#     2   2   2   2   2   2   2   2
#     4  12  25  43  72 107 139 189 241 290 354 428
#     4  12  25  45  75 108 142 182 243 303 355 414
#     4  12  26  45  73 104 142 189 235 294 363 426
#     4  12  25  47  72 108 145 182 239 306 358 417
#     4  12  25  51  71  97 145 196 237 285 361 435
#     4  12  22  47  76 101 145 195 242 291 356 426
#     4  12  27  46  73 103 147 187 234 300 357 424
#     4  12  27  46  75 107 145 193 241 296 359 432
#
# _framework density 21.322673999999999
#
# number of rings (size 3 to 8) (size 9 to 14) (size 15 to 20)
#    0.000    0.000    7.500    1.500    5.250    2.000 
#    0.000    0.000    0.000    0.000    0.000    0.000 
#    0.000    0.000    0.000    0.000    0.000    0.000 
#
# Total GULP energy -89504.153685 kJ/mol
# GULP energy per Si atom -5594.009605 kJ/mol
# Density = 2.127414 g / cm^3
# Si number density = 21.322674 Si / 1000 Ang^3
#
#
#
# Elastic Constant Matrix: (Units=GPa)
#
#
# Indices 1 2 3 4 5 6 
#
# 1 84.4705 23.2615 9.1795 -3.9455 -22.9067 20.1823
# 2 23.2615 107.3497 24.8936 -8.9336 -9.4366 28.9130
# 3 9.1795 24.8936 93.3312 -17.0593 -7.8138 12.8566
# 4 -3.9455 -8.9336 -17.0593 33.1495 11.0220 -11.2445
# 5 -22.9067 -9.4366 -7.8138 11.0220 29.9811 -2.5743
# 6 20.1823 28.9130 12.8566 -11.2445 -2.5743 38.7748
#
#
#
# Elastic Compliance Matrix: (Units=1/GPa)
#
#
# Indices 1 2 3 4 5 6 
#
# 1 0.018186 -0.000407 -0.000221 -0.006508 0.015246 -0.009964
# 2 -0.000407 0.012319 -0.002133 -0.001695 0.002898 -0.008566
# 3 -0.000221 -0.002133 0.012436 0.005403 0.000344 -0.000828
# 4 -0.006508 -0.001695 0.005403 0.042636 -0.018571 0.013991
# 5 0.015246 0.002898 0.000344 -0.018571 0.051788 -0.012158
# 6 -0.009964 -0.008566 -0.000828 0.013991 -0.012158 0.040888
#
#
# Mechanical properties :
#
#
# Convention : Reuss Voigt Hill
#
# Bulk Modulus (GPa) = 26.72470 44.42450 35.57460
# Shear Modulus (GPa) = 25.47809 35.56885 30.52347
#
# Velocity S-wave (km/s) = 3.46046 4.08870 3.78763
# Velocity P-wave (km/s) = 5.34107 6.57035 5.98734
#
# Compressibility (1/GPa) = 0.03741857
#
# Stress axis : x y z
#
# Youngs Moduli (GPa) = 54.98863 81.17553 80.41403
#
# Poissons Ratio (x) = 0.03306 0.01774
# Poissons Ratio (y) = 0.02239 0.17152
# Poissons Ratio (z) = 0.01213 0.17315
#
# Static dielectric constant tensor:
#      x y z
#    x 1.701470 -0.002850 0.051810 
#    y -0.002850 1.754650 0.026890 
#    z 0.051810 0.026890 1.788410 
# 
# From -- ./inp_files/188320.got.cif
#   From: 2010.05.17/outbox.cif.g08.bks.cpg/sg2_95_cif.got.tgz:188320.got - 2010.06.03 11:33:40.
