data_PCOD9069858
_publ_section_title
;
Structure prediction by ZEFSAII (Michael W. Deem and Ramdas Pophale) SiO2 
 PCOD9069858
Probable space group: P -1
;
_chemical_formula_sum "Si O2"
_cell_formula_units_Z 15
_cell_length_a 9.022433
_cell_length_b 5.615141
_cell_length_c 17.211369
_cell_angle_alpha 61.458635
_cell_angle_beta 116.361868
_cell_angle_gamma 126.955629
_cell_volume 596.646933
_symmetry_space_group_name_H-M "P -1"
_symmetry_group_IT_number 2
_symmetry_cell_setting 'triclinic'
loop_
_space_group_symop_operation_xyz
x,y,z
-x,-y,-z
loop_
_atom_site_type_symbol
_atom_site_label
_atom_site_fract_x
_atom_site_fract_y
_atom_site_fract_z
Si Si1 0.638413 0.484233 0.696125
Si Si2 0.500000 0.500000 0.500000
Si Si3 0.893717 0.213907 0.846153
Si Si4 0.685747 0.775294 0.210060
Si Si5 0.559461 0.591660 0.912417
Si Si6 0.094250 0.373304 0.475496
Si Si7 0.926406 0.135208 0.694568
Si Si8 0.822859 0.372223 0.037407
O O1 0.560050 0.365910 0.610838
O O2 0.816899 0.447564 0.770472
O O3 0.475998 0.313885 0.749254
O O4 0.736674 0.861744 0.654194
O O5 0.319767 0.493245 0.510949
O O6 0.910336 0.066797 0.792904
O O7 0.087158 0.368100 0.914178
O O8 0.723073 0.943814 0.895124
O O9 0.598721 0.477236 0.177912
O O10 0.876390 0.840482 0.288268
O O11 0.742835 0.056883 0.117813
O O12 0.500000 0.500000 0.000000
O O13 0.660101 0.387273 0.948181
O O14 0.055479 0.531875 0.367520
O O15 0.000000 0.500000 0.500000
O O16 0.000000 0.000000 0.500000
O O17 0.000000 0.500000 0.000000
#
# Coordination Sequence:
#
# PCOD9069858 Si02
#       8
#     2   1   2   2   2   2   2   2
#     4  12  26  50  74 113 153 207 274 337 426 497
#     4  12  28  52  86 118 166 216 280 364 424 512
#     4  12  24  46  74 105 154 205 255 326 412 477
#     4  12  25  46  78 108 157 214 263 334 412 499
#     4  12  24  42  67 115 150 197 272 321 391 499
#     4  12  29  52  83 123 166 217 285 352 434 519
#     4  12  26  50  74 109 155 205 263 335 414 495
#     4  12  24  44  72 109 157 205 261 331 404 485
#
# _framework density 25.140498000000001
#
# number of rings (size 3 to 8) (size 9 to 14) (size 15 to 20)
#    0.000    0.000    4.000    6.400    0.000    5.333 
#    0.000    0.000    0.000    0.000    0.000    0.000 
#    0.000    0.000    0.000    0.000    0.000    0.000 
#
# Total GULP energy -83603.573012 kJ/mol
# GULP energy per Si atom -5573.571534 kJ/mol
# Density = 2.508328 g / cm^3
# Si number density = 25.140498 Si / 1000 Ang^3
#
#
#
# Elastic Constant Matrix: (Units=GPa)
#
#
# Indices 1 2 3 4 5 6 
#
# 1 153.8474 36.0532 30.4504 -2.1691 -24.3320 13.8676
# 2 36.0532 81.0227 19.9025 -30.4262 5.7015 16.0614
# 3 30.4504 19.9025 108.4088 -18.1502 -9.2636 5.5564
# 4 -2.1691 -30.4262 -18.1502 32.8866 -7.1652 3.0498
# 5 -24.3320 5.7015 -9.2636 -7.1652 50.7717 0.3747
# 6 13.8676 16.0614 5.5564 3.0498 0.3747 31.1190
#
#
#
# Elastic Compliance Matrix: (Units=1/GPa)
#
#
# Indices 1 2 3 4 5 6 
#
# 1 0.008676 -0.005258 -0.001874 -0.004464 0.003780 -0.000426
# 2 -0.005258 0.027443 0.001593 0.026984 -0.001394 -0.014733
# 3 -0.001874 0.001593 0.011165 0.008240 0.002144 -0.002814
# 4 -0.004464 0.026984 0.008240 0.062603 0.005313 -0.019609
# 5 0.003780 -0.001394 0.002144 0.005313 0.022821 -0.002143
# 6 -0.000426 -0.014733 -0.002814 -0.019609 -0.002143 0.042379
#
#
# Mechanical properties :
#
#
# Convention : Reuss Voigt Hill
#
# Bulk Modulus (GPa) = 27.62063 57.34345 42.48204
# Shear Modulus (GPa) = 25.22257 40.08032 32.65144
#
# Velocity S-wave (km/s) = 3.17087 3.99714 3.60774
# Velocity P-wave (km/s) = 4.94128 6.64542 5.85567
#
# Compressibility (1/GPa) = 0.03620482
#
# Stress axis : x y z
#
# Youngs Moduli (GPa) = 115.25486 36.43929 89.56226
#
# Poissons Ratio (x) = 0.19161 0.16787
# Poissons Ratio (y) = 0.60605 -0.14264
# Poissons Ratio (z) = 0.21602 -0.05804
#
# Static dielectric constant tensor:
#      x y z
#    x 2.127650 -0.037030 -0.000740 
#    y -0.037030 2.060240 -0.001700 
#    z -0.000740 -0.001700 1.955030 
# 
# From -- ./inp_files/553281.got.cif
#   From: 2010.05.17/outbox.cif.g08.bks.cpg/sg2_277_cif.got.tgz:553281.got - 2010.06.03 11:33:40.
