data_PCOD9069598
_publ_section_title
;
Structure prediction by ZEFSAII (Michael W. Deem and Ramdas Pophale) SiO2 
 PCOD9069598
Probable space group: P -1
;
_chemical_formula_sum "Si O2"
_cell_formula_units_Z 16
_cell_length_a 12.024763
_cell_length_b 9.207723
_cell_length_c 8.319257
_cell_angle_alpha 60.529050
_cell_angle_beta 109.973171
_cell_angle_gamma 123.133194
_cell_volume 668.190735
_symmetry_space_group_name_H-M "P -1"
_symmetry_group_IT_number 2
_symmetry_cell_setting 'triclinic'
loop_
_space_group_symop_operation_xyz
x,y,z
-x,-y,-z
loop_
_atom_site_type_symbol
_atom_site_label
_atom_site_fract_x
_atom_site_fract_y
_atom_site_fract_z
Si Si1 0.583473 0.203303 0.502986
Si Si2 0.031022 0.827798 0.655349
Si Si3 0.355585 0.895314 0.064231
Si Si4 0.223714 0.125728 0.784112
Si Si5 0.193733 0.478885 0.098524
Si Si6 0.954236 0.783215 0.133995
Si Si7 0.129823 0.698074 0.476288
Si Si8 0.615177 0.658829 0.572263
O O1 0.622047 0.185661 0.714250
O O2 0.730767 0.306385 0.443618
O O3 0.474064 0.275895 0.401928
O O4 0.500000 0.000000 0.500000
O O5 0.115014 0.801427 0.569932
O O6 0.912642 0.625166 0.753578
O O7 0.109010 0.915386 0.807935
O O8 0.000000 0.000000 0.500000
O O9 0.258389 0.704962 0.019121
O O10 0.500000 0.000000 0.000000
O O11 0.318514 0.068228 0.966636
O O12 0.156481 0.245203 0.764433
O O13 0.289916 0.205784 0.597562
O O14 0.305505 0.414900 0.234244
O O15 0.119958 0.374714 0.953552
O O16 0.094239 0.794381 0.256589
O O17 0.000000 0.000000 0.000000
O O18 0.000000 0.500000 0.500000
O O19 0.500000 0.500000 0.500000
#
# Coordination Sequence:
#
# PCOD9069598 Si02
#       8
#     2   2   2   2   2   2   2   2
#     4  12  28  46  76 106 150 196 247 310 372 445
#     4  12  23  45  77 104 144 195 240 304 378 440
#     4  12  27  50  68 109 149 198 245 303 374 442
#     4  12  25  45  75 103 150 190 247 304 374 441
#     4  12  26  47  78 111 148 196 251 308 377 443
#     4  12  26  47  72 114 149 189 246 316 371 445
#     4  12  28  47  72 113 148 189 252 307 372 445
#     4  12  25  50  74 103 145 202 253 297 372 457
#
# _framework density 23.945259
#
# number of rings (size 3 to 8) (size 9 to 14) (size 15 to 20)
#    0.000    0.000    6.250    2.250    7.000    0.500 
#    0.000    1.250    0.000    0.000    0.000    0.000 
#    0.000    0.000    0.000    0.000    0.000    0.000 
#
# Total GULP energy -89306.656395 kJ/mol
# GULP energy per Si atom -5581.666025 kJ/mol
# Density = 2.389076 g / cm^3
# Si number density = 23.945259 Si / 1000 Ang^3
#
#
#
# Elastic Constant Matrix: (Units=GPa)
#
#
# Indices 1 2 3 4 5 6 
#
# 1 144.3185 25.3309 27.1393 -6.3250 -4.9283 0.6017
# 2 25.3309 138.2340 7.9617 4.8053 -19.2266 4.1756
# 3 27.1393 7.9617 53.7030 2.0122 7.5225 -7.7141
# 4 -6.3250 4.8053 2.0122 47.0500 0.6377 -3.5001
# 5 -4.9283 -19.2266 7.5225 0.6377 36.0648 -2.6197
# 6 0.6017 4.1756 -7.7141 -3.5001 -2.6197 40.6389
#
#
#
# Elastic Compliance Matrix: (Units=1/GPa)
#
#
# Indices 1 2 3 4 5 6 
#
# 1 0.008015 -0.001066 -0.004216 0.001303 0.001339 -0.000611
# 2 -0.001066 0.008194 -0.001390 -0.001048 0.004466 -0.000892
# 3 -0.004216 -0.001390 0.022365 -0.001007 -0.005674 0.003998
# 4 0.001303 -0.001048 -0.001007 0.021714 -0.000428 0.001740
# 5 0.001339 0.004466 -0.005674 -0.000428 0.031515 0.000439
# 6 -0.000611 -0.000892 0.003998 0.001740 0.000439 0.025645
#
#
# Mechanical properties :
#
#
# Convention : Reuss Voigt Hill
#
# Bulk Modulus (GPa) = 39.63986 50.79104 45.21545
# Shear Modulus (GPa) = 35.91881 43.13897 39.52889
#
# Velocity S-wave (km/s) = 3.87723 4.24909 4.06741
# Velocity P-wave (km/s) = 6.05262 6.73278 6.40174
#
# Compressibility (1/GPa) = 0.02522713
#
# Stress axis : x y z
#
# Youngs Moduli (GPa) = 124.77328 122.03720 44.71344
#
# Poissons Ratio (x) = 0.13015 0.18852
# Poissons Ratio (y) = 0.13306 0.06217
# Poissons Ratio (z) = 0.52607 0.16969
#
# Static dielectric constant tensor:
#      x y z
#    x 2.143940 0.090210 0.027760 
#    y 0.090210 1.898910 -0.070600 
#    z 0.027760 -0.070600 2.037530 
# 
# From -- ./inp_files/242644.got.cif
#   From: 2010.05.17/outbox.cif.g08.bks.cpg/sg2_122_cif.got.tgz:242644.got - 2010.06.03 11:33:40.
