data_PCOD9069286
_publ_section_title
;
Structure prediction by ZEFSAII (Michael W. Deem and Ramdas Pophale) SiO2 
 PCOD9069286
Probable space group: P -1
;
_chemical_formula_sum "Si O2"
_cell_formula_units_Z 16
_cell_length_a 28.003568
_cell_length_b 9.073725
_cell_length_c 27.599786
_cell_angle_alpha 143.464266
_cell_angle_beta 169.760485
_cell_angle_gamma 36.372186
_cell_volume 735.172547
_symmetry_space_group_name_H-M "P -1"
_symmetry_group_IT_number 2
_symmetry_cell_setting 'triclinic'
loop_
_space_group_symop_operation_xyz
x,y,z
-x,-y,-z
loop_
_atom_site_type_symbol
_atom_site_label
_atom_site_fract_x
_atom_site_fract_y
_atom_site_fract_z
Si Si1 0.988350 0.719223 0.171756
Si Si2 0.374397 0.105699 0.528741
Si Si3 0.528230 0.004722 0.238605
Si Si4 0.090457 0.220487 0.998945
Si Si5 0.724462 0.676786 0.260080
Si Si6 0.224858 0.164150 0.285496
Si Si7 0.119884 0.254621 0.675266
Si Si8 0.441473 0.436460 0.775853
O O1 0.839896 0.764102 0.983854
O O2 0.226407 0.887539 0.461082
O O3 0.136280 0.437561 0.247579
O O4 0.741942 0.795208 0.983171
O O5 0.261218 0.202695 0.389506
O O6 0.415450 0.311620 0.664519
O O7 0.158489 0.935291 0.287373
O O8 0.659067 0.925393 0.760376
O O9 0.650065 0.904711 0.282693
O O10 0.445717 0.775575 0.128109
O O11 0.000000 0.500000 0.000000
O O12 0.755838 0.759692 0.258289
O O13 0.000000 0.500000 0.500000
O O14 0.500000 0.500000 0.000000
O O15 0.500000 0.000000 0.500000
O O16 0.000000 0.000000 0.000000
O O17 0.854946 0.458915 0.471945
O O18 0.360409 0.350859 0.971997
O O19 0.000000 0.000000 0.500000
#
# Coordination Sequence:
#
# PCOD9069286 Si02
#       8
#     2   2   2   2   2   2   2   2
#     4  12  24  43  69 104 137 180 237 298 347 422
#     4  12  25  43  70 101 134 190 231 281 371 422
#     4  12  23  42  72 105 138 180 240 301 353 412
#     4  12  23  40  68 103 134 174 238 293 341 425
#     4  12  23  41  70 100 138 189 234 286 360 427
#     4  12  27  49  68  98 147 190 227 289 363 429
#     4  12  26  45  70 105 144 190 239 293 359 436
#     4  12  23  45  73 100 145 182 238 303 357 421
#
# _framework density 21.763597000000001
#
# number of rings (size 3 to 8) (size 9 to 14) (size 15 to 20)
#    0.000    0.000    5.000    6.000    0.000    1.000 
#    0.000    2.500    0.000    0.000    0.000    0.000 
#    0.000    0.000    0.000    0.000    0.000    0.000 
#
# Total GULP energy -89531.205870 kJ/mol
# GULP energy per Si atom -5595.700367 kJ/mol
# Density = 2.171406 g / cm^3
# Si number density = 21.763597 Si / 1000 Ang^3
#
#
#
# Elastic Constant Matrix: (Units=GPa)
#
#
# Indices 1 2 3 4 5 6 
#
# 1 2168.1658 759.4723-3036.6728-5164.3037 219.3927 4357.7290
# 2 759.4723 324.0668-1065.7890-1846.9958 84.4579 1548.4482
# 3 -3036.6728-1065.7890 4665.8832 7657.5404 -316.5500-6459.2454
# 4 -5164.3037-1846.9958 7657.540413012.2056 -557.9320**********
# 5 219.3927 84.4579 -316.5500 -557.9320 57.1522 454.8629
# 6 4357.7290 1548.4482-6459.2454********** 454.8629 9242.3042
#
#
#
# Elastic Compliance Matrix: (Units=1/GPa)
#
#
# Indices 1 2 3 4 5 6 
#
# 1 0.010030 -0.004324 -0.000224 0.000696 0.000020 -0.003339
# 2 -0.004324 0.018957 -0.002173 0.002617 -0.002274 0.000549
# 3 -0.000224 -0.002173 0.007192 -0.002250 -0.001045 0.002888
# 4 0.000696 0.002617 -0.002250 0.012312 0.006558 0.011890
# 5 0.000020 -0.002274 -0.001045 0.006558 0.033171 0.005760
# 6 -0.003339 0.000549 0.002888 0.011890 0.005760 0.017379
#
#
# Mechanical properties :
#
#
# Convention : Reuss Voigt Hill
#
# Bulk Modulus (GPa) = 43.98035 52.45962 48.21998
# Shear Modulus (GPa) = 41.64480 5162.40610 2602.02545
#
# Velocity S-wave (km/s) = 4.37911 48.75640 34.61476
# Velocity P-wave (km/s) = 6.76911 56.51317 40.24649
#
# Compressibility (1/GPa) = 0.02273743
#
# Stress axis : x y z
#
# Youngs Moduli (GPa) = 99.70165 52.75137 139.03450
#
# Poissons Ratio (x) = 0.22809 0.03113
# Poissons Ratio (y) = 0.43109 0.30215
# Poissons Ratio (z) = 0.02232 0.11464
#
# Static dielectric constant tensor:
#      x y z
#    x 1.842930 -0.025760 -0.039700 
#    y -0.025760 1.838870 -0.011580 
#    z -0.039700 -0.011580 1.717020 
# 
# From -- ./inp_files/621187.got.cif
#   From: 2010.05.17/outbox.cif.g08.bks.cpg/sg2_311_cif.got.tgz:621187.got - 2010.06.03 11:33:40.
