data_PCOD9069728
_publ_section_title
;
Structure prediction by ZEFSAII (Michael W. Deem and Ramdas Pophale) SiO2 
 PCOD9069728
Probable space group: P -1
;
_chemical_formula_sum "Si O2"
_cell_formula_units_Z 14
_cell_length_a 14.806672
_cell_length_b 20.856976
_cell_length_c 9.648869
_cell_angle_alpha 27.527143
_cell_angle_beta 47.502424
_cell_angle_gamma 29.419376
_cell_volume 611.770919
_symmetry_space_group_name_H-M "P -1"
_symmetry_group_IT_number 2
_symmetry_cell_setting 'triclinic'
loop_
_space_group_symop_operation_xyz
x,y,z
-x,-y,-z
loop_
_atom_site_type_symbol
_atom_site_label
_atom_site_fract_x
_atom_site_fract_y
_atom_site_fract_z
Si Si1 0.684651 0.770155 0.662516
Si Si2 0.112202 0.139891 0.666612
Si Si3 0.988211 0.679608 0.156969
Si Si4 0.273180 0.515159 0.417824
Si Si5 0.438734 0.988490 0.941623
Si Si6 0.617055 0.327665 0.578584
Si Si7 0.925505 0.287880 0.299768
O O1 0.863546 0.719107 0.599492
O O2 0.500000 0.000000 0.500000
O O3 0.616244 0.844986 0.431144
O O4 0.766480 0.544005 0.037160
O O5 0.900663 0.287450 0.671865
O O6 0.103245 0.117433 0.555986
O O7 0.291606 0.897131 0.022937
O O8 0.161355 0.595955 0.231531
O O9 0.000000 0.500000 0.500000
O O10 0.003788 0.716440 0.912541
O O11 0.766634 0.912430 0.004423
O O12 0.460700 0.447221 0.384914
O O13 0.376639 0.271910 0.804258
O O14 0.500000 0.000000 0.000000
O O15 0.500000 0.500000 0.500000
O O16 0.804521 0.254284 0.479612
#
# Coordination Sequence:
#
# PCOD9069728 Si02
#       7
#     2   2   2   2   2   2   2
#     4  12  24  42  70 111 138 183 248 298 361 421
#     4  12  25  48  76 103 146 188 242 309 361 419
#     4  12  24  47  69 106 151 187 237 298 366 426
#     4  12  23  47  77  98 148 196 239 293 362 430
#     4  12  24  43  72 103 146 188 229 301 361 421
#     4  12  26  49  74 108 147 192 243 298 362 431
#     4  12  26  44  73 109 143 190 243 296 364 432
#
# _framework density 22.884381999999999
#
# number of rings (size 3 to 8) (size 9 to 14) (size 15 to 20)
#    0.000    0.000    7.143    2.571    2.000    0.571 
#    2.571    2.857    0.000    0.000    0.000    0.000 
#    0.000    0.000    0.000    0.000    0.000    0.000 
#
# Total GULP energy -78351.095537 kJ/mol
# GULP energy per Si atom -5596.506824 kJ/mol
# Density = 2.283230 g / cm^3
# Si number density = 22.884382 Si / 1000 Ang^3
#
#
#
# Elastic Constant Matrix: (Units=GPa)
#
#
# Indices 1 2 3 4 5 6 
#
# 1 149.3403 5.7154 40.3820 17.8108 40.9417 -6.0969
# 2 5.7154 72.6526 33.8137 -0.8991 18.8635 14.3920
# 3 40.3820 33.8137 63.5599 6.5953 19.0885 2.8615
# 4 17.8108 -0.8991 6.5953 41.3352 5.0094 4.5262
# 5 40.9417 18.8635 19.0885 5.0094 43.6753 1.6762
# 6 -6.0969 14.3920 2.8615 4.5262 1.6762 32.0769
#
#
#
# Elastic Compliance Matrix: (Units=1/GPa)
#
#
# Indices 1 2 3 4 5 6 
#
# 1 0.011172 0.004058 -0.006273 -0.002797 -0.009230 0.001739
# 2 0.004058 0.022987 -0.012184 0.002630 -0.008387 -0.008388
# 3 -0.006273 -0.012184 0.026380 -0.001984 -0.000244 0.002214
# 4 -0.002797 0.002630 -0.001984 0.026402 -0.000475 -0.005235
# 5 -0.009230 -0.008387 -0.000244 -0.000475 0.035322 0.000252
# 6 0.001739 -0.008388 0.002214 -0.005235 0.000252 0.035798
#
#
# Mechanical properties :
#
#
# Convention : Reuss Voigt Hill
#
# Bulk Modulus (GPa) = 31.50458 49.48612 40.49535
# Shear Modulus (GPa) = 25.32428 37.12692 31.22560
#
# Velocity S-wave (km/s) = 3.33020 4.03223 3.69791
# Velocity P-wave (km/s) = 5.34637 6.58406 5.99723
#
# Compressibility (1/GPa) = 0.03174141
#
# Stress axis : x y z
#
# Youngs Moduli (GPa) = 89.51046 43.50228 37.90757
#
# Poissons Ratio (x) = -0.17653 0.23779
# Poissons Ratio (y) = -0.36322 0.46186
# Poissons Ratio (z) = 0.56150 0.53002
#
# Static dielectric constant tensor:
#      x y z
#    x 1.906010 -0.027250 -0.004970 
#    y -0.027250 1.892530 -0.013950 
#    z -0.004970 -0.013950 1.816210 
# 
# From -- ./inp_files/72128.got.cif
#   From: 2010.05.17/outbox.cif.g08.bks.cpg/sg2_37_cif.got.tgz:72128.got - 2010.06.03 11:33:40.
