data_PCOD9069713
_publ_section_title
;
Structure prediction by ZEFSAII (Michael W. Deem and Ramdas Pophale) SiO2 
 PCOD9069713
Probable space group: P -1
;
_chemical_formula_sum "Si O2"
_cell_formula_units_Z 13
_cell_length_a 13.818103
_cell_length_b 6.528673
_cell_length_c 9.057007
_cell_angle_alpha 48.605762
_cell_angle_beta 116.055885
_cell_angle_gamma 100.307926
_cell_volume 543.060001
_symmetry_space_group_name_H-M "P -1"
_symmetry_group_IT_number 2
_symmetry_cell_setting 'triclinic'
loop_
_space_group_symop_operation_xyz
x,y,z
-x,-y,-z
loop_
_atom_site_type_symbol
_atom_site_label
_atom_site_fract_x
_atom_site_fract_y
_atom_site_fract_z
Si Si1 0.762098 0.659853 0.996318
Si Si2 0.185760 0.369557 0.633192
Si Si3 0.500000 0.500000 0.500000
Si Si4 0.327990 0.115215 0.603724
Si Si5 0.064811 0.861829 0.750933
Si Si6 0.441021 0.565009 0.088316
Si Si7 0.144773 0.982512 0.312697
O O1 0.744620 0.639347 0.167703
O O2 0.850529 0.404854 0.115591
O O3 0.647056 0.639758 0.858560
O O4 0.808592 0.932386 0.851127
O O5 0.252462 0.347894 0.537824
O O6 0.116237 0.675197 0.442470
O O7 0.127690 0.103487 0.732329
O O8 0.428019 0.250014 0.546541
O O9 0.502951 0.553839 0.290960
O O10 0.243347 0.013015 0.478813
O O11 0.371568 0.869074 0.864301
O O12 0.967505 0.820105 0.815111
O O13 0.000000 0.000000 0.500000
O O14 0.500000 0.500000 0.000000
#
# Coordination Sequence:
#
# PCOD9069713 Si02
#       7
#     2   2   1   2   2   2   2
#     4  12  26  47  73 110 151 191 251 312 367 459
#     4  12  24  45  76 103 151 198 240 307 376 447
#     4  12  28  46  82 104 148 204 248 322 386 436
#     4  12  26  50  73 109 150 194 251 310 380 452
#     4  12  23  47  75 105 154 196 242 304 377 449
#     4  12  26  51  76 110 148 199 257 314 384 450
#     4  12  26  45  75 109 151 195 245 304 371 453
#
# _framework density 23.938424000000001
#
# number of rings (size 3 to 8) (size 9 to 14) (size 15 to 20)
#    0.000    0.000    7.692    2.308    0.000    4.923 
#    0.000    0.000    0.000    0.000    0.000    0.000 
#    0.000    0.000    0.000    0.000    0.000    0.000 
#
# Total GULP energy -72391.885143 kJ/mol
# GULP energy per Si atom -5568.606549 kJ/mol
# Density = 2.388394 g / cm^3
# Si number density = 23.938424 Si / 1000 Ang^3
#
#
#
# Elastic Constant Matrix: (Units=GPa)
#
#
# Indices 1 2 3 4 5 6 
#
# 1 54.9871 7.3595 21.4907 -1.6758 -13.3424 13.3649
# 2 7.3595 98.7371 36.7850 0.7353 6.6092 3.7429
# 3 21.4907 36.7850 53.9949 10.9941 -8.8858 -10.3610
# 4 -1.6758 0.7353 10.9941 24.6881 8.4544 -10.0153
# 5 -13.3424 6.6092 -8.8858 8.4544 31.2266 -2.1665
# 6 13.3649 3.7429 -10.3610 -10.0153 -2.1665 44.7336
#
#
#
# Elastic Compliance Matrix: (Units=1/GPa)
#
#
# Indices 1 2 3 4 5 6 
#
# 1 0.027840 0.003701 -0.015348 0.002131 0.005374 -0.011445
# 2 0.003701 0.017185 -0.017578 0.008854 -0.009810 -0.005108
# 3 -0.015348 -0.017578 0.046316 -0.021853 0.017141 0.012721
# 4 0.002131 0.008854 -0.021853 0.060467 -0.023138 0.005978
# 5 0.005374 -0.009810 0.017141 -0.023138 0.047560 0.000309
# 6 -0.011445 -0.005108 0.012721 0.005978 0.000309 0.030501
#
#
# Mechanical properties :
#
#
# Convention : Reuss Voigt Hill
#
# Bulk Modulus (GPa) = 30.40333 37.66548 34.03441
# Shear Modulus (GPa) = 16.70673 29.60194 23.15433
#
# Velocity S-wave (km/s) = 2.64465 3.52033 3.11343
# Velocity P-wave (km/s) = 4.69615 5.68261 5.21277
#
# Compressibility (1/GPa) = 0.03289113
#
# Stress axis : x y z
#
# Youngs Moduli (GPa) = 35.92018 58.18984 21.59094
#
# Poissons Ratio (x) = -0.21536 0.33137
# Poissons Ratio (y) = -0.13294 0.37953
# Poissons Ratio (z) = 0.55129 1.02286
#
# Static dielectric constant tensor:
#      x y z
#    x 2.145240 -0.045380 -0.005520 
#    y -0.045380 2.007810 0.018760 
#    z -0.005520 0.018760 1.938170 
# 
# From -- ./inp_files/35677.got.cif
#   From: 2010.05.17/outbox.cif.g08.bks.cpg/sg2_18_cif.got.tgz:35677.got - 2010.06.03 11:33:40.
