data_PCOD9069117
_publ_section_title
;
Structure prediction by ZEFSAII (Michael W. Deem and Ramdas Pophale) SiO2 
 PCOD9069117
Probable space group: P -1
;
_chemical_formula_sum "Si O2"
_cell_formula_units_Z 16
_cell_length_a 16.750989
_cell_length_b 23.653361
_cell_length_c 23.426997
_cell_angle_alpha 167.934383
_cell_angle_beta 158.819230
_cell_angle_gamma 21.153564
_cell_volume 674.011123
_symmetry_space_group_name_H-M "P -1"
_symmetry_group_IT_number 2
_symmetry_cell_setting 'triclinic'
loop_
_space_group_symop_operation_xyz
x,y,z
-x,-y,-z
loop_
_atom_site_type_symbol
_atom_site_label
_atom_site_fract_x
_atom_site_fract_y
_atom_site_fract_z
Si Si1 0.871858 0.152027 0.231345
Si Si2 0.872887 0.283255 0.227489
Si Si3 0.686646 0.232037 0.384895
Si Si4 0.425160 0.374396 0.947182
Si Si5 0.422807 0.273379 0.365203
Si Si6 0.971307 0.656845 0.985405
Si Si7 0.877251 0.281015 0.728353
Si Si8 0.370717 0.891322 0.356640
O O1 0.899485 0.245597 0.276584
O O2 0.772156 0.431959 0.479425
O O3 0.107882 0.971866 0.239278
O O4 0.692925 0.963785 0.926213
O O5 0.608212 0.352430 0.098189
O O6 0.000000 0.500000 0.500000
O O7 0.000000 0.000000 0.000000
O O8 0.500000 0.500000 0.500000
O O9 0.574688 0.173221 0.311245
O O10 0.772228 0.942971 0.120903
O O11 0.890627 0.381250 0.674463
O O12 0.172817 0.561875 0.981271
O O13 0.484195 0.564615 0.123840
O O14 0.404431 0.076040 0.616454
O O15 0.606464 0.344352 0.600639
O O16 0.071526 0.746164 0.198082
O O17 0.000000 0.000000 0.500000
O O18 0.000000 0.500000 0.000000
O O19 0.500000 0.000000 0.500000
#
# Coordination Sequence:
#
# PCOD9069117 Si02
#       8
#     2   2   2   2   2   2   2   2
#     4  12  27  45  75 108 144 185 243 303 352 437
#     4  12  26  50  78 108 146 189 236 300 380 440
#     4  12  27  44  69  96 146 197 235 286 352 422
#     4  12  27  46  77 108 146 188 241 303 357 437
#     4  12  25  44  71 104 141 186 240 293 355 415
#     4  12  25  46  68 104 139 188 241 292 350 420
#     4  12  22  43  67  96 134 186 238 287 349 410
#     4  12  27  50  75 107 144 188 238 297 375 444
#
# _framework density 23.738479999999999
#
# number of rings (size 3 to 8) (size 9 to 14) (size 15 to 20)
#    0.000    0.000    2.500    7.500    5.250    2.000 
#    0.000    0.000    0.000    0.000    0.000    0.000 
#    0.000    0.000    0.000    0.000    0.000    0.000 
#
# Total GULP energy -89613.745778 kJ/mol
# GULP energy per Si atom -5600.859111 kJ/mol
# Density = 2.368445 g / cm^3
# Si number density = 23.738480 Si / 1000 Ang^3
#
#
#
# Elastic Constant Matrix: (Units=GPa)
#
#
# Indices 1 2 3 4 5 6 
#
# 1 53.8828 2.6804 13.2246 -14.6629 10.9215 -1.2660
# 2 2.6804 89.6489 19.7958 -7.8251 2.8137 7.8148
# 3 13.2246 19.7958 161.5913 1.1593 17.0085 -4.8628
# 4 -14.6629 -7.8251 1.1593 46.2687 -3.6642 -9.9830
# 5 10.9215 2.8137 17.0085 -3.6642 37.6046 2.3467
# 6 -1.2660 7.8148 -4.8628 -9.9830 2.3467 43.6255
#
#
#
# Elastic Compliance Matrix: (Units=1/GPa)
#
#
# Indices 1 2 3 4 5 6 
#
# 1 0.021911 0.000198 -0.001242 0.007102 -0.005272 0.002371
# 2 0.000198 0.011799 -0.001535 0.001691 0.000037 -0.001894
# 3 -0.001242 -0.001535 0.006801 -0.000835 -0.002742 0.000953
# 4 0.007102 0.001691 -0.000835 0.025405 0.000314 0.005607
# 5 -0.005272 0.000037 -0.002742 0.000314 0.029515 -0.001981
# 6 0.002371 -0.001894 0.000953 0.005607 -0.001981 0.024826
#
#
# Mechanical properties :
#
#
# Convention : Reuss Voigt Hill
#
# Bulk Modulus (GPa) = 28.28558 41.83606 35.06082
# Shear Modulus (GPa) = 36.44306 43.46123 39.95214
#
# Velocity S-wave (km/s) = 3.92240 4.28347 4.10690
# Velocity P-wave (km/s) = 5.69693 6.49046 6.10660
#
# Compressibility (1/GPa) = 0.03535371
#
# Stress axis : x y z
#
# Youngs Moduli (GPa) = 45.63941 84.75202 147.02959
#
# Poissons Ratio (x) = -0.01677 0.18262
# Poissons Ratio (y) = -0.00903 0.22564
# Poissons Ratio (z) = 0.05669 0.13006
#
# Static dielectric constant tensor:
#      x y z
#    x 1.897370 0.038010 0.010490 
#    y 0.038010 1.658430 0.498300 
#    z 0.010490 0.498300 1.273030 
# 
# From -- ./inp_files/620547.got.cif
#   From: 2010.05.17/outbox.cif.g08.bks.cpg/sg2_311_cif.got.tgz:620547.got - 2010.06.03 11:33:40.
