data_PCOD9069415
_publ_section_title
;
Structure prediction by ZEFSAII (Michael W. Deem and Ramdas Pophale) SiO2 
 PCOD9069415
Probable space group: P -1
;
_chemical_formula_sum "Si O2"
_cell_formula_units_Z 12
_cell_length_a 25.663506
_cell_length_b 10.321368
_cell_length_c 28.231123
_cell_angle_alpha 28.731600
_cell_angle_beta 9.214585
_cell_angle_gamma 28.887037
_cell_volume 570.741220
_symmetry_space_group_name_H-M "P -1"
_symmetry_group_IT_number 2
_symmetry_cell_setting 'triclinic'
loop_
_space_group_symop_operation_xyz
x,y,z
-x,-y,-z
loop_
_atom_site_type_symbol
_atom_site_label
_atom_site_fract_x
_atom_site_fract_y
_atom_site_fract_z
Si Si1 0.227491 0.818142 0.317569
Si Si2 0.117716 0.476755 0.847952
Si Si3 0.507489 0.423548 0.270456
Si Si4 0.139283 0.075720 0.776467
Si Si5 0.886677 0.786584 0.533886
Si Si6 0.745054 0.872363 0.978664
O O1 0.393234 0.553950 0.281088
O O2 0.033276 0.765514 0.461736
O O3 0.000000 0.000000 0.500000
O O4 0.500000 0.000000 0.000000
O O5 0.500000 0.500000 0.500000
O O6 0.949128 0.707436 0.889791
O O7 0.000000 0.500000 0.000000
O O8 0.020974 0.192294 0.006507
O O9 0.235390 0.244452 0.590609
O O10 0.537270 0.662547 0.205169
O O11 0.870424 0.257159 0.991801
O O12 0.500000 0.000000 0.500000
O O13 0.000000 0.500000 0.500000
O O14 0.034730 0.009976 0.296893
O O15 0.502131 0.885524 0.854039
#
# Coordination Sequence:
#
# PCOD9069415 Si02
#       6
#     2   2   2   2   2   2
#     4  12  23  43  69 105 139 183 242 293 353 424
#     4  12  28  47  71 105 150 188 235 298 366 433
#     4  12  24  42  76 105 141 186 243 295 353 421
#     4  12  26  44  73 107 137 185 246 294 343 427
#     4  12  26  45  72 106 143 186 238 298 360 439
#     4  12  25  46  75  99 142 194 236 290 374 422
#
# _framework density 21.025289000000001
#
# number of rings (size 3 to 8) (size 9 to 14) (size 15 to 20)
#    0.000    0.000    5.000    5.000    2.333    4.000 
#    0.000    0.000    0.000    0.000    0.000    0.000 
#    0.000    0.000    0.000    0.000    0.000    0.000 
#
# Total GULP energy -67184.156576 kJ/mol
# GULP energy per Si atom -5598.679715 kJ/mol
# Density = 2.097743 g / cm^3
# Si number density = 21.025289 Si / 1000 Ang^3
#
#
#
# Elastic Constant Matrix: (Units=GPa)
#
#
# Indices 1 2 3 4 5 6 
#
# 1 158.7587 50.2810 41.9022 4.1073 -3.3217 -14.6589
# 2 50.2810 90.5055 27.1738 7.3792 -2.9959 5.6587
# 3 41.9022 27.1738 118.2903 4.4778 13.8656 1.4270
# 4 4.1073 7.3792 4.4778 38.1458 3.2218 8.0458
# 5 -3.3217 -2.9959 13.8656 3.2218 43.6633 5.6207
# 6 -14.6589 5.6587 1.4270 8.0458 5.6207 46.4387
#
#
#
# Elastic Compliance Matrix: (Units=1/GPa)
#
#
# Indices 1 2 3 4 5 6 
#
# 1 0.008542 -0.004236 -0.002147 -0.000600 0.000660 0.003303
# 2 -0.004236 0.014351 -0.001906 -0.001621 0.001768 -0.002961
# 3 -0.002147 -0.001906 0.010067 -0.000229 -0.003436 -0.000299
# 4 -0.000600 -0.001621 -0.000229 0.027721 -0.001537 -0.004602
# 5 0.000660 0.001768 -0.003436 -0.001537 0.024615 -0.002614
# 6 0.003303 -0.002961 -0.000299 -0.004602 -0.002614 0.024060
#
#
# Mechanical properties :
#
#
# Convention : Reuss Voigt Hill
#
# Bulk Modulus (GPa) = 61.04893 67.36319 64.20606
# Shear Modulus (GPa) = 38.05336 42.19607 40.12471
#
# Velocity S-wave (km/s) = 4.25889 4.48473 4.37327
# Velocity P-wave (km/s) = 7.29953 7.67631 7.49029
#
# Compressibility (1/GPa) = 0.01638030
#
# Stress axis : x y z
#
# Youngs Moduli (GPa) = 117.07492 69.68281 99.33269
#
# Poissons Ratio (x) = 0.29520 0.21327
# Poissons Ratio (y) = 0.49597 0.18935
# Poissons Ratio (z) = 0.25136 0.13283
#
# Static dielectric constant tensor:
#      x y z
#    x 1.700370 -0.032640 -0.005580 
#    y -0.032640 1.772400 0.008080 
#    z -0.005580 0.008080 1.711410 
# 
# From -- ./inp_files/35803.got.cif
#   From: 2010.05.17/outbox.cif.g08.bks.cpg/sg2_18_cif.got.tgz:35803.got - 2010.06.03 11:33:40.
