data_PCOD9069310
_publ_section_title
;
Structure prediction by ZEFSAII (Michael W. Deem and Ramdas Pophale) SiO2 
 PCOD9069310
Probable space group: P -1
;
_chemical_formula_sum "Si O2"
_cell_formula_units_Z 14
_cell_length_a 11.591181
_cell_length_b 12.326231
_cell_length_c 20.743025
_cell_angle_alpha 157.248148
_cell_angle_beta 39.358624
_cell_angle_gamma 128.080434
_cell_volume 668.545153
_symmetry_space_group_name_H-M "P -1"
_symmetry_group_IT_number 2
_symmetry_cell_setting 'triclinic'
loop_
_space_group_symop_operation_xyz
x,y,z
-x,-y,-z
loop_
_atom_site_type_symbol
_atom_site_label
_atom_site_fract_x
_atom_site_fract_y
_atom_site_fract_z
Si Si1 0.137625 0.652140 0.388360
Si Si2 0.899103 0.324472 0.853955
Si Si3 0.298693 0.466783 0.081947
Si Si4 0.529066 0.650418 0.284591
Si Si5 0.565558 0.231543 0.377725
Si Si6 0.254597 0.498597 0.766683
Si Si7 0.994727 0.104749 0.135428
O O1 0.196998 0.664215 0.295210
O O2 0.329785 0.621638 0.329984
O O3 0.072756 0.368345 0.260560
O O4 0.959085 0.972938 0.654179
O O5 0.839140 0.414231 0.855045
O O6 0.099384 0.385220 0.806815
O O7 0.707078 0.519599 0.084765
O O8 0.500000 0.500000 0.000000
O O9 0.363400 0.105638 0.867966
O O10 0.602835 0.479198 0.226507
O O11 0.500000 0.000000 0.500000
O O12 0.500000 0.500000 0.500000
O O13 0.393100 0.283990 0.533138
O O14 0.765255 0.225475 0.320806
O O15 0.126549 0.811408 0.958185
O O16 0.000000 0.000000 0.000000
#
# Coordination Sequence:
#
# PCOD9069310 Si02
#       7
#     2   2   2   2   2   2   2
#     4  12  26  44  70 107 142 181 234 289 348 419
#     4  12  25  45  75 103 141 183 233 295 351 408
#     4  12  23  41  69 107 138 174 232 293 353 405
#     4  12  27  48  72 103 143 184 240 289 341 418
#     4  12  25  43  70 101 143 180 226 292 348 411
#     4  12  25  45  75 100 138 194 232 280 356 413
#     4  12  25  47  69 104 144 182 230 287 355 419
#
# _framework density 20.940994
#
# number of rings (size 3 to 8) (size 9 to 14) (size 15 to 20)
#    0.000    0.000    7.143    2.571    2.000    1.714 
#    0.000    1.429    0.000    0.000    0.000    0.000 
#    0.000    0.000    0.000    0.000    0.000    0.000 
#
# Total GULP energy -78276.156221 kJ/mol
# GULP energy per Si atom -5591.154016 kJ/mol
# Density = 2.089333 g / cm^3
# Si number density = 20.940994 Si / 1000 Ang^3
#
#
#
# Elastic Constant Matrix: (Units=GPa)
#
#
# Indices 1 2 3 4 5 6 
#
# 1 132.5058 12.2360 58.4306 22.8011 -13.1132 -0.4474
# 2 12.2360 55.4362 36.7270 16.7420 -0.7643 24.4555
# 3 58.4306 36.7270 122.8079 6.7220 -15.7578 18.4544
# 4 22.8011 16.7420 6.7220 35.1562 3.7248 -1.4750
# 5 -13.1132 -0.7643 -15.7578 3.7248 30.1723 8.4751
# 6 -0.4474 24.4555 18.4544 -1.4750 8.4751 46.5921
#
#
#
# Elastic Compliance Matrix: (Units=1/GPa)
#
#
# Indices 1 2 3 4 5 6 
#
# 1 0.011537 0.004320 -0.005737 -0.008841 0.003441 -0.000790
# 2 0.004320 0.036502 -0.008540 -0.019884 0.005684 -0.017399
# 3 -0.005737 -0.008540 0.014038 0.004543 0.004572 -0.001821
# 4 -0.008841 -0.019884 0.004543 0.044424 -0.010807 0.011925
# 5 0.003441 0.005684 0.004572 -0.010807 0.042089 -0.012760
# 6 -0.000790 -0.017399 -0.001821 0.011925 -0.012760 0.034007
#
#
# Mechanical properties :
#
#
# Convention : Reuss Voigt Hill
#
# Bulk Modulus (GPa) = 23.71691 58.39304 41.05497
# Shear Modulus (GPa) = 23.08792 35.94120 29.51456
#
# Velocity S-wave (km/s) = 3.32403 4.14733 3.75829
# Velocity P-wave (km/s) = 5.10709 7.13294 6.20328
#
# Compressibility (1/GPa) = 0.04216401
#
# Stress axis : x y z
#
# Youngs Moduli (GPa) = 86.67923 27.39609 71.23553
#
# Poissons Ratio (x) = -0.11836 0.40868
# Poissons Ratio (y) = -0.37449 0.60832
# Poissons Ratio (z) = 0.49728 0.23395
#
# Static dielectric constant tensor:
#      x y z
#    x 1.773680 0.034740 -0.013980 
#    y 0.034740 1.774220 -0.000800 
#    z -0.013980 -0.000800 1.763800 
# 
# From -- ./inp_files/101284.got.cif
#   From: 2010.05.17/outbox.cif.g08.bks.cpg/sg2_51_cif.got.tgz:101284.got - 2010.06.03 11:33:40.
