data_PCOD9069536
_publ_section_title
;
Structure prediction by ZEFSAII (Michael W. Deem and Ramdas Pophale) SiO2 
 PCOD9069536
Probable space group: P -1
;
_chemical_formula_sum "Si O2"
_cell_formula_units_Z 16
_cell_length_a 18.277275
_cell_length_b 12.734060
_cell_length_c 14.977789
_cell_angle_alpha 131.526686
_cell_angle_beta 29.218203
_cell_angle_gamma 151.263886
_cell_volume 736.273029
_symmetry_space_group_name_H-M "P -1"
_symmetry_group_IT_number 2
_symmetry_cell_setting 'triclinic'
loop_
_space_group_symop_operation_xyz
x,y,z
-x,-y,-z
loop_
_atom_site_type_symbol
_atom_site_label
_atom_site_fract_x
_atom_site_fract_y
_atom_site_fract_z
Si Si1 0.941559 0.854151 0.063667
Si Si2 0.467495 0.135934 0.745037
Si Si3 0.282606 0.698363 0.768612
Si Si4 0.315348 0.623449 0.003120
Si Si5 0.863981 0.488124 0.373338
Si Si6 0.162507 0.485047 0.293078
Si Si7 0.100512 0.957342 0.434491
Si Si8 0.781161 0.938015 0.432425
O O1 0.800038 0.829199 0.279424
O O2 0.777486 0.595761 0.061010
O O3 0.000000 0.000000 0.000000
O O4 0.213663 0.007707 0.899493
O O5 0.672143 0.264324 0.520202
O O6 0.604317 0.341997 0.786872
O O7 0.393919 0.936433 0.760438
O O8 0.255275 0.597901 0.646511
O O9 0.490018 0.776992 0.653170
O O10 0.000000 0.500000 0.000000
O O11 0.270261 0.583784 0.134842
O O12 0.128154 0.600966 0.151731
O O13 0.613846 0.873363 0.803816
O O14 0.918120 0.682450 0.464833
O O15 0.000000 0.500000 0.500000
O O16 0.972004 0.207646 0.347355
O O17 0.124395 0.028155 0.550361
O O18 0.000000 0.000000 0.500000
#
# Coordination Sequence:
#
# PCOD9069536 Si02
#       8
#     2   2   2   2   2   2   2   2
#     4  12  28  46  75 112 153 193 239 308 365 444
#     4  12  26  46  76 108 144 193 249 294 368 433
#     4  12  27  45  77 112 144 190 248 305 364 432
#     4  12  26  48  75 108 148 193 249 301 369 431
#     4  12  25  49  76 104 145 192 249 305 357 445
#     4  12  23  44  78 109 139 189 249 310 351 433
#     4  12  31  49  72 107 151 197 241 308 378 437
#     4  12  26  50  73 105 151 194 245 299 375 436
#
# _framework density 21.731069999999999
#
# number of rings (size 3 to 8) (size 9 to 14) (size 15 to 20)
#    0.000    0.000    6.250    2.250    7.000    1.000 
#    0.000    0.000    0.000    0.000    0.000    0.000 
#    0.000    0.000    0.000    0.000    0.000    0.000 
#
# Total GULP energy -89686.479764 kJ/mol
# GULP energy per Si atom -5605.404985 kJ/mol
# Density = 2.168161 g / cm^3
# Si number density = 21.731070 Si / 1000 Ang^3
#
#
#
# Elastic Constant Matrix: (Units=GPa)
#
#
# Indices 1 2 3 4 5 6 
#
# 1 99.2888 19.6791 -1.1838 13.6575 4.9247 9.1485
# 2 19.6791 95.2402 18.4489 9.0525 8.6137 10.1579
# 3 -1.1838 18.4489 66.9833 2.6766 8.1768 -2.3333
# 4 13.6575 9.0525 2.6766 37.8407 5.6328 1.3469
# 5 4.9247 8.6137 8.1768 5.6328 45.4137 6.3328
# 6 9.1485 10.1579 -2.3333 1.3469 6.3328 37.8970
#
#
#
# Elastic Compliance Matrix: (Units=1/GPa)
#
#
# Indices 1 2 3 4 5 6 
#
# 1 0.011134 -0.001892 0.000825 -0.003512 -0.000289 -0.001957
# 2 -0.001892 0.012066 -0.003275 -0.001741 -0.000892 -0.002768
# 3 0.000825 -0.003275 0.016257 -0.000346 -0.002650 0.002135
# 4 -0.003512 -0.001741 -0.000346 0.028535 -0.002872 0.000759
# 5 -0.000289 -0.000892 -0.002650 -0.002872 0.023568 -0.003691
# 6 -0.001957 -0.002768 0.002135 0.000759 -0.003691 0.028323
#
#
# Mechanical properties :
#
#
# Convention : Reuss Voigt Hill
#
# Bulk Modulus (GPa) = 32.49391 37.26677 34.88034
# Shear Modulus (GPa) = 36.01638 39.20149 37.60894
#
# Velocity S-wave (km/s) = 4.07550 4.25189 4.16462
# Velocity P-wave (km/s) = 6.09356 6.42581 6.26189
#
# Compressibility (1/GPa) = 0.03077499
#
# Stress axis : x y z
#
# Youngs Moduli (GPa) = 89.81415 82.87460 61.51066
#
# Poissons Ratio (x) = 0.15679 -0.05076
# Poissons Ratio (y) = 0.16991 0.20144
# Poissons Ratio (z) = -0.07412 0.27140
#
# Static dielectric constant tensor:
#      x y z
#    x 1.774160 0.014110 -0.000130 
#    y 0.014110 1.765850 -0.004510 
#    z -0.000130 -0.004510 1.772710 
# 
# From -- ./inp_files/184347.got.cif
#   From: 2010.05.17/outbox.cif.g08.bks.cpg/sg2_93_cif.got.tgz:184347.got - 2010.06.03 11:33:40.
