data_PCOD9069991
_publ_section_title
;
Structure prediction by ZEFSAII (Michael W. Deem and Ramdas Pophale) SiO2 
 PCOD9069991
Probable space group: P -1
;
_chemical_formula_sum "Si O2"
_cell_formula_units_Z 11
_cell_length_a 9.741747
_cell_length_b 9.347289
_cell_length_c 9.314554
_cell_angle_alpha 45.389226
_cell_angle_beta 84.645883
_cell_angle_gamma 111.453703
_cell_volume 477.075902
_symmetry_space_group_name_H-M "P -1"
_symmetry_group_IT_number 2
_symmetry_cell_setting 'triclinic'
loop_
_space_group_symop_operation_xyz
x,y,z
-x,-y,-z
loop_
_atom_site_type_symbol
_atom_site_label
_atom_site_fract_x
_atom_site_fract_y
_atom_site_fract_z
Si Si1 0.875314 0.527142 0.588373
Si Si2 0.764035 0.192095 0.093910
Si Si3 0.595355 0.532689 0.114495
Si Si4 0.490189 0.285489 0.738634
Si Si5 0.993835 0.932826 0.715474
Si Si6 0.500000 0.000000 0.500000
O O1 0.678720 0.350088 0.673564
O O2 0.000000 0.500000 0.500000
O O3 0.872947 0.447252 0.809549
O O4 0.937968 0.812397 0.383960
O O5 0.630869 0.169389 0.235006
O O6 0.885478 0.148552 0.201220
O O7 0.656552 0.977783 0.134208
O O8 0.554424 0.680819 0.121209
O O9 0.520954 0.255284 0.376115
O O10 0.500000 0.500000 0.000000
O O11 0.800427 0.712269 0.940829
O O12 0.500000 0.500000 0.500000
O O13 0.000000 0.000000 0.500000
#
# Coordination Sequence:
#
# PCOD9069991 Si02
#       6
#     2   2   2   2   2   1
#     4  12  28  47  75 110 146 192 252 301 367 441
#     4  12  27  46  77 108 149 196 247 305 368 439
#     4  12  27  47  74 102 148 193 242 304 368 435
#     4  12  24  50  75 105 151 192 240 304 368 432
#     4  12  27  48  70 109 152 191 240 311 371 432
#     4  12  24  44  72 104 136 188 250 286 364 434
#
# _framework density 23.057126
#
# number of rings (size 3 to 8) (size 9 to 14) (size 15 to 20)
#    0.000    0.000    3.636    6.000    2.545    8.727 
#    0.000    0.000    0.000    0.000    0.000    0.000 
#    0.000    0.000    0.000    0.000    0.000    0.000 
#
# Total GULP energy -61427.933077 kJ/mol
# GULP energy per Si atom -5584.357552 kJ/mol
# Density = 2.300465 g / cm^3
# Si number density = 23.057126 Si / 1000 Ang^3
#
#
#
# Elastic Constant Matrix: (Units=GPa)
#
#
# Indices 1 2 3 4 5 6 
#
# 1 124.9062 32.9417 38.3192 16.2688 -1.3629 12.2317
# 2 32.9417 87.1823 5.5990 10.2247 -15.7931 0.6452
# 3 38.3192 5.5990 117.6021 4.9362 0.3581 -0.4325
# 4 16.2688 10.2247 4.9362 56.2970 -12.2220 -6.2394
# 5 -1.3629 -15.7931 0.3581 -12.2220 45.2312 5.6717
# 6 12.2317 0.6452 -0.4325 -6.2394 5.6717 42.0134
#
#
#
# Elastic Compliance Matrix: (Units=1/GPa)
#
#
# Indices 1 2 3 4 5 6 
#
# 1 0.010625 -0.003693 -0.003178 -0.002765 -0.001276 -0.003308
# 2 -0.003693 0.013702 0.000558 -0.000468 0.004518 0.000191
# 3 -0.003178 0.000558 0.009513 0.000080 -0.000085 0.001038
# 4 -0.002765 -0.000468 0.000080 0.020024 0.004769 0.003143
# 5 -0.001276 0.004518 -0.000085 0.004769 0.025238 -0.002397
# 6 -0.003308 0.000191 0.001038 0.003143 -0.002397 0.025563
#
#
# Mechanical properties :
#
#
# Convention : Reuss Voigt Hill
#
# Bulk Modulus (GPa) = 47.14287 53.71226 50.42757
# Shear Modulus (GPa) = 40.20485 45.56369 42.88427
#
# Velocity S-wave (km/s) = 4.18030 4.45018 4.31735
# Velocity P-wave (km/s) = 6.61743 7.05346 6.83892
#
# Compressibility (1/GPa) = 0.02121211
#
# Stress axis : x y z
#
# Youngs Moduli (GPa) = 94.11601 72.98327 105.11819
#
# Poissons Ratio (x) = 0.26953 0.33412
# Poissons Ratio (y) = 0.34758 -0.05861
# Poissons Ratio (z) = 0.29915 -0.04070
#
# Static dielectric constant tensor:
#      x y z
#    x 1.854610 -0.019050 0.020090 
#    y -0.019050 1.895700 -0.026320 
#    z 0.020090 -0.026320 1.862220 
# 
# From -- ./inp_files/152653.got.cif
#   From: 2010.05.17/outbox.cif.g08.bks.cpg/sg2_77_cif.got.tgz:152653.got - 2010.06.03 11:33:40.
