data_PCOD9069349
_publ_section_title
;
Structure prediction by ZEFSAII (Michael W. Deem and Ramdas Pophale) SiO2 
 PCOD9069349
Probable space group: P -1
;
_chemical_formula_sum "Si O2"
_cell_formula_units_Z 14
_cell_length_a 29.025239
_cell_length_b 15.065697
_cell_length_c 15.065707
_cell_angle_alpha 159.751192
_cell_angle_beta 161.029782
_cell_angle_gamma 18.970228
_cell_volume 633.351268
_symmetry_space_group_name_H-M "P -1"
_symmetry_group_IT_number 2
_symmetry_cell_setting 'triclinic'
loop_
_space_group_symop_operation_xyz
x,y,z
-x,-y,-z
loop_
_atom_site_type_symbol
_atom_site_label
_atom_site_fract_x
_atom_site_fract_y
_atom_site_fract_z
Si Si1 0.060860 0.069409 0.430588
Si Si2 0.847104 0.754402 0.745597
Si Si3 0.560543 0.302110 0.197880
Si Si4 0.802199 0.693724 0.806275
Si Si5 0.905055 0.855472 0.644529
Si Si6 0.390271 0.647817 0.852184
Si Si7 0.610565 0.064770 0.435240
O O1 0.242505 0.877643 0.622358
O O2 0.092958 0.092758 0.407240
O O3 0.959537 0.401207 0.597691
O O4 0.959539 0.902304 0.098791
O O5 0.764476 0.782845 0.717155
O O6 0.726798 0.910755 0.589249
O O7 0.496728 0.413675 0.086320
O O8 0.498719 0.584401 0.413762
O O9 0.498724 0.086219 0.915589
O O10 0.720910 0.500352 0.502100
O O11 0.000000 0.500000 0.000000
O O12 0.720910 0.997899 0.999647
O O13 0.726858 0.999130 0.500872
O O14 0.000000 0.500000 0.500000
O O15 0.000000 0.000000 0.000000
O O16 0.500000 0.500000 0.000000
#
# Coordination Sequence:
#
# PCOD9069349 Si02
#       7
#     2   2   2   2   2   2   2
#     4  12  24  43  67  95 134 167 210 273 319 380
#     4  12  23  42  68  96 124 175 221 260 316 379
#     4  12  26  42  64  99 132 171 211 264 330 370
#     4  12  24  41  66  96 128 169 221 270 312 374
#     4  12  23  44  68  98 125 164 216 263 321 377
#     4  12  24  44  64  92 136 175 211 264 320 382
#     4  12  24  42  67  94 129 166 220 261 312 394
#
# _framework density 22.104638999999999
#
# number of rings (size 3 to 8) (size 9 to 14) (size 15 to 20)
#    0.000    0.000    2.857    8.571    0.000    1.143 
#    0.000    0.000    0.000    0.000    0.000    0.000 
#    0.000    0.000    0.000    0.000    0.000    0.000 
#
# Total GULP energy -78509.271241 kJ/mol
# GULP energy per Si atom -5607.805089 kJ/mol
# Density = 2.205433 g / cm^3
# Si number density = 22.104639 Si / 1000 Ang^3
#
#
#
# Elastic Constant Matrix: (Units=GPa)
#
#
# Indices 1 2 3 4 5 6 
#
# 1 122.9221 -14.8867 15.6877 27.6054 10.7283 -18.2064
# 2 -14.8867 90.6888 60.3845 33.2536 -15.3961 -25.1118
# 3 15.6877 60.3845 177.9049 45.4798 35.2205 -8.5668
# 4 27.6054 33.2536 45.4798 44.6049 -7.1667 -16.2160
# 5 10.7283 -15.3961 35.2205 -7.1667 14.1201 -13.6306
# 6 -18.2064 -25.1118 -8.5668 -16.2160 -13.6306 29.2235
#
#
#
# Elastic Compliance Matrix: (Units=1/GPa)
#
#
# Indices 1 2 3 4 5 6 
#
# 1 0.012973 0.007424 0.000518 -0.012469 -0.003556 0.006036
# 2 0.007424 0.013426 0.004546 -0.024129 -0.019326 -0.004908
# 3 0.000518 0.004546 0.001192 0.002032 0.014786 0.012603
# 4 -0.012469 -0.024129 0.002032 0.038271 -0.016222 -0.014237
# 5 -0.003556 -0.019326 0.014786 -0.016222 -0.027903 -0.036503
# 6 0.006036 -0.004908 0.012603 -0.014237 -0.036503 0.012531
#
#
# Mechanical properties :
#
#
# Convention : Reuss Voigt Hill
#
# Bulk Modulus (GPa) = 19.02267 57.09855 38.06061
# Shear Modulus (GPa) = 116.18221 39.61171 77.89696
#
# Velocity S-wave (km/s) = 7.25770 4.23781 5.94278
# Velocity P-wave (km/s) = 8.88013 7.05921 8.02151
#
# Compressibility (1/GPa) = 0.05256887
#
# Stress axis : x y z
#
# Youngs Moduli (GPa) = 77.08403 74.48209 838.62284
#
# Poissons Ratio (x) = -0.55298 -0.43466
# Poissons Ratio (y) = -0.57230 -3.81252
# Poissons Ratio (z) = -0.03995 -0.33861
#
# Static dielectric constant tensor:
#      x y z
#    x 1.811750 0.050350 -0.029670 
#    y 0.050350 1.826510 -0.036940 
#    z -0.029670 -0.036940 1.785590 
# 
# From -- ./inp_files/38365.got.cif
#   From: 2010.05.17/outbox.cif.g08.bks.cpg/sg2_20_cif.got.tgz:38365.got - 2010.06.03 11:33:40.
