data_PCOD9069876
_publ_section_title
;
Structure prediction by ZEFSAII (Michael W. Deem and Ramdas Pophale) SiO2 
 PCOD9069876
Probable space group: P -1
;
_chemical_formula_sum "Si O2"
_cell_formula_units_Z 15
_cell_length_a 21.371817
_cell_length_b 12.357664
_cell_length_c 8.529376
_cell_angle_alpha 120.900841
_cell_angle_beta 139.894085
_cell_angle_gamma 29.941745
_cell_volume 641.583914
_symmetry_space_group_name_H-M "P -1"
_symmetry_group_IT_number 2
_symmetry_cell_setting 'triclinic'
loop_
_space_group_symop_operation_xyz
x,y,z
-x,-y,-z
loop_
_atom_site_type_symbol
_atom_site_label
_atom_site_fract_x
_atom_site_fract_y
_atom_site_fract_z
Si Si1 0.154125 0.108643 0.065275
Si Si2 0.183658 0.643605 0.974264
Si Si3 0.069553 0.897194 0.382363
Si Si4 0.075138 0.300721 0.386783
Si Si5 0.418833 0.445161 0.564796
Si Si6 0.507806 0.132841 0.040261
Si Si7 0.000000 0.500000 0.000000
Si Si8 0.623461 0.758767 0.478700
O O1 0.097901 0.280716 0.222367
O O2 0.357820 0.811864 0.235933
O O3 0.006457 0.160201 0.835476
O O4 0.142282 0.223346 0.989817
O O5 0.295710 0.597368 0.285462
O O6 0.345863 0.397554 0.001446
O O7 0.060420 0.666152 0.822900
O O8 0.045407 0.884350 0.789897
O O9 0.295091 0.664741 0.615477
O O10 0.000000 0.000000 0.500000
O O11 0.000000 0.500000 0.500000
O O12 0.287620 0.040953 0.655790
O O13 0.379519 0.351473 0.488329
O O14 0.465924 0.176967 0.810406
O O15 0.500000 0.000000 0.000000
O O16 0.825497 0.594636 0.718427
O O17 0.500000 0.000000 0.500000
#
# Coordination Sequence:
#
# PCOD9069876 Si02
#       8
#     2   2   2   2   2   2   1   2
#     4  12  27  46  74 106 148 191 244 299 369 438
#     4  12  26  47  75 102 147 195 241 303 363 434
#     4  12  29  50  74 106 143 194 250 303 361 438
#     4  12  26  42  74 109 143 188 240 294 367 437
#     4  12  25  48  73 105 144 193 243 298 368 431
#     4  12  25  43  69 110 147 185 244 302 365 440
#     4  12  24  42  72 102 142 188 232 290 372 418
#     4  12  25  40  71 106 145 188 235 302 365 433
#
# _framework density 23.379639000000001
#
# number of rings (size 3 to 8) (size 9 to 14) (size 15 to 20)
#    0.000    0.000    6.667    2.800    1.867    3.200 
#    0.000    0.000    0.000    0.000    0.000    0.000 
#    0.000    0.000    0.000    0.000    0.000    0.000 
#
# Total GULP energy -83598.334448 kJ/mol
# GULP energy per Si atom -5573.222297 kJ/mol
# Density = 2.332643 g / cm^3
# Si number density = 23.379639 Si / 1000 Ang^3
#
#
#
# Elastic Constant Matrix: (Units=GPa)
#
#
# Indices 1 2 3 4 5 6 
#
# 1 49.0481 18.1735 -3.6294 1.8936 4.4690 -12.5872
# 2 18.1735 135.9950 7.9764 -23.2438 -2.1521 -23.2252
# 3 -3.6294 7.9764 82.4320 -17.0430 13.3018 -22.9652
# 4 1.8936 -23.2438 -17.0430 45.0503 -8.0521 -2.3351
# 5 4.4690 -2.1521 13.3018 -8.0521 33.9759 -4.6997
# 6 -12.5872 -23.2252 -22.9652 -2.3351 -4.6997 48.2122
#
#
#
# Elastic Compliance Matrix: (Units=1/GPa)
#
#
# Indices 1 2 3 4 5 6 
#
# 1 0.023582 -0.002650 0.003306 -0.001531 -0.004100 0.005981
# 2 -0.002650 0.009622 0.001242 0.006287 0.002667 0.005100
# 3 0.003306 0.001242 0.016795 0.006616 -0.004065 0.009386
# 4 -0.001531 0.006287 0.006616 0.029499 0.006080 0.007802
# 5 -0.004100 0.002667 -0.004065 0.006080 0.033427 0.001831
# 6 0.005981 0.005100 0.009386 0.007802 0.001831 0.029787
#
#
# Mechanical properties :
#
#
# Convention : Reuss Voigt Hill
#
# Bulk Modulus (GPa) = 18.58858 34.72402 26.65630
# Shear Modulus (GPa) = 31.87785 41.77797 36.82791
#
# Velocity S-wave (km/s) = 3.69655 4.23181 3.97320
# Velocity P-wave (km/s) = 5.11735 6.22592 5.69866
#
# Compressibility (1/GPa) = 0.05379648
#
# Stress axis : x y z
#
# Youngs Moduli (GPa) = 42.40456 103.92620 59.54040
#
# Poissons Ratio (x) = 0.27544 -0.19685
# Poissons Ratio (y) = 0.11239 -0.07398
# Poissons Ratio (z) = -0.14020 -0.12912
#
# Static dielectric constant tensor:
#      x y z
#    x 1.575030 -0.127530 0.100920 
#    y -0.127530 1.992160 -0.020270 
#    z 0.100920 -0.020270 1.883450 
# 
# From -- ./inp_files/346305.got.cif
#   From: 2010.05.17/outbox.cif.g08.bks.cpg/sg2_174_cif.got.tgz:346305.got - 2010.06.03 11:33:40.
