data_PCOD9069524
_publ_section_title
;
Structure prediction by ZEFSAII (Michael W. Deem and Ramdas Pophale) SiO2 
 PCOD9069524
Probable space group: P -1
;
_chemical_formula_sum "Si O2"
_cell_formula_units_Z 15
_cell_length_a 8.525512
_cell_length_b 14.946310
_cell_length_c 7.681309
_cell_angle_alpha 132.841400
_cell_angle_beta 118.266438
_cell_angle_gamma 71.692884
_cell_volume 632.059002
_symmetry_space_group_name_H-M "P -1"
_symmetry_group_IT_number 2
_symmetry_cell_setting 'triclinic'
loop_
_space_group_symop_operation_xyz
x,y,z
-x,-y,-z
loop_
_atom_site_type_symbol
_atom_site_label
_atom_site_fract_x
_atom_site_fract_y
_atom_site_fract_z
Si Si1 0.982926 0.769679 0.658041
Si Si2 0.004492 0.126787 0.562719
Si Si3 0.000000 0.000000 0.000000
Si Si4 0.348776 0.760035 0.338366
Si Si5 0.670457 0.627628 0.440677
Si Si6 0.359765 0.237961 0.042105
Si Si7 0.437255 0.998949 0.263183
Si Si8 0.314922 0.646412 0.805036
O O1 0.999368 0.878149 0.659654
O O2 0.806185 0.688151 0.452663
O O3 0.154909 0.686995 0.648928
O O4 0.980619 0.869446 0.939653
O O5 0.836443 0.208985 0.629407
O O6 0.185666 0.199322 0.792859
O O7 0.000000 0.000000 0.500000
O O8 0.227678 0.994228 0.128654
O O9 0.464015 0.644599 0.306006
O O10 0.477675 0.875156 0.593928
O O11 0.316520 0.738338 0.089719
O O12 0.697744 0.705112 0.732070
O O13 0.716452 0.488925 0.319859
O O14 0.492495 0.338036 0.159514
O O15 0.476367 0.115302 0.941303
O O16 0.500000 0.000000 0.500000
#
# Coordination Sequence:
#
# PCOD9069524 Si02
#       8
#     2   2   1   2   2   2   2   2
#     4  12  26  46  74 109 150 197 251 312 386 456
#     4  12  28  44  74 112 153 191 246 318 394 461
#     4  12  24  40  78 110 150 188 248 306 396 446
#     4  12  25  45  73 109 148 198 254 309 383 452
#     4  12  28  48  73 108 150 203 258 306 373 454
#     4  12  25  46  74 109 150 195 251 315 382 452
#     4  12  23  44  75 111 152 195 247 317 395 450
#     4  12  26  51  74 104 152 205 254 313 367 454
#
# _framework density 23.731960999999998
#
# number of rings (size 3 to 8) (size 9 to 14) (size 15 to 20)
#    0.000    0.000    5.333    4.400    3.733    0.533 
#    0.000    2.000    0.000    0.000    0.000    0.000 
#    0.000    0.000    0.000    0.000    0.000    0.000 
#
# Total GULP energy -83809.124203 kJ/mol
# GULP energy per Si atom -5587.274947 kJ/mol
# Density = 2.367795 g / cm^3
# Si number density = 23.731961 Si / 1000 Ang^3
#
#
#
# Elastic Constant Matrix: (Units=GPa)
#
#
# Indices 1 2 3 4 5 6 
#
# 1 130.3700 41.9391 54.5013 -10.1535 42.6876 -5.6734
# 2 41.9391 141.9564 31.1290 7.4607 27.6782 -5.9684
# 3 54.5013 31.1290 88.7658 -18.6531 14.9817 -2.4114
# 4 -10.1535 7.4607 -18.6531 46.1794 0.2196 8.9773
# 5 42.6876 27.6782 14.9817 0.2196 42.7967 -18.8691
# 6 -5.6734 -5.9684 -2.4114 8.9773 -18.8691 38.8937
#
#
#
# Elastic Compliance Matrix: (Units=1/GPa)
#
#
# Indices 1 2 3 4 5 6 
#
# 1 0.015591 -0.000499 -0.006437 0.002224 -0.015799 -0.006380
# 2 -0.000499 0.008722 -0.002520 -0.002418 -0.004469 -0.000501
# 3 -0.006437 -0.002520 0.017067 0.006043 0.001669 -0.000853
# 4 0.002224 -0.002418 0.006043 0.026806 -0.006985 -0.009248
# 5 -0.015799 -0.004469 0.001669 -0.006985 0.052036 0.023970
# 6 -0.006380 -0.000501 -0.000853 -0.009248 0.023970 0.038414
#
#
# Mechanical properties :
#
#
# Convention : Reuss Voigt Hill
#
# Bulk Modulus (GPa) = 44.50843 68.47011 56.48927
# Shear Modulus (GPa) = 27.02176 41.14215 34.08195
#
# Velocity S-wave (km/s) = 3.37801 4.16819 3.79373
# Velocity P-wave (km/s) = 5.83181 7.21659 6.56083
#
# Compressibility (1/GPa) = 0.02246765
#
# Stress axis : x y z
#
# Youngs Moduli (GPa) = 64.14065 114.65523 58.59423
#
# Poissons Ratio (x) = 0.05724 0.37717
# Poissons Ratio (y) = 0.03202 0.14763
# Poissons Ratio (z) = 0.41287 0.28888
#
# Static dielectric constant tensor:
#      x y z
#    x 1.970290 0.027080 -0.032500 
#    y 0.027080 1.974980 -0.034920 
#    z -0.032500 -0.034920 1.961150 
# 
# From -- ./inp_files/204602.got.cif
#   From: 2010.05.17/outbox.cif.g08.bks.cpg/sg2_103_cif.got.tgz:204602.got - 2010.06.03 11:33:40.
