data_PCOD9069491
_publ_section_title
;
Structure prediction by ZEFSAII (Michael W. Deem and Ramdas Pophale) SiO2 
 PCOD9069491
Probable space group: P -1
;
_chemical_formula_sum "Si O2"
_cell_formula_units_Z 14
_cell_length_a 13.202183
_cell_length_b 16.196935
_cell_length_c 8.014568
_cell_angle_alpha 127.312152
_cell_angle_beta 62.293115
_cell_angle_gamma 153.707469
_cell_volume 588.593845
_symmetry_space_group_name_H-M "P -1"
_symmetry_group_IT_number 2
_symmetry_cell_setting 'triclinic'
loop_
_space_group_symop_operation_xyz
x,y,z
-x,-y,-z
loop_
_atom_site_type_symbol
_atom_site_label
_atom_site_fract_x
_atom_site_fract_y
_atom_site_fract_z
Si Si1 0.292995 0.384435 0.410696
Si Si2 0.582470 0.661139 0.025424
Si Si3 0.248034 0.582217 0.580066
Si Si4 0.695594 0.049510 0.851565
Si Si5 0.182283 0.505501 0.148294
Si Si6 0.738563 0.213532 0.680137
Si Si7 0.104063 0.986644 0.507278
O O1 0.500000 0.500000 0.500000
O O2 0.330239 0.528439 0.485602
O O3 0.088386 0.229830 0.510728
O O4 0.265429 0.273533 0.155077
O O5 0.351809 0.544932 0.013094
O O6 0.730785 0.846838 0.265617
O O7 0.500000 0.500000 0.000000
O O8 0.248633 0.594475 0.393681
O O9 0.018380 0.622291 0.399517
O O10 0.419848 0.807672 0.801994
O O11 0.717432 0.133625 0.769330
O O12 0.773873 0.994121 0.687342
O O13 0.905955 0.257951 0.061910
O O14 0.236440 0.642263 0.148489
O O15 0.500000 0.000000 0.500000
O O16 0.000000 0.000000 0.500000
#
# Coordination Sequence:
#
# PCOD9069491 Si02
#       7
#     2   2   2   2   2   2   2
#     4  12  25  44  70 110 146 191 247 298 370 448
#     4  12  23  44  70 106 148 189 244 302 370 442
#     4  12  26  50  76 106 148 193 243 303 373 436
#     4  12  25  49  73 107 148 190 244 307 363 436
#     4  12  26  47  75 107 146 197 245 302 368 438
#     4  12  26  51  76 105 150 192 248 307 362 437
#     4  12  24  45  71 104 148 197 239 308 369 438
#
# _framework density 23.785502999999999
#
# number of rings (size 3 to 8) (size 9 to 14) (size 15 to 20)
#    0.000    0.000    5.714    4.714    0.000    0.571 
#    5.143    0.000    0.000    0.000    0.000    0.000 
#    0.000    0.000    0.000    0.000    0.000    0.000 
#
# Total GULP energy -78316.337693 kJ/mol
# GULP energy per Si atom -5594.024121 kJ/mol
# Density = 2.373137 g / cm^3
# Si number density = 23.785503 Si / 1000 Ang^3
#
#
#
# Elastic Constant Matrix: (Units=GPa)
#
#
# Indices 1 2 3 4 5 6 
#
# 1 160.2753 33.4284 15.2710 5.4024 -12.0777 -7.1175
# 2 33.4284 121.6420 22.5481 22.7267 0.1314 8.0951
# 3 15.2710 22.5481 68.8048 27.1637 13.8804 3.0367
# 4 5.4024 22.7267 27.1637 49.2640 7.6392 1.8626
# 5 -12.0777 0.1314 13.8804 7.6392 35.6302 1.2358
# 6 -7.1175 8.0951 3.0367 1.8626 1.2358 39.0962
#
#
#
# Elastic Compliance Matrix: (Units=1/GPa)
#
#
# Indices 1 2 3 4 5 6 
#
# 1 0.007075 -0.001820 -0.001870 0.000574 0.002952 0.001690
# 2 -0.001820 0.009794 -0.001463 -0.003549 0.000751 -0.002100
# 3 -0.001870 -0.001463 0.020494 -0.009364 -0.006571 -0.000975
# 4 0.000574 -0.003549 -0.009364 0.027337 -0.002017 0.000328
# 5 0.002952 0.000751 -0.006571 -0.002017 0.032057 -0.000025
# 6 0.001690 -0.002100 -0.000975 0.000328 -0.000025 0.026381
#
#
# Mechanical properties :
#
#
# Convention : Reuss Voigt Hill
#
# Bulk Modulus (GPa) = 36.96088 54.80191 45.88140
# Shear Modulus (GPa) = 35.09612 43.42973 39.26293
#
# Velocity S-wave (km/s) = 3.84542 4.27768 4.06730
# Velocity P-wave (km/s) = 5.94049 6.89116 6.43341
#
# Compressibility (1/GPa) = 0.02705563
#
# Stress axis : x y z
#
# Youngs Moduli (GPa) = 141.33636 102.09928 48.79439
#
# Poissons Ratio (x) = 0.18587 0.09126
# Poissons Ratio (y) = 0.25730 0.07140
# Poissons Ratio (z) = 0.26434 0.14941
#
# Static dielectric constant tensor:
#      x y z
#    x 1.742100 -0.001710 0.009710 
#    y -0.001710 1.879320 0.007010 
#    z 0.009710 0.007010 1.947910 
# 
# From -- ./inp_files/268577.got.cif
#   From: 2010.05.17/outbox.cif.g08.bks.cpg/sg2_135_cif.got.tgz:268577.got - 2010.06.03 11:33:40.
