data_PCOD9069278
_publ_section_title
;
Structure prediction by ZEFSAII (Michael W. Deem and Ramdas Pophale) SiO2 
 PCOD9069278
Probable space group: P -1
;
_chemical_formula_sum "Si O2"
_cell_formula_units_Z 16
_cell_length_a 18.351526
_cell_length_b 5.417740
_cell_length_c 27.681625
_cell_angle_alpha 92.633900
_cell_angle_beta 164.222953
_cell_angle_gamma 87.793516
_cell_volume 747.355628
_symmetry_space_group_name_H-M "P -1"
_symmetry_group_IT_number 2
_symmetry_cell_setting 'triclinic'
loop_
_space_group_symop_operation_xyz
x,y,z
-x,-y,-z
loop_
_atom_site_type_symbol
_atom_site_label
_atom_site_fract_x
_atom_site_fract_y
_atom_site_fract_z
Si Si1 0.875380 0.214472 0.156809
Si Si2 0.123841 0.735637 0.000056
Si Si3 0.493180 0.709962 0.618832
Si Si4 0.835169 0.297512 0.685805
Si Si5 0.670050 0.949413 0.157726
Si Si6 0.799778 0.443241 0.211649
Si Si7 0.030898 0.775170 0.127870
Si Si8 0.560002 0.219472 0.700150
O O1 0.930957 0.325000 0.246955
O O2 0.989759 0.446695 0.201229
O O3 0.012470 0.951608 0.234424
O O4 0.557782 0.148173 0.951322
O O5 0.318335 0.786636 0.169214
O O6 0.161041 0.465409 0.999218
O O7 0.817286 0.722409 0.824291
O O8 0.122643 0.968007 0.965415
O O9 0.393772 0.678941 0.500160
O O10 0.418688 0.476602 0.602321
O O11 0.402067 0.969232 0.584271
O O12 0.769323 0.249470 0.699496
O O13 0.791488 0.226044 0.244446
O O14 0.869484 0.722440 0.275236
O O15 0.500000 0.000000 0.000000
O O16 0.500000 0.500000 0.000000
O O17 0.199546 0.778706 0.186114
#
# Coordination Sequence:
#
# PCOD9069278 Si02
#       8
#     2   2   2   2   2   2   2   2
#     4  10  18  29  39  56  92 128 152 168 198 264
#     4  10  19  35  54  65  74 102 161 216 234 237
#     4  10  20  31  46  66  87 112 147 183 227 279
#     4  12  22  29  39  64 102 132 138 154 226 300
#     4   8  13  24  42  59  72 105 166 193 190 209
#     4   8  13  24  42  59  72 105 166 193 190 209
#     4  10  20  31  46  66  87 112 147 183 227 279
#     4  10  19  35  54  65  74 102 161 216 234 237
#
# _framework density 21.408819000000001
#
# number of rings (size 3 to 8) (size 9 to 14) (size 15 to 20)
#    0.000    2.500    0.000    8.250    0.000    4.000 
#    0.000    0.000    0.000    0.000    0.000    0.000 
#    0.000    0.000    0.000    0.000    0.000 4635.000 
#
# Total GULP energy -89121.091617 kJ/mol
# GULP energy per Si atom -5570.068226 kJ/mol
# Density = 2.136009 g / cm^3
# Si number density = 21.408819 Si / 1000 Ang^3
#
#
#
# Elastic Constant Matrix: (Units=GPa)
#
#
# Indices 1 2 3 4 5 6 
#
# 1 15.6335 16.5133 24.6036 -2.1415 -5.8199 8.4744
# 2 16.5133 231.1490 25.8970 -11.0100 1.8968 19.7168
# 3 24.6036 25.8970 61.0029 2.6630 -25.6391 8.2101
# 4 -2.1415 -11.0100 2.6630 22.9034 -1.3491 1.0749
# 5 -5.8199 1.8968 -25.6391 -1.3491 31.8412 -9.4390
# 6 8.4744 19.7168 8.2101 1.0749 -9.4390 29.2669
#
#
#
# Elastic Compliance Matrix: (Units=1/GPa)
#
#
# Indices 1 2 3 4 5 6 
#
# 1 0.380995 0.006674 -0.193379 0.059297 -0.113402 -0.099320
# 2 0.006674 0.005363 -0.007004 0.003916 -0.006277 -0.005749
# 3 -0.193379 -0.007004 0.125498 -0.033780 0.080300 0.052646
# 4 0.059297 0.003916 -0.033780 0.054727 -0.019831 -0.018738
# 5 -0.113402 -0.006277 0.080300 -0.019831 0.087790 0.043581
# 6 -0.099320 -0.005749 0.052646 -0.018738 0.043581 0.066775
#
#
# Mechanical properties :
#
#
# Convention : Reuss Voigt Hill
#
# Bulk Modulus (GPa) = 8.03615 49.09034 28.56325
# Shear Modulus (GPa) = 4.34765 32.85373 18.60069
#
# Velocity S-wave (km/s) = 1.42660 3.92163 2.95080
# Velocity P-wave (km/s) = 2.54468 6.59434 4.99804
#
# Compressibility (1/GPa) = 0.12443772
#
# Stress axis : x y z
#
# Youngs Moduli (GPa) = 2.62471 186.47923 7.96825
#
# Poissons Ratio (x) = -1.24454 1.54089
# Poissons Ratio (y) = -0.01752 0.05581
# Poissons Ratio (z) = 0.50756 1.30607
#
# Static dielectric constant tensor:
#      x y z
#    x 1.863880 0.030910 0.079380 
#    y 0.030910 1.980810 0.014550 
#    z 0.079380 0.014550 1.805120 
# 
# From -- ./inp_files/612688.got.cif
#   From: 2010.05.17/outbox.cif.g08.bks.cpg/sg2_307_cif.got.tgz:612688.got - 2010.06.03 11:33:40.
