data_PCOD9069888
_publ_section_title
;
Structure prediction by ZEFSAII (Michael W. Deem and Ramdas Pophale) SiO2 
 PCOD9069888
Probable space group: P -1
;
_chemical_formula_sum "Si O2"
_cell_formula_units_Z 14
_cell_length_a 11.940553
_cell_length_b 13.884225
_cell_length_c 6.631065
_cell_angle_alpha 64.484667
_cell_angle_beta 137.462991
_cell_angle_gamma 128.518036
_cell_volume 580.683614
_symmetry_space_group_name_H-M "P -1"
_symmetry_group_IT_number 2
_symmetry_cell_setting 'triclinic'
loop_
_space_group_symop_operation_xyz
x,y,z
-x,-y,-z
loop_
_atom_site_type_symbol
_atom_site_label
_atom_site_fract_x
_atom_site_fract_y
_atom_site_fract_z
Si Si1 0.457056 0.517864 0.676046
Si Si2 0.989708 0.613874 0.794934
Si Si3 0.766056 0.781715 0.915871
Si Si4 0.792925 0.937119 0.173920
Si Si5 0.863590 0.226890 0.511920
Si Si6 0.279135 0.849730 0.210152
Si Si7 0.671270 0.948301 0.404653
O O1 0.500000 0.500000 0.500000
O O2 0.231790 0.430288 0.463005
O O3 0.565832 0.665913 0.690900
O O4 0.500000 0.500000 0.000000
O O5 0.086567 0.658263 0.665062
O O6 0.000000 0.500000 0.000000
O O7 0.109155 0.735877 0.973852
O O8 0.798096 0.898240 0.722662
O O9 0.935084 0.750544 0.149440
O O10 0.765030 0.825567 0.101472
O O11 0.638717 0.896202 0.184241
O O12 0.768136 0.040281 0.928702
O O13 0.000000 0.000000 0.500000
O O14 0.716907 0.201101 0.519029
O O15 0.779508 0.096194 0.402648
O O16 0.476736 0.899090 0.312407
#
# Coordination Sequence:
#
# PCOD9069888 Si02
#       7
#     2   2   2   2   2   2   2
#     4  12  29  56  82 115 160 218 277 335 396 481
#     4  12  28  52  75 108 154 215 268 327 398 476
#     4  12  25  46  78 112 151 204 263 329 403 475
#     4  12  24  42  74 110 154 199 257 324 405 481
#     4  12  24  46  74 109 156 197 261 329 398 481
#     4  12  26  46  72 110 158 199 257 332 403 477
#     4  12  25  43  71 114 154 199 254 322 413 479
#
# _framework density 24.109518000000001
#
# number of rings (size 3 to 8) (size 9 to 14) (size 15 to 20)
#    0.000    0.000    5.714    3.857    2.000    0.571 
#    2.571    0.000    0.000    0.000    0.000    0.000 
#    0.000    0.000    0.000    0.000    0.000    0.000 
#
# Total GULP energy -78182.727032 kJ/mol
# GULP energy per Si atom -5584.480502 kJ/mol
# Density = 2.405464 g / cm^3
# Si number density = 24.109518 Si / 1000 Ang^3
#
#
#
# Elastic Constant Matrix: (Units=GPa)
#
#
# Indices 1 2 3 4 5 6 
#
# 1 117.7791 43.9629 34.3611 -7.1450 -27.6740 34.8642
# 2 43.9629 133.9625 50.3687 0.8896 -5.6981 21.5121
# 3 34.3611 50.3687 112.5051 -0.2786 -11.3105 10.9761
# 4 -7.1450 0.8896 -0.2786 60.1766 6.5308 -10.7650
# 5 -27.6740 -5.6981 -11.3105 6.5308 35.5234 -5.9289
# 6 34.8642 21.5121 10.9761 -10.7650 -5.9289 31.3706
#
#
#
# Elastic Compliance Matrix: (Units=1/GPa)
#
#
# Indices 1 2 3 4 5 6 
#
# 1 0.016296 -0.001872 -0.001706 -0.001781 0.009673 -0.015013
# 2 -0.001872 0.010076 -0.003690 -0.000966 -0.001534 -0.004159
# 3 -0.001706 -0.003690 0.011163 -0.000146 0.001795 0.000810
# 4 -0.001781 -0.000966 -0.000146 0.018291 -0.003567 0.008295
# 5 0.009673 -0.001534 0.001795 -0.003567 0.035871 -0.004771
# 6 -0.015013 -0.004159 0.000810 0.008295 -0.004771 0.053075
#
#
# Mechanical properties :
#
#
# Convention : Reuss Voigt Hill
#
# Bulk Modulus (GPa) = 43.48296 69.07025 56.27660
# Shear Modulus (GPa) = 29.94486 41.11771 35.53129
#
# Velocity S-wave (km/s) = 3.52807 4.13420 3.84310
# Velocity P-wave (km/s) = 5.88822 7.17632 6.56394
#
# Compressibility (1/GPa) = 0.02299751
#
# Stress axis : x y z
#
# Youngs Moduli (GPa) = 61.36509 99.24995 89.58465
#
# Poissons Ratio (x) = 0.18583 0.15284
# Poissons Ratio (y) = 0.11490 0.33056
# Poissons Ratio (z) = 0.10469 0.36622
#
# Static dielectric constant tensor:
#      x y z
#    x 1.987020 -0.031360 -0.047840 
#    y -0.031360 1.762560 0.040080 
#    z -0.047840 0.040080 2.020630 
# 
# From -- ./inp_files/77524.got.cif
#   From: 2010.05.17/outbox.cif.g08.bks.cpg/sg2_39_cif.got.tgz:77524.got - 2010.06.03 11:33:40.
