data_PCOD9069215
_publ_section_title
;
Structure prediction by ZEFSAII (Michael W. Deem and Ramdas Pophale) SiO2 
 PCOD9069215
Probable space group: P -1
;
_chemical_formula_sum "Si O2"
_cell_formula_units_Z 16
_cell_length_a 18.259422
_cell_length_b 7.941912
_cell_length_c 11.310781
_cell_angle_alpha 104.456118
_cell_angle_beta 142.190690
_cell_angle_gamma 47.854116
_cell_volume 586.626577
_symmetry_space_group_name_H-M "P -1"
_symmetry_group_IT_number 2
_symmetry_cell_setting 'triclinic'
loop_
_space_group_symop_operation_xyz
x,y,z
-x,-y,-z
loop_
_atom_site_type_symbol
_atom_site_label
_atom_site_fract_x
_atom_site_fract_y
_atom_site_fract_z
Si Si1 0.849719 0.488978 0.157481
Si Si2 0.438610 0.866308 0.409640
Si Si3 0.457117 0.837393 0.063701
Si Si4 0.072200 0.111557 0.604404
Si Si5 0.821650 0.780063 0.644591
Si Si6 0.487974 0.755855 0.823706
Si Si7 0.711888 0.377263 0.509883
Si Si8 0.044174 0.206890 0.848858
O O1 0.991394 0.299574 0.418270
O O2 0.985508 0.353449 0.191137
O O3 0.689650 0.519748 0.964338
O O4 0.699813 0.825940 0.048035
O O5 0.629504 0.532775 0.558577
O O6 0.500000 0.000000 0.500000
O O7 0.328742 0.956287 0.408774
O O8 0.268321 0.996003 0.125154
O O9 0.608808 0.622350 0.323675
O O10 0.544230 0.740946 0.026085
O O11 0.308957 0.843625 0.863963
O O12 0.008591 0.267035 0.674387
O O13 0.000000 0.000000 0.500000
O O14 0.906174 0.519115 0.778864
O O15 0.670230 0.918461 0.368443
O O16 0.364405 0.723305 0.640879
O O17 0.945818 0.142255 0.754942
#
# Coordination Sequence:
#
# PCOD9069215 Si02
#       8
#     2   2   2   2   2   2   2   2
#     4  12  25  44  72 109 156 191 239 298 366 433
#     4  12  28  49  79 104 137 193 258 302 355 425
#     4  12  22  46  72 109 149 190 243 295 364 447
#     4  12  23  41  73 109 152 191 232 293 371 442
#     4  12  26  45  73 106 139 192 247 302 356 419
#     4  12  27  44  72 109 154 189 236 299 372 437
#     4  12  26  47  75 106 145 193 242 303 368 430
#     4  12  25  46  78 105 142 189 247 299 363 435
#
# _framework density 27.274591999999998
#
# number of rings (size 3 to 8) (size 9 to 14) (size 15 to 20)
#    0.000    0.000    5.000    5.250    1.750    0.500 
#    0.000    1.250    0.000    0.000    0.000    0.000 
#    0.000    0.000    0.000    0.000    0.000    0.000 
#
# Total GULP energy -89647.987131 kJ/mol
# GULP energy per Si atom -5602.999196 kJ/mol
# Density = 2.721251 g / cm^3
# Si number density = 27.274592 Si / 1000 Ang^3
#
#
#
# Elastic Constant Matrix: (Units=GPa)
#
#
# Indices 1 2 3 4 5 6 
#
# 1 143.3371 49.2058 41.0264 4.5703 42.1371 -23.4348
# 2 49.2058 96.6875 23.7102 3.6814 10.5684 -9.9139
# 3 41.0264 23.7102 122.8654 7.8616 40.3639 0.1515
# 4 4.5703 3.6814 7.8616 42.8564 -2.0585 7.6877
# 5 42.1371 10.5684 40.3639 -2.0585 59.9843 -7.2120
# 6 -23.4348 -9.9139 0.1515 7.6877 -7.2120 47.2982
#
#
#
# Elastic Compliance Matrix: (Units=1/GPa)
#
#
# Indices 1 2 3 4 5 6 
#
# 1 0.011216 -0.004372 -0.000772 -0.001689 -0.006169 0.003977
# 2 -0.004372 0.012863 -0.001661 -0.000400 0.002018 0.000908
# 3 -0.000772 -0.001661 0.011099 -0.001870 -0.006880 -0.001511
# 4 -0.001689 -0.000400 -0.001870 0.024838 0.002824 -0.004521
# 5 -0.006169 0.002018 -0.006880 0.002824 0.025473 0.000814
# 6 0.003977 0.000908 -0.001511 -0.004521 0.000814 0.024167
#
#
# Mechanical properties :
#
#
# Convention : Reuss Voigt Hill
#
# Bulk Modulus (GPa) = 46.36476 65.64164 56.00320
# Shear Modulus (GPa) = 38.32754 46.62428 42.47591
#
# Velocity S-wave (km/s) = 3.75273 4.13902 3.95060
# Velocity P-wave (km/s) = 5.98443 6.85283 6.43330
#
# Compressibility (1/GPa) = 0.02156810
#
# Stress axis : x y z
#
# Youngs Moduli (GPa) = 89.15821 77.74387 90.09994
#
# Poissons Ratio (x) = 0.33993 0.06952
# Poissons Ratio (y) = 0.38984 0.14963
# Poissons Ratio (z) = 0.06879 0.12911
#
# Static dielectric constant tensor:
#      x y z
#    x 2.251400 0.083070 0.033520 
#    y 0.083070 2.315750 0.057750 
#    z 0.033520 0.057750 2.130580 
# 
# From -- ./inp_files/462259.got.cif
#   From: 2010.05.17/outbox.cif.g08.bks.cpg/sg2_232_cif.got.tgz:462259.got - 2010.06.03 11:33:40.
