data_PCOD9069066
_publ_section_title
;
Structure prediction by ZEFSAII (Michael W. Deem and Ramdas Pophale) SiO2 
 PCOD9069066
Probable space group: P -1
;
_chemical_formula_sum "Si O2"
_cell_formula_units_Z 15
_cell_length_a 8.183890
_cell_length_b 9.145588
_cell_length_c 16.362996
_cell_angle_alpha 40.644409
_cell_angle_beta 77.625045
_cell_angle_gamma 59.163712
_cell_volume 650.717186
_symmetry_space_group_name_H-M "P -1"
_symmetry_group_IT_number 2
_symmetry_cell_setting 'triclinic'
loop_
_space_group_symop_operation_xyz
x,y,z
-x,-y,-z
loop_
_atom_site_type_symbol
_atom_site_label
_atom_site_fract_x
_atom_site_fract_y
_atom_site_fract_z
Si Si1 0.842940 0.924100 0.899716
Si Si2 0.778697 0.766844 0.410931
Si Si3 0.886665 0.522301 0.208233
Si Si4 0.843786 0.249625 0.195856
Si Si5 0.583485 0.824001 0.238939
Si Si6 0.771655 0.440352 0.777812
Si Si7 0.500000 0.000000 0.500000
Si Si8 0.576613 0.330104 0.981598
O O1 0.650371 0.027244 0.818377
O O2 0.827860 0.190543 0.820586
O O3 0.039200 0.752323 0.895782
O O4 0.837999 0.754890 0.048140
O O5 0.651375 0.756251 0.353804
O O6 0.000000 0.500000 0.500000
O O7 0.812428 0.008819 0.294098
O O8 0.659213 0.818814 0.485326
O O9 0.957215 0.256095 0.260987
O O10 0.706925 0.588047 0.260273
O O11 0.059697 0.495373 0.258229
O O12 0.625904 0.524371 0.111292
O O13 0.645744 0.030601 0.119133
O O14 0.739479 0.353023 0.907409
O O15 0.569296 0.719379 0.659454
O O16 0.500000 0.500000 0.000000
#
# Coordination Sequence:
#
# PCOD9069066 Si02
#       8
#     2   2   2   2   2   2   1   2
#     4  12  25  42  71 110 149 184 232 299 370 435
#     4  12  28  53  74 106 144 197 247 300 356 443
#     4  12  25  42  71 110 148 183 235 303 366 434
#     4  12  25  42  70 105 144 182 238 295 356 433
#     4  12  25  45  73 108 147 181 240 300 368 431
#     4  12  26  46  71 101 142 193 241 288 364 426
#     4  12  26  50  80  92 146 194 252 288 364 418
#     4  12  22  41  72 104 139 182 233 298 365 427
#
# _framework density 23.051490000000001
#
# number of rings (size 3 to 8) (size 9 to 14) (size 15 to 20)
#    0.000    0.000    5.333    5.200    3.733    0.000 
#    2.400    2.667    0.000    0.000    0.000    0.000 
#    0.000    0.000    0.000    0.000    0.000    0.000 
#
# Total GULP energy -83713.278203 kJ/mol
# GULP energy per Si atom -5580.885214 kJ/mol
# Density = 2.299902 g / cm^3
# Si number density = 23.051490 Si / 1000 Ang^3
#
#
#
# Elastic Constant Matrix: (Units=GPa)
#
#
# Indices 1 2 3 4 5 6 
#
# 1 82.0797 28.1812 10.1231 18.5986 12.5575 5.7237
# 2 28.1812 126.6534 20.7163 17.4703 13.0848 -2.9130
# 3 10.1231 20.7163 48.6262 9.8274 15.6944 4.8113
# 4 18.5986 17.4703 9.8274 37.4502 0.9111 -8.0801
# 5 12.5575 13.0848 15.6944 0.9111 15.7737 1.7301
# 6 5.7237 -2.9130 4.8113 -8.0801 1.7301 49.5025
#
#
#
# Elastic Compliance Matrix: (Units=1/GPa)
#
#
# Indices 1 2 3 4 5 6 
#
# 1 0.016903 -0.001698 0.004395 -0.009118 -0.015519 -0.003427
# 2 -0.001698 0.009443 -0.001597 -0.002896 -0.004791 0.000602
# 3 0.004395 -0.001597 0.034238 -0.010520 -0.035147 -0.004419
# 4 -0.009118 -0.002896 -0.010520 0.036489 0.017225 0.007260
# 5 -0.015519 -0.004791 -0.035147 0.017225 0.113286 0.003781
# 6 -0.003427 0.000602 -0.004419 0.007260 0.003781 0.022115
#
#
# Mechanical properties :
#
#
# Convention : Reuss Voigt Hill
#
# Bulk Modulus (GPa) = 15.92773 41.71117 28.81945
# Shear Modulus (GPa) = 19.90415 33.76785 26.83600
#
# Velocity S-wave (km/s) = 2.94166 3.83154 3.41570
# Velocity P-wave (km/s) = 4.29680 6.14071 5.29957
#
# Compressibility (1/GPa) = 0.06278360
#
# Stress axis : x y z
#
# Youngs Moduli (GPa) = 59.15947 105.89921 29.20733
#
# Poissons Ratio (x) = 0.17980 -0.12837
# Poissons Ratio (y) = 0.10044 0.04666
# Poissons Ratio (z) = -0.26000 0.16917
#
# Static dielectric constant tensor:
#      x y z
#    x 1.913800 0.005540 0.054940 
#    y 0.005540 1.886660 0.016580 
#    z 0.054940 0.016580 1.882890 
# 
# From -- ./inp_files/179825.got.cif
#   From: 2010.05.17/outbox.cif.g08.bks.cpg/sg2_90_cif.got.tgz:179825.got - 2010.06.03 11:33:40.
