data_PCOD9069426
_publ_section_title
;
Structure prediction by ZEFSAII (Michael W. Deem and Ramdas Pophale) SiO2 
 PCOD9069426
Probable space group: P -1
;
_chemical_formula_sum "Si O2"
_cell_formula_units_Z 14
_cell_length_a 8.062499
_cell_length_b 14.209829
_cell_length_c 14.969653
_cell_angle_alpha 149.695282
_cell_angle_beta 136.930005
_cell_angle_gamma 42.546985
_cell_volume 562.303360
_symmetry_space_group_name_H-M "P -1"
_symmetry_group_IT_number 2
_symmetry_cell_setting 'triclinic'
loop_
_space_group_symop_operation_xyz
x,y,z
-x,-y,-z
loop_
_atom_site_type_symbol
_atom_site_label
_atom_site_fract_x
_atom_site_fract_y
_atom_site_fract_z
Si Si1 0.341931 0.540752 0.063616
Si Si2 0.753639 0.630216 0.681901
Si Si3 0.821219 0.816373 0.032860
Si Si4 0.907611 0.220191 0.334059
Si Si5 0.236856 0.746065 0.897614
Si Si6 0.506098 0.025293 0.248841
Si Si7 0.497937 0.121314 0.509790
O O1 0.487118 0.363381 0.038983
O O2 0.374063 0.720785 0.280350
O O3 0.048051 0.618570 0.983663
O O4 0.500000 0.500000 0.000000
O O5 0.784763 0.401125 0.501806
O O6 0.029170 0.665868 0.799604
O O7 0.573155 0.749984 0.630615
O O8 0.669334 0.747753 0.837677
O O9 0.670135 0.901597 0.132233
O O10 0.907351 0.001105 0.181434
O O11 0.783303 0.280531 0.237568
O O12 0.203230 0.214225 0.443063
O O13 0.244075 0.966221 0.099333
O O14 0.625664 0.002948 0.375596
O O15 0.500000 0.000000 0.500000
#
# Coordination Sequence:
#
# PCOD9069426 Si02
#       7
#     2   2   2   2   2   2   2
#     4  12  24  44  73 103 137 184 242 292 348 422
#     4  12  23  45  74 106 140 183 247 291 347 418
#     4  12  27  48  69 105 152 187 227 295 364 420
#     4  12  24  45  76 105 135 188 244 293 349 419
#     4  12  23  43  74 103 137 185 241 294 345 413
#     4  12  27  44  70 107 149 186 230 295 361 421
#     4  12  23  43  72 103 135 184 244 291 346 418
#
# _framework density 24.897590999999998
#
# number of rings (size 3 to 8) (size 9 to 14) (size 15 to 20)
#    0.000    0.000    7.143    3.857    0.000    1.714 
#    2.571    0.000    0.000    0.000    0.000    0.000 
#    0.000    0.000    0.000    0.000    0.000    0.000 
#
# Total GULP energy -78354.383794 kJ/mol
# GULP energy per Si atom -5596.741700 kJ/mol
# Density = 2.484092 g / cm^3
# Si number density = 24.897591 Si / 1000 Ang^3
#
#
#
# Elastic Constant Matrix: (Units=GPa)
#
#
# Indices 1 2 3 4 5 6 
#
# 1 100.2945 19.6971 20.6466 -7.8090 -30.2000 15.6426
# 2 19.6971 112.5568 -3.6012 -15.4440 -15.6389 13.2726
# 3 20.6466 -3.6012 114.9365 -3.4937 -32.6509 20.2100
# 4 -7.8090 -15.4440 -3.4937 42.8924 6.5239 -9.5457
# 5 -30.2000 -15.6389 -32.6509 6.5239 50.9816 -2.3960
# 6 15.6426 13.2726 20.2100 -9.5457 -2.3960 36.8249
#
#
#
# Elastic Compliance Matrix: (Units=1/GPa)
#
#
# Indices 1 2 3 4 5 6 
#
# 1 0.013107 -0.000566 0.000794 -0.000134 0.007866 -0.005322
# 2 -0.000566 0.010367 0.002262 0.002373 0.003808 -0.003875
# 3 0.000794 0.002262 0.012492 -0.001100 0.008943 -0.007711
# 4 -0.000134 0.002373 -0.001100 0.025931 -0.003077 0.006327
# 5 0.007866 0.003808 0.008943 -0.003077 0.031169 -0.008391
# 6 -0.005322 -0.003875 -0.007711 0.006327 -0.008391 0.036139
#
#
# Mechanical properties :
#
#
# Convention : Reuss Voigt Hill
#
# Bulk Modulus (GPa) = 24.42315 44.58588 34.50452
# Shear Modulus (GPa) = 36.26529 45.54279 40.90404
#
# Velocity S-wave (km/s) = 3.82065 4.28156 4.05766
# Velocity P-wave (km/s) = 5.41239 6.51068 5.98677
#
# Compressibility (1/GPa) = 0.04094475
#
# Stress axis : x y z
#
# Youngs Moduli (GPa) = 76.29796 96.45710 80.05396
#
# Poissons Ratio (x) = 0.05460 -0.06358
# Poissons Ratio (y) = 0.04319 -0.18105
# Poissons Ratio (z) = -0.06059 -0.21815
#
# Static dielectric constant tensor:
#      x y z
#    x 2.042590 -0.058770 -0.024140 
#    y -0.058770 1.962320 -0.030040 
#    z -0.024140 -0.030040 1.893860 
# 
# From -- ./inp_files/223416.got.cif
#   From: 2010.05.17/outbox.cif.g08.bks.cpg/sg2_112_cif.got.tgz:223416.got - 2010.06.03 11:33:40.
