data_PCOD9069240
_publ_section_title
;
Structure prediction by ZEFSAII (Michael W. Deem and Ramdas Pophale) SiO2 
 PCOD9069240
Probable space group: P -1
;
_chemical_formula_sum "Si O2"
_cell_formula_units_Z 16
_cell_length_a 8.742545
_cell_length_b 12.447215
_cell_length_c 8.276833
_cell_angle_alpha 57.935456
_cell_angle_beta 64.482549
_cell_angle_gamma 81.876357
_cell_volume 684.321593
_symmetry_space_group_name_H-M "P -1"
_symmetry_group_IT_number 2
_symmetry_cell_setting 'triclinic'
loop_
_space_group_symop_operation_xyz
x,y,z
-x,-y,-z
loop_
_atom_site_type_symbol
_atom_site_label
_atom_site_fract_x
_atom_site_fract_y
_atom_site_fract_z
Si Si1 0.250344 0.727370 0.584618
Si Si2 0.051805 0.707582 0.000210
Si Si3 0.505453 0.978987 0.315560
Si Si4 0.741472 0.697345 0.617138
Si Si5 0.973544 0.447203 0.371310
Si Si6 0.863741 0.880523 0.171977
Si Si7 0.563489 0.266474 0.039123
Si Si8 0.502603 0.523073 0.667726
O O1 0.100241 0.741581 0.768477
O O2 0.359882 0.865573 0.422709
O O3 0.175691 0.667310 0.498089
O O4 0.353297 0.613096 0.698830
O O5 0.237685 0.719568 0.001634
O O6 0.956536 0.566531 0.171793
O O7 0.921970 0.792092 0.075481
O O8 0.676598 0.922932 0.226604
O O9 0.500000 0.000000 0.500000
O O10 0.515896 0.120133 0.118276
O O11 0.868741 0.812272 0.398302
O O12 0.577039 0.730502 0.757471
O O13 0.670169 0.617697 0.558141
O O14 0.853405 0.603811 0.729649
O O15 0.000000 0.500000 0.500000
O O16 0.000000 0.000000 0.000000
O O17 0.522365 0.389802 0.855758
O O18 0.500000 0.500000 0.500000
#
# Coordination Sequence:
#
# PCOD9069240 Si02
#       8
#     2   2   2   2   2   2   2   2
#     4  12  26  47  75 110 153 199 253 309 382 458
#     4  12  23  42  73 110 148 194 251 311 378 446
#     4  12  22  47  77 112 152 201 248 311 385 454
#     4  12  23  46  73 106 144 200 254 303 381 451
#     4  12  26  45  72 109 149 193 252 323 375 433
#     4  12  23  39  72 112 148 199 250 300 383 458
#     4  12  24  45  79 108 149 201 246 311 386 450
#     4  12  25  44  77 108 140 195 259 311 370 452
#
# _framework density 23.380818000000001
#
# number of rings (size 3 to 8) (size 9 to 14) (size 15 to 20)
#    0.000    0.000    8.750    2.250    0.000    0.000 
#    0.000    2.500    0.000    0.000    0.000    0.000 
#    0.000    0.000    0.000    0.000    0.000    0.000 
#
# Total GULP energy -89338.673976 kJ/mol
# GULP energy per Si atom -5583.667123 kJ/mol
# Density = 2.332760 g / cm^3
# Si number density = 23.380818 Si / 1000 Ang^3
#
#
#
# Elastic Constant Matrix: (Units=GPa)
#
#
# Indices 1 2 3 4 5 6 
#
# 1 75.8679 55.3316 12.2078 3.0280 -15.8962 10.6156
# 2 55.3316 149.0213 45.5362 -7.6241 -15.7838 -8.9474
# 3 12.2078 45.5362 106.0957 -5.5768 -19.0276 8.6799
# 4 3.0280 -7.6241 -5.5768 51.3967 -5.9740 -17.3690
# 5 -15.8962 -15.7838 -19.0276 -5.9740 33.6011 -2.5195
# 6 10.6156 -8.9474 8.6799 -17.3690 -2.5195 51.7676
#
#
#
# Elastic Compliance Matrix: (Units=1/GPa)
#
#
# Indices 1 2 3 4 5 6 
#
# 1 0.021840 -0.008978 0.002903 -0.004116 0.006458 -0.007584
# 2 -0.008978 0.011931 -0.004370 0.003826 0.000007 0.005920
# 3 0.002903 -0.004370 0.012322 0.000195 0.006104 -0.003054
# 4 -0.004116 0.003826 0.000195 0.024192 0.004999 0.009833
# 5 0.006458 0.000007 0.006104 0.004999 0.037250 0.001144
# 6 -0.007584 0.005920 -0.003054 0.009833 0.001144 0.025762
#
#
# Mechanical properties :
#
#
# Convention : Reuss Voigt Hill
#
# Bulk Modulus (GPa) = 39.67823 61.90402 50.79113
# Shear Modulus (GPa) = 30.75252 41.88038 36.31645
#
# Velocity S-wave (km/s) = 3.63063 4.23688 3.94542
# Velocity P-wave (km/s) = 5.88069 7.10414 6.52117
#
# Compressibility (1/GPa) = 0.02520274
#
# Stress axis : x y z
#
# Youngs Moduli (GPa) = 45.78730 83.81397 81.15723
#
# Poissons Ratio (x) = 0.75249 -0.23558
# Poissons Ratio (y) = 0.41108 0.35464
# Poissons Ratio (z) = -0.13291 0.36625
#
# Static dielectric constant tensor:
#      x y z
#    x 1.969500 -0.001340 0.044500 
#    y -0.001340 1.877890 -0.044560 
#    z 0.044500 -0.044560 1.872570 
# 
# From -- ./inp_files/184853.got.cif
#   From: 2010.05.17/outbox.cif.g08.bks.cpg/sg2_93_cif.got.tgz:184853.got - 2010.06.03 11:33:40.
