data_PCOD9069135
_publ_section_title
;
Structure prediction by ZEFSAII (Michael W. Deem and Ramdas Pophale) SiO2 
 PCOD9069135
Probable space group: P -1
;
_chemical_formula_sum "Si O2"
_cell_formula_units_Z 14
_cell_length_a 12.299624
_cell_length_b 10.359407
_cell_length_c 11.107731
_cell_angle_alpha 133.188281
_cell_angle_beta 125.998290
_cell_angle_gamma 91.865090
_cell_volume 564.162421
_symmetry_space_group_name_H-M "P -1"
_symmetry_group_IT_number 2
_symmetry_cell_setting 'triclinic'
loop_
_space_group_symop_operation_xyz
x,y,z
-x,-y,-z
loop_
_atom_site_type_symbol
_atom_site_label
_atom_site_fract_x
_atom_site_fract_y
_atom_site_fract_z
Si Si1 0.186732 0.130858 0.125978
Si Si2 0.261478 0.553196 0.305547
Si Si3 0.036066 0.309925 0.468277
Si Si4 0.821707 0.161530 0.486369
Si Si5 0.433282 0.156000 0.475833
Si Si6 0.601064 0.106492 0.926760
Si Si7 0.712826 0.789186 0.361057
O O1 0.207286 0.310765 0.162343
O O2 0.359844 0.252220 0.408788
O O3 0.129943 0.897825 0.870220
O O4 0.000000 0.000000 0.000000
O O5 0.127353 0.593612 0.270820
O O6 0.331479 0.618953 0.254211
O O7 0.463359 0.801153 0.673082
O O8 0.926360 0.247173 0.481312
O O9 0.197097 0.608434 0.717630
O O10 0.162341 0.252566 0.532021
O O11 0.850699 0.020563 0.499979
O O12 0.577180 0.928236 0.179644
O O13 0.344189 0.111645 0.517456
O O14 0.368034 0.912187 0.208303
O O15 0.500000 0.500000 0.000000
#
# Coordination Sequence:
#
# PCOD9069135 Si02
#       7
#     2   2   2   2   2   2   2
#     4  12  24  42  69 100 136 173 230 279 327 410
#     4   8  22  45  68  96 134 182 218 276 342 391
#     4  12  24  42  71 102 136 174 228 278 337 390
#     4   9  23  43  66 102 133 171 228 272 339 394
#     4   9  23  44  68  94 135 181 222 262 350 387
#     4   8  22  45  66  99 135 179 216 276 340 396
#     4  12  22  43  71  98 139 178 223 279 330 407
#
# _framework density 24.815548
#
# number of rings (size 3 to 8) (size 9 to 14) (size 15 to 20)
#    1.714    0.000    2.857    0.857    4.000    2.857 
#    2.571    3.571    0.000    0.000    0.000    0.000 
#    0.000    0.000    0.000    0.000    0.000    0.000 
#
# Total GULP energy -77985.957159 kJ/mol
# GULP energy per Si atom -5570.425511 kJ/mol
# Density = 2.475907 g / cm^3
# Si number density = 24.815548 Si / 1000 Ang^3
#
#
#
# Elastic Constant Matrix: (Units=GPa)
#
#
# Indices 1 2 3 4 5 6 
#
# 1 129.7133 10.7530 7.1320 -3.2038 -7.9531 15.7876
# 2 10.7530 74.5205 18.5207 23.9634 -8.2393 0.5718
# 3 7.1320 18.5207 96.7151 21.4887 -1.2527 -2.9915
# 4 -3.2038 23.9634 21.4887 32.5227 -5.7496 -6.7919
# 5 -7.9531 -8.2393 -1.2527 -5.7496 23.6804 1.2425
# 6 15.7876 0.5718 -2.9915 -6.7919 1.2425 37.5649
#
#
#
# Elastic Compliance Matrix: (Units=1/GPa)
#
#
# Indices 1 2 3 4 5 6 
#
# 1 0.008525 -0.001380 -0.000945 0.002332 0.003073 -0.003317
# 2 -0.001380 0.018342 -0.000488 -0.013304 0.002780 -0.002235
# 3 -0.000945 -0.000488 0.012297 -0.008189 -0.001823 -0.000036
# 4 0.002332 -0.013304 -0.008189 0.048970 0.007234 0.007185
# 5 0.003073 0.002780 -0.001823 0.007234 0.045977 -0.001692
# 6 -0.003317 -0.002235 -0.000036 0.007185 -0.001692 0.029401
#
#
# Mechanical properties :
#
#
# Convention : Reuss Voigt Hill
#
# Bulk Modulus (GPa) = 29.81613 41.52892 35.67253
# Shear Modulus (GPa) = 27.72869 36.38980 32.05925
#
# Velocity S-wave (km/s) = 3.34637 3.83353 3.59820
# Velocity P-wave (km/s) = 5.19347 6.03042 5.62752
#
# Compressibility (1/GPa) = 0.03353889
#
# Stress axis : x y z
#
# Youngs Moduli (GPa) = 117.29578 54.51965 81.31740
#
# Poissons Ratio (x) = 0.07522 0.07687
# Poissons Ratio (y) = 0.16184 0.03968
# Poissons Ratio (z) = 0.11088 0.02660
#
# Static dielectric constant tensor:
#      x y z
#    x 1.970790 0.228080 0.270930 
#    y 0.228080 1.029020 -0.938040 
#    z 0.270930 -0.938040 1.161090 
# 
# From -- ./inp_files/429101.got.cif
#   From: 2010.05.17/outbox.cif.g08.bks.cpg/sg2_215_cif.got.tgz:429101.got - 2010.06.03 11:33:40.
