data_PCOD9069386
_publ_section_title
;
Structure prediction by ZEFSAII (Michael W. Deem and Ramdas Pophale) SiO2 
 PCOD9069386
Probable space group: P -1
;
_chemical_formula_sum "Si O2"
_cell_formula_units_Z 16
_cell_length_a 9.704265
_cell_length_b 11.194501
_cell_length_c 18.043769
_cell_angle_alpha 128.414906
_cell_angle_beta 142.486261
_cell_angle_gamma 79.365900
_cell_volume 713.761775
_symmetry_space_group_name_H-M "P -1"
_symmetry_group_IT_number 2
_symmetry_cell_setting 'triclinic'
loop_
_space_group_symop_operation_xyz
x,y,z
-x,-y,-z
loop_
_atom_site_type_symbol
_atom_site_label
_atom_site_fract_x
_atom_site_fract_y
_atom_site_fract_z
Si Si1 0.168099 0.481797 0.001574
Si Si2 0.342917 0.334849 0.432840
Si Si3 0.200868 0.009790 0.022619
Si Si4 0.650515 0.165192 0.560381
Si Si5 0.437810 0.309497 0.102380
Si Si6 0.798869 0.924360 0.455439
Si Si7 0.339532 0.034556 0.829259
Si Si8 0.879187 0.613577 0.503723
O O1 0.184261 0.312992 0.968824
O O2 0.489255 0.702091 0.219638
O O3 0.000000 0.500000 0.000000
O O4 0.953843 0.379279 0.799734
O O5 0.500000 0.500000 0.500000
O O6 0.460802 0.221082 0.466392
O O7 0.335494 0.436884 0.541231
O O8 0.027159 0.170565 0.198548
O O9 0.352978 0.194867 0.100621
O O10 0.441942 0.978963 0.132079
O O11 0.000000 0.000000 0.000000
O O12 0.500000 0.000000 0.500000
O O13 0.716193 0.062740 0.490234
O O14 0.701112 0.543662 0.323936
O O15 0.492730 0.220635 0.022286
O O16 0.043322 0.978979 0.643374
O O17 0.000000 0.000000 0.500000
O O18 0.167380 0.837653 0.729717
O O19 0.000000 0.500000 0.500000
#
# Coordination Sequence:
#
# PCOD9069386 Si02
#       8
#     2   2   2   2   2   2   2   2
#     4  12  25  44  81 112 143 203 262 305 376 465
#     4  12  28  48  71 114 156 194 248 315 387 444
#     4  12  27  45  73 110 151 197 245 315 385 445
#     4  12  25  52  79 110 154 201 260 317 370 465
#     4  12  23  45  76 106 142 195 257 300 370 455
#     4  12  29  47  75 113 153 199 250 323 388 445
#     4  12  25  49  72 106 149 194 251 310 373 459
#     4  12  23  42  74 104 142 194 250 299 369 448
#
# _framework density 22.416443000000001
#
# number of rings (size 3 to 8) (size 9 to 14) (size 15 to 20)
#    0.000    0.000    6.250    4.125    1.750    1.500 
#    2.250    0.000    0.000    0.000    0.000    0.000 
#    0.000    0.000    0.000    0.000    0.000    0.000 
#
# Total GULP energy -89086.143803 kJ/mol
# GULP energy per Si atom -5567.883988 kJ/mol
# Density = 2.236542 g / cm^3
# Si number density = 22.416443 Si / 1000 Ang^3
#
#
#
# Elastic Constant Matrix: (Units=GPa)
#
#
# Indices 1 2 3 4 5 6 
#
# 1 153.2096 38.6918 24.0571 28.7769 2.5583 -18.6691
# 2 38.6918 80.2108 11.1661 4.1745 12.7702 -13.9923
# 3 24.0571 11.1661 137.5183 16.6730 -5.4759 7.0306
# 4 28.7769 4.1745 16.6730 26.0746 -10.7661 -3.5114
# 5 2.5583 12.7702 -5.4759 -10.7661 40.0661 1.1378
# 6 -18.6691 -13.9923 7.0306 -3.5114 1.1378 19.5957
#
#
#
# Elastic Compliance Matrix: (Units=1/GPa)
#
#
# Indices 1 2 3 4 5 6 
#
# 1 0.010127 -0.002676 -0.000696 -0.010673 -0.002934 0.006245
# 2 -0.002676 0.016657 -0.001692 0.000478 -0.005535 0.010359
# 3 -0.000696 -0.001692 0.008446 -0.004902 0.000586 -0.005815
# 4 -0.010673 0.000478 -0.004902 0.060004 0.015933 0.001759
# 5 -0.002934 -0.005535 0.000586 0.015933 0.031440 -0.005929
# 6 0.006245 0.010359 -0.005815 0.001759 -0.005929 0.067123
#
#
# Mechanical properties :
#
#
# Convention : Reuss Voigt Hill
#
# Bulk Modulus (GPa) = 39.84017 57.64098 48.74057
# Shear Modulus (GPa) = 23.55230 36.94886 30.25058
#
# Velocity S-wave (km/s) = 3.24492 4.06432 3.67751
# Velocity P-wave (km/s) = 5.64364 6.91335 6.31051
#
# Compressibility (1/GPa) = 0.02510029
#
# Stress axis : x y z
#
# Youngs Moduli (GPa) = 98.74792 60.03497 118.39990
#
# Poissons Ratio (x) = 0.16065 0.08245
# Poissons Ratio (y) = 0.26425 0.20037
# Poissons Ratio (z) = 0.06876 0.10160
#
# Static dielectric constant tensor:
#      x y z
#    x 2.013670 -0.074810 0.431850 
#    y -0.074810 -0.193520 -0.825250 
#    z 0.431850 -0.825250 2.659730 
# 
# From -- ./inp_files/559968.got.cif
#   From: 2010.05.17/outbox.cif.g08.bks.cpg/sg2_280_cif.got.tgz:559968.got - 2010.06.03 11:33:40.
