data_PCOD9069307
_publ_section_title
;
Structure prediction by ZEFSAII (Michael W. Deem and Ramdas Pophale) SiO2 
 PCOD9069307
Probable space group: P -1
;
_chemical_formula_sum "Si O2"
_cell_formula_units_Z 16
_cell_length_a 25.916089
_cell_length_b 25.375297
_cell_length_c 8.906873
_cell_angle_alpha 45.278103
_cell_angle_beta 133.481605
_cell_angle_gamma 168.396073
_cell_volume 837.112143
_symmetry_space_group_name_H-M "P -1"
_symmetry_group_IT_number 2
_symmetry_cell_setting 'triclinic'
loop_
_space_group_symop_operation_xyz
x,y,z
-x,-y,-z
loop_
_atom_site_type_symbol
_atom_site_label
_atom_site_fract_x
_atom_site_fract_y
_atom_site_fract_z
Si Si1 0.002671 0.655085 0.845719
Si Si2 0.964715 0.987902 0.780807
Si Si3 0.502325 0.092299 0.804366
Si Si4 0.465221 0.428781 0.736121
Si Si5 0.994266 0.182709 0.322094
Si Si6 0.002159 0.589336 0.307124
Si Si7 0.496326 0.688775 0.097492
Si Si8 0.497212 0.849734 0.650049
O O1 0.753783 0.378769 0.811103
O O2 0.000404 0.740164 0.713024
O O3 0.254261 0.880158 0.810729
O O4 0.002081 0.612766 0.088031
O O5 0.690492 0.684673 0.780319
O O6 0.984232 0.095530 0.568993
O O7 0.191187 0.176112 0.761702
O O8 0.000000 0.000000 0.000000
O O9 0.501491 0.116776 0.581166
O O10 0.500000 0.000000 0.000000
O O11 0.500000 0.500000 0.500000
O O12 0.491332 0.368648 0.872956
O O13 0.245282 0.434837 0.211436
O O14 0.744209 0.937121 0.205960
O O15 0.000000 0.500000 0.500000
O O16 0.752209 0.370881 0.322963
O O17 0.252297 0.871395 0.322020
O O18 0.493172 0.757734 0.848491
#
# Coordination Sequence:
#
# PCOD9069307 Si02
#       8
#     2   2   2   2   2   2   2   2
#     4  12  24  42  68  93 128 175 213 257 344 387
#     4  12  26  43  67 102 138 171 220 274 328 390
#     4  12  26  44  64  95 135 169 209 271 332 393
#     4  12  23  42  71  96 130 183 224 260 330 393
#     4  12  23  43  67  96 134 168 217 281 324 384
#     4  12  23  41  68  96 124 167 222 266 314 392
#     4  12  23  41  69  97 129 171 225 277 316 384
#     4  12  24  43  64  96 130 166 217 271 321 382
#
# _framework density 19.113329
#
# number of rings (size 3 to 8) (size 9 to 14) (size 15 to 20)
#    0.000    0.000    5.000    6.000    0.000    2.000 
#    0.000    0.000    0.000    0.000    0.000    0.000 
#    0.000    0.000    0.000    0.000    0.000    0.000 
#
# Total GULP energy -89549.016949 kJ/mol
# GULP energy per Si atom -5596.813559 kJ/mol
# Density = 1.906983 g / cm^3
# Si number density = 19.113329 Si / 1000 Ang^3
#
#
#
# Elastic Constant Matrix: (Units=GPa)
#
#
# Indices 1 2 3 4 5 6 
#
# 1 372.1423 181.7099 260.2719 -2.3401 23.7137 -9.1728
# 2 181.7099 224.3270 137.3115 11.4287 -2.5842 -6.9800
# 3 260.2719 137.3115 327.5980 -0.5208 7.4057 -16.8937
# 4 -2.3401 11.4287 -0.5208 26.8092 -7.9473 -4.7485
# 5 23.7137 -2.5842 7.4057 -7.9473 64.7834 -3.2921
# 6 -9.1728 -6.9800 -16.8937 -4.7485 -3.2921 56.4356
#
#
#
# Elastic Compliance Matrix: (Units=1/GPa)
#
#
# Indices 1 2 3 4 5 6 
#
# 1 0.007926 -0.003625 -0.004753 0.001334 -0.002370 -0.000609
# 2 -0.003625 0.007848 -0.000441 -0.003279 0.001291 0.000049
# 3 -0.004753 -0.000441 0.007063 0.000465 0.001043 0.001387
# 4 0.001334 -0.003279 0.000465 0.040810 0.004519 0.003648
# 5 -0.002370 0.001291 0.001043 0.004519 0.016864 0.001451
# 6 -0.000609 0.000049 0.001387 0.003648 0.001451 0.018433
#
#
# Mechanical properties :
#
#
# Convention : Reuss Voigt Hill
#
# Bulk Modulus (GPa) = 192.41399 231.40601 211.91000
# Shear Modulus (GPa) = 42.26024 52.59056 47.42540
#
# Velocity S-wave (km/s) = 4.70727 5.25118 4.98664
# Velocity P-wave (km/s) = 11.42073 12.57377 12.01110
#
# Compressibility (1/GPa) = 0.00519713
#
# Stress axis : x y z
#
# Youngs Moduli (GPa) = 126.16753 127.42889 141.58879
#
# Poissons Ratio (x) = 0.46191 0.67303
# Poissons Ratio (y) = 0.45734 0.06248
# Poissons Ratio (z) = 0.59973 0.05623
#
# Static dielectric constant tensor:
#      x y z
#    x 1.624060 0.003850 0.010530 
#    y 0.003850 1.636700 0.002230 
#    z 0.010530 0.002230 1.633870 
# 
# From -- ./inp_files/217577.got.cif
#   From: 2010.05.17/outbox.cif.g08.bks.cpg/sg2_109_cif.got.tgz:217577.got - 2010.06.03 11:33:40.
