data_PCOD9069186
_publ_section_title
;
Structure prediction by ZEFSAII (Michael W. Deem and Ramdas Pophale) SiO2 
 PCOD9069186
Probable space group: P -1
;
_chemical_formula_sum "Si O2"
_cell_formula_units_Z 16
_cell_length_a 26.966248
_cell_length_b 26.341370
_cell_length_c 8.733224
_cell_angle_alpha 41.754733
_cell_angle_beta 42.670495
_cell_angle_gamma 10.720566
_cell_volume 768.342846
_symmetry_space_group_name_H-M "P -1"
_symmetry_group_IT_number 2
_symmetry_cell_setting 'triclinic'
loop_
_space_group_symop_operation_xyz
x,y,z
-x,-y,-z
loop_
_atom_site_type_symbol
_atom_site_label
_atom_site_fract_x
_atom_site_fract_y
_atom_site_fract_z
Si Si1 0.609456 0.803601 0.212716
Si Si2 0.664699 0.913107 0.306402
Si Si3 0.824280 0.539536 0.651537
Si Si4 0.754047 0.446251 0.112125
Si Si5 0.255410 0.774330 0.842696
Si Si6 0.247938 0.713225 0.665176
Si Si7 0.230692 0.966281 0.343266
Si Si8 0.141103 0.215402 0.159673
O O1 0.718378 0.679551 0.416454
O O2 0.854619 0.532827 0.154702
O O3 0.352983 0.011448 0.275652
O O4 0.500000 0.000000 0.000000
O O5 0.917125 0.675907 0.380273
O O6 0.500000 0.000000 0.500000
O O7 0.422761 0.210329 0.231974
O O8 0.766949 0.823786 0.103674
O O9 0.863256 0.409818 0.851356
O O10 0.735358 0.393088 0.163095
O O11 0.480505 0.728240 0.196663
O O12 0.976395 0.206909 0.272840
O O13 0.248422 0.738157 0.780508
O O14 0.272806 0.847637 0.611990
O O15 0.500000 0.500000 0.000000
O O16 0.000000 0.000000 0.000000
O O17 0.500000 0.500000 0.500000
O O18 0.000000 0.000000 0.500000
O O19 0.162656 0.108969 0.279313
#
# Coordination Sequence:
#
# PCOD9069186 Si02
#       8
#     2   2   2   2   2   2   2   2
#     4  12  28  48  71 104 151 186 229 300 371 435
#     4  12  25  45  73 106 137 180 245 297 345 432
#     4  12  25  46  70 106 140 185 241 299 356 421
#     4  12  22  44  75 103 141 187 247 305 346 419
#     4  12  26  44  69 109 151 186 240 294 355 425
#     4  12  23  43  71 104 139 198 239 284 357 426
#     4  12  24  45  75 102 147 187 236 309 355 420
#     4  12  25  47  74 104 139 194 238 283 381 429
#
# _framework density 20.824038000000002
#
# number of rings (size 3 to 8) (size 9 to 14) (size 15 to 20)
#    0.000    0.000    5.000    5.250    0.000    4.000 
#    0.000    0.000    0.000    0.000    0.000    0.000 
#    0.000    0.000    0.000    0.000    0.000    0.000 
#
# Total GULP energy -89435.236471 kJ/mol
# GULP energy per Si atom -5589.702279 kJ/mol
# Density = 2.077664 g / cm^3
# Si number density = 20.824038 Si / 1000 Ang^3
#
#
#
# Elastic Constant Matrix: (Units=GPa)
#
#
# Indices 1 2 3 4 5 6 
#
# 1 174.5212 -3.4854 -59.6578 45.6548 -102.2300 10.9675
# 2 -3.4854 245.5612 206.1964 -61.2359 126.4058 -13.2725
# 3 -59.6578 206.1964 489.0383 -143.7711 242.1554 -20.7888
# 4 45.6548 -61.2359 -143.7711 89.8264 -102.2261 15.9854
# 5 -102.2300 126.4058 242.1554 -102.2261 233.5828 -24.5369
# 6 10.9675 -13.2725 -20.7888 15.9854 -24.5369 46.1097
#
#
#
# Elastic Compliance Matrix: (Units=1/GPa)
#
#
# Indices 1 2 3 4 5 6 
#
# 1 0.009050 -0.002128 -0.001354 -0.001632 0.005833 0.000294
# 2 -0.002128 0.007064 -0.001931 -0.000683 -0.003020 0.000299
# 3 -0.001354 -0.001931 0.005866 0.004831 -0.003641 -0.001201
# 4 -0.001632 -0.000683 0.004831 0.026604 0.005900 -0.003714
# 5 0.005833 -0.003020 -0.003641 0.005900 0.015042 0.002060
# 6 0.000294 0.000299 -0.001201 -0.003714 0.002060 0.023546
#
#
# Mechanical properties :
#
#
# Convention : Reuss Voigt Hill
#
# Bulk Modulus (GPa) = 89.66293 132.80301 111.23297
# Shear Modulus (GPa) = 49.15750 124.97495 87.06623
#
# Velocity S-wave (km/s) = 4.86389 7.75532 6.47311
# Velocity P-wave (km/s) = 8.64257 12.00440 10.45944
#
# Compressibility (1/GPa) = 0.01115288
#
# Stress axis : x y z
#
# Youngs Moduli (GPa) = 110.49925 141.57109 170.48658
#
# Poissons Ratio (x) = 0.30126 0.23092
# Poissons Ratio (y) = 0.23514 0.32914
# Poissons Ratio (z) = 0.14967 0.27331
#
# Static dielectric constant tensor:
#      x y z
#    x 1.758840 0.032040 -0.055730 
#    y 0.032040 1.726840 -0.030670 
#    z -0.055730 -0.030670 1.759030 
# 
# From -- ./inp_files/357972.got.cif
#   From: 2010.05.17/outbox.cif.g08.bks.cpg/sg2_179_cif.got.tgz:357972.got - 2010.06.03 11:33:40.
