data_PCOD9069710
_publ_section_title
;
Structure prediction by ZEFSAII (Michael W. Deem and Ramdas Pophale) SiO2 
 PCOD9069710
Probable space group: P -1
;
_chemical_formula_sum "Si O2"
_cell_formula_units_Z 16
_cell_length_a 6.252791
_cell_length_b 10.985291
_cell_length_c 15.644334
_cell_angle_alpha 103.817651
_cell_angle_beta 77.986411
_cell_angle_gamma 43.345746
_cell_volume 587.080137
_symmetry_space_group_name_H-M "P -1"
_symmetry_group_IT_number 2
_symmetry_cell_setting 'triclinic'
loop_
_space_group_symop_operation_xyz
x,y,z
-x,-y,-z
loop_
_atom_site_type_symbol
_atom_site_label
_atom_site_fract_x
_atom_site_fract_y
_atom_site_fract_z
Si Si1 0.540052 0.094833 0.392596
Si Si2 0.576037 0.815338 0.918757
Si Si3 0.276816 0.987272 0.455531
Si Si4 0.692389 0.115060 0.220545
Si Si5 0.318412 0.593480 0.741115
Si Si6 0.314734 0.533980 0.140637
Si Si7 0.788441 0.557943 0.394646
Si Si8 0.054489 0.324953 0.967973
O O1 0.742923 0.948405 0.436265
O O2 0.831300 0.987103 0.274793
O O3 0.239809 0.327658 0.317870
O O4 0.249934 0.112171 0.410186
O O5 0.275804 0.964513 0.888481
O O6 0.578007 0.664141 0.903948
O O7 0.973825 0.674752 0.822688
O O8 0.606668 0.855200 0.020386
O O9 0.660072 0.724924 0.365183
O O10 0.000000 0.000000 0.500000
O O11 0.814454 0.201309 0.224652
O O12 0.357599 0.307960 0.483562
O O13 0.642227 0.450827 0.761397
O O14 0.402848 0.481767 0.627075
O O15 0.665130 0.448132 0.056882
O O16 0.949022 0.711766 0.137856
O O17 0.000000 0.500000 0.000000
#
# Coordination Sequence:
#
# PCOD9069710 Si02
#       8
#     2   2   2   2   2   2   2   2
#     4   9  20  33  45  63  83 112 148 182 221 262
#     4   8  15  25  34  58  85 114 144 173 212 253
#     4   9  20  35  48  60  81 112 148 185 220 264
#     4  10  18  29  44  64  91 111 142 187 218 261
#     4   9  17  25  39  62  87 113 141 176 221 255
#     4   8  13  22  35  53  84 116 143 175 203 252
#     4   9  19  30  46  64  84 113 144 184 220 263
#     4   8  12  20  36  53  78 118 150 167 204 253
#
# _framework density 27.253520000000002
#
# number of rings (size 3 to 8) (size 9 to 14) (size 15 to 20)
#    0.750    2.500    0.000    0.375    1.750    2.500 
#    0.000    0.000    0.000    0.000    0.000    0.000 
#    0.000    1.000    0.000  229.000    0.000  405.000 
#
# Total GULP energy -89072.508372 kJ/mol
# GULP energy per Si atom -5567.031773 kJ/mol
# Density = 2.719149 g / cm^3
# Si number density = 27.253520 Si / 1000 Ang^3
#
#
#
# Elastic Constant Matrix: (Units=GPa)
#
#
# Indices 1 2 3 4 5 6 
#
# 1 132.3093 28.6545 58.6998 -9.4051 18.2584 37.3508
# 2 28.6545 54.5418 46.4583 -24.2989 10.2013 5.8696
# 3 58.6998 46.4583 118.4865 -1.5093 26.6745 21.1538
# 4 -9.4051 -24.2989 -1.5093 55.6148 7.6855 -1.2596
# 5 18.2584 10.2013 26.6745 7.6855 46.2013 2.9856
# 6 37.3508 5.8696 21.1538 -1.2596 2.9856 42.2276
#
#
#
# Elastic Compliance Matrix: (Units=1/GPa)
#
#
# Indices 1 2 3 4 5 6 
#
# 1 0.012276 -0.001594 -0.003379 0.001396 -0.002216 -0.008746
# 2 -0.001594 0.039015 -0.014369 0.016854 -0.002743 0.003881
# 3 -0.003379 -0.014369 0.017261 -0.005873 -0.004253 -0.003536
# 4 0.001396 0.016854 -0.005873 0.026161 -0.005267 0.000517
# 5 -0.002216 -0.002743 -0.004253 -0.005267 0.026299 0.002455
# 6 -0.008746 0.003881 -0.003536 0.000517 0.002455 0.032491
#
#
# Mechanical properties :
#
#
# Convention : Reuss Voigt Hill
#
# Bulk Modulus (GPa) = 33.47861 63.66254 48.57058
# Shear Modulus (GPa) = 24.73505 40.24374 32.48939
#
# Velocity S-wave (km/s) = 3.01589 3.84688 3.45645
# Velocity P-wave (km/s) = 4.94351 6.56821 5.81290
#
# Compressibility (1/GPa) = 0.02986981
#
# Stress axis : x y z
#
# Youngs Moduli (GPa) = 81.45776 25.63120 57.93272
#
# Poissons Ratio (x) = 0.04085 0.19574
# Poissons Ratio (y) = 0.12984 0.83242
# Poissons Ratio (z) = 0.27523 0.36829
#
# Static dielectric constant tensor:
#      x y z
#    x -8.108720 -4.176350 4.366210 
#    y -4.176350 0.757850 1.563860 
#    z 4.366210 1.563860 0.448680 
# 
# From -- ./inp_files/581965.got.cif
#   From: 2010.05.17/outbox.cif.g08.bks.cpg/sg2_291_cif.got.tgz:581965.got - 2010.06.03 11:33:40.
