data_PCOD9069703
_publ_section_title
;
Structure prediction by ZEFSAII (Michael W. Deem and Ramdas Pophale) SiO2 
 PCOD9069703
Probable space group: P -1
;
_chemical_formula_sum "Si O2"
_cell_formula_units_Z 14
_cell_length_a 22.919048
_cell_length_b 17.011222
_cell_length_c 8.387862
_cell_angle_alpha 137.395620
_cell_angle_beta 148.461149
_cell_angle_gamma 23.360511
_cell_volume 661.105591
_symmetry_space_group_name_H-M "P -1"
_symmetry_group_IT_number 2
_symmetry_cell_setting 'triclinic'
loop_
_space_group_symop_operation_xyz
x,y,z
-x,-y,-z
loop_
_atom_site_type_symbol
_atom_site_label
_atom_site_fract_x
_atom_site_fract_y
_atom_site_fract_z
Si Si1 0.423337 0.608416 0.656778
Si Si2 0.420966 0.901971 0.742513
Si Si3 0.783983 0.450916 0.384315
Si Si4 0.358472 0.191215 0.570956
Si Si5 0.749316 0.472946 0.711822
Si Si6 0.117290 0.006045 0.359743
Si Si7 0.108867 0.290858 0.387081
O O1 0.500000 0.500000 0.500000
O O2 0.348160 0.564112 0.517326
O O3 0.241631 0.848872 0.561039
O O4 0.598698 0.528828 0.025358
O O5 0.592819 0.706118 0.739932
O O6 0.275714 0.921845 0.481330
O O7 0.285073 0.109238 0.644190
O O8 0.517376 0.865537 0.075121
O O9 0.742378 0.614175 0.461451
O O10 0.799576 0.436815 0.589649
O O11 0.971248 0.231829 0.411406
O O12 0.199906 0.240622 0.351960
O O13 0.500000 0.000000 0.500000
O O14 0.946273 0.329798 0.056421
O O15 0.000000 0.000000 0.000000
O O16 0.000000 0.500000 0.500000
#
# Coordination Sequence:
#
# PCOD9069703 Si02
#       7
#     2   2   2   2   2   2   2
#     4  12  23  47  74 104 146 185 236 292 361 423
#     4  12  25  47  71 101 142 188 237 289 358 417
#     4  12  27  46  72 110 142 185 241 292 359 424
#     4  12  27  48  74 104 146 190 235 295 358 420
#     4  12  27  46  73 107 144 187 236 296 353 424
#     4  12  24  41  76 104 139 186 232 292 353 422
#     4  12  27  45  72 103 142 189 245 289 348 425
#
# _framework density 21.176646999999999
#
# number of rings (size 3 to 8) (size 9 to 14) (size 15 to 20)
#    0.000    0.000    5.714    3.429    4.000    2.286 
#    0.000    0.000    0.000    0.000    0.000    0.000 
#    0.000    0.000    0.000    0.000    0.000    0.000 
#
# Total GULP energy -78426.687310 kJ/mol
# GULP energy per Si atom -5601.906236 kJ/mol
# Density = 2.112845 g / cm^3
# Si number density = 21.176647 Si / 1000 Ang^3
#
#
#
# Elastic Constant Matrix: (Units=GPa)
#
#
# Indices 1 2 3 4 5 6 
#
# 1 84.6517 28.3147 -7.1760 -1.9241 1.2665 3.9542
# 2 28.3147 146.3923 -2.3752 -11.9547 -9.7017 1.5840
# 3 -7.1760 -2.3752 59.7165 -13.0824 3.9738 -5.3086
# 4 -1.9241 -11.9547 -13.0824 31.7604 -0.0291 -4.5823
# 5 1.2665 -9.7017 3.9738 -0.0291 39.8937 -1.8363
# 6 3.9542 1.5840 -5.3086 -4.5823 -1.8363 49.2918
#
#
#
# Elastic Compliance Matrix: (Units=1/GPa)
#
#
# Indices 1 2 3 4 5 6 
#
# 1 0.012843 -0.002502 0.001530 0.000350 -0.001205 -0.000797
# 2 -0.002502 0.007695 0.000576 0.003037 0.001913 0.000369
# 3 0.001530 0.000576 0.019184 0.008594 -0.001691 0.002661
# 4 0.000350 0.003037 0.008594 0.036800 0.000093 0.004224
# 5 -0.001205 0.001913 -0.001691 0.000093 0.025776 0.000822
# 6 -0.000797 0.000369 0.002661 0.004224 0.000822 0.021049
#
#
# Mechanical properties :
#
#
# Convention : Reuss Voigt Hill
#
# Bulk Modulus (GPa) = 25.68650 36.47640 31.08145
# Shear Modulus (GPa) = 36.46550 42.32231 39.39390
#
# Velocity S-wave (km/s) = 4.15416 4.47535 4.31774
# Velocity P-wave (km/s) = 5.93004 6.63078 6.29018
#
# Compressibility (1/GPa) = 0.03893095
#
# Stress axis : x y z
#
# Youngs Moduli (GPa) = 77.86435 129.95465 52.12577
#
# Poissons Ratio (x) = 0.32512 -0.07974
# Poissons Ratio (y) = 0.19480 -0.03004
# Poissons Ratio (z) = -0.11912 -0.07490
#
# Static dielectric constant tensor:
#      x y z
#    x 1.758160 0.017470 0.016690 
#    y 0.017470 1.734940 0.003060 
#    z 0.016690 0.003060 1.762300 
# 
# From -- ./inp_files/236889.got.cif
#   From: 2010.05.17/outbox.cif.g08.bks.cpg/sg2_119_cif.got.tgz:236889.got - 2010.06.03 11:33:40.
