data_PCOD9069620
_publ_section_title
;
Structure prediction by ZEFSAII (Michael W. Deem and Ramdas Pophale) SiO2 
 PCOD9069620
Probable space group: P -1
;
_chemical_formula_sum "Si O2"
_cell_formula_units_Z 15
_cell_length_a 12.491165
_cell_length_b 21.635878
_cell_length_c 14.691900
_cell_angle_alpha 19.865379
_cell_angle_beta 150.650708
_cell_angle_gamma 150.342021
_cell_volume 631.781360
_symmetry_space_group_name_H-M "P -1"
_symmetry_group_IT_number 2
_symmetry_cell_setting 'triclinic'
loop_
_space_group_symop_operation_xyz
x,y,z
-x,-y,-z
loop_
_atom_site_type_symbol
_atom_site_label
_atom_site_fract_x
_atom_site_fract_y
_atom_site_fract_z
Si Si1 0.688035 0.394710 0.804450
Si Si2 0.000000 0.500000 0.500000
Si Si3 0.512968 0.440424 0.261835
Si Si4 0.366548 0.925277 0.656117
Si Si5 0.104212 0.116986 0.324419
Si Si6 0.664589 0.209725 0.850582
Si Si7 0.108661 0.833577 0.273529
Si Si8 0.158061 0.664762 0.720807
O O1 0.500000 0.500000 0.500000
O O2 0.664163 0.255540 0.892949
O O3 0.947455 0.532454 0.805965
O O4 0.628229 0.273160 0.019637
O O5 0.259496 0.497498 0.714501
O O6 0.044437 0.710209 0.304072
O O7 0.329146 0.272746 0.307257
O O8 0.591899 0.356705 0.528573
O O9 0.374198 0.586558 0.978777
O O10 0.261487 0.873306 0.550901
O O11 0.177424 0.985637 0.489246
O O12 0.616829 0.069513 0.652617
O O13 0.000000 0.000000 0.500000
O O14 0.920818 0.209857 0.017526
O O15 0.500000 0.000000 0.000000
O O16 0.047894 0.675766 0.526466
O O17 0.000000 0.000000 0.000000
#
# Coordination Sequence:
#
# PCOD9069620 Si02
#       8
#     2   1   2   2   2   2   2   2
#     4  12  25  43  70 113 147 199 260 314 400 476
#     4  12  28  48  82 110 158 212 268 324 400 474
#     4  12  25  48  71 111 151 202 261 320 396 471
#     4  12  25  47  76 106 154 208 255 325 404 469
#     4  12  23  46  70 111 153 192 265 320 387 476
#     4  12  25  41  74 105 152 195 247 329 382 461
#     4  12  28  53  77 117 158 207 274 324 394 485
#     4  12  27  49  76 109 162 203 258 339 399 474
#
# _framework density 23.742391000000001
#
# number of rings (size 3 to 8) (size 9 to 14) (size 15 to 20)
#    0.000    0.000    5.333    4.000    1.867    2.667 
#    0.000    0.000    0.000    0.000    0.000    0.000 
#    0.000    0.000    0.000    0.000    0.000    0.000 
#
# Total GULP energy -83719.521886 kJ/mol
# GULP energy per Si atom -5581.301459 kJ/mol
# Density = 2.368835 g / cm^3
# Si number density = 23.742391 Si / 1000 Ang^3
#
#
#
# Elastic Constant Matrix: (Units=GPa)
#
#
# Indices 1 2 3 4 5 6 
#
# 1 63.6693 24.9523 37.8543 -0.7834 23.0291 -2.5655
# 2 24.9523 170.6444 18.0082 -1.6469 19.6368 0.1344
# 3 37.8543 18.0082 97.0379 17.9874 35.8743 -6.2664
# 4 -0.7834 -1.6469 17.9874 39.9316 3.6968 7.4095
# 5 23.0291 19.6368 35.8743 3.6968 54.1134 -1.1428
# 6 -2.5655 0.1344 -6.2664 7.4095 -1.1428 43.8166
#
#
#
# Elastic Compliance Matrix: (Units=1/GPa)
#
#
# Indices 1 2 3 4 5 6 
#
# 1 0.022615 -0.001975 -0.007814 0.004373 -0.004040 -0.000632
# 2 -0.001975 0.006321 0.000083 0.000369 -0.001538 -0.000226
# 3 -0.007814 0.000083 0.018027 -0.008137 -0.008031 0.003287
# 4 0.004373 0.000369 -0.008137 0.029792 0.001239 -0.005914
# 5 -0.004040 -0.001538 -0.008031 0.001239 0.025977 -0.000912
# 6 -0.000632 -0.000226 0.003287 -0.005914 -0.000912 0.024233
#
#
# Mechanical properties :
#
#
# Convention : Reuss Voigt Hill
#
# Bulk Modulus (GPa) = 36.29368 54.77568 45.53468
# Shear Modulus (GPa) = 32.14199 44.27478 38.20838
#
# Velocity S-wave (km/s) = 3.68337 4.32302 4.01595
# Velocity P-wave (km/s) = 5.78007 6.93101 6.38154
#
# Compressibility (1/GPa) = 0.02755301
#
# Stress axis : x y z
#
# Youngs Moduli (GPa) = 44.21814 158.20563 55.47122
#
# Poissons Ratio (x) = 0.31241 0.43343
# Poissons Ratio (y) = 0.08732 -0.00461
# Poissons Ratio (z) = 0.34550 -0.01315
#
# Static dielectric constant tensor:
#      x y z
#    x 2.036530 -0.025720 -0.048700 
#    y -0.025720 1.865200 -0.061380 
#    z -0.048700 -0.061380 1.837020 
# 
# From -- ./inp_files/524025.got.cif
#   From: 2010.05.17/outbox.cif.g08.bks.cpg/sg2_263_cif.got.tgz:524025.got - 2010.06.03 11:33:40.
