data_PCOD9069649
_publ_section_title
;
Structure prediction by ZEFSAII (Michael W. Deem and Ramdas Pophale) SiO2 
 PCOD9069649
Probable space group: P -1
;
_chemical_formula_sum "Si O2"
_cell_formula_units_Z 15
_cell_length_a 9.928297
_cell_length_b 15.418163
_cell_length_c 8.903246
_cell_angle_alpha 43.693427
_cell_angle_beta 82.137690
_cell_angle_gamma 54.673869
_cell_volume 665.613867
_symmetry_space_group_name_H-M "P -1"
_symmetry_group_IT_number 2
_symmetry_cell_setting 'triclinic'
loop_
_space_group_symop_operation_xyz
x,y,z
-x,-y,-z
loop_
_atom_site_type_symbol
_atom_site_label
_atom_site_fract_x
_atom_site_fract_y
_atom_site_fract_z
Si Si1 0.213596 0.631886 0.531365
Si Si2 0.246290 0.113551 0.220699
Si Si3 0.430033 0.511838 0.161877
Si Si4 0.618767 0.749543 0.482423
Si Si5 0.216492 0.369274 0.698086
Si Si6 0.000000 0.000000 0.000000
Si Si7 0.052098 0.900685 0.776455
Si Si8 0.076334 0.320193 0.282084
O O1 0.397681 0.584160 0.626877
O O2 0.257752 0.479821 0.617752
O O3 0.095879 0.799912 0.231898
O O4 0.093521 0.654827 0.661584
O O5 0.205915 0.161964 0.341463
O O6 0.074390 0.142581 0.147956
O O7 0.435008 0.917183 0.389309
O O8 0.239799 0.252942 0.970349
O O9 0.357178 0.415270 0.291014
O O10 0.500000 0.500000 0.000000
O O11 0.269275 0.716290 0.970354
O O12 0.625288 0.763013 0.286359
O O13 0.793437 0.718792 0.552932
O O14 0.000000 0.500000 0.500000
O O15 0.005985 0.006171 0.802619
O O16 0.000000 0.000000 0.500000
O O17 0.000000 0.500000 0.000000
#
# Coordination Sequence:
#
# PCOD9069649 Si02
#       8
#     2   2   2   2   2   1   2   2
#     4  12  26  46  77 111 149 199 253 308 386 459
#     4  12  25  45  72 105 145 186 249 309 367 445
#     4  12  26  47  76 108 153 198 252 316 382 460
#     4  12  26  44  72 106 143 189 242 302 374 448
#     4  12  24  47  72 104 146 192 242 307 375 448
#     4  12  26  46  76 108 156 194 252 310 388 452
#     4  12  27  50  76 110 154 205 255 318 386 458
#     4  12  23  46  75 105 143 194 247 304 376 450
#
# _framework density 22.535587
#
# number of rings (size 3 to 8) (size 9 to 14) (size 15 to 20)
#    0.000    0.000    2.667    8.800    0.000    3.200 
#    7.200    0.000    0.000    0.000    0.000    0.000 
#    0.000    0.000    0.000    0.000    0.000    0.000 
#
# Total GULP energy -83756.596677 kJ/mol
# GULP energy per Si atom -5583.773112 kJ/mol
# Density = 2.248430 g / cm^3
# Si number density = 22.535587 Si / 1000 Ang^3
#
#
#
# Elastic Constant Matrix: (Units=GPa)
#
#
# Indices 1 2 3 4 5 6 
#
# 1 43.3502 15.8539 -11.1628 -14.6498 8.1983 6.5972
# 2 15.8539 171.3147 18.0218 4.8497 4.4469 14.5827
# 3 -11.1628 18.0218 76.9621 -14.5762 1.3898 -0.0133
# 4 -14.6498 4.8497 -14.5762 25.2591 17.1187 -1.9860
# 5 8.1983 4.4469 1.3898 17.1187 -0.3448 1.2117
# 6 6.5972 14.5827 -0.0133 -1.9860 1.2117 36.7534
#
#
#
# Elastic Compliance Matrix: (Units=1/GPa)
#
#
# Indices 1 2 3 4 5 6 
#
# 1 0.017238 -0.001890 0.001128 -0.007073 0.026268 -0.003592
# 2 -0.001890 0.006517 -0.001830 -0.000577 -0.004417 -0.002133
# 3 0.001128 -0.001830 0.013172 -0.000855 0.013963 0.000022
# 4 -0.007073 -0.000577 -0.000855 0.004499 0.045189 0.000252
# 5 0.026268 -0.004417 0.013963 0.045189 -0.030999 0.000507
# 6 -0.003592 -0.002133 0.000022 0.000252 0.000507 0.028696
#
#
# Mechanical properties :
#
#
# Convention : Reuss Voigt Hill
#
# Bulk Modulus (GPa) = 31.50210 37.45029 34.47620
# Shear Modulus (GPa) = 91.09470 30.26113 60.67791
#
# Velocity S-wave (km/s) = 6.36477 3.66842 5.19460
# Velocity P-wave (km/s) = 8.24760 5.88196 7.16311
#
# Compressibility (1/GPa) = 0.03174392
#
# Stress axis : x y z
#
# Youngs Moduli (GPa) = 58.01002 153.44040 75.92067
#
# Poissons Ratio (x) = 0.28997 -0.08566
# Poissons Ratio (y) = 0.10963 0.13895
# Poissons Ratio (z) = -0.06545 0.28082
#
# Static dielectric constant tensor:
#      x y z
#    x 1.824510 -0.051160 0.052400 
#    y -0.051160 1.926870 -0.045540 
#    z 0.052400 -0.045540 1.860120 
# 
# From -- ./inp_files/205114.got.cif
#   From: 2010.05.17/outbox.cif.g08.bks.cpg/sg2_103_cif.got.tgz:205114.got - 2010.06.03 11:33:40.
