data_PCOD9069401
_publ_section_title
;
Structure prediction by ZEFSAII (Michael W. Deem and Ramdas Pophale) SiO2 
 PCOD9069401
Probable space group: P -1
;
_chemical_formula_sum "Si O2"
_cell_formula_units_Z 12
_cell_length_a 10.601071
_cell_length_b 9.241190
_cell_length_c 14.682618
_cell_angle_alpha 118.109418
_cell_angle_beta 71.083865
_cell_angle_gamma 150.685501
_cell_volume 608.551768
_symmetry_space_group_name_H-M "P -1"
_symmetry_group_IT_number 2
_symmetry_cell_setting 'triclinic'
loop_
_space_group_symop_operation_xyz
x,y,z
-x,-y,-z
loop_
_atom_site_type_symbol
_atom_site_label
_atom_site_fract_x
_atom_site_fract_y
_atom_site_fract_z
Si Si1 0.607328 0.464302 0.714959
Si Si2 0.616363 0.827918 0.732105
Si Si3 0.950950 0.773176 0.402516
Si Si4 0.722142 0.607974 0.944469
Si Si5 0.967187 0.272358 0.433678
Si Si6 0.724706 0.262118 0.949363
O O1 0.626765 0.680491 0.752579
O O2 0.659862 0.497010 0.820339
O O3 0.821383 0.595437 0.641631
O O4 0.319669 0.094087 0.641598
O O5 0.332028 0.531331 0.666025
O O6 0.665500 0.056786 0.830805
O O7 0.834396 0.034090 0.666001
O O8 0.981838 0.704689 0.465472
O O9 0.000000 0.000000 0.500000
O O10 0.728700 0.448091 0.957460
O O11 0.500000 0.500000 0.000000
O O12 0.000000 0.000000 0.000000
O O13 0.000000 0.500000 0.500000
O O14 0.000000 0.500000 0.000000
O O15 0.500000 0.000000 0.000000
#
# Coordination Sequence:
#
# PCOD9069401 Si02
#       6
#     2   2   2   2   2   2
#     4  12  24  45  68  99 134 180 222 278 343 398
#     4  12  24  42  72  98 134 176 228 278 334 403
#     4  12  23  43  66  99 135 179 223 270 334 399
#     4  12  27  48  74 102 142 180 227 288 355 414
#     4  12  27  41  66  97 141 177 225 274 331 404
#     4  12  27  48  74 105 136 179 235 290 343 413
#
# _framework density 19.718947
#
# number of rings (size 3 to 8) (size 9 to 14) (size 15 to 20)
#    0.000    0.000    3.333    7.000    4.667    0.000 
#    0.000    0.000    0.000    0.000    0.000    0.000 
#    0.000    0.000    0.000    0.000    0.000    0.000 
#
# Total GULP energy -67043.764010 kJ/mol
# GULP energy per Si atom -5586.980334 kJ/mol
# Density = 1.967407 g / cm^3
# Si number density = 19.718947 Si / 1000 Ang^3
#
#
#
# Elastic Constant Matrix: (Units=GPa)
#
#
# Indices 1 2 3 4 5 6 
#
# 1 195.5963 99.3565 65.3528 13.6375 5.9662 -40.1887
# 2 99.3565 179.4384 73.6673 -14.0462 -4.3939 32.3591
# 3 65.3528 73.6673 118.0418 1.6425 -3.6591 5.6450
# 4 13.6375 -14.0462 1.6425 31.1161 -8.2430 14.6952
# 5 5.9662 -4.3939 -3.6591 -8.2430 48.6176 5.5215
# 6 -40.1887 32.3591 5.6450 14.6952 5.5215 44.5416
#
#
#
# Elastic Compliance Matrix: (Units=1/GPa)
#
#
# Indices 1 2 3 4 5 6 
#
# 1 -0.010909 0.015208 -0.001995 0.029768 0.011228 -0.031851
# 2 0.015208 -0.009623 -0.003912 -0.029118 -0.011631 0.032257
# 3 -0.001995 -0.003912 0.012060 -0.001313 0.000591 -0.000126
# 4 0.029768 -0.029118 -0.001313 -0.026572 -0.017604 0.059128
# 5 0.011228 -0.011631 0.000591 -0.017604 0.012616 0.022749
# 6 -0.031851 0.032257 -0.000126 0.059128 0.022749 -0.052034
#
#
# Mechanical properties :
#
#
# Convention : Reuss Voigt Hill
#
# Bulk Modulus (GPa) = 98.70810 107.75888 103.23349
# Shear Modulus (GPa) = -55.74906 41.83506 -6.95700
#
# Velocity S-wave (km/s) = -5.32289 4.61104 -1.88036
# Velocity P-wave (km/s) = 3.51974 9.11674 6.91027
#
# Compressibility (1/GPa) = 0.01013088
#
# Stress axis : x y z
#
# Youngs Moduli (GPa) = -91.67017 -103.91777 82.91847
#
# Poissons Ratio (x) = 1.58040 0.16539
# Poissons Ratio (y) = 1.39413 0.32441
# Poissons Ratio (z) = -0.18284 -0.40656
#
# Static dielectric constant tensor:
#      x y z
#    x 1.606830 0.025460 0.032460 
#    y 0.025460 1.659650 -0.012420 
#    z 0.032460 -0.012420 1.625060 
# 
# From -- ./inp_files/63033.got.cif
#   From: 2010.05.17/outbox.cif.g08.bks.cpg/sg2_32_cif.got.tgz:63033.got - 2010.06.03 11:33:40.
