data_PCOD9069287
_publ_section_title
;
Structure prediction by ZEFSAII (Michael W. Deem and Ramdas Pophale) SiO2 
 PCOD9069287
Probable space group: P -1
;
_chemical_formula_sum "Si O2"
_cell_formula_units_Z 16
_cell_length_a 13.345510
_cell_length_b 9.708237
_cell_length_c 11.690123
_cell_angle_alpha 125.250798
_cell_angle_beta 116.904217
_cell_angle_gamma 107.680750
_cell_volume 696.141894
_symmetry_space_group_name_H-M "P -1"
_symmetry_group_IT_number 2
_symmetry_cell_setting 'triclinic'
loop_
_space_group_symop_operation_xyz
x,y,z
-x,-y,-z
loop_
_atom_site_type_symbol
_atom_site_label
_atom_site_fract_x
_atom_site_fract_y
_atom_site_fract_z
Si Si1 0.297597 0.496103 0.466081
Si Si2 0.185633 0.710341 0.628944
Si Si3 0.312889 0.006170 0.048659
Si Si4 0.832848 0.936532 0.644808
Si Si5 0.744094 0.054701 0.453223
Si Si6 0.212983 0.268432 0.067162
Si Si7 0.599844 0.247987 0.751237
Si Si8 0.905236 0.356941 0.029716
O O1 0.215683 0.566088 0.514988
O O2 0.504144 0.774317 0.681625
O O3 0.202817 0.335680 0.222056
O O4 0.288837 0.330777 0.471791
O O5 0.206429 0.877656 0.622003
O O6 0.000000 0.500000 0.500000
O O7 0.327820 0.910018 0.898169
O O8 0.263417 0.134841 0.044955
O O9 0.157788 0.761152 0.932857
O O10 0.771925 0.918192 0.477425
O O11 0.856173 0.139421 0.823164
O O12 0.024936 0.072005 0.813619
O O13 0.541054 0.875603 0.281289
O O14 0.887478 0.353463 0.725644
O O15 0.357554 0.537558 0.197636
O O16 0.785162 0.378114 0.944898
O O17 0.500000 0.000000 0.500000
#
# Coordination Sequence:
#
# PCOD9069287 Si02
#       8
#     2   2   2   2   2   2   2   2
#     4  12  26  45  72 108 141 186 236 297 355 420
#     4  12  26  49  72  97 140 196 240 282 353 431
#     4  12  26  46  72 104 144 183 239 292 355 423
#     4  12  24  42  69 107 145 180 235 293 356 416
#     4  12  25  45  69 103 143 193 233 291 354 423
#     4  12  25  45  72 112 143 184 234 297 356 422
#     4  12  23  40  69 105 147 181 231 290 358 424
#     4  12  23  43  68 106 143 184 230 295 358 416
#
# _framework density 22.983819
#
# number of rings (size 3 to 8) (size 9 to 14) (size 15 to 20)
#    0.000    0.000    5.000    6.750    0.000    0.000 
#    0.000    6.250    0.000    0.000    0.000    0.000 
#    0.000    0.000    0.000    0.000    0.000    0.000 
#
# Total GULP energy -89628.833010 kJ/mol
# GULP energy per Si atom -5601.802063 kJ/mol
# Density = 2.293151 g / cm^3
# Si number density = 22.983819 Si / 1000 Ang^3
#
#
#
# Elastic Constant Matrix: (Units=GPa)
#
#
# Indices 1 2 3 4 5 6 
#
# 1 93.8356 22.3756 -2.3227 5.9320 10.5424 3.6335
# 2 22.3756 152.0195 -4.4192 9.5406 -2.4776 10.6603
# 3 -2.3227 -4.4192 23.9316 8.3035 4.7842 6.2409
# 4 5.9320 9.5406 8.3035 27.6683 1.9514 1.4994
# 5 10.5424 -2.4776 4.7842 1.9514 31.0865 -1.3126
# 6 3.6335 10.6603 6.2409 1.4994 -1.3126 39.6376
#
#
#
# Elastic Compliance Matrix: (Units=1/GPa)
#
#
# Indices 1 2 3 4 5 6 
#
# 1 0.011790 -0.001480 0.002952 -0.002524 -0.004463 -0.001200
# 2 -0.001480 0.007210 0.002574 -0.002884 0.000774 -0.002074
# 3 0.002952 0.002574 0.052065 -0.016091 -0.008171 -0.008822
# 4 -0.002524 -0.002884 -0.016091 0.042364 0.000526 0.001955
# 5 -0.004463 0.000774 -0.008171 0.000526 0.035079 0.002629
# 6 -0.001200 -0.002074 -0.008822 0.001955 0.002629 0.027299
#
#
# Mechanical properties :
#
#
# Convention : Reuss Voigt Hill
#
# Bulk Modulus (GPa) = 12.63298 33.45046 23.04172
# Shear Modulus (GPa) = 25.75994 36.62200 31.19097
#
# Velocity S-wave (km/s) = 3.35145 3.99605 3.68786
# Velocity P-wave (km/s) = 4.52600 5.98972 5.30855
#
# Compressibility (1/GPa) = 0.07915786
#
# Stress axis : x y z
#
# Youngs Moduli (GPa) = 84.81564 138.70065 19.20676
#
# Poissons Ratio (x) = 0.20525 -0.05669
# Poissons Ratio (y) = 0.12551 -0.04945
# Poissons Ratio (z) = -0.25036 -0.35708
#
# Static dielectric constant tensor:
#      x y z
#    x 1.828300 0.002640 0.019070 
#    y 0.002640 1.888610 -0.030340 
#    z 0.019070 -0.030340 1.885860 
# 
# From -- ./inp_files/436647.got.cif
#   From: 2010.05.17/outbox.cif.g08.bks.cpg/sg2_219_cif.got.tgz:436647.got - 2010.06.03 11:33:40.
