data_PCOD9069103
_publ_section_title
;
Structure prediction by ZEFSAII (Michael W. Deem and Ramdas Pophale) SiO2 
 PCOD9069103
Probable space group: P -1
;
_chemical_formula_sum "Si O2"
_cell_formula_units_Z 16
_cell_length_a 8.407099
_cell_length_b 15.394175
_cell_length_c 9.708396
_cell_angle_alpha 58.189995
_cell_angle_beta 47.143571
_cell_angle_gamma 86.460857
_cell_volume 688.183165
_symmetry_space_group_name_H-M "P -1"
_symmetry_group_IT_number 2
_symmetry_cell_setting 'triclinic'
loop_
_space_group_symop_operation_xyz
x,y,z
-x,-y,-z
loop_
_atom_site_type_symbol
_atom_site_label
_atom_site_fract_x
_atom_site_fract_y
_atom_site_fract_z
Si Si1 0.803636 0.983663 0.510460
Si Si2 0.458603 0.645025 0.430473
Si Si3 0.972819 0.233871 0.072390
Si Si4 0.584297 0.444294 0.163003
Si Si5 0.713768 0.431043 0.692641
Si Si6 0.030444 0.672873 0.714123
Si Si7 0.277790 0.797071 0.043815
Si Si8 0.845107 0.783246 0.511789
O O1 0.527120 0.918690 0.788964
O O2 0.825895 0.898926 0.453908
O O3 0.858653 0.104580 0.308774
O O4 0.000000 0.000000 0.500000
O O5 0.407525 0.583332 0.658363
O O6 0.346866 0.559666 0.438324
O O7 0.306705 0.716347 0.465399
O O8 0.745796 0.723017 0.171783
O O9 0.974349 0.313679 0.130939
O O10 0.829497 0.236560 0.019042
O O11 0.429709 0.515226 0.183010
O O12 0.418545 0.320683 0.293865
O O13 0.861339 0.538273 0.881866
O O14 0.000000 0.500000 0.500000
O O15 0.642514 0.297956 0.873695
O O16 0.918175 0.745354 0.643876
O O17 0.057805 0.794583 0.269552
#
# Coordination Sequence:
#
# PCOD9069103 Si02
#       8
#     2   2   2   2   2   2   2   2
#     4  12  28  50  79 107 142 191 249 309 360 429
#     4  12  25  46  71 108 149 197 240 299 369 428
#     4  12  27  50  74 109 147 190 248 305 358 432
#     4  12  25  46  71 112 150 189 244 300 359 444
#     4  12  22  42  74 103 151 198 233 291 366 433
#     4  12  26  44  76 108 152 191 242 294 366 437
#     4  12  27  48  77 109 146 194 243 299 371 431
#     4  12  26  50  73 110 146 194 242 297 367 440
#
# _framework density 23.249624000000001
#
# number of rings (size 3 to 8) (size 9 to 14) (size 15 to 20)
#    0.000    0.000    6.250    3.000    3.500    3.000 
#    0.000    0.000    0.000    0.000    0.000    0.000 
#    0.000    0.000    0.000    0.000    0.000    0.000 
#
# Total GULP energy -89690.960714 kJ/mol
# GULP energy per Si atom -5605.685045 kJ/mol
# Density = 2.319671 g / cm^3
# Si number density = 23.249624 Si / 1000 Ang^3
#
#
#
# Elastic Constant Matrix: (Units=GPa)
#
#
# Indices 1 2 3 4 5 6 
#
# 1 101.2106 23.4800 21.7940 4.5082 -5.3505 26.6918
# 2 23.4800 104.6513 22.8568 3.0019 -4.4792 1.2725
# 3 21.7940 22.8568 101.9291 -1.1528 -19.3277 5.5442
# 4 4.5082 3.0019 -1.1528 32.8283 0.9141 5.3975
# 5 -5.3505 -4.4792 -19.3277 0.9141 45.8528 4.3591
# 6 26.6918 1.2725 5.5442 5.3975 4.3591 42.0273
#
#
#
# Elastic Compliance Matrix: (Units=1/GPa)
#
#
# Indices 1 2 3 4 5 6 
#
# 1 0.012990 -0.002411 -0.001534 -0.000328 0.001408 -0.008078
# 2 -0.002411 0.010529 -0.001987 -0.000962 -0.000226 0.001622
# 3 -0.001534 -0.001987 0.011518 0.000845 0.004566 -0.001067
# 4 -0.000328 -0.000962 0.000845 0.031264 -0.000030 -0.003886
# 5 0.001408 -0.000226 0.004566 -0.000030 0.024257 -0.004002
# 6 -0.008078 0.001622 -0.001067 -0.003886 -0.004002 0.029931
#
#
# Mechanical properties :
#
#
# Convention : Reuss Voigt Hill
#
# Bulk Modulus (GPa) = 43.15741 49.33919 46.24830
# Shear Modulus (GPa) = 35.69467 40.11901 37.90684
#
# Velocity S-wave (km/s) = 3.92252 4.15851 4.04224
# Velocity P-wave (km/s) = 6.25442 6.65772 6.45922
#
# Compressibility (1/GPa) = 0.02317099
#
# Stress axis : x y z
#
# Youngs Moduli (GPa) = 76.98433 94.97724 86.82181
#
# Poissons Ratio (x) = 0.22904 0.13318
# Poissons Ratio (y) = 0.18565 0.17254
# Poissons Ratio (z) = 0.11809 0.18874
#
# Static dielectric constant tensor:
#      x y z
#    x 1.864370 0.006500 0.013500 
#    y 0.006500 1.877700 0.021330 
#    z 0.013500 0.021330 1.854850 
# 
# From -- ./inp_files/206219.got.cif
#   From: 2010.05.17/outbox.cif.g08.bks.cpg/sg2_104_cif.got.tgz:206219.got - 2010.06.03 11:33:40.
