data_PCOD9069512
_publ_section_title
;
Structure prediction by ZEFSAII (Michael W. Deem and Ramdas Pophale) SiO2 
 PCOD9069512
Probable space group: P -1
;
_chemical_formula_sum "Si O2"
_cell_formula_units_Z 16
_cell_length_a 8.717483
_cell_length_b 8.885190
_cell_length_c 14.160679
_cell_angle_alpha 105.663562
_cell_angle_beta 126.633478
_cell_angle_gamma 106.924679
_cell_volume 687.181974
_symmetry_space_group_name_H-M "P -1"
_symmetry_group_IT_number 2
_symmetry_cell_setting 'triclinic'
loop_
_space_group_symop_operation_xyz
x,y,z
-x,-y,-z
loop_
_atom_site_type_symbol
_atom_site_label
_atom_site_fract_x
_atom_site_fract_y
_atom_site_fract_z
Si Si1 0.320814 0.939980 0.172910
Si Si2 0.141002 0.269473 0.148290
Si Si3 0.451801 0.779553 0.513803
Si Si4 0.167123 0.654512 0.210346
Si Si5 0.500180 0.740010 0.838560
Si Si6 0.937444 0.881814 0.691018
Si Si7 0.745963 0.690610 0.088568
Si Si8 0.001578 0.574282 0.615603
O O1 0.288944 0.751070 0.170308
O O2 0.428181 0.073906 0.328429
O O3 0.470952 0.071785 0.161800
O O4 0.062516 0.866792 0.026793
O O5 0.144972 0.459427 0.183964
O O6 0.392120 0.319272 0.214947
O O7 0.073306 0.171090 0.209840
O O8 0.319442 0.793276 0.378256
O O9 0.665864 0.783990 0.549849
O O10 0.240950 0.579147 0.447965
O O11 0.923306 0.634724 0.117469
O O12 0.230853 0.602031 0.749658
O O13 0.660797 0.764973 0.987005
O O14 0.027698 0.771624 0.654447
O O15 0.091228 0.108023 0.760594
O O16 0.500000 0.500000 0.000000
O O17 0.000000 0.500000 0.500000
#
# Coordination Sequence:
#
# PCOD9069512 Si02
#       8
#     2   2   2   2   2   2   2   2
#     4  12  23  44  73 106 143 193 244 301 357 431
#     4  12  23  45  77 108 138 197 250 307 347 445
#     4  12  24  46  75 105 147 194 244 299 356 445
#     4  12  26  43  72 110 148 188 251 300 363 423
#     4  12  24  46  72 101 149 186 243 297 370 425
#     4  12  25  47  79 105 139 199 254 288 372 437
#     4  12  27  48  71 109 152 190 235 315 368 436
#     4  12  26  44  70 112 145 191 243 303 359 443
#
# _framework density 23.283498999999999
#
# number of rings (size 3 to 8) (size 9 to 14) (size 15 to 20)
#    0.000    0.000    7.500    2.250    1.750    1.500 
#    0.000    0.000    0.000    3.000    0.000    0.000 
#    0.000    0.000    0.000    0.000    0.000    0.000 
#
# Total GULP energy -89287.278448 kJ/mol
# GULP energy per Si atom -5580.454903 kJ/mol
# Density = 2.323050 g / cm^3
# Si number density = 23.283499 Si / 1000 Ang^3
#
#
#
# Elastic Constant Matrix: (Units=GPa)
#
#
# Indices 1 2 3 4 5 6 
#
# 1 93.1344 33.0934 40.2839 27.6943 35.6492 -7.3644
# 2 33.0934 131.2489 31.6156 11.8497 14.1054 13.0221
# 3 40.2839 31.6156 112.3271 -2.9737 31.6272 -2.7772
# 4 27.6943 11.8497 -2.9737 42.5944 -1.8745 -8.1040
# 5 35.6492 14.1054 31.6272 -1.8745 38.0620 -7.3298
# 6 -7.3644 13.0221 -2.7772 -8.1040 -7.3298 29.7008
#
#
#
# Elastic Compliance Matrix: (Units=1/GPa)
#
#
# Indices 1 2 3 4 5 6 
#
# 1 0.027334 -0.001332 -0.003237 -0.019498 -0.024193 -0.004232
# 2 -0.001332 0.009505 -0.001852 -0.003146 -0.002053 -0.006036
# 3 -0.003237 -0.001852 0.012486 0.003305 -0.006398 0.000500
# 4 -0.019498 -0.003146 0.003305 0.040706 0.021228 0.013199
# 5 -0.024193 -0.002053 -0.006398 0.021228 0.058872 0.014624
# 6 -0.004232 -0.006036 0.000500 0.013199 0.014624 0.042523
#
#
# Mechanical properties :
#
#
# Convention : Reuss Voigt Hill
#
# Bulk Modulus (GPa) = 27.40982 60.74402 44.07692
# Shear Modulus (GPa) = 23.10230 37.51926 30.31078
#
# Velocity S-wave (km/s) = 3.15337 4.01859 3.61198
# Velocity P-wave (km/s) = 5.00560 6.90490 6.03049
#
# Compressibility (1/GPa) = 0.03648327
#
# Stress axis : x y z
#
# Youngs Moduli (GPa) = 36.58406 105.21198 80.09016
#
# Poissons Ratio (x) = 0.14017 0.25923
# Poissons Ratio (y) = 0.04874 0.14831
# Poissons Ratio (z) = 0.11841 0.19484
#
# Static dielectric constant tensor:
#      x y z
#    x 1.873480 0.031750 -0.004300 
#    y 0.031750 1.943740 0.043100 
#    z -0.004300 0.043100 1.968860 
# 
# From -- ./inp_files/495514.got.cif
#   From: 2010.05.17/outbox.cif.g08.bks.cpg/sg2_248_cif.got.tgz:495514.got - 2010.06.03 11:33:40.
