data_PCOD9069327
_publ_section_title
;
Structure prediction by ZEFSAII (Michael W. Deem and Ramdas Pophale) SiO2 
 PCOD9069327
Probable space group: P -1
;
_chemical_formula_sum "Si O2"
_cell_formula_units_Z 16
_cell_length_a 5.427750
_cell_length_b 21.786957
_cell_length_c 10.834487
_cell_angle_alpha 147.204290
_cell_angle_beta 79.630101
_cell_angle_gamma 109.241469
_cell_volume 643.302608
_symmetry_space_group_name_H-M "P -1"
_symmetry_group_IT_number 2
_symmetry_cell_setting 'triclinic'
loop_
_space_group_symop_operation_xyz
x,y,z
-x,-y,-z
loop_
_atom_site_type_symbol
_atom_site_label
_atom_site_fract_x
_atom_site_fract_y
_atom_site_fract_z
Si Si1 0.026786 0.854961 0.963527
Si Si2 0.514665 0.698601 0.389790
Si Si3 0.793459 0.435241 0.013972
Si Si4 0.557635 0.477492 0.667980
Si Si5 0.597356 0.271461 0.159835
Si Si6 0.731176 0.097220 0.222394
Si Si7 0.980917 0.901978 0.574679
Si Si8 0.030283 0.719169 0.083508
O O1 0.721073 0.791009 0.920772
O O2 0.230140 0.784114 0.858181
O O3 0.028679 0.876245 0.852191
O O4 0.120697 0.985917 0.239170
O O5 0.450867 0.610219 0.362269
O O6 0.324392 0.778128 0.547065
O O7 0.795223 0.799095 0.508005
O O8 0.468954 0.619502 0.136282
O O9 0.730117 0.507328 0.256770
O O10 0.879677 0.330770 0.885536
O O11 0.000000 0.500000 0.000000
O O12 0.620318 0.405898 0.427179
O O13 0.773380 0.610977 0.876305
O O14 0.735372 0.262850 0.004281
O O15 0.762784 0.052596 0.281659
O O16 0.500000 0.000000 0.000000
O O17 0.993324 0.841394 0.340305
#
# Coordination Sequence:
#
# PCOD9069327 Si02
#       8
#     2   2   2   2   2   2   2   2
#     4  12  28  51  75 112 152 200 257 314 377 453
#     4  12  23  41  73 109 151 184 239 318 390 455
#     4  12  25  43  73 111 150 190 246 313 392 450
#     4  12  26  46  73 108 154 197 250 311 381 460
#     4  12  31  50  77 107 152 210 261 308 369 448
#     4  12  24  44  74 111 150 189 245 316 389 451
#     4  12  26  45  77 109 150 192 250 319 389 447
#     4  12  28  49  72 107 147 205 255 312 369 456
#
# _framework density 24.871653999999999
#
# number of rings (size 3 to 8) (size 9 to 14) (size 15 to 20)
#    0.000    0.000    6.250    3.375    5.250    1.500 
#    0.000    0.000    0.000    0.000    0.000    0.000 
#    0.000    0.000    0.000    0.000    0.000    0.000 
#
# Total GULP energy -89465.889409 kJ/mol
# GULP energy per Si atom -5591.618088 kJ/mol
# Density = 2.481505 g / cm^3
# Si number density = 24.871654 Si / 1000 Ang^3
#
#
#
# Elastic Constant Matrix: (Units=GPa)
#
#
# Indices 1 2 3 4 5 6 
#
# 1 73.8243 15.4842 34.8574 7.4071 -11.5299 23.2499
# 2 15.4842 75.0491 26.2393 -22.6816 5.2075 31.3424
# 3 34.8574 26.2393 169.6562 -23.4592 -27.4356 20.2694
# 4 7.4071 -22.6816 -23.4592 32.1855 8.0879 -12.6673
# 5 -11.5299 5.2075 -27.4356 8.0879 48.8089 -2.4179
# 6 23.2499 31.3424 20.2694 -12.6673 -2.4179 42.6739
#
#
#
# Elastic Compliance Matrix: (Units=1/GPa)
#
#
# Indices 1 2 3 4 5 6 
#
# 1 0.022806 -0.003586 -0.004072 -0.017143 0.005696 -0.012623
# 2 -0.003586 0.023854 -0.000700 0.014346 -0.006725 -0.011356
# 3 -0.004072 -0.000700 0.007988 0.005932 0.002662 0.000850
# 4 -0.017143 0.014346 0.005932 0.057078 -0.011095 0.012300
# 5 0.005696 -0.006725 0.002662 -0.011095 0.025824 -0.001259
# 6 -0.012623 -0.011356 0.000850 0.012300 -0.001259 0.041828
#
#
# Mechanical properties :
#
#
# Convention : Reuss Voigt Hill
#
# Bulk Modulus (GPa) = 26.36259 52.41015 39.38637
# Shear Modulus (GPa) = 23.95342 40.86356 32.40849
#
# Velocity S-wave (km/s) = 3.10672 4.05776 3.61367
# Velocity P-wave (km/s) = 4.84679 6.56292 5.76903
#
# Compressibility (1/GPa) = 0.03793254
#
# Stress axis : x y z
#
# Youngs Moduli (GPa) = 43.84842 41.92119 125.18184
#
# Poissons Ratio (x) = 0.15034 0.50977
# Poissons Ratio (y) = 0.15725 0.08757
# Poissons Ratio (z) = 0.17856 0.02933
#
# Static dielectric constant tensor:
#      x y z
#    x 2.089210 0.025790 0.066070 
#    y 0.025790 1.985990 0.037850 
#    z 0.066070 0.037850 2.058600 
# 
# From -- ./inp_files/371113.got.cif
#   From: 2010.05.17/outbox.cif.g08.bks.cpg/sg2_186_cif.got.tgz:371113.got - 2010.06.03 11:33:40.
