data_PCOD9069847
_publ_section_title
;
Structure prediction by ZEFSAII (Michael W. Deem and Ramdas Pophale) SiO2 
 PCOD9069847
Probable space group: P -1
;
_chemical_formula_sum "Si O2"
_cell_formula_units_Z 13
_cell_length_a 5.740161
_cell_length_b 22.273383
_cell_length_c 19.760562
_cell_angle_alpha 11.274847
_cell_angle_beta 103.265482
_cell_angle_gamma 102.206572
_cell_volume 479.549997
_symmetry_space_group_name_H-M "P -1"
_symmetry_group_IT_number 2
_symmetry_cell_setting 'triclinic'
loop_
_space_group_symop_operation_xyz
x,y,z
-x,-y,-z
loop_
_atom_site_type_symbol
_atom_site_label
_atom_site_fract_x
_atom_site_fract_y
_atom_site_fract_z
Si Si1 0.392437 0.704076 0.697019
Si Si2 0.171611 0.448857 0.631767
Si Si3 0.918269 0.862715 0.892392
Si Si4 0.000000 0.500000 0.000000
Si Si5 0.452444 0.957873 0.122392
Si Si6 0.208300 0.373001 0.382323
Si Si7 0.683933 0.210419 0.191216
O O1 0.301998 0.930522 0.380921
O O2 0.646339 0.847649 0.579423
O O3 0.187577 0.702828 0.740659
O O4 0.461593 0.366235 0.046792
O O5 0.212897 0.773158 0.310332
O O6 0.000000 0.500000 0.500000
O O7 0.096966 0.226862 0.931445
O O8 0.412084 0.279533 0.802894
O O9 0.142138 0.073792 0.667961
O O10 0.968233 0.556191 0.191288
O O11 0.913476 0.317056 0.127434
O O12 0.640177 0.739889 0.417748
O O13 0.500000 0.000000 0.000000
O O14 0.325453 0.607919 0.081018
#
# Coordination Sequence:
#
# PCOD9069847 Si02
#       7
#     2   2   2   1   2   2   2
#     4  12  27  48  74 107 143 190 239 297 363 432
#     4  12  24  42  66 101 139 184 236 290 353 417
#     4  12  24  45  71 101 141 186 235 294 358 420
#     4  12  28  50  76 108 146 184 246 294 374 418
#     4  12  24  42  66 101 139 184 236 290 353 417
#     4  12  24  45  71 101 141 186 235 294 358 420
#     4  12  27  48  74 107 143 190 239 297 363 432
#
# _framework density 27.108747000000001
#
# number of rings (size 3 to 8) (size 9 to 14) (size 15 to 20)
#    0.000    0.000    1.538    9.231    0.000    1.231 
#    0.000    0.000    0.000    0.000    0.000    0.000 
#    0.000    0.000    0.000    0.000    0.000    0.000 
#
# Total GULP energy -72727.742565 kJ/mol
# GULP energy per Si atom -5594.441736 kJ/mol
# Density = 2.704705 g / cm^3
# Si number density = 27.108747 Si / 1000 Ang^3
#
#
#
# Elastic Constant Matrix: (Units=GPa)
#
#
# Indices 1 2 3 4 5 6 
#
# 1 44.7305 29.3160 6.9871 0.5266 -21.0653 -1.7553
# 2 29.3160 123.2497 57.0633 15.7308 -7.8284 6.7922
# 3 6.9871 57.0633 133.6219 8.1521 -13.2626 1.1700
# 4 0.5266 15.7308 8.1521 63.2277 -0.4621 -0.8214
# 5 -21.0653 -7.8284 -13.2626 -0.4621 56.2671 0.7373
# 6 -1.7553 6.7922 1.1700 -0.8214 0.7373 66.1278
#
#
#
# Elastic Compliance Matrix: (Units=1/GPa)
#
#
# Indices 1 2 3 4 5 6 
#
# 1 0.033426 -0.008947 0.003149 0.001651 0.012004 0.001637
# 2 -0.008947 0.012838 -0.005125 -0.002498 -0.002773 -0.001466
# 3 0.003149 -0.005125 0.009778 0.000014 0.002766 0.000406
# 4 0.001651 -0.002498 0.000014 0.016431 0.000402 0.000500
# 5 0.012004 -0.002773 0.002766 0.000402 0.022532 0.000308
# 6 0.001637 -0.001466 0.000406 0.000500 0.000308 0.015312
#
#
# Mechanical properties :
#
#
# Convention : Reuss Voigt Hill
#
# Bulk Modulus (GPa) = 29.24250 54.25943 41.75097
# Shear Modulus (GPa) = 34.82864 51.00688 42.91776
#
# Velocity S-wave (km/s) = 3.58826 4.34241 3.98322
# Velocity P-wave (km/s) = 5.28943 6.72316 6.04892
#
# Compressibility (1/GPa) = 0.03419680
#
# Stress axis : x y z
#
# Youngs Moduli (GPa) = 29.91687 77.89428 102.27383
#
# Poissons Ratio (x) = 0.69694 -0.32211
# Poissons Ratio (y) = 0.26768 0.52411
# Poissons Ratio (z) = -0.09422 0.39917
#
# Static dielectric constant tensor:
#      x y z
#    x 1.413840 -0.034250 -0.282530 
#    y -0.034250 2.048430 0.015790 
#    z -0.282530 0.015790 1.938770 
# 
# From -- ./inp_files/120990.got.cif
#   From: 2010.05.17/outbox.cif.g08.bks.cpg/sg2_61_cif.got.tgz:120990.got - 2010.06.03 11:33:40.
