data_PCOD9069147
_publ_section_title
;
Structure prediction by ZEFSAII (Michael W. Deem and Ramdas Pophale) SiO2 
 PCOD9069147
Probable space group: P -1
;
_chemical_formula_sum "Si O2"
_cell_formula_units_Z 14
_cell_length_a 16.061896
_cell_length_b 12.056006
_cell_length_c 22.776600
_cell_angle_alpha 27.927379
_cell_angle_beta 161.461226
_cell_angle_gamma 141.984707
_cell_volume 618.882787
_symmetry_space_group_name_H-M "P -1"
_symmetry_group_IT_number 2
_symmetry_cell_setting 'triclinic'
loop_
_space_group_symop_operation_xyz
x,y,z
-x,-y,-z
loop_
_atom_site_type_symbol
_atom_site_label
_atom_site_fract_x
_atom_site_fract_y
_atom_site_fract_z
Si Si1 0.610369 0.569436 0.406604
Si Si2 0.260694 0.567896 0.667103
Si Si3 0.491897 0.717450 0.632518
Si Si4 0.066391 0.246478 0.944599
Si Si5 0.653518 0.082462 0.355571
Si Si6 0.097820 0.487752 0.169880
Si Si7 0.333964 0.918840 0.771394
O O1 0.670629 0.382261 0.479017
O O2 0.865803 0.471237 0.667888
O O3 0.341217 0.538638 0.272811
O O4 0.582262 0.859135 0.245400
O O5 0.370740 0.682404 0.630964
O O6 0.166150 0.760858 0.568843
O O7 0.000000 0.500000 0.500000
O O8 0.512212 0.328757 0.972112
O O9 0.500000 0.000000 0.500000
O O10 0.809711 0.532300 0.923224
O O11 0.997621 0.313586 0.934292
O O12 0.378180 0.188517 0.160658
O O13 0.000000 0.000000 0.000000
O O14 0.569440 0.123799 0.212120
O O15 0.791543 0.789140 0.598919
O O16 0.000000 0.000000 0.500000
#
# Coordination Sequence:
#
# PCOD9069147 Si02
#       7
#     2   2   2   2   2   2   2
#     4  12  26  43  78 112 150 200 252 311 378 458
#     4  12  30  49  75 112 151 205 252 312 384 457
#     4  12  28  50  76 110 156 197 253 315 381 454
#     4  12  22  43  73 114 150 187 250 312 373 442
#     4  12  25  49  79 107 151 197 250 318 375 450
#     4  12  24  48  75 116 147 194 255 315 381 441
#     4  12  28  50  75 108 155 203 257 310 384 455
#
# _framework density 22.621409
#
# number of rings (size 3 to 8) (size 9 to 14) (size 15 to 20)
#    0.000    0.000    4.286    5.571    8.000    0.571 
#    0.000    0.000    0.000    0.000    0.000    0.000 
#    0.000    0.000    0.000    0.000    0.000    0.000 
#
# Total GULP energy -78343.411346 kJ/mol
# GULP energy per Si atom -5595.957953 kJ/mol
# Density = 2.256992 g / cm^3
# Si number density = 22.621409 Si / 1000 Ang^3
#
#
#
# Elastic Constant Matrix: (Units=GPa)
#
#
# Indices 1 2 3 4 5 6 
#
# 1 115.4897 44.6904 26.3458 -8.8722 -10.7056 -13.6959
# 2 44.6904 144.1720 17.7624 -15.1107 -19.2971 -8.3849
# 3 26.3458 17.7624 87.4514 0.9344 -9.9061 18.1330
# 4 -8.8722 -15.1107 0.9344 42.5761 2.7244 -9.3799
# 5 -10.7056 -19.2971 -9.9061 2.7244 30.3586 -2.4526
# 6 -13.6959 -8.3849 18.1330 -9.3799 -2.4526 35.9280
#
#
#
# Elastic Compliance Matrix: (Units=1/GPa)
#
#
# Indices 1 2 3 4 5 6 
#
# 1 0.011750 -0.002112 -0.004454 0.003278 0.001635 0.007201
# 2 -0.002112 0.008849 -0.001326 0.003118 0.004413 0.003044
# 3 -0.004454 -0.001326 0.015586 -0.004268 0.002180 -0.010839
# 4 0.003278 0.003118 -0.004268 0.027876 0.000166 0.011421
# 5 0.001635 0.004413 0.002180 0.000166 0.037272 0.003141
# 6 0.007201 0.003044 -0.010839 0.011421 0.003141 0.039955
#
#
# Mechanical properties :
#
#
# Convention : Reuss Voigt Hill
#
# Bulk Modulus (GPa) = 49.01651 58.30118 53.65885
# Shear Modulus (GPa) = 30.51186 38.99350 34.75268
#
# Velocity S-wave (km/s) = 3.67659 4.15630 3.92379
# Velocity P-wave (km/s) = 6.30384 6.99011 6.65582
#
# Compressibility (1/GPa) = 0.02040129
#
# Stress axis : x y z
#
# Youngs Moduli (GPa) = 85.10982 113.01055 64.16076
#
# Poissons Ratio (x) = 0.23869 0.28575
# Poissons Ratio (y) = 0.17976 0.08505
# Poissons Ratio (z) = 0.37905 0.14981
#
# Static dielectric constant tensor:
#      x y z
#    x 1.838700 -0.000450 -0.037390 
#    y -0.000450 1.912210 -0.026440 
#    z -0.037390 -0.026440 1.797900 
# 
# From -- ./inp_files/95483.got.cif
#   From: 2010.05.17/outbox.cif.g08.bks.cpg/sg2_48_cif.got.tgz:95483.got - 2010.06.03 11:33:40.
