data_PCOD9069400
_publ_section_title
;
Structure prediction by ZEFSAII (Michael W. Deem and Ramdas Pophale) SiO2 
 PCOD9069400
Probable space group: P -1
;
_chemical_formula_sum "Si O2"
_cell_formula_units_Z 14
_cell_length_a 14.526901
_cell_length_b 11.287549
_cell_length_c 12.696594
_cell_angle_alpha 88.981154
_cell_angle_beta 159.647857
_cell_angle_gamma 100.378462
_cell_volume 638.956340
_symmetry_space_group_name_H-M "P -1"
_symmetry_group_IT_number 2
_symmetry_cell_setting 'triclinic'
loop_
_space_group_symop_operation_xyz
x,y,z
-x,-y,-z
loop_
_atom_site_type_symbol
_atom_site_label
_atom_site_fract_x
_atom_site_fract_y
_atom_site_fract_z
Si Si1 0.656672 0.858529 0.745137
Si Si2 0.284441 0.334364 0.502917
Si Si3 0.705863 0.066443 0.479308
Si Si4 0.692709 0.162261 0.235096
Si Si5 0.674970 0.456191 0.605582
Si Si6 0.338084 0.334904 0.809973
Si Si7 0.399612 0.812534 0.245171
O O1 0.510849 0.912233 0.673485
O O2 0.488246 0.700212 0.578165
O O3 0.586773 0.881353 0.550213
O O4 0.993122 0.904151 0.138278
O O5 0.317687 0.475318 0.498307
O O6 0.303395 0.323325 0.647044
O O7 0.530870 0.308567 0.706630
O O8 0.946221 0.229952 0.105834
O O9 0.761402 0.149415 0.431806
O O10 0.525937 0.905797 0.276052
O O11 0.008315 0.249431 0.510947
O O12 0.517623 0.251722 0.036160
O O13 0.500000 0.000000 0.000000
O O14 0.500000 0.500000 0.500000
O O15 0.000000 0.500000 0.000000
O O16 0.500000 0.500000 0.000000
#
# Coordination Sequence:
#
# PCOD9069400 Si02
#       7
#     2   2   2   2   2   2   2
#     4  12  24  43  66 103 141 172 221 275 345 407
#     4  12  24  43  73  96 138 182 223 272 348 409
#     4  12  26  42  72  99 136 178 223 284 343 396
#     4  12  27  51  75 103 141 190 249 293 350 427
#     4  12  23  43  66  98 135 178 221 270 328 419
#     4  12  28  49  73 108 143 184 242 309 354 407
#     4  12  24  45  67 104 137 180 220 271 339 429
#
# _framework density 21.910730999999998
#
# number of rings (size 3 to 8) (size 9 to 14) (size 15 to 20)
#    0.000    0.000    2.857    7.714    4.000    0.000 
#    0.000    0.000    0.000    0.000    0.000    0.000 
#    0.000    0.000    0.000    0.000    0.000    0.000 
#
# Total GULP energy -78232.847378 kJ/mol
# GULP energy per Si atom -5588.060527 kJ/mol
# Density = 2.186086 g / cm^3
# Si number density = 21.910731 Si / 1000 Ang^3
#
#
#
# Elastic Constant Matrix: (Units=GPa)
#
#
# Indices 1 2 3 4 5 6 
#
# 1 120.2694 17.7742 26.2804 -8.6683 -1.7857 3.4532
# 2 17.7742 151.3036 30.1513 10.0712 -4.3629 16.6347
# 3 26.2804 30.1513 90.4581 1.6705 10.0382 -7.2014
# 4 -8.6683 10.0712 1.6705 35.7628 11.6200 1.3534
# 5 -1.7857 -4.3629 10.0382 11.6200 40.8791 -14.2841
# 6 3.4532 16.6347 -7.2014 1.3534 -14.2841 55.8952
#
#
#
# Elastic Compliance Matrix: (Units=1/GPa)
#
#
# Indices 1 2 3 4 5 6 
#
# 1 0.009176 -0.000657 -0.002551 0.002572 -0.000044 -0.000774
# 2 -0.000657 0.007663 -0.002644 -0.002572 0.001416 -0.002156
# 3 -0.002551 -0.002644 0.013161 0.000454 -0.003114 0.001833
# 4 0.002572 -0.002572 0.000454 0.032840 -0.010601 -0.002839
# 5 -0.000044 0.001416 -0.003114 -0.010601 0.030957 0.007348
# 6 -0.000774 -0.002156 0.001833 -0.002839 0.007348 0.020763
#
#
# Mechanical properties :
#
#
# Convention : Reuss Voigt Hill
#
# Bulk Modulus (GPa) = 54.66257 56.71587 55.68922
# Shear Modulus (GPa) = 37.77504 45.69577 41.73540
#
# Velocity S-wave (km/s) = 4.15666 4.57173 4.36913
# Velocity P-wave (km/s) = 6.93103 7.33545 7.13610
#
# Compressibility (1/GPa) = 0.01829405
#
# Stress axis : x y z
#
# Youngs Moduli (GPa) = 108.97827 130.50550 75.98455
#
# Poissons Ratio (x) = 0.08574 0.19384
# Poissons Ratio (y) = 0.07160 0.20094
# Poissons Ratio (z) = 0.27801 0.34512
#
# Static dielectric constant tensor:
#      x y z
#    x 1.775780 -0.022340 -0.022750 
#    y -0.022340 1.869310 0.042220 
#    z -0.022750 0.042220 1.799750 
# 
# From -- ./inp_files/452319.got.cif
#   From: 2010.05.17/outbox.cif.g08.bks.cpg/sg2_227_cif.got.tgz:452319.got - 2010.06.03 11:33:40.
