data_PCOD9069939
_publ_section_title
;
Structure prediction by ZEFSAII (Michael W. Deem and Ramdas Pophale) SiO2 
 PCOD9069939
Probable space group: P -1
;
_chemical_formula_sum "Si O2"
_cell_formula_units_Z 14
_cell_length_a 13.475211
_cell_length_b 23.523449
_cell_length_c 23.323748
_cell_angle_alpha 12.046631
_cell_angle_beta 24.458642
_cell_angle_gamma 23.507101
_cell_volume 607.376624
_symmetry_space_group_name_H-M "P -1"
_symmetry_group_IT_number 2
_symmetry_cell_setting 'triclinic'
loop_
_space_group_symop_operation_xyz
x,y,z
-x,-y,-z
loop_
_atom_site_type_symbol
_atom_site_label
_atom_site_fract_x
_atom_site_fract_y
_atom_site_fract_z
Si Si1 0.703990 0.304557 0.128046
Si Si2 0.421916 0.449171 0.251043
Si Si3 0.313347 0.930507 0.269835
Si Si4 0.355979 0.663822 0.298677
Si Si5 0.074252 0.070333 0.828252
Si Si6 0.922433 0.265966 0.236354
Si Si7 0.042866 0.691968 0.546841
O O1 0.926180 0.453218 0.867199
O O2 0.500000 0.500000 0.000000
O O3 0.569197 0.304091 0.259921
O O4 0.819110 0.981495 0.364622
O O5 0.211334 0.311392 0.517160
O O6 0.633434 0.394916 0.242171
O O7 0.281181 0.779550 0.985085
O O8 0.459224 0.647799 0.509007
O O9 0.207331 0.794121 0.406864
O O10 0.087562 0.147487 0.209873
O O11 0.496155 0.117698 0.974432
O O12 0.201170 0.597093 0.499577
O O13 0.167095 0.821932 0.192108
O O14 0.000000 0.000000 0.000000
O O15 0.000000 0.000000 0.500000
O O16 0.000000 0.500000 0.000000
#
# Coordination Sequence:
#
# PCOD9069939 Si02
#       7
#     2   2   2   2   2   2   2
#     4  12  24  43  74 104 146 186 234 292 353 426
#     4  12  26  49  72 103 142 181 242 294 352 420
#     4  12  26  46  74 106 145 188 238 295 358 425
#     4  12  26  46  73 105 150 188 237 290 355 430
#     4  12  28  47  72 102 141 191 238 292 352 421
#     4  12  28  46  75 105 140 189 242 296 358 415
#     4  12  24  45  70 110 143 186 238 287 363 422
#
# _framework density 23.049947
#
# number of rings (size 3 to 8) (size 9 to 14) (size 15 to 20)
#    0.000    0.000    1.429    8.571    8.000    0.000 
#    0.000    0.000    0.000    0.000    0.000    0.000 
#    0.000    0.000    0.000    0.000    0.000    0.000 
#
# Total GULP energy -78490.389328 kJ/mol
# GULP energy per Si atom -5606.456381 kJ/mol
# Density = 2.299748 g / cm^3
# Si number density = 23.049947 Si / 1000 Ang^3
#
#
#
# Elastic Constant Matrix: (Units=GPa)
#
#
# Indices 1 2 3 4 5 6 
#
# 1 102.9934 25.5500 18.0532 21.6721 4.8938 -12.3251
# 2 25.5500 77.0613 7.1032 -11.5232 -0.0152 -11.5494
# 3 18.0532 7.1032 112.9361 -2.2777 -0.6937 -6.7355
# 4 21.6721 -11.5232 -2.2777 53.9385 -0.8121 8.7188
# 5 4.8938 -0.0152 -0.6937 -0.8121 34.5796 -2.4315
# 6 -12.3251 -11.5494 -6.7355 8.7188 -2.4315 43.9747
#
#
#
# Elastic Compliance Matrix: (Units=1/GPa)
#
#
# Indices 1 2 3 4 5 6 
#
# 1 0.013150 -0.004721 -0.001750 -0.006952 -0.001819 0.003456
# 2 -0.004721 0.015556 -0.000009 0.004937 0.000920 0.001833
# 3 -0.001750 -0.000009 0.009203 0.000976 0.000508 0.000751
# 4 -0.006952 0.004937 0.000976 0.023263 0.001197 -0.005048
# 5 -0.001819 0.000920 0.000508 0.001197 0.029299 0.001192
# 6 0.003456 0.001833 0.000751 -0.005048 0.001192 0.025372
#
#
# Mechanical properties :
#
#
# Convention : Reuss Voigt Hill
#
# Bulk Modulus (GPa) = 40.08370 43.82260 41.95315
# Shear Modulus (GPa) = 36.46476 42.65086 39.55781
#
# Velocity S-wave (km/s) = 3.98174 4.30626 4.14717
# Velocity P-wave (km/s) = 6.21021 6.61653 6.41658
#
# Compressibility (1/GPa) = 0.02494780
#
# Stress axis : x y z
#
# Youngs Moduli (GPa) = 76.04551 64.28463 108.66535
#
# Poissons Ratio (x) = 0.30346 0.19021
# Poissons Ratio (y) = 0.35898 0.00101
# Poissons Ratio (z) = 0.13311 0.00059
#
# Static dielectric constant tensor:
#      x y z
#    x 1.898680 -0.029910 0.046090 
#    y -0.029910 1.760840 0.045310 
#    z 0.046090 0.045310 1.815080 
# 
# From -- ./inp_files/619965.got.cif
#   From: 2010.05.17/outbox.cif.g08.bks.cpg/sg2_310_cif.got.tgz:619965.got - 2010.06.03 11:33:40.
