data_PCOD9069859
_publ_section_title
;
Structure prediction by ZEFSAII (Michael W. Deem and Ramdas Pophale) SiO2 
 PCOD9069859
Probable space group: P -1
;
_chemical_formula_sum "Si O2"
_cell_formula_units_Z 12
_cell_length_a 5.211407
_cell_length_b 11.809768
_cell_length_c 9.138722
_cell_angle_alpha 108.467335
_cell_angle_beta 103.148540
_cell_angle_gamma 93.808067
_cell_volume 513.626503
_symmetry_space_group_name_H-M "P -1"
_symmetry_group_IT_number 2
_symmetry_cell_setting 'triclinic'
loop_
_space_group_symop_operation_xyz
x,y,z
-x,-y,-z
loop_
_atom_site_type_symbol
_atom_site_label
_atom_site_fract_x
_atom_site_fract_y
_atom_site_fract_z
Si Si1 0.639338 0.389434 0.024369
Si Si2 0.684284 0.843639 0.086772
Si Si3 0.482634 0.251750 0.366576
Si Si4 0.990733 0.389523 0.341624
Si Si5 0.240358 0.978426 0.175889
Si Si6 0.569931 0.205243 0.694495
O O1 0.878084 0.421217 0.181886
O O2 0.500000 0.500000 0.000000
O O3 0.410626 0.291890 0.033007
O O4 0.718713 0.312949 0.862549
O O5 0.427532 0.910866 0.069923
O O6 0.704835 0.825507 0.259339
O O7 0.935858 0.925093 0.088346
O O8 0.764241 0.286300 0.336270
O O9 0.540037 0.245535 0.544617
O O10 0.276269 0.345679 0.354479
O O11 0.334112 0.119452 0.249387
O O12 0.000000 0.500000 0.500000
O O13 0.301602 0.916084 0.314647
#
# Coordination Sequence:
#
# PCOD9069859 Si02
#       6
#     2   2   2   2   2   2
#     4   9  21  46  67  89 124 174 213 259 311 384
#     4   8  20  36  64  96 123 157 225 248 296 367
#     4  12  24  42  67  95 132 166 202 268 321 363
#     4  12  28  44  63  96 129 162 213 266 324 368
#     4   9  19  38  63  98 126 165 209 254 305 378
#     4   8  22  37  67  95 127 164 220 246 305 375
#
# _framework density 23.363282000000002
#
# number of rings (size 3 to 8) (size 9 to 14) (size 15 to 20)
#    2.000    0.000    0.000    3.000    2.333    3.333 
#    0.000   16.667    0.000    0.000    0.000    0.000 
#    0.000    0.000    0.000    0.000    0.000    0.000 
#
# Total GULP energy -66957.808841 kJ/mol
# GULP energy per Si atom -5579.817403 kJ/mol
# Density = 2.331011 g / cm^3
# Si number density = 23.363282 Si / 1000 Ang^3
#
#
#
# Elastic Constant Matrix: (Units=GPa)
#
#
# Indices 1 2 3 4 5 6 
#
# 1 84.0632 -6.7688 2.1089 -2.3464 10.8501 2.8182
# 2 -6.7688 71.9460 19.0144 6.8374 -2.1853 -13.9636
# 3 2.1089 19.0144 119.9629 -3.3834 -0.2767 4.5066
# 4 -2.3464 6.8374 -3.3834 50.3565 5.9811 -6.0298
# 5 10.8501 -2.1853 -0.2767 5.9811 27.9410 0.2959
# 6 2.8182 -13.9636 4.5066 -6.0298 0.2959 30.1021
#
#
#
# Elastic Compliance Matrix: (Units=1/GPa)
#
#
# Indices 1 2 3 4 5 6 
#
# 1 0.012676 0.000948 -0.000340 0.000986 -0.005058 -0.000449
# 2 0.000948 0.016441 -0.002952 -0.001608 0.001152 0.007646
# 3 -0.000340 -0.002952 0.008924 0.000697 -0.000133 -0.002533
# 4 0.000986 -0.001608 0.000697 0.021173 -0.005069 0.003349
# 5 -0.005058 0.001152 -0.000133 -0.005069 0.038932 -0.000371
# 6 -0.000449 0.007646 -0.002533 0.003349 -0.000371 0.037863
#
#
# Mechanical properties :
#
#
# Convention : Reuss Voigt Hill
#
# Bulk Modulus (GPa) = 29.98323 33.85342 31.91832
# Shear Modulus (GPa) = 32.93494 39.12109 36.02801
#
# Velocity S-wave (km/s) = 3.75865 4.09647 3.93119
# Velocity P-wave (km/s) = 5.63010 6.07422 5.85637
#
# Compressibility (1/GPa) = 0.03335198
#
# Stress axis : x y z
#
# Youngs Moduli (GPa) = 78.88873 60.82503 112.05274
#
# Poissons Ratio (x) = -0.05766 0.03811
# Poissons Ratio (y) = -0.07479 0.33083
# Poissons Ratio (z) = 0.02683 0.17958
#
# Static dielectric constant tensor:
#      x y z
#    x 1.879020 0.034590 -0.017270 
#    y 0.034590 1.928660 -0.061220 
#    z -0.017270 -0.061220 1.971790 
# 
# From -- ./inp_files/365334.got.cif
#   From: 2010.05.17/outbox.cif.g08.bks.cpg/sg2_183_cif.got.tgz:365334.got - 2010.06.03 11:33:40.
