data_PCOD9069430
_publ_section_title
;
Structure prediction by ZEFSAII (Michael W. Deem and Ramdas Pophale) SiO2 
 PCOD9069430
Probable space group: P -1
;
_chemical_formula_sum "Si O2"
_cell_formula_units_Z 12
_cell_length_a 13.225281
_cell_length_b 12.280914
_cell_length_c 11.930247
_cell_angle_alpha 133.812560
_cell_angle_beta 131.749880
_cell_angle_gamma 22.177823
_cell_volume 525.625326
_symmetry_space_group_name_H-M "P -1"
_symmetry_group_IT_number 2
_symmetry_cell_setting 'triclinic'
loop_
_space_group_symop_operation_xyz
x,y,z
-x,-y,-z
loop_
_atom_site_type_symbol
_atom_site_label
_atom_site_fract_x
_atom_site_fract_y
_atom_site_fract_z
Si Si1 0.244957 0.646268 0.942734
Si Si2 0.091964 0.286689 0.692581
Si Si3 0.931047 0.122749 0.409820
Si Si4 0.379889 0.240912 0.164612
Si Si5 0.737420 0.698484 0.385863
Si Si6 0.628044 0.476954 0.798391
O O1 0.252355 0.491689 0.759292
O O2 0.500000 0.500000 0.000000
O O3 0.295785 0.546487 0.037386
O O4 0.000000 0.000000 0.000000
O O5 0.225238 0.265616 0.684127
O O6 0.910638 0.322898 0.539104
O O7 0.876027 0.571417 0.819744
O O8 0.355398 0.965046 0.717550
O O9 0.675886 0.281859 0.281958
O O10 0.000000 0.000000 0.500000
O O11 0.185443 0.843036 0.321226
O O12 0.290508 0.469289 0.188467
O O13 0.500000 0.000000 0.000000
O O14 0.000000 0.500000 0.500000
O O15 0.500000 0.000000 0.500000
#
# Coordination Sequence:
#
# PCOD9069430 Si02
#       6
#     2   2   2   2   2   2
#     4  12  29  51  76 109 147 200 258 312 377 448
#     4  12  26  44  72 105 149 184 248 305 369 450
#     4  12  23  43  72 110 142 190 239 291 376 446
#     4  12  24  43  71 105 143 192 235 304 381 447
#     4  12  29  52  78 108 149 201 259 317 378 446
#     4  12  25  44  72 103 150 187 241 303 368 446
#
# _framework density 22.829951000000001
#
# number of rings (size 3 to 8) (size 9 to 14) (size 15 to 20)
#    0.000    0.000    3.333    6.000    7.000    2.667 
#    0.000    0.000    0.000    0.000    0.000    0.000 
#    0.000    0.000    0.000    0.000    0.000    0.000 
#
# Total GULP energy -67110.591665 kJ/mol
# GULP energy per Si atom -5592.549305 kJ/mol
# Density = 2.277799 g / cm^3
# Si number density = 22.829951 Si / 1000 Ang^3
#
#
#
# Elastic Constant Matrix: (Units=GPa)
#
#
# Indices 1 2 3 4 5 6 
#
# 1 100.8365 42.1974 38.6506 10.9278 1.4132 -13.5342
# 2 42.1974 168.8665 60.7420 7.8317 -9.7147 -24.7736
# 3 38.6506 60.7420 148.7810 12.5759 14.0850 -0.6329
# 4 10.9278 7.8317 12.5759 49.8930 0.0402 -5.1199
# 5 1.4132 -9.7147 14.0850 0.0402 42.3523 3.6848
# 6 -13.5342 -24.7736 -0.6329 -5.1199 3.6848 32.0112
#
#
#
# Elastic Compliance Matrix: (Units=1/GPa)
#
#
# Indices 1 2 3 4 5 6 
#
# 1 0.012133 -0.001612 -0.002326 -0.001444 -0.000316 0.003642
# 2 -0.001612 0.008455 -0.003292 0.000425 0.002603 0.005565
# 3 -0.002326 -0.003292 0.009116 -0.001598 -0.003428 -0.003212
# 4 -0.001444 0.000425 -0.001598 0.021003 0.000396 0.003000
# 5 -0.000316 0.002603 -0.003428 0.000396 0.025451 -0.001053
# 6 0.003642 0.005565 -0.003212 0.003000 -0.001053 0.037623
#
#
# Mechanical properties :
#
#
# Convention : Reuss Voigt Hill
#
# Bulk Modulus (GPa) = 65.60228 77.96265 71.78247
# Shear Modulus (GPa) = 37.50318 43.31090 40.40704
#
# Velocity S-wave (km/s) = 4.05744 4.36031 4.21160
# Velocity P-wave (km/s) = 7.12376 7.71836 7.42702
#
# Compressibility (1/GPa) = 0.01524337
#
# Stress axis : x y z
#
# Youngs Moduli (GPa) = 82.41963 118.26894 109.70291
#
# Poissons Ratio (x) = 0.19066 0.25520
# Poissons Ratio (y) = 0.13287 0.36113
# Poissons Ratio (z) = 0.19173 0.38933
#
# Static dielectric constant tensor:
#      x y z
#    x 1.544100 -0.018700 0.157640 
#    y -0.018700 1.779540 0.010610 
#    z 0.157640 0.010610 1.779070 
# 
# From -- ./inp_files/378198.got.cif
#   From: 2010.05.17/outbox.cif.g08.bks.cpg/sg2_190_cif.got.tgz:378198.got - 2010.06.03 11:33:40.
