data_PCOD9069842
_publ_section_title
;
Structure prediction by ZEFSAII (Michael W. Deem and Ramdas Pophale) SiO2 
 PCOD9069842
Probable space group: P -1
;
_chemical_formula_sum "Si O2"
_cell_formula_units_Z 16
_cell_length_a 29.039933
_cell_length_b 5.678435
_cell_length_c 26.960907
_cell_angle_alpha 120.349581
_cell_angle_beta 9.922375
_cell_angle_gamma 119.327152
_cell_volume 660.163837
_symmetry_space_group_name_H-M "P -1"
_symmetry_group_IT_number 2
_symmetry_cell_setting 'triclinic'
loop_
_space_group_symop_operation_xyz
x,y,z
-x,-y,-z
loop_
_atom_site_type_symbol
_atom_site_label
_atom_site_fract_x
_atom_site_fract_y
_atom_site_fract_z
Si Si1 0.789125 0.603829 0.694690
Si Si2 0.802179 0.395235 0.157003
Si Si3 0.083995 0.031675 0.158911
Si Si4 0.416164 0.909732 0.978043
Si Si5 0.072691 0.437303 0.565299
Si Si6 0.925412 0.741944 0.964017
Si Si7 0.546190 0.709281 0.274899
Si Si8 0.479632 0.150893 0.244067
O O1 0.882702 0.483411 0.530418
O O2 0.000000 0.500000 0.500000
O O3 0.500000 0.500000 0.000000
O O4 0.732140 0.921070 0.802592
O O5 0.500000 0.500000 0.500000
O O6 0.882059 0.551357 0.037833
O O7 0.000000 0.500000 0.000000
O O8 0.818521 0.062885 0.109703
O O9 0.960131 0.335517 0.334123
O O10 0.297846 0.046304 0.889471
O O11 0.813042 0.875241 0.423282
O O12 0.266665 0.957689 0.004794
O O13 0.673791 0.759210 0.711802
O O14 0.519345 0.017504 0.826692
O O15 0.194841 0.720561 0.171561
O O16 0.244485 0.765152 0.619685
O O17 0.750643 0.611603 0.091323
O O18 0.511265 0.476484 0.245605
#
# Coordination Sequence:
#
# PCOD9069842 Si02
#       8
#     2   2   2   2   2   2   2   2
#     4  12  24  42  64  94 128 170 238 299 375 452
#     4  12  26  52  82 118 160 204 256 311 376 443
#     4  12  26  45  71  99 145 195 246 302 375 445
#     4  12  24  43  66  96 131 179 237 301 376 451
#     4  12  24  43  66  96 131 179 237 301 376 451
#     4  12  28  47  82 118 160 207 258 315 374 443
#     4  12  28  47  70 113 156 196 258 305 366 437
#     4  12  26  45  71  99 145 195 246 302 375 445
#
# _framework density 24.236407
#
# number of rings (size 3 to 8) (size 9 to 14) (size 15 to 20)
#    0.000    0.000    1.250    9.000    7.000    0.000 
#    0.000    0.000    0.000    0.000    0.000    0.000 
#    0.000    0.000    0.000    0.000    0.000    0.000 
#
# Total GULP energy -89434.161644 kJ/mol
# GULP energy per Si atom -5589.635103 kJ/mol
# Density = 2.418124 g / cm^3
# Si number density = 24.236407 Si / 1000 Ang^3
#
#
#
# Elastic Constant Matrix: (Units=GPa)
#
#
# Indices 1 2 3 4 5 6 
#
# 1 111.5312 6.1024 23.7684 -8.0804 -10.1699 0.7792
# 2 6.1024 83.7668 24.1706 -7.7739 -0.8053 10.5737
# 3 23.7684 24.1706 185.6596 -9.9889 -14.6377 -4.9060
# 4 -8.0804 -7.7739 -9.9889 42.5657 -8.2836 -9.3805
# 5 -10.1699 -0.8053 -14.6377 -8.2836 59.0571 -4.4697
# 6 0.7792 10.5737 -4.9060 -9.3805 -4.4697 37.2585
#
#
#
# Elastic Compliance Matrix: (Units=1/GPa)
#
#
# Indices 1 2 3 4 5 6 
#
# 1 0.009473 -0.000283 -0.000923 0.001964 0.001709 0.000460
# 2 -0.000283 0.013018 -0.001737 0.001012 -0.000441 -0.003716
# 3 -0.000923 -0.001737 0.006004 0.001669 0.001685 0.001925
# 4 0.001964 0.001012 0.001669 0.027049 0.005113 0.007315
# 5 0.001709 -0.000441 0.001685 0.005113 0.018646 0.003836
# 6 0.000460 -0.003716 0.001925 0.007315 0.003836 0.030440
#
#
# Mechanical properties :
#
#
# Convention : Reuss Voigt Hill
#
# Bulk Modulus (GPa) = 44.23099 54.33782 49.28441
# Shear Modulus (GPa) = 42.35331 49.57066 45.96198
#
# Velocity S-wave (km/s) = 4.18486 4.52740 4.35949
# Velocity P-wave (km/s) = 6.45292 7.05680 6.76160
#
# Compressibility (1/GPa) = 0.02260858
#
# Stress axis : x y z
#
# Youngs Moduli (GPa) = 105.56019 76.81423 166.55340
#
# Poissons Ratio (x) = 0.02174 0.15379
# Poissons Ratio (y) = 0.02988 0.28933
# Poissons Ratio (z) = 0.09747 0.13344
#
# Static dielectric constant tensor:
#      x y z
#    x 0.667700 -0.983380 -0.605150 
#    y -0.983380 1.336130 -0.546380 
#    z -0.605150 -0.546380 1.536600 
# 
# From -- ./inp_files/621447.got.cif
#   From: 2010.05.17/outbox.cif.g08.bks.cpg/sg2_311_cif.got.tgz:621447.got - 2010.06.03 11:33:40.
