data_PCOD9069613
_publ_section_title
;
Structure prediction by ZEFSAII (Michael W. Deem and Ramdas Pophale) SiO2 
 PCOD9069613
Probable space group: P -1
;
_chemical_formula_sum "Si O2"
_cell_formula_units_Z 16
_cell_length_a 26.086777
_cell_length_b 8.137345
_cell_length_c 26.130105
_cell_angle_alpha 136.030820
_cell_angle_beta 169.251246
_cell_angle_gamma 43.854528
_cell_volume 714.001934
_symmetry_space_group_name_H-M "P -1"
_symmetry_group_IT_number 2
_symmetry_cell_setting 'triclinic'
loop_
_space_group_symop_operation_xyz
x,y,z
-x,-y,-z
loop_
_atom_site_type_symbol
_atom_site_label
_atom_site_fract_x
_atom_site_fract_y
_atom_site_fract_z
Si Si1 0.961086 0.635367 0.545611
Si Si2 0.116551 0.900166 0.145320
Si Si3 0.835387 0.239694 0.415604
Si Si4 0.103410 0.872100 0.918008
Si Si5 0.409446 0.899435 0.594587
Si Si6 0.280024 0.330130 0.950051
Si Si7 0.351002 0.410246 0.383625
Si Si8 0.426761 0.963809 0.100966
O O1 0.000000 0.500000 0.500000
O O2 0.865511 0.452894 0.453019
O O3 0.725142 0.847140 0.350428
O O4 0.223948 0.757275 0.850869
O O5 0.438354 0.809109 0.439416
O O6 0.043137 0.082247 0.160720
O O7 0.946133 0.673492 0.936834
O O8 0.000000 0.000000 0.000000
O O9 0.517628 0.241965 0.121796
O O10 0.000000 0.000000 0.500000
O O11 0.992198 0.290187 0.632769
O O12 0.260007 0.610513 0.004788
O O13 0.864851 0.934956 0.655506
O O14 0.338324 0.050561 0.183670
O O15 0.336386 0.631084 0.457637
O O16 0.523419 0.956296 0.774598
O O17 0.325002 0.177629 0.011385
O O18 0.500000 0.500000 0.500000
#
# Coordination Sequence:
#
# PCOD9069613 Si02
#       8
#     2   2   2   2   2   2   2   2
#     4  12  25  46  73 100 136 177 226 276 330 403
#     4  12  26  44  69 101 139 177 232 287 349 404
#     4  12  25  46  72 101 136 179 220 274 338 406
#     4  12  24  45  67  98 136 184 225 282 347 410
#     4  12  25  43  72  96 137 181 232 282 342 407
#     4  12  26  44  68 100 139 176 224 277 342 404
#     4  12  23  46  70 100 131 183 235 282 338 414
#     4  12  26  45  67 104 135 177 227 280 335 401
#
# _framework density 22.408901
#
# number of rings (size 3 to 8) (size 9 to 14) (size 15 to 20)
#    0.000    0.000    2.500    9.000    1.750    0.000 
#    2.250    0.000    0.000    0.000    0.000    0.000 
#    0.000    0.000    0.000    0.000    0.000    0.000 
#
# Total GULP energy -89621.175447 kJ/mol
# GULP energy per Si atom -5601.323465 kJ/mol
# Density = 2.235790 g / cm^3
# Si number density = 22.408901 Si / 1000 Ang^3
#
#
#
# Elastic Constant Matrix: (Units=GPa)
#
#
# Indices 1 2 3 4 5 6 
#
# 1 106.6816 36.7243 3.9863 -3.4792 -23.8609 1.5436
# 2 36.7243 91.7307 0.9272 -7.7016 -4.9647 -13.4637
# 3 3.9863 0.9272 89.0040 -1.6413 -3.4421 4.4369
# 4 -3.4792 -7.7016 -1.6413 44.7231 0.3744 -9.6617
# 5 -23.8609 -4.9647 -3.4421 0.3744 36.5644 3.1859
# 6 1.5436 -13.4637 4.4369 -9.6617 3.1859 51.7434
#
#
#
# Elastic Compliance Matrix: (Units=1/GPa)
#
#
# Indices 1 2 3 4 5 6 
#
# 1 0.012934 -0.005119 -0.000113 -0.000438 0.007938 -0.002279
# 2 -0.005119 0.013742 -0.000153 0.002930 -0.001903 0.004406
# 3 -0.000113 -0.000153 0.011338 0.000146 0.001062 -0.001047
# 4 -0.000438 0.002930 0.000146 0.023980 -0.000580 0.005276
# 5 0.007938 -0.001903 0.001062 -0.000580 0.032633 -0.002940
# 6 -0.002279 0.004406 -0.001047 0.005276 -0.002940 0.021797
#
#
# Mechanical properties :
#
#
# Convention : Reuss Voigt Hill
#
# Bulk Modulus (GPa) = 36.70561 41.18798 38.94679
# Shear Modulus (GPa) = 36.69044 42.99141 39.84093
#
# Velocity S-wave (km/s) = 4.05077 4.38482 4.22110
# Velocity P-wave (km/s) = 6.18819 6.63744 6.41675
#
# Compressibility (1/GPa) = 0.02724379
#
# Stress axis : x y z
#
# Youngs Moduli (GPa) = 77.31551 72.76983 88.19832
#
# Poissons Ratio (x) = 0.37248 0.01001
# Poissons Ratio (y) = 0.39575 0.01350
# Poissons Ratio (z) = 0.00877 0.01114
#
# Static dielectric constant tensor:
#      x y z
#    x 1.773910 0.003420 0.037180 
#    y 0.003420 1.689230 -0.005210 
#    z 0.037180 -0.005210 1.763550 
# 
# From -- ./inp_files/621185.got.cif
#   From: 2010.05.17/outbox.cif.g08.bks.cpg/sg2_311_cif.got.tgz:621185.got - 2010.06.03 11:33:40.
