data_PCOD9069547
_publ_section_title
;
Structure prediction by ZEFSAII (Michael W. Deem and Ramdas Pophale) SiO2 
 PCOD9069547
Probable space group: P -1
;
_chemical_formula_sum "Si O2"
_cell_formula_units_Z 16
_cell_length_a 14.183592
_cell_length_b 14.540491
_cell_length_c 9.328691
_cell_angle_alpha 116.415026
_cell_angle_beta 82.921469
_cell_angle_gamma 149.974428
_cell_volume 699.576250
_symmetry_space_group_name_H-M "P -1"
_symmetry_group_IT_number 2
_symmetry_cell_setting 'triclinic'
loop_
_space_group_symop_operation_xyz
x,y,z
-x,-y,-z
loop_
_atom_site_type_symbol
_atom_site_label
_atom_site_fract_x
_atom_site_fract_y
_atom_site_fract_z
Si Si1 0.905242 0.286300 0.879132
Si Si2 0.585831 0.874137 0.238826
Si Si3 0.967216 0.177143 0.024944
Si Si4 0.536481 0.591890 0.706316
Si Si5 0.428286 0.836270 0.496823
Si Si6 0.922702 0.598401 0.554654
Si Si7 0.729072 0.477087 0.212469
Si Si8 0.432495 0.526886 0.127910
O O1 0.911331 0.229366 0.988655
O O2 0.048780 0.353275 0.791420
O O3 0.642258 0.027800 0.694566
O O4 0.000000 0.500000 0.000000
O O5 0.414772 0.740901 0.305013
O O6 0.629399 0.803157 0.239470
O O7 0.471910 0.760894 0.024536
O O8 0.822651 0.169956 0.394304
O O9 0.750244 0.884167 0.862701
O O10 0.037190 0.273796 0.243104
O O11 0.180880 0.329571 0.012477
O O12 0.500000 0.500000 0.500000
O O13 0.324792 0.454734 0.710539
O O14 0.577135 0.534137 0.759146
O O15 0.199169 0.610764 0.477062
O O16 0.500000 0.000000 0.500000
O O17 0.754976 0.463057 0.360974
O O18 0.500000 0.500000 0.000000
#
# Coordination Sequence:
#
# PCOD9069547 Si02
#       8
#     2   2   2   2   2   2   2   2
#     4  12  26  50  80 112 155 207 255 324 397 463
#     4  12  25  48  75 107 156 193 254 320 381 456
#     4  12  24  48  74 109 159 202 256 329 380 463
#     4  12  27  43  72 113 155 206 264 311 389 459
#     4  12  27  51  77 112 153 202 255 322 399 460
#     4  12  25  47  79 107 153 197 251 317 387 452
#     4  12  24  49  75 114 151 202 260 316 383 465
#     4  12  23  45  70 104 151 206 251 313 389 450
#
# _framework density 22.870989000000002
#
# number of rings (size 3 to 8) (size 9 to 14) (size 15 to 20)
#    0.000    0.000    6.250    3.375    1.750    1.500 
#    2.250    3.750    0.000    0.000    0.000    0.000 
#    0.000    0.000    0.000    0.000    0.000    0.000 
#
# Total GULP energy -89251.904821 kJ/mol
# GULP energy per Si atom -5578.244051 kJ/mol
# Density = 2.281893 g / cm^3
# Si number density = 22.870989 Si / 1000 Ang^3
#
#
#
# Elastic Constant Matrix: (Units=GPa)
#
#
# Indices 1 2 3 4 5 6 
#
# 1 83.6468 49.7505 35.0777 -0.6186 4.3182 -17.4295
# 2 49.7505 147.4703 48.7985 9.4552 12.2153 -22.3195
# 3 35.0777 48.7985 138.4710 -17.5496 11.8314 -25.5735
# 4 -0.6186 9.4552 -17.5496 38.6594 -4.4232 5.0418
# 5 4.3182 12.2153 11.8314 -4.4232 37.3470 -10.1868
# 6 -17.4295 -22.3195 -25.5735 5.0418 -10.1868 46.8318
#
#
#
# Elastic Compliance Matrix: (Units=1/GPa)
#
#
# Indices 1 2 3 4 5 6 
#
# 1 0.015966 -0.004360 -0.002033 0.000132 0.001049 0.002968
# 2 -0.004360 0.009697 -0.002328 -0.003945 -0.001924 0.001734
# 3 -0.002033 -0.002328 0.009707 0.004491 -0.000789 0.002780
# 4 0.000132 -0.003945 0.004491 0.029447 0.002811 -0.001937
# 5 0.001049 -0.001924 -0.000789 0.002811 0.029259 0.005104
# 6 0.002968 0.001734 0.002780 -0.001937 0.005104 0.026121
#
#
# Mechanical properties :
#
#
# Convention : Reuss Voigt Hill
#
# Bulk Modulus (GPa) = 55.77775 70.76018 63.26896
# Shear Modulus (GPa) = 34.81561 40.29840 37.55701
#
# Velocity S-wave (km/s) = 3.90585 4.20216 4.05671
# Velocity P-wave (km/s) = 6.69192 7.38581 7.04741
#
# Compressibility (1/GPa) = 0.01792830
#
# Stress axis : x y z
#
# Youngs Moduli (GPa) = 62.63386 103.12566 103.01783
#
# Poissons Ratio (x) = 0.44959 0.20942
# Poissons Ratio (y) = 0.27306 0.23985
# Poissons Ratio (z) = 0.12732 0.24010
#
# Static dielectric constant tensor:
#      x y z
#    x 1.845030 0.075650 -0.053050 
#    y 0.075650 1.712400 0.143930 
#    z -0.053050 0.143930 1.764270 
# 
# From -- ./inp_files/315636.got.cif
#   From: 2010.05.17/outbox.cif.g08.bks.cpg/sg2_158_cif.got.tgz:315636.got - 2010.06.03 11:33:40.
