data_PCOD9069533
_publ_section_title
;
Structure prediction by ZEFSAII (Michael W. Deem and Ramdas Pophale) SiO2 
 PCOD9069533
Probable space group: P -1
;
_chemical_formula_sum "Si O2"
_cell_formula_units_Z 14
_cell_length_a 10.691787
_cell_length_b 7.180817
_cell_length_c 16.124756
_cell_angle_alpha 54.393889
_cell_angle_beta 138.299885
_cell_angle_gamma 138.898935
_cell_volume 540.850432
_symmetry_space_group_name_H-M "P -1"
_symmetry_group_IT_number 2
_symmetry_cell_setting 'triclinic'
loop_
_space_group_symop_operation_xyz
x,y,z
-x,-y,-z
loop_
_atom_site_type_symbol
_atom_site_label
_atom_site_fract_x
_atom_site_fract_y
_atom_site_fract_z
Si Si1 0.298231 0.535806 0.366516
Si Si2 0.290760 0.537416 0.894686
Si Si3 0.624831 0.152128 0.296387
Si Si4 0.533777 0.564344 0.218826
Si Si5 0.900354 0.684350 0.504584
Si Si6 0.838434 0.174751 0.127355
Si Si7 0.012966 0.079513 0.084901
O O1 0.500000 0.500000 0.500000
O O2 0.188073 0.513189 0.407280
O O3 0.087392 0.305012 0.262363
O O4 0.428176 0.838007 0.308252
O O5 0.331415 0.793357 0.793481
O O6 0.500000 0.500000 0.000000
O O7 0.228284 0.615801 0.930952
O O8 0.067985 0.224315 0.839221
O O9 0.554187 0.358327 0.224498
O O10 0.869811 0.269625 0.430108
O O11 0.687044 0.597424 0.364256
O O12 0.263334 0.359403 0.158882
O O13 0.657197 0.863996 0.157069
O O14 0.000000 0.000000 0.500000
O O15 0.850407 0.138105 0.043298
O O16 0.000000 0.000000 0.000000
#
# Coordination Sequence:
#
# PCOD9069533 Si02
#       7
#     2   2   2   2   2   2   2
#     4  12  24  43  80 122 167 219 266 330 420 503
#     4  12  28  56  82 116 163 219 288 351 407 489
#     4  12  25  47  76 117 173 210 272 343 403 501
#     4  12  26  49  81 120 163 217 271 336 425 501
#     4  12  23  44  76 121 165 212 270 328 413 504
#     4  12  27  50  85 116 167 218 273 345 422 490
#     4  12  30  55  80 117 158 212 289 345 417 488
#
# _framework density 25.885158000000001
#
# number of rings (size 3 to 8) (size 9 to 14) (size 15 to 20)
#    0.000    0.000    5.714    3.000    2.000    1.714 
#    0.000    0.000    0.000    0.000    0.000    0.000 
#    0.000    0.000    0.000    0.000    0.000    0.000 
#
# Total GULP energy -78266.480866 kJ/mol
# GULP energy per Si atom -5590.462919 kJ/mol
# Density = 2.582624 g / cm^3
# Si number density = 25.885158 Si / 1000 Ang^3
#
#
#
# Elastic Constant Matrix: (Units=GPa)
#
#
# Indices 1 2 3 4 5 6 
#
# 1 134.1788 36.2377 13.8579 3.1609 7.9808 -3.8730
# 2 36.2377 216.7249 64.0715 -2.6205 9.4993 22.9903
# 3 13.8579 64.0715 112.6701 15.7058 -2.3259 14.0751
# 4 3.1609 -2.6205 15.7058 51.2402 -2.1431 6.3047
# 5 7.9808 9.4993 -2.3259 -2.1431 52.0110 -2.9692
# 6 -3.8730 22.9903 14.0751 6.3047 -2.9692 42.9329
#
#
#
# Elastic Compliance Matrix: (Units=1/GPa)
#
#
# Indices 1 2 3 4 5 6 
#
# 1 0.007975 -0.001377 -0.000319 -0.000700 -0.000924 0.001600
# 2 -0.001377 0.006162 -0.003258 0.001681 -0.001144 -0.002682
# 3 -0.000319 -0.003258 0.011449 -0.003437 0.000931 -0.001469
# 4 -0.000700 0.001681 -0.003437 0.021071 0.000349 -0.002907
# 5 -0.000924 -0.001144 0.000931 0.000349 0.019721 0.001537
# 6 0.001600 -0.002682 -0.001469 -0.002907 0.001537 0.025887
#
#
# Mechanical properties :
#
#
# Convention : Reuss Voigt Hill
#
# Bulk Modulus (GPa) = 63.78106 76.87865 70.32986
# Shear Modulus (GPa) = 46.55479 52.53061 49.54270
#
# Velocity S-wave (km/s) = 4.24549 4.50974 4.37961
# Velocity P-wave (km/s) = 6.98038 7.54198 7.26661
#
# Compressibility (1/GPa) = 0.01567863
#
# Stress axis : x y z
#
# Youngs Moduli (GPa) = 125.38856 162.27244 87.34280
#
# Poissons Ratio (x) = 0.22342 0.02790
# Poissons Ratio (y) = 0.17264 0.28455
# Poissons Ratio (z) = 0.04005 0.52867
#
# Static dielectric constant tensor:
#      x y z
#    x 2.301050 0.094280 -0.176540 
#    y 0.094280 1.972280 -0.039050 
#    z -0.176540 -0.039050 2.069120 
# 
# From -- ./inp_files/565761.got.cif
#   From: 2010.05.17/outbox.cif.g08.bks.cpg/sg2_283_cif.got.tgz:565761.got - 2010.06.03 11:33:40.
