data_PCOD9069948
_publ_section_title
;
Structure prediction by ZEFSAII (Michael W. Deem and Ramdas Pophale) SiO2 
 PCOD9069948
Probable space group: P -1
;
_chemical_formula_sum "Si O2"
_cell_formula_units_Z 12
_cell_length_a 11.478953
_cell_length_b 12.591969
_cell_length_c 7.392117
_cell_angle_alpha 130.443342
_cell_angle_beta 35.880040
_cell_angle_gamma 132.877122
_cell_volume 446.954054
_symmetry_space_group_name_H-M "P -1"
_symmetry_group_IT_number 2
_symmetry_cell_setting 'triclinic'
loop_
_space_group_symop_operation_xyz
x,y,z
-x,-y,-z
loop_
_atom_site_type_symbol
_atom_site_label
_atom_site_fract_x
_atom_site_fract_y
_atom_site_fract_z
Si Si1 0.780304 0.378476 0.694090
Si Si2 0.280878 0.877808 0.693784
Si Si3 0.007114 0.879751 0.769928
Si Si4 0.468619 0.658639 0.688528
Si Si5 0.771799 0.996686 0.732670
Si Si6 0.454079 0.357438 0.847870
O O1 0.000000 0.500000 0.500000
O O2 0.874597 0.229992 0.393617
O O3 0.732364 0.369126 0.958458
O O4 0.610656 0.482521 0.944082
O O5 0.377589 0.731480 0.386716
O O6 0.500000 0.000000 0.500000
O O7 0.097696 0.975948 0.962245
O O8 0.266382 0.894637 0.948173
O O9 0.773505 0.749543 0.904205
O O10 0.188678 0.937765 0.446696
O O11 0.500000 0.500000 0.500000
O O12 0.619931 0.824397 0.746326
O O13 0.496354 0.672350 0.455105
O O14 0.000000 0.000000 0.500000
#
# Coordination Sequence:
#
# PCOD9069948 Si02
#       6
#     2   2   2   2   2   2
#     4  12  28  47  70 107 149 182 234 304 362 410
#     4  12  26  45  70 108 149 182 228 304 360 407
#     4  12  24  43  75 106 137 188 244 282 351 429
#     4  12  26  45  74 104 139 190 243 287 352 430
#     4  12  25  44  75 105 140 189 241 288 350 433
#     4  12  25  46  76 104 141 190 240 291 348 434
#
# _framework density 26.848396999999999
#
# number of rings (size 3 to 8) (size 9 to 14) (size 15 to 20)
#    0.000    0.000    6.667    3.000    2.333    2.667 
#    0.000    0.000    0.000    0.000    0.000    0.000 
#    0.000    0.000    0.000    0.000    0.000    0.000 
#
# Total GULP energy -66881.466953 kJ/mol
# GULP energy per Si atom -5573.455579 kJ/mol
# Density = 2.678729 g / cm^3
# Si number density = 26.848397 Si / 1000 Ang^3
#
#
#
# Elastic Constant Matrix: (Units=GPa)
#
#
# Indices 1 2 3 4 5 6 
#
# 1 125.6833 37.3397 66.3267 -9.7416 -0.8274 6.7283
# 2 37.3397 212.7238 84.7091 31.9676 39.1445 16.6677
# 3 66.3267 84.7091 225.4431 18.7139 22.4211 31.5945
# 4 -9.7416 31.9676 18.7139 88.7898 -8.0000 -1.8775
# 5 -0.8274 39.1445 22.4211 -8.0000 82.2467 11.6922
# 6 6.7283 16.6677 31.5945 -1.8775 11.6922 37.6240
#
#
#
# Elastic Compliance Matrix: (Units=1/GPa)
#
#
# Indices 1 2 3 4 5 6 
#
# 1 0.010047 -0.001316 -0.002942 0.002362 0.001636 0.000866
# 2 -0.001316 0.006450 -0.001465 -0.002426 -0.002830 -0.000634
# 3 -0.002942 -0.001465 0.006624 -0.001341 -0.000665 -0.004248
# 4 0.002362 -0.002426 -0.001341 0.012944 0.002572 0.001625
# 5 0.001636 -0.002830 -0.000665 0.002572 0.014353 -0.002813
# 6 0.000866 -0.000634 -0.004248 0.001625 -0.002813 0.031227
#
#
# Mechanical properties :
#
#
# Convention : Reuss Voigt Hill
#
# Bulk Modulus (GPa) = 85.63838 104.51125 95.07481
# Shear Modulus (GPa) = 51.55511 66.76376 59.15944
#
# Velocity S-wave (km/s) = 4.38680 4.99209 4.69920
# Velocity P-wave (km/s) = 7.59111 8.49934 8.05803
#
# Compressibility (1/GPa) = 0.01167701
#
# Stress axis : x y z
#
# Youngs Moduli (GPa) = 99.52866 155.03285 150.95857
#
# Poissons Ratio (x) = 0.20404 0.44406
# Poissons Ratio (y) = 0.13099 0.22112
# Poissons Ratio (z) = 0.29277 0.22709
#
# Static dielectric constant tensor:
#      x y z
#    x 1.892250 -0.273130 -0.527950 
#    y -0.273130 2.051830 0.301690 
#    z -0.527950 0.301690 2.195890 
# 
# From -- ./inp_files/465918.got.cif
#   From: 2010.05.17/outbox.cif.g08.bks.cpg/sg2_233_cif.got.tgz:465918.got - 2010.06.03 11:33:40.
