data_PCOD9069133
_publ_section_title
;
Structure prediction by ZEFSAII (Michael W. Deem and Ramdas Pophale) SiO2 
 PCOD9069133
Probable space group: P -1
;
_chemical_formula_sum "Si O2"
_cell_formula_units_Z 16
_cell_length_a 9.828912
_cell_length_b 20.722268
_cell_length_c 5.063304
_cell_angle_alpha 97.798570
_cell_angle_beta 119.857026
_cell_angle_gamma 112.177795
_cell_volume 758.011396
_symmetry_space_group_name_H-M "P -1"
_symmetry_group_IT_number 2
_symmetry_cell_setting 'triclinic'
loop_
_space_group_symop_operation_xyz
x,y,z
-x,-y,-z
loop_
_atom_site_type_symbol
_atom_site_label
_atom_site_fract_x
_atom_site_fract_y
_atom_site_fract_z
Si Si1 0.577122 0.311669 0.290615
Si Si2 0.052312 0.082494 0.693631
Si Si3 0.374404 0.457814 0.603236
Si Si4 0.565185 0.088672 0.584951
Si Si5 0.123331 0.522356 0.470850
Si Si6 0.529733 0.850838 0.977610
Si Si7 0.343217 0.300276 0.556810
Si Si8 0.967202 0.140825 0.141635
O O1 0.760228 0.393506 0.477396
O O2 0.600399 0.240303 0.210585
O O3 0.483383 0.300804 0.477901
O O4 0.436142 0.310394 0.937035
O O5 0.962722 0.114192 0.421325
O O6 0.270851 0.133530 0.900107
O O7 0.000000 0.000000 0.500000
O O8 0.988590 0.085191 0.927816
O O9 0.500000 0.500000 0.500000
O O10 0.206698 0.472105 0.447549
O O11 0.318106 0.370770 0.510002
O O12 0.901742 0.480054 0.229184
O O13 0.527038 0.107774 0.268561
O O14 0.500000 0.000000 0.500000
O O15 0.465219 0.113963 0.713526
O O16 0.780163 0.136631 0.887744
O O17 0.500000 0.500000 0.000000
O O18 0.148902 0.222398 0.320215
#
# Coordination Sequence:
#
# PCOD9069133 Si02
#       8
#     2   2   2   2   2   2   2   2
#     4  12  24  44  71  97 141 175 219 293 334 392
#     4  12  23  42  68  99 130 173 232 277 322 407
#     4  12  23  43  70  98 130 189 226 269 338 404
#     4  12  26  45  66  99 143 178 217 283 344 405
#     4  12  26  44  68 104 140 175 226 277 337 404
#     4  12  24  43  69  98 132 184 224 264 358 401
#     4  12  22  43  70  99 134 176 232 286 326 395
#     4  12  24  42  66 100 132 176 226 279 335 394
#
# _framework density 21.107861
#
# number of rings (size 3 to 8) (size 9 to 14) (size 15 to 20)
#    0.000    0.000    5.000    6.000    0.000    2.000 
#    0.000    0.000    0.000    0.000    0.000    0.000 
#    0.000    0.000    0.000    0.000    0.000    0.000 
#
# Total GULP energy -89430.877145 kJ/mol
# GULP energy per Si atom -5589.429822 kJ/mol
# Density = 2.105982 g / cm^3
# Si number density = 21.107861 Si / 1000 Ang^3
#
#
#
# Elastic Constant Matrix: (Units=GPa)
#
#
# Indices 1 2 3 4 5 6 
#
# 1 65.0206 -10.1533 -3.4824 -1.7333 0.2200 -5.0899
# 2 -10.1533 126.5088 -8.8520 0.9857 -16.5011 -8.4340
# 3 -3.4824 -8.8520 52.4856 -5.1231 -11.7698 13.8284
# 4 -1.7333 0.9857 -5.1231 23.9120 -2.5993 -2.2928
# 5 0.2200 -16.5011 -11.7698 -2.5993 18.7251 1.6737
# 6 -5.0899 -8.4340 13.8284 -2.2928 1.6737 34.9180
#
#
#
# Elastic Compliance Matrix: (Units=1/GPa)
#
#
# Indices 1 2 3 4 5 6 
#
# 1 0.015961 0.001840 0.001535 0.001886 0.002467 0.002169
# 2 0.001840 0.009923 0.004525 0.002019 0.011807 0.000440
# 3 0.001535 0.004525 0.028943 0.007721 0.024199 -0.010798
# 4 0.001886 0.002019 0.007721 0.044927 0.012843 0.000040
# 5 0.002467 0.011807 0.024199 0.012843 0.081617 -0.009440
# 6 0.002169 0.000440 -0.010798 0.000040 -0.009440 0.033792
#
#
# Mechanical properties :
#
#
# Convention : Reuss Voigt Hill
#
# Bulk Modulus (GPa) = 14.15895 22.11552 18.13723
# Shear Modulus (GPa) = 22.43102 33.27786 27.85444
#
# Velocity S-wave (km/s) = 3.26342 3.97490 3.63660
# Velocity P-wave (km/s) = 4.57410 5.61842 5.12294
#
# Compressibility (1/GPa) = 0.07062670
#
# Stress axis : x y z
#
# Youngs Moduli (GPa) = 62.65266 100.78065 34.55071
#
# Poissons Ratio (x) = -0.18545 -0.05305
# Poissons Ratio (y) = -0.11529 -0.15633
# Poissons Ratio (z) = -0.09619 -0.45600
#
# Static dielectric constant tensor:
#      x y z
#    x 1.773840 -0.006050 0.029040 
#    y -0.006050 1.751140 0.024460 
#    z 0.029040 0.024460 1.789470 
# 
# From -- ./inp_files/48045.got.cif
#   From: 2010.05.17/outbox.cif.g08.bks.cpg/sg2_25_cif.got.tgz:48045.got - 2010.06.03 11:33:40.
