data_PCOD9069642
_publ_section_title
;
Structure prediction by ZEFSAII (Michael W. Deem and Ramdas Pophale) SiO2 
 PCOD9069642
Probable space group: P -1
;
_chemical_formula_sum "Si O2"
_cell_formula_units_Z 12
_cell_length_a 7.328336
_cell_length_b 14.912454
_cell_length_c 8.573845
_cell_angle_alpha 83.552850
_cell_angle_beta 49.877995
_cell_angle_gamma 51.469487
_cell_volume 490.662942
_symmetry_space_group_name_H-M "P -1"
_symmetry_group_IT_number 2
_symmetry_cell_setting 'triclinic'
loop_
_space_group_symop_operation_xyz
x,y,z
-x,-y,-z
loop_
_atom_site_type_symbol
_atom_site_label
_atom_site_fract_x
_atom_site_fract_y
_atom_site_fract_z
Si Si1 0.632620 0.885839 0.338512
Si Si2 0.655792 0.225974 0.998386
Si Si3 0.495856 0.897108 0.073334
Si Si4 0.284795 0.324222 0.494556
Si Si5 0.752929 0.521509 0.000799
Si Si6 0.719614 0.379162 0.283875
O O1 0.418924 0.922746 0.294120
O O2 0.653746 0.789579 0.444089
O O3 0.500000 0.000000 0.500000
O O4 0.011034 0.820668 0.094425
O O5 0.345933 0.300802 0.280383
O O6 0.549604 0.325235 0.901147
O O7 0.734441 0.106498 0.904164
O O8 0.873698 0.744879 0.883352
O O9 0.500000 0.000000 0.000000
O O10 0.558400 0.324803 0.393507
O O11 0.940594 0.452419 0.746120
O O12 0.668222 0.448084 0.137213
O O13 0.000000 0.500000 0.000000
O O14 0.500000 0.500000 0.500000
#
# Coordination Sequence:
#
# PCOD9069642 Si02
#       6
#     2   2   2   2   2   2
#     4  12  29  51  74 111 153 202 261 312 375 462
#     4  12  27  48  79 109 155 202 247 320 380 452
#     4  12  27  51  76 111 151 203 260 313 385 449
#     4  12  24  47  74 107 156 195 250 312 382 445
#     4  12  23  46  73 115 152 192 255 304 386 457
#     4  12  25  46  78 111 154 195 247 319 375 452
#
# _framework density 24.456707999999999
#
# number of rings (size 3 to 8) (size 9 to 14) (size 15 to 20)
#    0.000    0.000    6.667    1.500    2.333    8.667 
#    0.000    0.000    0.000    0.000    0.000    0.000 
#    0.000    0.000    0.000    0.000    0.000    0.000 
#
# Total GULP energy -67179.626857 kJ/mol
# GULP energy per Si atom -5598.302238 kJ/mol
# Density = 2.440104 g / cm^3
# Si number density = 24.456708 Si / 1000 Ang^3
#
#
#
# Elastic Constant Matrix: (Units=GPa)
#
#
# Indices 1 2 3 4 5 6 
#
# 1 120.2383 19.1540 24.1629 -7.3477 11.4182 32.1240
# 2 19.1540 133.7605 35.2448 -24.5956 9.2224 40.1036
# 3 24.1629 35.2448 124.8324 -7.5762 16.7993 12.5363
# 4 -7.3477 -24.5956 -7.5762 43.7096 12.2188 2.2210
# 5 11.4182 9.2224 16.7993 12.2188 38.5940 -1.3012
# 6 32.1240 40.1036 12.5363 2.2210 -1.3012 47.6028
#
#
#
# Elastic Compliance Matrix: (Units=1/GPa)
#
#
# Indices 1 2 3 4 5 6 
#
# 1 0.011891 0.003421 -0.000947 0.006063 -0.006217 -0.011110
# 2 0.003421 0.014495 -0.001495 0.011451 -0.007952 -0.014878
# 3 -0.000947 -0.001495 0.009341 0.001780 -0.004017 -0.000754
# 4 0.006063 0.011451 0.001780 0.036334 -0.017360 -0.016377
# 5 -0.006217 -0.007952 -0.004017 -0.017360 0.037360 0.013784
# 6 -0.011110 -0.014878 -0.000754 -0.016377 0.013784 0.042378
#
#
# Mechanical properties :
#
#
# Convention : Reuss Voigt Hill
#
# Bulk Modulus (GPa) = 26.53660 59.55052 43.04356
# Shear Modulus (GPa) = 30.78760 45.99924 38.39342
#
# Velocity S-wave (km/s) = 3.55189 4.34157 3.96643
# Velocity P-wave (km/s) = 5.26263 7.03808 6.21409
#
# Compressibility (1/GPa) = 0.03768381
#
# Stress axis : x y z
#
# Youngs Moduli (GPa) = 84.09424 68.99124 107.05975
#
# Poissons Ratio (x) = -0.23604 0.10142
# Poissons Ratio (y) = -0.28771 0.16010
# Poissons Ratio (z) = 0.07966 0.10317
#
# Static dielectric constant tensor:
#      x y z
#    x 1.974650 -0.004610 -0.028720 
#    y -0.004610 1.911880 0.069170 
#    z -0.028720 0.069170 2.076050 
# 
# From -- ./inp_files/200523.got.cif
#   From: 2010.05.17/outbox.cif.g08.bks.cpg/sg2_101_cif.got.tgz:200523.got - 2010.06.03 11:33:40.
