data_PCOD9069142
_publ_section_title
;
Structure prediction by ZEFSAII (Michael W. Deem and Ramdas Pophale) SiO2 
 PCOD9069142
Probable space group: P -1
;
_chemical_formula_sum "Si O2"
_cell_formula_units_Z 12
_cell_length_a 11.406438
_cell_length_b 13.307850
_cell_length_c 12.482045
_cell_angle_alpha 41.242379
_cell_angle_beta 22.684562
_cell_angle_gamma 43.311059
_cell_volume 477.421517
_symmetry_space_group_name_H-M "P -1"
_symmetry_group_IT_number 2
_symmetry_cell_setting 'triclinic'
loop_
_space_group_symop_operation_xyz
x,y,z
-x,-y,-z
loop_
_atom_site_type_symbol
_atom_site_label
_atom_site_fract_x
_atom_site_fract_y
_atom_site_fract_z
Si Si1 0.248774 0.939059 0.182824
Si Si2 0.327637 0.350884 0.242145
Si Si3 0.799975 0.733423 0.805759
Si Si4 0.700919 0.372508 0.359002
Si Si5 0.952752 0.183009 0.870586
Si Si6 0.088434 0.240800 0.950251
O O1 0.960391 0.884487 0.527662
O O2 0.447494 0.786457 0.089152
O O3 0.500000 0.000000 0.000000
O O4 0.096625 0.067445 0.126311
O O5 0.160762 0.365929 0.256062
O O6 0.134649 0.281058 0.555022
O O7 0.500000 0.500000 0.000000
O O8 0.604030 0.214977 0.102397
O O9 0.990333 0.666507 0.801047
O O10 0.500000 0.500000 0.500000
O O11 0.441785 0.261761 0.654057
O O12 0.849114 0.359008 0.125636
O O13 0.004040 0.252629 0.888214
O O14 0.000000 0.000000 0.000000
#
# Coordination Sequence:
#
# PCOD9069142 Si02
#       6
#     2   2   2   2   2   2
#     4  12  22  43  72 111 144 182 244 313 388 449
#     4  12  28  50  78 110 153 210 261 316 381 463
#     4  12  24  45  74 105 147 189 252 312 377 456
#     4  12  26  44  69 106 148 196 242 306 381 454
#     4  12  27  52  77 114 155 204 261 321 386 456
#     4  12  25  45  74 108 146 190 246 314 382 454
#
# _framework density 25.135020999999998
#
# number of rings (size 3 to 8) (size 9 to 14) (size 15 to 20)
#    0.000    0.000    3.333    7.000    2.333    0.000 
#    6.000    0.000    0.000    0.000    0.000    0.000 
#    0.000    0.000    0.000    0.000    0.000    0.000 
#
# Total GULP energy -67032.994594 kJ/mol
# GULP energy per Si atom -5586.082883 kJ/mol
# Density = 2.507781 g / cm^3
# Si number density = 25.135021 Si / 1000 Ang^3
#
#
#
# Elastic Constant Matrix: (Units=GPa)
#
#
# Indices 1 2 3 4 5 6 
#
# 1 144.8369 32.5209 30.1889 13.7894 38.5341 31.4582
# 2 32.5209 65.7720 34.7962 2.8086 15.4669 15.0296
# 3 30.1889 34.7962 156.0912 14.2295 24.3318 8.5840
# 4 13.7894 2.8086 14.2295 38.6710 -0.0997 -6.1489
# 5 38.5341 15.4669 24.3318 -0.0997 43.3258 6.9008
# 6 31.4582 15.0296 8.5840 -6.1489 6.9008 40.5788
#
#
#
# Elastic Compliance Matrix: (Units=1/GPa)
#
#
# Indices 1 2 3 4 5 6 
#
# 1 0.011843 -0.001988 0.000468 -0.005526 -0.008845 -0.007878
# 2 -0.001988 0.019621 -0.003301 -0.000242 -0.002648 -0.004614
# 3 0.000468 -0.003301 0.007916 -0.002953 -0.003587 -0.000653
# 4 -0.005526 -0.000242 -0.002953 0.030329 0.005347 0.008685
# 5 -0.008845 -0.002648 -0.003587 0.005347 0.033324 0.003740
# 6 -0.007878 -0.004614 -0.000653 0.008685 0.003740 0.033278
#
#
# Mechanical properties :
#
#
# Convention : Reuss Voigt Hill
#
# Bulk Modulus (GPa) = 33.62508 62.41246 48.01877
# Shear Modulus (GPa) = 32.07929 42.46138 37.27034
#
# Velocity S-wave (km/s) = 3.57638 4.11461 3.85490
# Velocity P-wave (km/s) = 5.51913 6.88898 6.24175
#
# Compressibility (1/GPa) = 0.02973970
#
# Stress axis : x y z
#
# Youngs Moduli (GPa) = 84.43553 50.96675 126.32749
#
# Poissons Ratio (x) = 0.10130 -0.05916
# Poissons Ratio (y) = 0.16783 0.41698
# Poissons Ratio (z) = -0.03954 0.16823
#
# Static dielectric constant tensor:
#      x y z
#    x 1.657350 -0.234460 -0.040110 
#    y -0.234460 1.953050 -0.149560 
#    z -0.040110 -0.149560 1.900180 
# 
# From -- ./inp_files/236404.got.cif
#   From: 2010.05.17/outbox.cif.g08.bks.cpg/sg2_119_cif.got.tgz:236404.got - 2010.06.03 11:33:40.
