data_PCOD9069208
_publ_section_title
;
Structure prediction by ZEFSAII (Michael W. Deem and Ramdas Pophale) SiO2 
 PCOD9069208
Probable space group: P -1
;
_chemical_formula_sum "Si O2"
_cell_formula_units_Z 14
_cell_length_a 9.219850
_cell_length_b 11.608620
_cell_length_c 8.925252
_cell_angle_alpha 100.371031
_cell_angle_beta 136.422521
_cell_angle_gamma 80.102111
_cell_volume 646.527964
_symmetry_space_group_name_H-M "P -1"
_symmetry_group_IT_number 2
_symmetry_cell_setting 'triclinic'
loop_
_space_group_symop_operation_xyz
x,y,z
-x,-y,-z
loop_
_atom_site_type_symbol
_atom_site_label
_atom_site_fract_x
_atom_site_fract_y
_atom_site_fract_z
Si Si1 0.005943 0.126322 0.947423
Si Si2 0.432157 0.167420 0.116013
Si Si3 0.852540 0.388339 0.882778
Si Si4 0.182618 0.983212 0.508914
Si Si5 0.777604 0.344874 0.469731
Si Si6 0.443322 0.445114 0.785773
Si Si7 0.213607 0.222565 0.650209
O O1 0.925859 0.257980 0.976445
O O2 0.879411 0.098367 0.692689
O O3 0.244876 0.147941 0.085665
O O4 0.000000 0.000000 0.000000
O O5 0.561287 0.283139 0.260087
O O6 0.611594 0.067371 0.262896
O O7 0.326037 0.174975 0.875766
O O8 0.805113 0.356197 0.669011
O O9 0.647626 0.435434 0.831484
O O10 0.000000 0.500000 0.000000
O O11 0.207705 0.115456 0.505560
O O12 0.000000 0.000000 0.500000
O O13 0.743781 0.473357 0.406628
O O14 0.980194 0.275395 0.531617
O O15 0.355677 0.319704 0.716051
O O16 0.500000 0.500000 0.000000
#
# Coordination Sequence:
#
# PCOD9069208 Si02
#       7
#     2   2   2   2   2   2   2
#     4  12  29  46  71 111 150 189 250 305 355 439
#     4  12  22  45  77  96 151 188 240 286 374 424
#     4  12  26  51  75 105 147 200 245 294 373 442
#     4  12  24  44  72 107 140 194 237 292 366 438
#     4  12  24  49  75 104 146 192 244 295 372 440
#     4  12  27  44  76 109 143 188 248 310 359 429
#     4  12  25  44  75 112 143 188 246 301 365 432
#
# _framework density 21.654128
#
# number of rings (size 3 to 8) (size 9 to 14) (size 15 to 20)
#    0.000    0.000    7.143    3.000    2.000    4.000 
#    0.000    0.000    0.000    0.000    0.000    0.000 
#    0.000    0.000    0.000    0.000    0.000    0.000 
#
# Total GULP energy -78205.612853 kJ/mol
# GULP energy per Si atom -5586.115204 kJ/mol
# Density = 2.160484 g / cm^3
# Si number density = 21.654128 Si / 1000 Ang^3
#
#
#
# Elastic Constant Matrix: (Units=GPa)
#
#
# Indices 1 2 3 4 5 6 
#
# 1 70.0023 39.0663 25.3279 -2.4192 21.3812 -0.8903
# 2 39.0663 154.6011 39.5033 2.0695 7.5999 -4.5010
# 3 25.3279 39.5033 74.3037 -3.6636 20.0387 -6.3279
# 4 -2.4192 2.0695 -3.6636 56.2473 1.9538 9.3769
# 5 21.3812 7.5999 20.0387 1.9538 32.3282 -1.9786
# 6 -0.8903 -4.5010 -6.3279 9.3769 -1.9786 40.8615
#
#
#
# Elastic Compliance Matrix: (Units=1/GPa)
#
#
# Indices 1 2 3 4 5 6 
#
# 1 0.021025 -0.004362 -0.001626 0.001581 -0.012043 -0.001220
# 2 -0.004362 0.008434 -0.003917 -0.000975 0.003427 0.000617
# 3 -0.001626 -0.003917 0.018925 0.001364 -0.009714 0.001680
# 4 0.001581 -0.000975 0.001364 0.018799 -0.003062 -0.004324
# 5 -0.012043 0.003427 -0.009714 -0.003062 0.044388 0.001463
# 6 -0.001220 0.000617 0.001680 -0.004324 0.001463 0.025838
#
#
# Mechanical properties :
#
#
# Convention : Reuss Voigt Hill
#
# Bulk Modulus (GPa) = 34.99618 56.30024 45.64821
# Shear Modulus (GPa) = 29.98640 38.88804 34.43722
#
# Velocity S-wave (km/s) = 3.72531 4.24237 3.99222
# Velocity P-wave (km/s) = 5.89071 7.07483 6.50975
#
# Compressibility (1/GPa) = 0.02857455
#
# Stress axis : x y z
#
# Youngs Moduli (GPa) = 47.56178 118.56984 52.84046
#
# Poissons Ratio (x) = 0.51721 0.08592
# Poissons Ratio (y) = 0.20747 0.20695
# Poissons Ratio (z) = 0.07734 0.46439
#
# Static dielectric constant tensor:
#      x y z
#    x 1.752790 0.024290 -0.011940 
#    y 0.024290 1.901740 -0.004140 
#    z -0.011940 -0.004140 1.800390 
# 
# From -- ./inp_files/27897.got.cif
#   From: 2010.05.17/outbox.cif.g08.bks.cpg/sg2_14_cif.got.tgz:27897.got - 2010.06.03 11:33:40.
