data_PCOD9069343
_publ_section_title
;
Structure prediction by ZEFSAII (Michael W. Deem and Ramdas Pophale) SiO2 
 PCOD9069343
Probable space group: P -1
;
_chemical_formula_sum "Si O2"
_cell_formula_units_Z 15
_cell_length_a 11.147311
_cell_length_b 14.041465
_cell_length_c 8.819937
_cell_angle_alpha 75.222212
_cell_angle_beta 93.694462
_cell_angle_gamma 149.945745
_cell_volume 632.730758
_symmetry_space_group_name_H-M "P -1"
_symmetry_group_IT_number 2
_symmetry_cell_setting 'triclinic'
loop_
_space_group_symop_operation_xyz
x,y,z
-x,-y,-z
loop_
_atom_site_type_symbol
_atom_site_label
_atom_site_fract_x
_atom_site_fract_y
_atom_site_fract_z
Si Si1 0.946350 0.561178 0.560574
Si Si2 0.586260 0.270113 0.240915
Si Si3 0.946522 0.023611 0.139321
Si Si4 0.024407 0.898332 0.387339
Si Si5 0.681957 0.609434 0.764846
Si Si6 0.761219 0.563559 0.302733
Si Si7 0.565096 0.295067 0.887264
Si Si8 0.500000 0.000000 0.500000
O O1 0.741056 0.479018 0.484070
O O2 0.806810 0.436145 0.755161
O O3 0.000000 0.500000 0.500000
O O4 0.207158 0.809410 0.495648
O O5 0.793740 0.503364 0.202729
O O6 0.322335 0.126547 0.337692
O O7 0.604445 0.178698 0.360031
O O8 0.568007 0.248049 0.069445
O O9 0.700285 0.911938 0.136042
O O10 0.903886 0.914037 0.315142
O O11 0.184489 0.257271 0.124400
O O12 0.000000 0.000000 0.000000
O O13 0.886928 0.762217 0.582529
O O14 0.980805 0.794726 0.282271
O O15 0.460501 0.522100 0.726962
O O16 0.588769 0.430878 0.849857
#
# Coordination Sequence:
#
# PCOD9069343 Si02
#       8
#     2   2   2   2   2   2   2   1
#     4  12  27  49  77 100 140 193 253 307 354 417
#     4  12  27  44  75 101 144 189 243 303 358 427
#     4  12  25  41  70 112 160 189 229 286 359 438
#     4  12  23  42  67 108 144 197 229 285 352 438
#     4  12  25  40  73 109 154 191 233 284 362 449
#     4  12  23  43  75 104 144 194 239 291 359 432
#     4  12  27  46  70 115 147 189 238 300 365 431
#     4  12  26  52  72  94 132 190 254 300 358 412
#
# _framework density 23.706765999999998
#
# number of rings (size 3 to 8) (size 9 to 14) (size 15 to 20)
#    0.000    0.000    8.000    1.600    3.733    2.667 
#    0.000    0.667    0.000    0.000    0.000    0.000 
#    0.000    0.000    0.000    0.000    0.000    0.000 
#
# Total GULP energy -83680.966100 kJ/mol
# GULP energy per Si atom -5578.731073 kJ/mol
# Density = 2.365281 g / cm^3
# Si number density = 23.706766 Si / 1000 Ang^3
#
#
#
# Elastic Constant Matrix: (Units=GPa)
#
#
# Indices 1 2 3 4 5 6 
#
# 1 108.7197 37.6512 34.3861 6.7936 12.8496 -7.0986
# 2 37.6512 121.8998 24.0154 15.1341 -5.6832 11.6661
# 3 34.3861 24.0154 81.9058 1.2025 2.9140 3.5457
# 4 6.7936 15.1341 1.2025 27.7192 4.2266 6.0459
# 5 12.8496 -5.6832 2.9140 4.2266 35.9323 -6.5320
# 6 -7.0986 11.6661 3.5457 6.0459 -6.5320 32.3162
#
#
#
# Elastic Compliance Matrix: (Units=1/GPa)
#
#
# Indices 1 2 3 4 5 6 
#
# 1 0.012519 -0.003418 -0.004269 -0.001292 -0.003806 0.003925
# 2 -0.003418 0.010573 -0.001579 -0.004699 0.003048 -0.002899
# 3 -0.004269 -0.001579 0.014562 0.001895 -0.000570 -0.002435
# 4 -0.001292 -0.004699 0.001895 0.041646 -0.006780 -0.007957
# 5 -0.003806 0.003048 -0.000570 -0.006780 0.031567 0.005775
# 6 0.003925 -0.002899 -0.002435 -0.007957 0.005775 0.035776
#
#
# Mechanical properties :
#
#
# Convention : Reuss Voigt Hill
#
# Bulk Modulus (GPa) = 52.29644 56.07008 54.18326
# Shear Modulus (GPa) = 29.14612 33.62503 31.38557
#
# Velocity S-wave (km/s) = 3.51015 3.77021 3.64250
# Velocity P-wave (km/s) = 6.20772 6.53112 6.37147
#
# Compressibility (1/GPa) = 0.01912176
#
# Stress axis : x y z
#
# Youngs Moduli (GPa) = 79.88003 94.57761 68.67075
#
# Poissons Ratio (x) = 0.32329 0.29315
# Poissons Ratio (y) = 0.27305 0.10844
# Poissons Ratio (z) = 0.34101 0.14935
#
# Static dielectric constant tensor:
#      x y z
#    x 1.897200 -0.006970 0.008240 
#    y -0.006970 1.933170 0.040950 
#    z 0.008240 0.040950 1.913060 
# 
# From -- ./inp_files/272931.got.cif
#   From: 2010.05.17/outbox.cif.g08.bks.cpg/sg2_137_cif.got.tgz:272931.got - 2010.06.03 11:33:40.
