data_PCOD9069717
_publ_section_title
;
Structure prediction by ZEFSAII (Michael W. Deem and Ramdas Pophale) SiO2 
 PCOD9069717
Probable space group: P -1
;
_chemical_formula_sum "Si O2"
_cell_formula_units_Z 12
_cell_length_a 8.261377
_cell_length_b 14.396065
_cell_length_c 14.562404
_cell_angle_alpha 19.048282
_cell_angle_beta 62.513080
_cell_angle_gamma 68.480993
_cell_volume 486.787199
_symmetry_space_group_name_H-M "P -1"
_symmetry_group_IT_number 2
_symmetry_cell_setting 'triclinic'
loop_
_space_group_symop_operation_xyz
x,y,z
-x,-y,-z
loop_
_atom_site_type_symbol
_atom_site_label
_atom_site_fract_x
_atom_site_fract_y
_atom_site_fract_z
Si Si1 0.300283 0.509873 0.766290
Si Si2 0.297450 0.855809 0.731941
Si Si3 0.063701 0.239464 0.338238
Si Si4 0.441874 0.858191 0.894567
Si Si5 0.280184 0.399334 0.672596
Si Si6 0.829130 0.225149 0.784174
O O1 0.254606 0.340776 0.840655
O O2 0.118390 0.631012 0.720157
O O3 0.468416 0.797582 0.441455
O O4 0.386835 0.303087 0.003039
O O5 0.323813 0.808741 0.877583
O O6 0.500000 0.000000 0.500000
O O7 0.154063 0.062789 0.556319
O O8 0.220855 0.539786 0.000259
O O9 0.000000 0.000000 0.500000
O O10 0.319071 0.760168 0.109658
O O11 0.500000 0.500000 0.500000
O O12 0.221941 0.689725 0.384367
O O13 0.173840 0.115865 0.907361
O O14 0.000000 0.500000 0.500000
#
# Coordination Sequence:
#
# PCOD9069717 Si02
#       6
#     2   2   2   2   2   2
#     4  12  26  47  79 113 152 200 256 312 368 453
#     4  12  28  51  81 109 151 198 249 317 387 453
#     4  12  28  52  80 112 147 197 257 317 378 452
#     4  12  25  49  75 113 154 202 249 310 384 443
#     4  12  23  47  75 108 152 204 252 298 371 443
#     4  12  26  45  74 109 160 198 249 309 369 449
#
# _framework density 24.651430000000001
#
# number of rings (size 3 to 8) (size 9 to 14) (size 15 to 20)
#    0.000    0.000    3.333    6.000    2.333    2.667 
#    0.000    0.000    0.000    0.000    0.000    0.000 
#    0.000    0.000    0.000    0.000    0.000    0.000 
#
# Total GULP energy -67135.606778 kJ/mol
# GULP energy per Si atom -5594.633898 kJ/mol
# Density = 2.459532 g / cm^3
# Si number density = 24.651430 Si / 1000 Ang^3
#
#
#
# Elastic Constant Matrix: (Units=GPa)
#
#
# Indices 1 2 3 4 5 6 
#
# 1 124.4724 57.1525 51.7540 -13.4615 39.9667 16.7995
# 2 57.1525 112.6668 39.8293 -33.7768 -8.2789 0.5533
# 3 51.7540 39.8293 170.6633 -36.7828 -9.5222 -0.3871
# 4 -13.4615 -33.7768 -36.7828 34.9779 4.2914 7.2653
# 5 39.9667 -8.2789 -9.5222 4.2914 67.1565 -3.6993
# 6 16.7995 0.5533 -0.3871 7.2653 -3.6993 28.8814
#
#
#
# Elastic Compliance Matrix: (Units=1/GPa)
#
#
# Indices 1 2 3 4 5 6 
#
# 1 0.022454 -0.011577 -0.005861 -0.003806 -0.016151 -0.014029
# 2 -0.011577 0.018823 0.002810 0.014792 0.008874 0.003827
# 3 -0.005861 0.002810 0.009235 0.009235 0.004650 0.001751
# 4 -0.003806 0.014792 0.009235 0.053272 0.001378 -0.011170
# 5 -0.016151 0.008874 0.004650 0.001378 0.026850 0.012379
# 6 -0.014029 0.003827 0.001751 -0.011170 0.012379 0.047130
#
#
# Mechanical properties :
#
#
# Convention : Reuss Voigt Hill
#
# Bulk Modulus (GPa) = 47.04492 78.36379 62.70436
# Shear Modulus (GPa) = 23.35292 43.47428 33.41360
#
# Velocity S-wave (km/s) = 3.08120 4.20403 3.68563
# Velocity P-wave (km/s) = 5.63772 7.44466 6.60329
#
# Compressibility (1/GPa) = 0.02125628
#
# Stress axis : x y z
#
# Youngs Moduli (GPa) = 44.53482 53.12582 108.28653
#
# Poissons Ratio (x) = 0.61506 0.63462
# Poissons Ratio (y) = 0.51560 -0.30428
# Poissons Ratio (z) = 0.26100 -0.14928
#
# Static dielectric constant tensor:
#      x y z
#    x 1.991060 0.017810 0.011980 
#    y 0.017810 1.942530 0.061090 
#    z 0.011980 0.061090 1.926310 
# 
# From -- ./inp_files/224706.got.cif
#   From: 2010.05.17/outbox.cif.g08.bks.cpg/sg2_113_cif.got.tgz:224706.got - 2010.06.03 11:33:40.
