data_PCOD9069033
_publ_section_title
;
Structure prediction by ZEFSAII (Michael W. Deem and Ramdas Pophale) SiO2 
 PCOD9069033
Probable space group: P -1
;
_chemical_formula_sum "Si O2"
_cell_formula_units_Z 14
_cell_length_a 9.315489
_cell_length_b 15.880004
_cell_length_c 9.073622
_cell_angle_alpha 80.167454
_cell_angle_beta 57.650541
_cell_angle_gamma 41.882975
_cell_volume 692.651130
_symmetry_space_group_name_H-M "P -1"
_symmetry_group_IT_number 2
_symmetry_cell_setting 'triclinic'
loop_
_space_group_symop_operation_xyz
x,y,z
-x,-y,-z
loop_
_atom_site_type_symbol
_atom_site_label
_atom_site_fract_x
_atom_site_fract_y
_atom_site_fract_z
Si Si1 0.917205 0.451901 0.965355
Si Si2 0.534832 0.822562 0.642545
Si Si3 0.378479 0.144988 0.748093
Si Si4 0.422983 0.547217 0.361613
Si Si5 0.130332 0.148637 0.454411
Si Si6 0.390616 0.393083 0.217651
Si Si7 0.028209 0.126016 0.850493
O O1 0.663832 0.500478 0.158182
O O2 0.817555 0.512012 0.834294
O O3 0.000000 0.500000 0.000000
O O4 0.189409 0.288065 0.883720
O O5 0.577342 0.833536 0.446391
O O6 0.706144 0.826393 0.635723
O O7 0.640190 0.686290 0.660789
O O8 0.213192 0.967319 0.811858
O O9 0.191331 0.134299 0.847790
O O10 0.674467 0.997782 0.686664
O O11 0.500000 0.500000 0.500000
O O12 0.361427 0.485764 0.316764
O O13 0.167970 0.711151 0.474601
O O14 0.080018 0.134616 0.651501
O O15 0.706975 0.260749 0.023660
#
# Coordination Sequence:
#
# PCOD9069033 Si02
#       7
#     2   2   2   2   2   2   2
#     4  12  27  44  66  96 129 167 218 265 317 383
#     4   9  20  32  65 103 127 160 220 260 310 380
#     4   9  19  40  64  89 129 172 209 256 319 378
#     4  12  27  44  66  96 129 167 218 265 317 383
#     4   9  19  40  64  89 129 172 209 256 319 378
#     4  12  22  40  69  93 134 168 212 263 327 365
#     4   9  16  37  63  96 125 171 214 256 311 386
#
# _framework density 20.212195000000001
#
# number of rings (size 3 to 8) (size 9 to 14) (size 15 to 20)
#    0.000    1.714    2.857    4.286    4.000    1.143 
#    0.000    4.286    0.000    0.000    0.000    0.000 
#    0.000    0.000    0.000    0.000    0.000    0.000 
#
# Total GULP energy -78015.523283 kJ/mol
# GULP energy per Si atom -5572.537377 kJ/mol
# Density = 2.016619 g / cm^3
# Si number density = 20.212195 Si / 1000 Ang^3
#
#
#
# Elastic Constant Matrix: (Units=GPa)
#
#
# Indices 1 2 3 4 5 6 
#
# 1 111.7374 89.5962 -34.4412 -16.4755 -40.5219 -66.2083
# 2 89.5962 201.9255 -16.6868 15.1950 -48.3693 -67.8955
# 3 -34.4412 -16.6868 152.9603 42.2078 74.5738 120.0639
# 4 -16.4755 15.1950 42.2078 55.1155 21.7316 24.8645
# 5 -40.5219 -48.3693 74.5738 21.7316 104.5178 106.4922
# 6 -66.2083 -67.8955 120.0639 24.8645 106.4922 173.7976
#
#
#
# Elastic Compliance Matrix: (Units=1/GPa)
#
#
# Indices 1 2 3 4 5 6 
#
# 1 0.017745 -0.007175 -0.002349 0.007321 -0.002409 0.006008
# 2 -0.007175 0.009334 -0.001007 -0.005313 0.002522 0.000824
# 3 -0.002349 -0.001007 0.018224 -0.008783 0.000815 -0.013121
# 4 0.007321 -0.005313 -0.008783 0.027890 -0.005313 0.006046
# 5 -0.002409 0.002522 0.000815 -0.005313 0.026763 -0.016134
# 6 0.006008 0.000824 -0.013121 0.006046 -0.016134 0.026450
#
#
# Mechanical properties :
#
#
# Convention : Reuss Voigt Hill
#
# Bulk Modulus (GPa) = 41.25571 60.39551 50.82561
# Shear Modulus (GPa) = 32.14435 95.22984 63.68709
#
# Velocity S-wave (km/s) = 3.99224 6.87149 5.61940
# Velocity P-wave (km/s) = 6.45804 9.63857 8.20391
#
# Compressibility (1/GPa) = 0.02423907
#
# Stress axis : x y z
#
# Youngs Moduli (GPa) = 56.35363 107.13922 54.87259
#
# Poissons Ratio (x) = 0.76877 0.12890
# Poissons Ratio (y) = 0.40436 0.05528
# Poissons Ratio (z) = 0.13237 0.10793
#
# Static dielectric constant tensor:
#      x y z
#    x 1.718680 -0.014340 -0.004410 
#    y -0.014340 1.543750 -0.114600 
#    z -0.004410 -0.114600 1.665760 
# 
# From -- ./inp_files/159768.got.cif
#   From: 2010.05.17/outbox.cif.g08.bks.cpg/sg2_80_cif.got.tgz:159768.got - 2010.06.03 11:33:40.
