data_PCOD9069402
_publ_section_title
;
Structure prediction by ZEFSAII (Michael W. Deem and Ramdas Pophale) SiO2 
 PCOD9069402
Probable space group: P -1
;
_chemical_formula_sum "Si O2"
_cell_formula_units_Z 14
_cell_length_a 8.257616
_cell_length_b 5.110235
_cell_length_c 14.569969
_cell_angle_alpha 92.977502
_cell_angle_beta 80.331062
_cell_angle_gamma 88.972346
_cell_volume 605.054730
_symmetry_space_group_name_H-M "P -1"
_symmetry_group_IT_number 2
_symmetry_cell_setting 'triclinic'
loop_
_space_group_symop_operation_xyz
x,y,z
-x,-y,-z
loop_
_atom_site_type_symbol
_atom_site_label
_atom_site_fract_x
_atom_site_fract_y
_atom_site_fract_z
Si Si1 0.382760 0.256711 0.523116
Si Si2 0.151020 0.141490 0.033813
Si Si3 0.674862 0.362747 0.965534
Si Si4 0.774206 0.805477 0.650868
Si Si5 0.258034 0.241662 0.742045
Si Si6 0.621929 0.330606 0.758519
Si Si7 0.958410 0.252845 0.233098
O O1 0.500000 0.500000 0.500000
O O2 0.247602 0.241044 0.455613
O O3 0.304532 0.268578 0.631029
O O4 0.500000 0.000000 0.500000
O O5 0.098456 0.173585 0.145292
O O6 0.299033 0.928697 0.004084
O O7 0.802787 0.570085 0.997276
O O8 0.000000 0.000000 0.000000
O O9 0.694473 0.341236 0.853581
O O10 0.500000 0.500000 0.000000
O O11 0.655412 0.601429 0.708825
O O12 0.953464 0.752556 0.676359
O O13 0.711027 0.096744 0.689122
O O14 0.427898 0.280994 0.779842
O O15 0.121689 0.466783 0.778757
O O16 0.181803 0.961097 0.761552
#
# Coordination Sequence:
#
# PCOD9069402 Si02
#       7
#     2   2   2   2   2   2   2
#     4  12  23  43  67 100 132 172 228 280 327 382
#     4  12  27  47  69  99 141 178 212 277 343 393
#     4  12  26  46  71 104 131 173 231 274 323 400
#     4  12  23  45  71  92 136 183 215 273 336 395
#     4  12  26  41  70 101 132 176 228 272 326 399
#     4  12  23  44  70  97 131 181 224 268 327 397
#     4  12  26  44  66  99 139 175 219 269 342 400
#
# _framework density 23.138403
#
# number of rings (size 3 to 8) (size 9 to 14) (size 15 to 20)
#    0.000    0.000    5.714    4.286    4.000    1.143 
#    0.000    0.000    0.000    0.000    0.000    0.000 
#    0.000    0.000    0.000    0.000    0.000    0.000 
#
# Total GULP energy -78462.957774 kJ/mol
# GULP energy per Si atom -5604.496984 kJ/mol
# Density = 2.308574 g / cm^3
# Si number density = 23.138403 Si / 1000 Ang^3
#
#
#
# Elastic Constant Matrix: (Units=GPa)
#
#
# Indices 1 2 3 4 5 6 
#
# 1 95.1509 5.9652 -9.9719 15.4804 23.6254 9.2810
# 2 5.9652 77.8633 24.4801 22.2882 8.1177 12.0508
# 3 -9.9719 24.4801 52.3926 11.6690 8.2444 1.7133
# 4 15.4804 22.2882 11.6690 24.1052 1.7263 -3.0181
# 5 23.6254 8.1177 8.2444 1.7263 43.2251 1.4904
# 6 9.2810 12.0508 1.7133 -3.0181 1.4904 46.5034
#
#
#
# Elastic Compliance Matrix: (Units=1/GPa)
#
#
# Indices 1 2 3 4 5 6 
#
# 1 0.017048 0.003282 0.007430 -0.017497 -0.010469 -0.005327
# 2 0.003282 0.021187 -0.003860 -0.020446 -0.003972 -0.007203
# 3 0.007430 -0.003860 0.026680 -0.013823 -0.007800 -0.002113
# 4 -0.017497 -0.020446 -0.013823 0.079189 0.012393 0.014042
# 5 -0.010469 -0.003972 -0.007800 0.012393 0.030484 0.003233
# 6 -0.005327 -0.007203 -0.002113 0.014042 0.003233 0.025319
#
#
# Mechanical properties :
#
#
# Convention : Reuss Voigt Hill
#
# Bulk Modulus (GPa) = 12.71973 29.59486 21.15729
# Shear Modulus (GPa) = 23.53954 36.42894 29.98424
#
# Velocity S-wave (km/s) = 3.19303 3.97217 3.60372
# Velocity P-wave (km/s) = 4.37071 5.81856 5.14581
#
# Compressibility (1/GPa) = 0.07861803
#
# Stress axis : x y z
#
# Youngs Moduli (GPa) = 58.65762 47.19921 37.48182
#
# Poissons Ratio (x) = -0.15493 -0.27848
# Poissons Ratio (y) = -0.19254 0.14469
# Poissons Ratio (z) = -0.43581 0.18220
#
# Static dielectric constant tensor:
#      x y z
#    x 1.968920 0.016030 0.069230 
#    y 0.016030 1.823550 0.028060 
#    z 0.069230 0.028060 1.888370 
# 
# From -- ./inp_files/486510.got.cif
#   From: 2010.05.17/outbox.cif.g08.bks.cpg/sg2_244_cif.got.tgz:486510.got - 2010.06.03 11:33:40.
