data_PCOD9069126
_publ_section_title
;
Structure prediction by ZEFSAII (Michael W. Deem and Ramdas Pophale) SiO2 
 PCOD9069126
Probable space group: P -1
;
_chemical_formula_sum "Si O2"
_cell_formula_units_Z 16
_cell_length_a 23.759998
_cell_length_b 8.768166
_cell_length_c 9.700255
_cell_angle_alpha 132.436853
_cell_angle_beta 130.580213
_cell_angle_gamma 29.147740
_cell_volume 715.828072
_symmetry_space_group_name_H-M "P -1"
_symmetry_group_IT_number 2
_symmetry_cell_setting 'triclinic'
loop_
_space_group_symop_operation_xyz
x,y,z
-x,-y,-z
loop_
_atom_site_type_symbol
_atom_site_label
_atom_site_fract_x
_atom_site_fract_y
_atom_site_fract_z
Si Si1 0.076654 0.303768 0.140722
Si Si2 0.740306 0.701560 0.215719
Si Si3 0.666547 0.429326 0.899213
Si Si4 0.251312 0.468206 0.343059
Si Si5 0.909228 0.365740 0.028980
Si Si6 0.362863 0.627888 0.489786
Si Si7 0.442014 0.696332 0.171396
Si Si8 0.130058 0.642760 0.517243
O O1 0.131029 0.402498 0.329878
O O2 0.191069 0.909804 0.081726
O O3 0.000000 0.500000 0.000000
O O4 0.981077 0.421837 0.166731
O O5 0.834640 0.425067 0.309972
O O6 0.691316 0.026347 0.384207
O O7 0.648402 0.712432 0.066700
O O8 0.801040 0.605359 0.106844
O O9 0.613693 0.479991 0.697582
O O10 0.619483 0.373458 0.904402
O O11 0.138486 0.607166 0.177362
O O12 0.279888 0.623280 0.411281
O O13 0.222313 0.557636 0.512700
O O14 0.352916 0.079784 0.244188
O O15 0.000000 0.000000 0.000000
O O16 0.467877 0.417331 0.638133
O O17 0.500000 0.500000 0.000000
O O18 0.000000 0.000000 0.500000
#
# Coordination Sequence:
#
# PCOD9069126 Si02
#       8
#     2   2   2   2   2   2   2   2
#     4  12  22  43  70 101 147 195 229 291 358 428
#     4  12  26  45  72 110 144 190 247 293 359 441
#     4  12  25  51  73 102 152 186 241 308 360 431
#     4  12  25  50  71 106 153 183 243 307 355 436
#     4  12  23  42  72 105 146 188 232 288 360 432
#     4  12  27  49  75 104 144 195 240 307 371 418
#     4  12  28  50  77 107 135 196 252 305 370 420
#     4  12  26  42  69 110 147 195 239 285 365 439
#
# _framework density 22.351737
#
# number of rings (size 3 to 8) (size 9 to 14) (size 15 to 20)
#    0.000    0.000    6.250    3.000    3.500    1.000 
#    2.250    0.000    0.000    0.000    0.000    0.000 
#    0.000    0.000    0.000    0.000    0.000    0.000 
#
# Total GULP energy -89541.693374 kJ/mol
# GULP energy per Si atom -5596.355836 kJ/mol
# Density = 2.230086 g / cm^3
# Si number density = 22.351737 Si / 1000 Ang^3
#
#
#
# Elastic Constant Matrix: (Units=GPa)
#
#
# Indices 1 2 3 4 5 6 
#
# 1 131.3077 6.3875 47.7032 17.5733 3.6742 6.4400
# 2 6.3875 95.6404 31.7197 -6.5344 -2.2638 12.4660
# 3 47.7032 31.7197 101.4979 -3.5414 4.4190 12.7527
# 4 17.5733 -6.5344 -3.5414 44.0918 11.9356 5.6143
# 5 3.6742 -2.2638 4.4190 11.9356 30.9041 -0.7239
# 6 6.4400 12.4660 12.7527 5.6143 -0.7239 28.1179
#
#
#
# Elastic Compliance Matrix: (Units=1/GPa)
#
#
# Indices 1 2 3 4 5 6 
#
# 1 0.010067 0.000679 -0.005277 -0.004841 0.001496 0.000792
# 2 0.000679 0.012286 -0.003589 0.001647 0.000596 -0.004288
# 3 -0.005277 -0.003589 0.014334 0.004242 -0.003432 -0.004637
# 4 -0.004841 0.001647 0.004242 0.029255 -0.011389 -0.007680
# 5 0.001496 0.000596 -0.003432 -0.011389 0.037211 0.004182
# 6 0.000792 -0.004288 -0.004637 -0.007680 0.004182 0.041029
#
#
# Mechanical properties :
#
#
# Convention : Reuss Voigt Hill
#
# Bulk Modulus (GPa) = 49.22598 55.56299 52.39449
# Shear Modulus (GPa) = 29.88158 36.79846 33.34002
#
# Velocity S-wave (km/s) = 3.66030 4.06191 3.86632
# Velocity P-wave (km/s) = 6.31941 6.84918 6.58962
#
# Compressibility (1/GPa) = 0.02031448
#
# Stress axis : x y z
#
# Youngs Moduli (GPa) = 99.33356 81.39201 69.76297
#
# Poissons Ratio (x) = -0.05529 0.36816
# Poissons Ratio (y) = -0.06748 0.25035
# Poissons Ratio (z) = 0.52421 0.29208
#
# Static dielectric constant tensor:
#      x y z
#    x 1.822320 0.026100 0.038300 
#    y 0.026100 1.926460 0.013650 
#    z 0.038300 0.013650 1.721920 
# 
# From -- ./inp_files/352438.got.cif
#   From: 2010.05.17/outbox.cif.g08.bks.cpg/sg2_177_cif.got.tgz:352438.got - 2010.06.03 11:33:40.
