data_PCOD9069581
_publ_section_title
;
Structure prediction by ZEFSAII (Michael W. Deem and Ramdas Pophale) SiO2 
 PCOD9069581
Probable space group: P -1
;
_chemical_formula_sum "Si O2"
_cell_formula_units_Z 16
_cell_length_a 12.912042
_cell_length_b 9.323800
_cell_length_c 8.670818
_cell_angle_alpha 47.467434
_cell_angle_beta 85.688291
_cell_angle_gamma 82.625953
_cell_volume 762.765714
_symmetry_space_group_name_H-M "P -1"
_symmetry_group_IT_number 2
_symmetry_cell_setting 'triclinic'
loop_
_space_group_symop_operation_xyz
x,y,z
-x,-y,-z
loop_
_atom_site_type_symbol
_atom_site_label
_atom_site_fract_x
_atom_site_fract_y
_atom_site_fract_z
Si Si1 0.535832 0.478249 0.189021
Si Si2 0.304601 0.791851 0.445884
Si Si3 0.601487 0.891795 0.987891
Si Si4 0.211408 0.201461 0.737640
Si Si5 0.977694 0.562173 0.281940
Si Si6 0.684965 0.474494 0.669399
Si Si7 0.916681 0.189926 0.393495
Si Si8 0.843504 0.214225 0.042712
O O1 0.627155 0.309457 0.347799
O O2 0.432294 0.452924 0.319795
O O3 0.500000 0.500000 0.000000
O O4 0.577370 0.681001 0.086933
O O5 0.314864 0.642813 0.407058
O O6 0.182067 0.838884 0.464454
O O7 0.355617 0.982146 0.245431
O O8 0.686463 0.874056 0.125485
O O9 0.500000 0.000000 0.000000
O O10 0.135994 0.319755 0.782887
O O11 0.245188 0.347786 0.496519
O O12 0.159263 0.016741 0.814189
O O13 0.974735 0.368904 0.321412
O O14 0.000000 0.500000 0.500000
O O15 0.061254 0.702694 0.116832
O O16 0.739726 0.330357 0.897551
O O17 0.863559 0.249106 0.193494
O O18 0.000000 0.000000 0.500000
#
# Coordination Sequence:
#
# PCOD9069581 Si02
#       8
#     2   2   2   2   2   2   2   2
#     4  12  26  45  72 107 144 180 227 296 359 407
#     4  12  24  47  72 102 141 187 241 284 344 429
#     4  12  24  42  73 105 138 184 235 285 348 423
#     4  12  24  42  75 103 133 187 240 282 350 419
#     4  12  24  47  72 100 138 190 238 286 346 426
#     4  12  23  45  75 103 140 184 238 287 343 433
#     4  12  28  47  69 106 146 187 234 298 358 407
#     4  12  26  44  69 105 143 178 235 298 351 408
#
# _framework density 20.976296999999999
#
# number of rings (size 3 to 8) (size 9 to 14) (size 15 to 20)
#    0.000    0.000    6.250    3.375    1.750    1.500 
#    2.250    0.000    0.000    0.000    0.000    0.000 
#    0.000    0.000    0.000    0.000    0.000    0.000 
#
# Total GULP energy -89577.025070 kJ/mol
# GULP energy per Si atom -5598.564067 kJ/mol
# Density = 2.092855 g / cm^3
# Si number density = 20.976297 Si / 1000 Ang^3
#
#
#
# Elastic Constant Matrix: (Units=GPa)
#
#
# Indices 1 2 3 4 5 6 
#
# 1 104.7807 29.0197 14.5077 -9.6009 -12.4882 -14.1263
# 2 29.0197 90.8618 25.7725 -4.6190 -7.8280 17.5325
# 3 14.5077 25.7725 85.7139 -5.5422 -6.2624 10.9198
# 4 -9.6009 -4.6190 -5.5422 42.3976 12.4965 0.1580
# 5 -12.4882 -7.8280 -6.2624 12.4965 59.1630 -6.7104
# 6 -14.1263 17.5325 10.9198 0.1580 -6.7104 46.0033
#
#
#
# Elastic Compliance Matrix: (Units=1/GPa)
#
#
# Indices 1 2 3 4 5 6 
#
# 1 0.012152 -0.004430 -0.001238 0.001427 0.002231 0.006034
# 2 -0.004430 0.014413 -0.002783 0.000250 -0.000079 -0.006205
# 3 -0.001238 -0.002783 0.013106 0.001061 0.000262 -0.002396
# 4 0.001427 0.000250 0.001061 0.025562 -0.005036 -0.000731
# 5 0.002231 -0.000079 0.000262 -0.005036 0.018842 0.003419
# 6 0.006034 -0.006205 -0.002396 -0.000731 0.003419 0.027025
#
#
# Mechanical properties :
#
#
# Convention : Reuss Voigt Hill
#
# Bulk Modulus (GPa) = 43.91891 46.66181 45.29036
# Shear Modulus (GPa) = 36.87510 43.64987 40.26248
#
# Velocity S-wave (km/s) = 4.19733 4.56665 4.38588
# Velocity P-wave (km/s) = 6.66880 7.07807 6.87648
#
# Compressibility (1/GPa) = 0.02276923
#
# Stress axis : x y z
#
# Youngs Moduli (GPa) = 82.28977 69.38166 76.30001
#
# Poissons Ratio (x) = 0.30733 0.09449
# Poissons Ratio (y) = 0.36450 0.21235
# Poissons Ratio (z) = 0.10191 0.19310
#
# Static dielectric constant tensor:
#      x y z
#    x 1.655780 0.036120 -0.020160 
#    y 0.036120 1.712350 -0.002250 
#    z -0.020160 -0.002250 1.764540 
# 
# From -- ./inp_files/242055.got.cif
#   From: 2010.05.17/outbox.cif.g08.bks.cpg/sg2_122_cif.got.tgz:242055.got - 2010.06.03 11:33:40.
