data_PCOD9069968
_publ_section_title
;
Structure prediction by ZEFSAII (Michael W. Deem and Ramdas Pophale) SiO2 
 PCOD9069968
Probable space group: P -1
;
_chemical_formula_sum "Si O2"
_cell_formula_units_Z 16
_cell_length_a 8.398561
_cell_length_b 17.031110
_cell_length_c 11.722328
_cell_angle_alpha 126.379773
_cell_angle_beta 125.474447
_cell_angle_gamma 33.685325
_cell_volume 734.437120
_symmetry_space_group_name_H-M "P -1"
_symmetry_group_IT_number 2
_symmetry_cell_setting 'triclinic'
loop_
_space_group_symop_operation_xyz
x,y,z
-x,-y,-z
loop_
_atom_site_type_symbol
_atom_site_label
_atom_site_fract_x
_atom_site_fract_y
_atom_site_fract_z
Si Si1 0.605143 0.948994 0.772320
Si Si2 0.919302 0.744193 0.080952
Si Si3 0.337407 0.390334 0.516286
Si Si4 0.434768 0.297129 0.219535
Si Si5 0.295395 0.896955 0.460490
Si Si6 0.828997 0.261512 0.033654
Si Si7 0.381451 0.509858 0.239975
Si Si8 0.108159 0.987928 0.201506
O O1 0.337194 0.082435 0.854990
O O2 0.715227 0.001084 0.791509
O O3 0.494265 0.907884 0.605589
O O4 0.876726 0.812977 0.843611
O O5 0.071913 0.660782 0.191875
O O6 0.778307 0.701770 0.927012
O O7 0.150822 0.704817 0.056140
O O8 0.405952 0.313337 0.357862
O O9 0.530228 0.267575 0.588477
O O10 0.435692 0.466199 0.617104
O O11 0.000000 0.500000 0.500000
O O12 0.362880 0.430647 0.255349
O O13 0.766736 0.144083 0.194459
O O14 0.218815 0.947156 0.342146
O O15 0.000000 0.000000 0.500000
O O16 0.554644 0.400553 0.110086
O O17 0.846300 0.138234 0.933137
#
# Coordination Sequence:
#
# PCOD9069968 Si02
#       8
#     2   2   2   2   2   2   2   2
#     4  12  24  44  69 104 138 178 227 280 341 405
#     4  12  26  42  71 106 135 177 231 281 344 402
#     4  12  27  47  71 101 138 182 230 276 345 410
#     4  12  25  46  71 100 139 181 226 282 344 405
#     4  12  25  45  71 101 137 179 229 283 332 401
#     4  12  24  45  73 100 138 178 228 278 343 405
#     4  12  26  47  68 100 142 181 221 283 344 411
#     4  12  25  44  72 104 135 179 230 283 339 402
#
# _framework density 21.785392999999999
#
# number of rings (size 3 to 8) (size 9 to 14) (size 15 to 20)
#    0.000    0.000    3.750    7.500    0.000    2.000 
#    0.000    0.000    0.000    0.000    0.000    0.000 
#    0.000    0.000    0.000    0.000    0.000    0.000 
#
# Total GULP energy -89709.882525 kJ/mol
# GULP energy per Si atom -5606.867658 kJ/mol
# Density = 2.173581 g / cm^3
# Si number density = 21.785393 Si / 1000 Ang^3
#
#
#
# Elastic Constant Matrix: (Units=GPa)
#
#
# Indices 1 2 3 4 5 6 
#
# 1 60.9048 -3.9653 13.1871 -2.9573 6.2479 13.2180
# 2 -3.9653 55.9661 -16.1715 -14.9047 0.2057 7.3272
# 3 13.1871 -16.1715 96.1381 -7.1053 15.6618 3.1198
# 4 -2.9573 -14.9047 -7.1053 33.9207 5.1312 -7.5087
# 5 6.2479 0.2057 15.6618 5.1312 42.0203 2.8659
# 6 13.2180 7.3272 3.1198 -7.5087 2.8659 37.1115
#
#
#
# Elastic Compliance Matrix: (Units=1/GPa)
#
#
# Indices 1 2 3 4 5 6 
#
# 1 0.018550 0.001962 -0.001633 0.000972 -0.001833 -0.006519
# 2 0.001962 0.022843 0.005053 0.011094 -0.003429 -0.003124
# 3 -0.001633 0.005053 0.012732 0.005541 -0.005207 0.000037
# 4 0.000972 0.011094 0.005541 0.037850 -0.007242 0.005215
# 5 -0.001833 -0.003429 -0.005207 -0.007242 0.027034 -0.001785
# 6 -0.006519 -0.003124 0.000037 0.005215 -0.001785 0.031075
#
#
# Mechanical properties :
#
#
# Convention : Reuss Voigt Hill
#
# Bulk Modulus (GPa) = 15.41062 22.12326 18.76694
# Shear Modulus (GPa) = 31.06548 37.27439 34.16994
#
# Velocity S-wave (km/s) = 3.78031 4.14089 3.96470
# Velocity P-wave (km/s) = 5.11307 5.74802 5.43982
#
# Compressibility (1/GPa) = 0.06489031
#
# Stress axis : x y z
#
# Youngs Moduli (GPa) = 53.90747 43.77666 78.54118
#
# Poissons Ratio (x) = -0.08587 0.12822
# Poissons Ratio (y) = -0.10574 -0.39689
# Poissons Ratio (z) = 0.08801 -0.22122
#
# Static dielectric constant tensor:
#      x y z
#    x 1.736710 0.021590 -0.000020 
#    y 0.021590 1.765810 -0.007820 
#    z -0.000020 -0.007820 1.774270 
# 
# From -- ./inp_files/187518.got.cif
#   From: 2010.05.17/outbox.cif.g08.bks.cpg/sg2_94_cif.got.tgz:187518.got - 2010.06.03 11:33:40.
