data_PCOD9069391
_publ_section_title
;
Structure prediction by ZEFSAII (Michael W. Deem and Ramdas Pophale) SiO2 
 PCOD9069391
Probable space group: P -1
;
_chemical_formula_sum "Si O2"
_cell_formula_units_Z 14
_cell_length_a 7.978586
_cell_length_b 15.946019
_cell_length_c 10.366986
_cell_angle_alpha 120.121927
_cell_angle_beta 85.307346
_cell_angle_gamma 43.800457
_cell_volume 529.667975
_symmetry_space_group_name_H-M "P -1"
_symmetry_group_IT_number 2
_symmetry_cell_setting 'triclinic'
loop_
_space_group_symop_operation_xyz
x,y,z
-x,-y,-z
loop_
_atom_site_type_symbol
_atom_site_label
_atom_site_fract_x
_atom_site_fract_y
_atom_site_fract_z
Si Si1 0.231970 0.905854 0.039086
Si Si2 0.949713 0.188948 0.909144
Si Si3 0.894801 0.379315 0.487050
Si Si4 0.293094 0.304873 0.600007
Si Si5 0.434059 0.643082 0.461772
Si Si6 0.603815 0.893256 0.048522
Si Si7 0.204723 0.214175 0.759321
O O1 0.947470 0.110290 0.300645
O O2 0.552942 0.816887 0.921641
O O3 0.308358 0.765952 0.997689
O O4 0.000000 0.000000 0.000000
O O5 0.890375 0.298929 0.886256
O O6 0.317655 0.944033 0.650826
O O7 0.070858 0.194753 0.027772
O O8 0.644209 0.533269 0.500907
O O9 0.680395 0.407440 0.606303
O O10 0.044232 0.392604 0.568032
O O11 0.251803 0.138286 0.231682
O O12 0.345505 0.393942 0.668556
O O13 0.141455 0.336980 0.766124
O O14 0.612874 0.854152 0.168268
O O15 0.500000 0.000000 0.500000
#
# Coordination Sequence:
#
# PCOD9069391 Si02
#       7
#     2   2   2   2   2   2   2
#     4  10  18  29  42  60  85 115 145 171 203 236
#     4   7  15  27  39  60  87 104 137 169 200 250
#     4   9  15  27  42  59  92 109 128 168 214 247
#     4   9  14  26  42  63  87 110 126 167 215 255
#     4   9  18  27  39  65  87 108 140 168 198 258
#     4   8  16  28  43  64  89 106 131 174 209 248
#     4   8  13  27  42  61  93 104 132 166 208 267
#
# _framework density 26.431654000000002
#
# number of rings (size 3 to 8) (size 9 to 14) (size 15 to 20)
#    0.857    2.571    1.429    0.429    0.000    0.571 
#    2.571    2.857    0.000    0.000    0.000    2.000 
#    0.000    0.000    0.000    0.000    0.000    0.000 
#
# Total GULP energy -78181.294746 kJ/mol
# GULP energy per Si atom -5584.378196 kJ/mol
# Density = 2.637149 g / cm^3
# Si number density = 26.431654 Si / 1000 Ang^3
#
#
#
# Elastic Constant Matrix: (Units=GPa)
#
#
# Indices 1 2 3 4 5 6 
#
# 1 164.8190 39.7055 27.0677 16.4275 -9.1256 55.5583
# 2 39.7055 84.3634 16.1839 -1.1189 -7.1913 40.8944
# 3 27.0677 16.1839 63.2924 22.4185 -0.6159 7.2083
# 4 16.4275 -1.1189 22.4185 35.6275 3.1294 -11.3716
# 5 -9.1256 -7.1913 -0.6159 3.1294 40.3072 -2.8920
# 6 55.5583 40.8944 7.2083 -11.3716 -2.8920 65.0848
#
#
#
# Elastic Compliance Matrix: (Units=1/GPa)
#
#
# Indices 1 2 3 4 5 6 
#
# 1 0.010519 0.000279 -0.000516 -0.008038 0.002301 -0.010400
# 2 0.000279 0.017983 -0.002806 -0.001661 0.002539 -0.011404
# 3 -0.000516 -0.002806 0.022334 -0.014869 0.000675 -0.002838
# 4 -0.008038 -0.001661 -0.014869 0.047104 -0.004740 0.017572
# 5 0.002301 0.002539 0.000675 -0.004740 0.025924 -0.003311
# 6 -0.010400 -0.011404 -0.002838 0.017572 -0.003311 0.034645
#
#
# Mechanical properties :
#
#
# Convention : Reuss Voigt Hill
#
# Bulk Modulus (GPa) = 22.34595 53.15434 37.75015
# Shear Modulus (GPa) = 27.85356 43.50509 35.67933
#
# Velocity S-wave (km/s) = 3.24974 4.06143 3.67805
# Velocity P-wave (km/s) = 4.74907 6.49210 5.68775
#
# Compressibility (1/GPa) = 0.04475083
#
# Stress axis : x y z
#
# Youngs Moduli (GPa) = 95.06670 55.60896 44.77429
#
# Poissons Ratio (x) = -0.01551 0.02310
# Poissons Ratio (y) = -0.02651 0.12562
# Poissons Ratio (z) = 0.04904 0.15601
#
# Static dielectric constant tensor:
#      x y z
#    x 2.110810 0.077910 -0.165060 
#    y 0.077910 2.079580 -0.025670 
#    z -0.165060 -0.025670 2.412870 
# 
# From -- ./inp_files/248712.got.cif
#   From: 2010.05.17/outbox.cif.g08.bks.cpg/sg2_125_cif.got.tgz:248712.got - 2010.06.03 11:33:40.
