data_PCOD9069742
_publ_section_title
;
Structure prediction by ZEFSAII (Michael W. Deem and Ramdas Pophale) SiO2 
 PCOD9069742
Probable space group: P -1
;
_chemical_formula_sum "Si O2"
_cell_formula_units_Z 16
_cell_length_a 9.465201
_cell_length_b 9.233392
_cell_length_c 15.133070
_cell_angle_alpha 71.033679
_cell_angle_beta 36.982560
_cell_angle_gamma 66.898255
_cell_volume 731.658506
_symmetry_space_group_name_H-M "P -1"
_symmetry_group_IT_number 2
_symmetry_cell_setting 'triclinic'
loop_
_space_group_symop_operation_xyz
x,y,z
-x,-y,-z
loop_
_atom_site_type_symbol
_atom_site_label
_atom_site_fract_x
_atom_site_fract_y
_atom_site_fract_z
Si Si1 0.903892 0.343991 0.575290
Si Si2 0.012762 0.321122 0.052344
Si Si3 0.263949 0.111071 0.311796
Si Si4 0.804159 0.160397 0.036944
Si Si5 0.071946 0.853284 0.699451
Si Si6 0.418358 0.335078 0.571777
Si Si7 0.995242 0.206143 0.740011
Si Si8 0.484475 0.242555 0.740806
O O1 0.101822 0.212663 0.449207
O O2 0.851661 0.286581 0.710410
O O3 0.000000 0.500000 0.500000
O O4 0.648031 0.365895 0.650430
O O5 0.953393 0.275010 0.189013
O O6 0.291053 0.229611 0.913943
O O7 0.000000 0.500000 0.000000
O O8 0.833809 0.270813 0.081662
O O9 0.121171 0.139615 0.284289
O O10 0.328379 0.923902 0.332484
O O11 0.528697 0.146535 0.171440
O O12 0.871447 0.215898 0.895733
O O13 0.000000 0.000000 0.000000
O O14 0.337613 0.795584 0.539462
O O15 0.056694 0.020835 0.721222
O O16 0.500000 0.500000 0.500000
O O17 0.216494 0.294456 0.617076
O O18 0.330321 0.300169 0.719839
#
# Coordination Sequence:
#
# PCOD9069742 Si02
#       8
#     2   2   2   2   2   2   2   2
#     4  12  28  45  69 106 143 185 232 292 356 413
#     4  12  28  46  73 105 143 185 232 292 358 418
#     4  12  26  47  73 104 142 182 237 296 349 421
#     4  12  25  48  71 106 141 179 236 293 347 427
#     4  12  26  45  72 105 138 187 240 283 355 424
#     4  12  25  44  69 101 144 183 233 295 347 411
#     4  12  25  44  73 102 136 187 238 282 350 420
#     4  12  23  48  71  96 146 184 229 289 352 418
#
# _framework density 21.868127000000001
#
# number of rings (size 3 to 8) (size 9 to 14) (size 15 to 20)
#    0.000    0.000    6.250    3.000    5.250    1.000 
#    0.000    1.250    0.000    0.000    0.000    0.000 
#    0.000    0.000    0.000    0.000    0.000    0.000 
#
# Total GULP energy -89437.809121 kJ/mol
# GULP energy per Si atom -5589.863070 kJ/mol
# Density = 2.181835 g / cm^3
# Si number density = 21.868127 Si / 1000 Ang^3
#
#
#
# Elastic Constant Matrix: (Units=GPa)
#
#
# Indices 1 2 3 4 5 6 
#
# 1 109.7327 17.9221 32.1511 -3.6576 2.2872 16.5456
# 2 17.9221 57.5699 -4.0999 -19.7825 4.9956 11.2319
# 3 32.1511 -4.0999 102.3281 -6.8504 0.6722 1.2871
# 4 -3.6576 -19.7825 -6.8504 32.2425 -4.5456 -4.7595
# 5 2.2872 4.9956 0.6722 -4.5456 53.6374 -18.1520
# 6 16.5456 11.2319 1.2871 -4.7595 -18.1520 28.7782
#
#
#
# Elastic Compliance Matrix: (Units=1/GPa)
#
#
# Indices 1 2 3 4 5 6 
#
# 1 0.011961 -0.003262 -0.003976 -0.003088 -0.003086 -0.007883
# 2 -0.003262 0.025412 0.003118 0.014113 -0.003877 -0.008294
# 3 -0.003976 0.003118 0.011404 0.004225 0.000661 0.001675
# 4 -0.003088 0.014113 0.004225 0.041640 0.004191 0.005609
# 5 -0.003086 -0.003877 0.000661 0.004191 0.026471 0.020648
# 6 -0.007883 -0.008294 0.001675 0.005609 0.020648 0.056394
#
#
# Mechanical properties :
#
#
# Convention : Reuss Voigt Hill
#
# Bulk Modulus (GPa) = 24.66953 40.17526 32.42239
# Shear Modulus (GPa) = 25.63648 37.84212 31.73930
#
# Velocity S-wave (km/s) = 3.42763 4.16440 3.81385
# Velocity P-wave (km/s) = 5.19331 6.44473 5.85256
#
# Compressibility (1/GPa) = 0.04053583
#
# Stress axis : x y z
#
# Youngs Moduli (GPa) = 83.60682 39.35171 87.68772
#
# Poissons Ratio (x) = 0.12837 0.34865
# Poissons Ratio (y) = 0.27273 -0.27338
# Poissons Ratio (z) = 0.33242 -0.12269
#
# Static dielectric constant tensor:
#      x y z
#    x 1.733670 0.016940 0.003500 
#    y 0.016940 1.824260 0.003390 
#    z 0.003500 0.003390 1.791780 
# 
# From -- ./inp_files/205145.got.cif
#   From: 2010.05.17/outbox.cif.g08.bks.cpg/sg2_103_cif.got.tgz:205145.got - 2010.06.03 11:33:40.
