data_PCOD9069325
_publ_section_title
;
Structure prediction by ZEFSAII (Michael W. Deem and Ramdas Pophale) SiO2 
 PCOD9069325
Probable space group: P -1
;
_chemical_formula_sum "Si O2"
_cell_formula_units_Z 12
_cell_length_a 4.875643
_cell_length_b 11.931091
_cell_length_c 14.476283
_cell_angle_alpha 134.292503
_cell_angle_beta 122.469682
_cell_angle_gamma 71.094951
_cell_volume 506.732526
_symmetry_space_group_name_H-M "P -1"
_symmetry_group_IT_number 2
_symmetry_cell_setting 'triclinic'
loop_
_space_group_symop_operation_xyz
x,y,z
-x,-y,-z
loop_
_atom_site_type_symbol
_atom_site_label
_atom_site_fract_x
_atom_site_fract_y
_atom_site_fract_z
Si Si1 0.873790 0.186135 0.350936
Si Si2 0.865736 0.953768 0.052406
Si Si3 0.987755 0.395306 0.141591
Si Si4 0.348732 0.554802 0.142185
Si Si5 0.741899 0.880076 0.437169
Si Si6 0.254510 0.350122 0.361443
O O1 0.053614 0.188278 0.481812
O O2 0.032114 0.323874 0.394648
O O3 0.948497 0.040139 0.215137
O O4 0.492748 0.209321 0.309099
O O5 0.500000 0.000000 0.000000
O O6 0.936075 0.774626 0.979550
O O7 0.000000 0.000000 0.000000
O O8 0.247976 0.521253 0.212176
O O9 0.040095 0.376155 0.248660
O O10 0.622003 0.444038 0.092374
O O11 0.525174 0.731768 0.266329
O O12 0.000000 0.500000 0.000000
O O13 0.500000 0.000000 0.500000
O O14 0.000000 0.000000 0.500000
O O15 0.500000 0.500000 0.500000
#
# Coordination Sequence:
#
# PCOD9069325 Si02
#       6
#     2   2   2   2   2   2
#     4  12  24  45  71 106 150 190 251 312 376 461
#     4  12  23  44  70 113 151 194 247 299 385 464
#     4  12  24  45  75 105 156 193 248 313 378 455
#     4  12  28  51  74 110 148 204 262 314 378 448
#     4  12  28  52  78 107 149 202 261 320 378 450
#     4  12  23  41  72 109 144 190 238 311 391 457
#
# _framework density 23.681132000000002
#
# number of rings (size 3 to 8) (size 9 to 14) (size 15 to 20)
#    0.000    0.000    3.333    7.000    2.333    0.000 
#    0.000    0.000    0.000    0.000    0.000    0.000 
#    0.000    0.000    0.000    0.000    0.000    0.000 
#
# Total GULP energy -67056.689170 kJ/mol
# GULP energy per Si atom -5588.057431 kJ/mol
# Density = 2.362723 g / cm^3
# Si number density = 23.681132 Si / 1000 Ang^3
#
#
#
# Elastic Constant Matrix: (Units=GPa)
#
#
# Indices 1 2 3 4 5 6 
#
# 1 194.7081 53.4964 23.3589 5.5913 13.6204 -8.4786
# 2 53.4964 101.6586 53.8935 9.6438 7.8117 -6.1253
# 3 23.3589 53.8935 137.2681 14.1890 17.2892 -12.0905
# 4 5.5913 9.6438 14.1890 48.6275 1.0762 -6.7258
# 5 13.6204 7.8117 17.2892 1.0762 29.1600 -2.7584
# 6 -8.4786 -6.1253 -12.0905 -6.7258 -2.7584 58.8707
#
#
#
# Elastic Compliance Matrix: (Units=1/GPa)
#
#
# Indices 1 2 3 4 5 6 
#
# 1 0.006171 -0.003354 0.000614 -0.000097 -0.002292 0.000547
# 2 -0.003354 0.014309 -0.005047 -0.001011 0.000753 -0.000111
# 3 0.000614 -0.005047 0.010040 -0.001728 -0.004710 0.001207
# 4 -0.000097 -0.001011 -0.001728 0.021544 0.000737 0.002022
# 5 -0.002292 0.000753 -0.004710 0.000737 0.037989 0.000645
# 6 0.000547 -0.000111 0.001207 0.002022 0.000645 0.017563
#
#
# Mechanical properties :
#
#
# Convention : Reuss Voigt Hill
#
# Bulk Modulus (GPa) = 66.91319 77.23692 72.07506
# Shear Modulus (GPa) = 39.00979 47.52405 43.26692
#
# Velocity S-wave (km/s) = 4.06309 4.48463 4.27905
# Velocity P-wave (km/s) = 7.09428 7.71376 7.41050
#
# Compressibility (1/GPa) = 0.01494474
#
# Stress axis : x y z
#
# Youngs Moduli (GPa) = 162.05202 69.88492 99.59839
#
# Poissons Ratio (x) = 0.23442 -0.06114
# Poissons Ratio (y) = 0.54359 0.50270
# Poissons Ratio (z) = -0.09948 0.35273
#
# Static dielectric constant tensor:
#      x y z
#    x 1.856760 0.033320 0.009730 
#    y 0.033320 1.914290 0.045030 
#    z 0.009730 0.045030 2.025310 
# 
# From -- ./inp_files/483077.got.cif
#   From: 2010.05.17/outbox.cif.g08.bks.cpg/sg2_242_cif.got.tgz:483077.got - 2010.06.03 11:33:40.
