data_PCOD9069957
_publ_section_title
;
Structure prediction by ZEFSAII (Michael W. Deem and Ramdas Pophale) SiO2 
 PCOD9069957
Probable space group: P -1
;
_chemical_formula_sum "Si O2"
_cell_formula_units_Z 14
_cell_length_a 9.325541
_cell_length_b 9.678398
_cell_length_c 11.168895
_cell_angle_alpha 71.680466
_cell_angle_beta 61.997515
_cell_angle_gamma 113.809567
_cell_volume 636.472430
_symmetry_space_group_name_H-M "P -1"
_symmetry_group_IT_number 2
_symmetry_cell_setting 'triclinic'
loop_
_space_group_symop_operation_xyz
x,y,z
-x,-y,-z
loop_
_atom_site_type_symbol
_atom_site_label
_atom_site_fract_x
_atom_site_fract_y
_atom_site_fract_z
Si Si1 0.614214 0.608704 0.683650
Si Si2 0.939023 0.939124 0.295044
Si Si3 0.360003 0.063437 0.052200
Si Si4 0.350085 0.663525 0.929142
Si Si5 0.565074 0.051426 0.598139
Si Si6 0.385204 0.224475 0.742794
Si Si7 0.050063 0.298535 0.275878
O O1 0.761515 0.810486 0.501473
O O2 0.424905 0.580412 0.833993
O O3 0.520365 0.445239 0.665841
O O4 0.768017 0.624222 0.717002
O O5 0.820799 0.866630 0.233876
O O6 0.118150 0.917818 0.237835
O O7 0.041397 0.155993 0.227281
O O8 0.491983 0.239520 0.044904
O O9 0.332690 0.121138 0.918861
O O10 0.500000 0.000000 0.000000
O O11 0.411149 0.850302 0.787973
O O12 0.118013 0.482365 0.123273
O O13 0.523003 0.187443 0.626381
O O14 0.820235 0.172058 0.466350
O O15 0.500000 0.000000 0.500000
#
# Coordination Sequence:
#
# PCOD9069957 Si02
#       7
#     2   2   2   2   2   2   2
#     4  12  24  45  76 104 144 193 247 297 354 441
#     4  12  25  46  72 107 145 198 237 296 375 421
#     4  12  25  44  72 105 147 186 245 304 352 433
#     4  12  24  46  73 106 144 190 246 299 355 432
#     4  12  26  48  70 107 153 186 240 306 361 425
#     4  12  26  46  71 106 152 184 243 305 357 430
#     4  12  24  43  78 105 138 200 242 290 364 434
#
# _framework density 21.996238999999999
#
# number of rings (size 3 to 8) (size 9 to 14) (size 15 to 20)
#    0.000    0.000    7.143    3.429    0.000    2.286 
#    0.000    0.000    0.000    0.000    0.000    0.000 
#    0.000    0.000    0.000    0.000    0.000    0.000 
#
# Total GULP energy -78287.077194 kJ/mol
# GULP energy per Si atom -5591.934085 kJ/mol
# Density = 2.194618 g / cm^3
# Si number density = 21.996239 Si / 1000 Ang^3
#
#
#
# Elastic Constant Matrix: (Units=GPa)
#
#
# Indices 1 2 3 4 5 6 
#
# 1 74.1432 38.8545 17.7588 -7.6832 -0.1468 9.6440
# 2 38.8545 154.3032 25.6585 7.0686 -9.2577 8.6939
# 3 17.7588 25.6585 93.2335 -12.2629 18.9439 -0.8276
# 4 -7.6832 7.0686 -12.2629 33.7844 -1.6558 2.8867
# 5 -0.1468 -9.2577 18.9439 -1.6558 33.1832 13.9385
# 6 9.6440 8.6939 -0.8276 2.8867 13.9385 38.7918
#
#
#
# Elastic Compliance Matrix: (Units=1/GPa)
#
#
# Indices 1 2 3 4 5 6 
#
# 1 0.017020 -0.003712 -0.002187 0.004372 0.002462 -0.004656
# 2 -0.003712 0.008544 -0.003139 -0.003295 0.005108 -0.002649
# 3 -0.002187 -0.003139 0.014983 0.004580 -0.011454 0.005342
# 4 0.004372 -0.003295 0.004580 0.033110 -0.000850 -0.002409
# 5 0.002462 0.005108 -0.011454 -0.000850 0.045794 -0.018392
# 6 -0.004656 -0.002649 0.005342 -0.002409 -0.018392 0.034432
#
#
# Mechanical properties :
#
#
# Convention : Reuss Voigt Hill
#
# Bulk Modulus (GPa) = 44.50064 54.02480 49.26272
# Shear Modulus (GPa) = 27.86291 37.11241 32.48766
#
# Velocity S-wave (km/s) = 3.56295 4.11203 3.84730
# Velocity P-wave (km/s) = 6.09927 6.86726 6.49463
#
# Compressibility (1/GPa) = 0.02247159
#
# Stress axis : x y z
#
# Youngs Moduli (GPa) = 58.75358 117.03943 66.74059
#
# Poissons Ratio (x) = 0.43450 0.14594
# Poissons Ratio (y) = 0.21812 0.20949
# Poissons Ratio (z) = 0.12848 0.36738
#
# Static dielectric constant tensor:
#      x y z
#    x 1.807240 -0.013340 0.018780 
#    y -0.013340 1.684830 -0.098420 
#    z 0.018780 -0.098420 1.767070 
# 
# From -- ./inp_files/157243.got.cif
#   From: 2010.05.17/outbox.cif.g08.bks.cpg/sg2_79_cif.got.tgz:157243.got - 2010.06.03 11:33:40.
