data_PCOD9069738
_publ_section_title
;
Structure prediction by ZEFSAII (Michael W. Deem and Ramdas Pophale) SiO2 
 PCOD9069738
Probable space group: P -1
;
_chemical_formula_sum "Si O2"
_cell_formula_units_Z 12
_cell_length_a 17.453544
_cell_length_b 9.172264
_cell_length_c 5.258548
_cell_angle_alpha 59.642045
_cell_angle_beta 70.383426
_cell_angle_gamma 36.857347
_cell_volume 431.864573
_symmetry_space_group_name_H-M "P -1"
_symmetry_group_IT_number 2
_symmetry_cell_setting 'triclinic'
loop_
_space_group_symop_operation_xyz
x,y,z
-x,-y,-z
loop_
_atom_site_type_symbol
_atom_site_label
_atom_site_fract_x
_atom_site_fract_y
_atom_site_fract_z
Si Si1 0.226873 0.229356 0.158126
Si Si2 0.389142 0.543575 0.157740
Si Si3 0.846440 0.836791 0.191426
Si Si4 0.002158 0.157425 0.681356
Si Si5 0.844840 0.295433 0.355042
Si Si6 0.517907 0.774276 0.150162
O O1 0.214448 0.172012 0.502816
O O2 0.371729 0.943892 0.161556
O O3 0.138918 0.287721 0.980842
O O4 0.207054 0.465340 0.962947
O O5 0.408461 0.420511 0.515800
O O6 0.500000 0.500000 0.000000
O O7 0.408774 0.380570 0.053602
O O8 0.251614 0.853057 0.036980
O O9 0.973370 0.720022 0.272820
O O10 0.854944 0.384157 0.530255
O O11 0.150546 0.894856 0.618757
O O12 0.000000 0.000000 0.000000
O O13 0.000000 0.000000 0.500000
O O14 0.500000 0.000000 0.000000
#
# Coordination Sequence:
#
# PCOD9069738 Si02
#       6
#     2   2   2   2   2   2
#     4  12  25  44  66 106 132 177 237 270 342 408
#     4  12  23  48  67 102 145 179 226 279 348 403
#     4  12  27  41  75  98 137 183 222 284 336 407
#     4   9  23  46  66  96 129 182 223 275 351 397
#     4   8  24  43  65  92 136 170 223 281 339 396
#     4  12  26  43  71 102 142 181 228 285 330 410
#
# _framework density 27.786486
#
# number of rings (size 3 to 8) (size 9 to 14) (size 15 to 20)
#    1.000    0.000    3.333    2.000    9.333    2.667 
#    0.000    0.000    0.000    0.000    0.000    0.000 
#    0.000    0.000    0.000    0.000    0.000    0.000 
#
# Total GULP energy -66805.975456 kJ/mol
# GULP energy per Si atom -5567.164621 kJ/mol
# Density = 2.772324 g / cm^3
# Si number density = 27.786486 Si / 1000 Ang^3
#
#
#
# Elastic Constant Matrix: (Units=GPa)
#
#
# Indices 1 2 3 4 5 6 
#
# 1 75.5854 13.9894 7.0548 14.4307 17.9491 35.7187
# 2 13.9894 131.1255 28.3741 6.6420 4.6319 19.6785
# 3 7.0548 28.3741 161.6883 17.1360 5.3021 11.4305
# 4 14.4307 6.6420 17.1360 47.6336 8.4033 -1.1500
# 5 17.9491 4.6319 5.3021 8.4033 39.9876 -0.9239
# 6 35.7187 19.6785 11.4305 -1.1500 -0.9239 55.6692
#
#
#
# Elastic Compliance Matrix: (Units=1/GPa)
#
#
# Indices 1 2 3 4 5 6 
#
# 1 0.024408 0.000297 0.001047 -0.006414 -0.010158 -0.016282
# 2 0.000297 0.008355 -0.001164 -0.000756 -0.000856 -0.002935
# 3 0.001047 -0.001164 0.006753 -0.002494 -0.000746 -0.001711
# 4 -0.006414 -0.000756 -0.002494 0.024369 -0.001700 0.005370
# 5 -0.010158 -0.000856 -0.000746 -0.001700 0.030294 0.007441
# 6 -0.016282 -0.002935 -0.001711 0.005370 0.007441 0.030033
#
#
# Mechanical properties :
#
#
# Convention : Reuss Voigt Hill
#
# Bulk Modulus (GPa) = 25.07761 51.91507 38.49634
# Shear Modulus (GPa) = 36.45781 49.92347 43.19064
#
# Velocity S-wave (km/s) = 3.62618 4.24333 3.94683
# Velocity P-wave (km/s) = 5.15528 6.53696 5.88680
#
# Compressibility (1/GPa) = 0.03987621
#
# Stress axis : x y z
#
# Youngs Moduli (GPa) = 40.97000 119.68350 148.08301
#
# Poissons Ratio (x) = -0.03550 -0.15502
# Poissons Ratio (y) = -0.01215 0.17230
# Poissons Ratio (z) = -0.04289 0.13925
#
# Static dielectric constant tensor:
#      x y z
#    x 2.197320 0.349320 -0.227950 
#    y 0.349320 2.607220 -0.000390 
#    z -0.227950 -0.000390 2.002470 
# 
# From -- ./inp_files/106251.got.cif
#   From: 2010.05.17/outbox.cif.g08.bks.cpg/sg2_54_cif.got.tgz:106251.got - 2010.06.03 11:33:40.
