data_PCOD9069200
_publ_section_title
;
Structure prediction by ZEFSAII (Michael W. Deem and Ramdas Pophale) SiO2 
 PCOD9069200
Probable space group: P -1
;
_chemical_formula_sum "Si O2"
_cell_formula_units_Z 16
_cell_length_a 10.655163
_cell_length_b 18.345972
_cell_length_c 9.513723
_cell_angle_alpha 106.383623
_cell_angle_beta 75.701778
_cell_angle_gamma 156.877310
_cell_volume 700.283968
_symmetry_space_group_name_H-M "P -1"
_symmetry_group_IT_number 2
_symmetry_cell_setting 'triclinic'
loop_
_space_group_symop_operation_xyz
x,y,z
-x,-y,-z
loop_
_atom_site_type_symbol
_atom_site_label
_atom_site_fract_x
_atom_site_fract_y
_atom_site_fract_z
Si Si1 0.303700 0.391753 0.635436
Si Si2 0.137072 0.511169 0.363627
Si Si3 0.660616 0.148624 0.176991
Si Si4 0.299111 0.677940 0.118496
Si Si5 0.217254 0.338703 0.097438
Si Si6 0.199193 0.017227 0.070338
Si Si7 0.857371 0.855938 0.370387
Si Si8 0.329264 0.865800 0.335663
O O1 0.500000 0.500000 0.500000
O O2 0.590448 0.547894 0.752082
O O3 0.088486 0.201072 0.622219
O O4 0.049846 0.323441 0.659184
O O5 0.213900 0.580557 0.222544
O O6 0.477736 0.660447 0.390805
O O7 0.000000 0.500000 0.500000
O O8 0.853046 0.299182 0.320952
O O9 0.463843 0.100928 0.109407
O O10 0.945557 0.253707 0.084842
O O11 0.452954 0.977156 0.225408
O O12 0.365960 0.796249 0.242103
O O13 0.606010 0.828572 0.013186
O O14 0.000000 0.500000 0.000000
O O15 0.500000 0.500000 0.000000
O O16 0.052216 0.169050 0.044300
O O17 0.006490 0.944563 0.220590
O O18 0.000000 0.000000 0.500000
O O19 0.500000 0.000000 0.500000
#
# Coordination Sequence:
#
# PCOD9069200 Si02
#       8
#     2   2   2   2   2   2   2   2
#     4  12  28  46  73 112 149 192 251 318 374 444
#     4  12  27  48  76 107 155 202 249 308 389 465
#     4  12  22  45  74 105 145 196 251 302 372 451
#     4  12  29  46  77 118 152 199 254 322 383 447
#     4  12  23  43  73 107 143 188 246 305 370 434
#     4  12  25  46  76 110 146 197 255 311 376 456
#     4  12  28  49  74 108 151 202 247 309 392 458
#     4  12  27  47  79 110 151 201 259 311 378 460
#
# _framework density 22.847874000000001
#
# number of rings (size 3 to 8) (size 9 to 14) (size 15 to 20)
#    0.000    0.000    6.250    2.625    5.250    1.500 
#    0.000    0.000    0.000    0.000    0.000    0.000 
#    0.000    0.000    0.000    0.000    0.000    0.000 
#
# Total GULP energy -89317.127863 kJ/mol
# GULP energy per Si atom -5582.320491 kJ/mol
# Density = 2.279587 g / cm^3
# Si number density = 22.847874 Si / 1000 Ang^3
#
#
#
# Elastic Constant Matrix: (Units=GPa)
#
#
# Indices 1 2 3 4 5 6 
#
# 1 30.7694 0.2738 16.6635 2.7208 -6.0820 15.9512
# 2 0.2738 118.7664 36.2051 -3.1583 -10.4239 2.5649
# 3 16.6635 36.2051 116.4735 0.6801 -8.7650 3.1200
# 4 2.7208 -3.1583 0.6801 66.3944 -3.4268 -10.6797
# 5 -6.0820 -10.4239 -8.7650 -3.4268 40.6210 -1.7753
# 6 15.9512 2.5649 3.1200 -10.6797 -1.7753 40.0707
#
#
#
# Elastic Compliance Matrix: (Units=1/GPa)
#
#
# Indices 1 2 3 4 5 6 
#
# 1 0.047741 0.002692 -0.006727 -0.004658 0.005135 -0.019667
# 2 0.002692 0.009606 -0.003177 0.000286 0.002151 -0.001268
# 3 -0.006727 -0.003177 0.010518 0.000399 0.000577 0.002194
# 4 -0.004658 0.000286 0.000399 0.016317 0.001110 0.006203
# 5 0.005135 0.002151 0.000577 0.001110 0.026123 -0.000774
# 6 -0.019667 -0.001268 0.002194 0.006203 -0.000774 0.034314
#
#
# Mechanical properties :
#
#
# Convention : Reuss Voigt Hill
#
# Bulk Modulus (GPa) = 18.71184 41.36601 30.03892
# Shear Modulus (GPa) = 28.27161 43.60835 35.93998
#
# Velocity S-wave (km/s) = 3.52146 4.37354 3.97042
# Velocity P-wave (km/s) = 4.97411 6.60667 5.84764
#
# Compressibility (1/GPa) = 0.05344211
#
# Stress axis : x y z
#
# Youngs Moduli (GPa) = 20.94626 104.10212 95.07683
#
# Poissons Ratio (x) = -0.28025 0.63954
# Poissons Ratio (y) = -0.05639 0.30205
# Poissons Ratio (z) = 0.14090 0.33072
#
# Static dielectric constant tensor:
#      x y z
#    x 2.176760 0.453560 -0.528530 
#    y 0.453560 2.747120 -1.017510 
#    z -0.528530 -1.017510 3.025730 
# 
# From -- ./inp_files/283134.got.cif
#   From: 2010.05.17/outbox.cif.g08.bks.cpg/sg2_142_cif.got.tgz:283134.got - 2010.06.03 11:33:40.
