data_PCOD9069258
_publ_section_title
;
Structure prediction by ZEFSAII (Michael W. Deem and Ramdas Pophale) SiO2 
 PCOD9069258
Probable space group: P -1
;
_chemical_formula_sum "Si O2"
_cell_formula_units_Z 13
_cell_length_a 11.521762
_cell_length_b 5.675202
_cell_length_c 9.638354
_cell_angle_alpha 71.410335
_cell_angle_beta 82.133451
_cell_angle_gamma 109.138460
_cell_volume 543.446537
_symmetry_space_group_name_H-M "P -1"
_symmetry_group_IT_number 2
_symmetry_cell_setting 'triclinic'
loop_
_space_group_symop_operation_xyz
x,y,z
-x,-y,-z
loop_
_atom_site_type_symbol
_atom_site_label
_atom_site_fract_x
_atom_site_fract_y
_atom_site_fract_z
Si Si1 0.424595 0.684701 0.025503
Si Si2 0.900313 0.205800 0.610907
Si Si3 0.663894 0.348366 0.655778
Si Si4 0.773028 0.931572 0.411890
Si Si5 0.500000 0.000000 0.500000
Si Si6 0.076631 0.129724 0.826948
Si Si7 0.322679 0.664511 0.747090
O O1 0.355239 0.563109 0.203418
O O2 0.500000 0.500000 0.000000
O O3 0.340073 0.682467 0.905044
O O4 0.500000 0.000000 0.000000
O O5 0.770175 0.222395 0.678580
O O6 0.000000 0.500000 0.500000
O O7 0.970619 0.112889 0.734974
O O8 0.866862 0.045990 0.502762
O O9 0.720301 0.615987 0.502464
O O10 0.549188 0.134324 0.628851
O O11 0.842015 0.015154 0.236903
O O12 0.669588 0.067977 0.400225
O O13 0.551819 0.324471 0.354137
O O14 0.185813 0.428235 0.782296
O O15 0.000000 0.000000 0.000000
#
# Coordination Sequence:
#
# PCOD9069258 Si02
#       7
#     2   2   2   2   1   2   2
#     4  12  32  53  79 119 169 216 268 341 412 490
#     4  12  24  50  72 112 153 203 273 323 406 480
#     4  12  28  47  83 114 157 213 269 338 410 489
#     4  12  25  47  78 113 149 209 269 326 408 485
#     4  12  22  52  76 112 152 200 268 334 390 484
#     4  12  29  47  76 112 159 208 262 339 404 492
#     4  12  28  49  76 117 153 205 268 330 412 477
#
# _framework density 23.921395
#
# number of rings (size 3 to 8) (size 9 to 14) (size 15 to 20)
#    0.000    0.000    7.692    0.462   10.769    1.231 
#    0.000    0.000    0.000    0.000    0.000    0.000 
#    0.000    0.000    0.000    0.000    0.000    0.000 
#
# Total GULP energy -72497.158305 kJ/mol
# GULP energy per Si atom -5576.704485 kJ/mol
# Density = 2.386695 g / cm^3
# Si number density = 23.921395 Si / 1000 Ang^3
#
#
#
# Elastic Constant Matrix: (Units=GPa)
#
#
# Indices 1 2 3 4 5 6 
#
# 1 103.4895 51.0464 59.9908 18.1482 14.3432 15.6344
# 2 51.0464 131.8596 40.4641 25.2311 7.1398 28.7291
# 3 59.9908 40.4641 194.1028 37.5321 -10.3522 9.3089
# 4 18.1482 25.2311 37.5321 48.6249 5.0264 2.2981
# 5 14.3432 7.1398 -10.3522 5.0264 55.2734 9.6431
# 6 15.6344 28.7291 9.3089 2.2981 9.6431 52.9831
#
#
#
# Elastic Compliance Matrix: (Units=1/GPa)
#
#
# Indices 1 2 3 4 5 6 
#
# 1 0.014527 -0.004109 -0.003822 0.000091 -0.003842 -0.000691
# 2 -0.004109 0.010907 0.000045 -0.004027 0.000850 -0.004690
# 3 -0.003822 0.000045 0.007386 -0.004571 0.002876 -0.000519
# 4 0.000091 -0.004027 -0.004571 0.026364 -0.003175 0.002394
# 5 -0.003842 0.000850 0.002876 -0.003175 0.020401 -0.003408
# 6 -0.000691 -0.004690 -0.000519 0.002394 -0.003408 0.022228
#
#
# Mechanical properties :
#
#
# Convention : Reuss Voigt Hill
#
# Bulk Modulus (GPa) = 58.66274 81.38382 70.02328
# Shear Modulus (GPa) = 40.56200 49.90631 45.23415
#
# Velocity S-wave (km/s) = 4.12228 4.57252 4.35322
# Velocity P-wave (km/s) = 6.87270 7.87226 7.38940
#
# Compressibility (1/GPa) = 0.01704659
#
# Stress axis : x y z
#
# Youngs Moduli (GPa) = 68.83955 91.68378 135.39344
#
# Poissons Ratio (x) = 0.37676 0.51752
# Poissons Ratio (y) = 0.28288 -0.00612
# Poissons Ratio (z) = 0.26313 -0.00415
#
# Static dielectric constant tensor:
#      x y z
#    x 1.959340 -0.122420 -0.133280 
#    y -0.122420 1.999900 -0.143690 
#    z -0.133280 -0.143690 1.913330 
# 
# From -- ./inp_files/58915.got.cif
#   From: 2010.05.17/outbox.cif.g08.bks.cpg/sg2_30_cif.got.tgz:58915.got - 2010.06.03 11:33:40.
