data_PCOD9069488
_publ_section_title
;
Structure prediction by ZEFSAII (Michael W. Deem and Ramdas Pophale) SiO2 
 PCOD9069488
Probable space group: P -1
;
_chemical_formula_sum "Si O2"
_cell_formula_units_Z 15
_cell_length_a 12.107232
_cell_length_b 12.179960
_cell_length_c 10.319624
_cell_angle_alpha 94.114447
_cell_angle_beta 136.663511
_cell_angle_gamma 53.075620
_cell_volume 623.048986
_symmetry_space_group_name_H-M "P -1"
_symmetry_group_IT_number 2
_symmetry_cell_setting 'triclinic'
loop_
_space_group_symop_operation_xyz
x,y,z
-x,-y,-z
loop_
_atom_site_type_symbol
_atom_site_label
_atom_site_fract_x
_atom_site_fract_y
_atom_site_fract_z
Si Si1 0.115102 0.813361 0.835893
Si Si2 0.577204 0.073367 0.506308
Si Si3 0.168842 0.797980 0.597663
Si Si4 0.763990 0.854165 0.121824
Si Si5 0.333690 0.909503 0.146300
Si Si6 0.964203 0.522430 0.624889
Si Si7 0.000000 0.500000 0.000000
Si Si8 0.273959 0.516848 0.071287
O O1 0.252728 0.716846 0.806928
O O2 0.163850 0.912460 0.924341
O O3 0.249811 0.659597 0.042738
O O4 0.800805 0.950978 0.574741
O O5 0.730221 0.049909 0.753793
O O6 0.304134 0.282040 0.253520
O O7 0.500000 0.000000 0.500000
O O8 0.420292 0.683666 0.710947
O O9 0.987796 0.803234 0.381639
O O10 0.000000 0.000000 0.500000
O O11 0.887967 0.663698 0.199086
O O12 0.500000 0.000000 0.000000
O O13 0.695809 0.957510 0.941157
O O14 0.646885 0.701426 0.392708
O O15 0.000000 0.500000 0.500000
O O16 0.100531 0.551848 0.812574
O O17 0.136129 0.545983 0.083325
#
# Coordination Sequence:
#
# PCOD9069488 Si02
#       8
#     2   2   2   2   2   2   1   2
#     4  12  25  49  75 104 151 191 243 306 366 432
#     4  12  27  49  74 102 143 194 247 298 366 434
#     4  12  24  46  72 111 146 190 241 302 364 436
#     4  12  26  42  73 106 146 194 239 301 367 429
#     4  12  26  47  68 110 141 190 245 300 366 430
#     4  12  23  44  70 103 147 186 238 299 357 432
#     4  12  26  48  74 106 140 194 244 294 360 436
#     4  12  26  47  75 108 145 194 244 298 368 432
#
# _framework density 24.075154000000001
#
# number of rings (size 3 to 8) (size 9 to 14) (size 15 to 20)
#    0.000    0.000    5.333    4.800    3.733    0.000 
#    0.000    0.667    0.000    0.000    0.000    0.000 
#    0.000    0.000    0.000    0.000    0.000    0.000 
#
# Total GULP energy -83789.920683 kJ/mol
# GULP energy per Si atom -5585.994712 kJ/mol
# Density = 2.402036 g / cm^3
# Si number density = 24.075154 Si / 1000 Ang^3
#
#
#
# Elastic Constant Matrix: (Units=GPa)
#
#
# Indices 1 2 3 4 5 6 
#
# 1 91.7421 21.4890 16.1281 -16.8413 9.3459 14.4826
# 2 21.4890 63.9830 25.5034 -16.2390 -16.1220 14.0143
# 3 16.1281 25.5034 94.7792 -13.9956 17.1966 1.1433
# 4 -16.8413 -16.2390 -13.9956 58.2109 7.9821 -6.7003
# 5 9.3459 -16.1220 17.1966 7.9821 42.8945 -11.7482
# 6 14.4826 14.0143 1.1433 -6.7003 -11.7482 37.6026
#
#
#
# Elastic Compliance Matrix: (Units=1/GPa)
#
#
# Indices 1 2 3 4 5 6 
#
# 1 0.014093 -0.004884 0.000790 0.003292 -0.007294 -0.005324
# 2 -0.004884 0.024462 -0.007715 0.001540 0.012273 -0.002892
# 3 0.000790 -0.007715 0.014660 0.002874 -0.009581 -0.000356
# 4 0.003292 0.001540 0.002874 0.019943 -0.004983 0.000067
# 5 -0.007294 0.012273 -0.009581 -0.004983 0.036784 0.009131
# 6 -0.005324 -0.002892 -0.000356 0.000067 0.009131 0.032598
#
#
# Mechanical properties :
#
#
# Convention : Reuss Voigt Hill
#
# Bulk Modulus (GPa) = 33.79011 41.86060 37.82535
# Shear Modulus (GPa) = 28.40520 40.23386 34.31953
#
# Velocity S-wave (km/s) = 3.43863 4.09244 3.77970
# Velocity P-wave (km/s) = 5.46180 6.30523 5.89861
#
# Compressibility (1/GPa) = 0.02959446
#
# Stress axis : x y z
#
# Youngs Moduli (GPa) = 70.95672 40.88031 68.21484
#
# Poissons Ratio (x) = 0.19967 -0.05388
# Poissons Ratio (y) = 0.34657 0.52631
# Poissons Ratio (z) = -0.05604 0.31541
#
# Static dielectric constant tensor:
#      x y z
#    x 2.041410 -0.120880 -0.106510 
#    y -0.120880 2.070800 0.056580 
#    z -0.106510 0.056580 1.914700 
# 
# From -- ./inp_files/259308.got.cif
#   From: 2010.05.17/outbox.cif.g08.bks.cpg/sg2_130_cif.got.tgz:259308.got - 2010.06.03 11:33:40.
