data_PCOD9069976
_publ_section_title
;
Structure prediction by ZEFSAII (Michael W. Deem and Ramdas Pophale) SiO2 
 PCOD9069976
Probable space group: P -1
;
_chemical_formula_sum "Si O2"
_cell_formula_units_Z 13
_cell_length_a 12.545039
_cell_length_b 12.909742
_cell_length_c 10.679689
_cell_angle_alpha 130.693767
_cell_angle_beta 130.024860
_cell_angle_gamma 22.326683
_cell_volume 493.360202
_symmetry_space_group_name_H-M "P -1"
_symmetry_group_IT_number 2
_symmetry_cell_setting 'triclinic'
loop_
_space_group_symop_operation_xyz
x,y,z
-x,-y,-z
loop_
_atom_site_type_symbol
_atom_site_label
_atom_site_fract_x
_atom_site_fract_y
_atom_site_fract_z
Si Si1 0.740865 0.585970 0.314115
Si Si2 0.588627 0.416269 0.644839
Si Si3 0.920909 0.611767 0.232902
Si Si4 0.500000 0.000000 0.000000
Si Si5 0.145241 0.021600 0.122363
Si Si6 0.489360 0.187280 0.424576
Si Si7 0.809927 0.001846 0.143876
O O1 0.827046 0.605377 0.277945
O O2 0.642840 0.748176 0.492871
O O3 0.987639 0.268480 0.281927
O O4 0.467580 0.735826 0.181149
O O5 0.500000 0.500000 0.500000
O O6 0.504094 0.336843 0.559863
O O7 0.420283 0.681476 0.793541
O O8 0.917867 0.163755 0.715937
O O9 0.736814 0.728679 0.066936
O O10 0.265505 0.320882 0.254796
O O11 0.797505 0.866244 0.375872
O O12 0.704279 0.960973 0.105498
O O13 0.117464 0.102216 0.024537
O O14 0.000000 0.000000 0.000000
#
# Coordination Sequence:
#
# PCOD9069976 Si02
#       7
#     2   2   2   1   2   2   2
#     4  12  24  45  69 106 143 182 241 288 357 422
#     4  12  25  46  70 103 137 186 241 287 355 410
#     4  12  26  45  71 105 142 191 237 291 354 421
#     4  12  28  48  72 102 148 186 244 282 360 416
#     4  12  24  44  70 105 143 186 230 287 360 421
#     4  12  25  46  73 104 142 186 237 297 356 418
#     4  12  26  45  71 101 141 184 233 295 344 422
#
# _framework density 26.349917000000001
#
# number of rings (size 3 to 8) (size 9 to 14) (size 15 to 20)
#    0.000    0.000    1.538    9.231    0.000    1.231 
#    0.000    0.000    0.000    0.000    0.000    0.000 
#    0.000    0.000    0.000    0.000    0.000    0.000 
#
# Total GULP energy -72798.035711 kJ/mol
# GULP energy per Si atom -5599.848901 kJ/mol
# Density = 2.628994 g / cm^3
# Si number density = 26.349917 Si / 1000 Ang^3
#
#
#
# Elastic Constant Matrix: (Units=GPa)
#
#
# Indices 1 2 3 4 5 6 
#
# 1 130.4848 34.3309 19.0032 -24.0185 15.7964 0.7018
# 2 34.3309 104.8062 0.4033 -1.4615 26.5529 -7.8779
# 3 19.0032 0.4033 76.9172 -26.2599 3.6173 4.0399
# 4 -24.0185 -1.4615 -26.2599 57.4841 0.8541 11.3581
# 5 15.7964 26.5529 3.6173 0.8541 55.1929 -6.1870
# 6 0.7018 -7.8779 4.0399 11.3581 -6.1870 36.0627
#
#
#
# Elastic Compliance Matrix: (Units=1/GPa)
#
#
# Indices 1 2 3 4 5 6 
#
# 1 0.009455 -0.002796 -0.000761 0.004000 -0.001625 -0.002248
# 2 -0.002796 0.011775 0.000379 -0.001045 -0.004636 0.002118
# 3 -0.000761 0.000379 0.016247 0.008035 -0.001662 -0.004538
# 4 0.004000 -0.001045 0.008035 0.024608 -0.002604 -0.009403
# 5 -0.001625 -0.004636 -0.001662 -0.002604 0.021377 0.003693
# 6 -0.002248 0.002118 -0.004538 -0.009403 0.003693 0.032340
#
#
# Mechanical properties :
#
#
# Convention : Reuss Voigt Hill
#
# Bulk Modulus (GPa) = 32.13281 46.63144 39.38212
# Shear Modulus (GPa) = 37.72697 46.97932 42.35315
#
# Velocity S-wave (km/s) = 3.78798 4.22702 4.01351
# Velocity P-wave (km/s) = 5.59936 6.44663 6.03787
#
# Compressibility (1/GPa) = 0.03112084
#
# Stress axis : x y z
#
# Youngs Moduli (GPa) = 105.76052 84.92637 61.55082
#
# Poissons Ratio (x) = 0.23744 0.04685
# Poissons Ratio (y) = 0.29568 -0.02332
# Poissons Ratio (z) = 0.08050 -0.03218
#
# Static dielectric constant tensor:
#      x y z
#    x 2.096390 0.066020 -0.068650 
#    y 0.066020 2.054660 0.036250 
#    z -0.068650 0.036250 2.113170 
# 
# From -- ./inp_files/105342.got.cif
#   From: 2010.05.17/outbox.cif.g08.bks.cpg/sg2_53_cif.got.tgz:105342.got - 2010.06.03 11:33:40.
