data_PCOD9069650
_publ_section_title
;
Structure prediction by ZEFSAII (Michael W. Deem and Ramdas Pophale) SiO2 
 PCOD9069650
Probable space group: P -1
;
_chemical_formula_sum "Si O2"
_cell_formula_units_Z 16
_cell_length_a 12.455657
_cell_length_b 15.602809
_cell_length_c 14.817086
_cell_angle_alpha 34.652205
_cell_angle_beta 126.987749
_cell_angle_gamma 151.997928
_cell_volume 679.750443
_symmetry_space_group_name_H-M "P -1"
_symmetry_group_IT_number 2
_symmetry_cell_setting 'triclinic'
loop_
_space_group_symop_operation_xyz
x,y,z
-x,-y,-z
loop_
_atom_site_type_symbol
_atom_site_label
_atom_site_fract_x
_atom_site_fract_y
_atom_site_fract_z
Si Si1 0.017738 0.348275 0.780083
Si Si2 0.253380 0.670592 0.937590
Si Si3 0.699679 0.762244 0.134345
Si Si4 0.673486 0.279952 0.713865
Si Si5 0.447210 0.814684 0.708082
Si Si6 0.857590 0.772999 0.705884
Si Si7 0.656124 0.794771 0.292242
Si Si8 0.012112 0.259638 0.672362
O O1 0.900572 0.372792 0.758539
O O2 0.106883 0.466005 0.620923
O O3 0.257053 0.521038 0.810552
O O4 0.802962 0.020257 0.925897
O O5 0.298737 0.707485 0.820412
O O6 0.475889 0.991715 0.807055
O O7 0.237848 0.489613 0.130444
O O8 0.000000 0.500000 0.000000
O O9 0.430162 0.435231 0.243419
O O10 0.676731 0.791214 0.200796
O O11 0.913079 0.837239 0.177506
O O12 0.505473 0.207265 0.766262
O O13 0.803444 0.531746 0.500657
O O14 0.500000 0.000000 0.500000
O O15 0.722770 0.011393 0.705916
O O16 0.000000 0.000000 0.500000
O O17 0.068752 0.953036 0.735600
O O18 0.500000 0.500000 0.500000
#
# Coordination Sequence:
#
# PCOD9069650 Si02
#       8
#     2   2   2   2   2   2   2   2
#     4  12  26  45  74 110 143 198 256 310 383 455
#     4  12  26  47  78 117 154 196 259 322 382 455
#     4  12  27  46  71 107 151 200 251 312 384 453
#     4  12  23  46  75 105 151 195 244 327 366 444
#     4  12  26  49  79 112 151 203 257 315 391 457
#     4  12  24  46  72 106 152 205 245 308 389 457
#     4  12  25  46  68 107 153 189 253 310 371 455
#     4  12  25  49  73 105 157 195 256 318 375 459
#
# _framework density 23.538049999999998
#
# number of rings (size 3 to 8) (size 9 to 14) (size 15 to 20)
#    0.000    0.000    7.500    2.250    0.000    3.000 
#    2.250    0.000    0.000    0.000    0.000    0.000 
#    0.000    0.000    0.000    0.000    0.000    0.000 
#
# Total GULP energy -89236.114080 kJ/mol
# GULP energy per Si atom -5577.257130 kJ/mol
# Density = 2.348448 g / cm^3
# Si number density = 23.538050 Si / 1000 Ang^3
#
#
#
# Elastic Constant Matrix: (Units=GPa)
#
#
# Indices 1 2 3 4 5 6 
#
# 1 143.8602 53.6846 22.1245 13.9988 -14.2059 8.1890
# 2 53.6846 139.5202 11.6490 -14.7705 -4.7532 13.9979
# 3 22.1245 11.6490 89.0457 1.3948 2.7815 11.5646
# 4 13.9988 -14.7705 1.3948 38.9693 -1.5840 3.7951
# 5 -14.2059 -4.7532 2.7815 -1.5840 37.6573 4.9362
# 6 8.1890 13.9979 11.5646 3.7951 4.9362 31.3129
#
#
#
# Elastic Compliance Matrix: (Units=1/GPa)
#
#
# Indices 1 2 3 4 5 6 
#
# 1 0.009430 -0.003869 -0.001863 -0.004670 0.003005 0.000044
# 2 -0.003869 0.009652 0.000129 0.005464 0.000516 -0.004094
# 3 -0.001863 0.000129 0.012218 0.000628 -0.001039 -0.003995
# 4 -0.004670 0.005464 0.000628 0.029928 0.000823 -0.005210
# 5 0.003005 0.000516 -0.001039 0.000823 0.028551 -0.005233
# 6 0.000044 -0.004094 -0.003995 -0.005210 -0.005233 0.036686
#
#
# Mechanical properties :
#
#
# Convention : Reuss Voigt Hill
#
# Bulk Modulus (GPa) = 49.77048 60.81584 55.29316
# Shear Modulus (GPa) = 34.63298 40.58575 37.60937
#
# Velocity S-wave (km/s) = 3.83999 4.15693 4.00160
# Velocity P-wave (km/s) = 6.39151 6.99524 6.70018
#
# Compressibility (1/GPa) = 0.02009223
#
# Stress axis : x y z
#
# Youngs Moduli (GPa) = 106.04103 103.60256 81.84814
#
# Poissons Ratio (x) = 0.40088 0.15251
# Poissons Ratio (y) = 0.41032 -0.01053
# Poissons Ratio (z) = 0.19759 -0.01333
#
# Static dielectric constant tensor:
#      x y z
#    x 1.989320 0.121760 -0.073960 
#    y 0.121760 1.946290 -0.048440 
#    z -0.073960 -0.048440 1.954410 
# 
# From -- ./inp_files/522280.got.cif
#   From: 2010.05.17/outbox.cif.g08.bks.cpg/sg2_262_cif.got.tgz:522280.got - 2010.06.03 11:33:40.
