data_PCOD9069764
_publ_section_title
;
Structure prediction by ZEFSAII (Michael W. Deem and Ramdas Pophale) SiO2 
 PCOD9069764
Probable space group: P -1
;
_chemical_formula_sum "Si O2"
_cell_formula_units_Z 16
_cell_length_a 5.516449
_cell_length_b 23.126416
_cell_length_c 11.256162
_cell_angle_alpha 148.527614
_cell_angle_beta 60.681690
_cell_angle_gamma 106.009979
_cell_volume 621.159295
_symmetry_space_group_name_H-M "P -1"
_symmetry_group_IT_number 2
_symmetry_cell_setting 'triclinic'
loop_
_space_group_symop_operation_xyz
x,y,z
-x,-y,-z
loop_
_atom_site_type_symbol
_atom_site_label
_atom_site_fract_x
_atom_site_fract_y
_atom_site_fract_z
Si Si1 0.360662 0.138408 0.294601
Si Si2 0.833694 0.199314 0.138920
Si Si3 0.756845 0.045717 0.471144
Si Si4 0.960726 0.410949 0.561583
Si Si5 0.381548 0.542562 0.785937
Si Si6 0.375204 0.221830 0.690823
Si Si7 0.221762 0.748176 0.015883
Si Si8 0.193645 0.658907 0.273185
O O1 0.596736 0.198021 0.293009
O O2 0.301885 0.157204 0.481331
O O3 0.059021 0.214923 0.440028
O O4 0.500000 0.000000 0.000000
O O5 0.039384 0.275336 0.263423
O O6 0.689532 0.253386 0.143913
O O7 0.000711 0.066503 0.833267
O O8 0.631840 0.132861 0.546066
O O9 0.824271 0.123726 0.695657
O O10 0.500000 0.000000 0.500000
O O11 0.697291 0.473857 0.644490
O O12 0.832267 0.408340 0.720237
O O13 0.212298 0.471248 0.623604
O O14 0.408154 0.649836 0.887953
O O15 0.174102 0.594615 0.041186
O O16 0.496081 0.319843 0.780441
O O17 0.099739 0.266667 0.921127
#
# Coordination Sequence:
#
# PCOD9069764 Si02
#       8
#     2   2   2   2   2   2   2   2
#     4  12  27  45  77 117 165 201 256 335 407 472
#     4  12  28  50  74 120 160 201 258 335 405 469
#     4  12  27  46  81 113 155 208 262 319 398 493
#     4  12  29  49  79 118 159 212 265 341 396 458
#     4  12  27  51  82 110 159 215 275 324 388 486
#     4  12  23  48  77 113 155 204 263 317 398 478
#     4  12  27  50  78 114 154 207 266 325 396 480
#     4  12  25  48  78 114 155 209 270 322 394 475
#
# _framework density 25.758285999999998
#
# number of rings (size 3 to 8) (size 9 to 14) (size 15 to 20)
#    0.000    0.000    5.000    4.125    3.500    3.000 
#    0.000    0.000    0.000    0.000    0.000    0.000 
#    0.000    0.000    0.000    0.000    0.000    0.000 
#
# Total GULP energy -89699.100759 kJ/mol
# GULP energy per Si atom -5606.193797 kJ/mol
# Density = 2.569966 g / cm^3
# Si number density = 25.758286 Si / 1000 Ang^3
#
#
#
# Elastic Constant Matrix: (Units=GPa)
#
#
# Indices 1 2 3 4 5 6 
#
# 1 116.8871 19.5533 45.1524 17.5712 7.1128 -3.7922
# 2 19.5533 97.1481 24.4193 1.9227 10.2974 -9.0720
# 3 45.1524 24.4193 125.3385 20.5650 9.8034 -7.6828
# 4 17.5712 1.9227 20.5650 35.0133 -0.6754 2.2606
# 5 7.1128 10.2974 9.8034 -0.6754 47.8850 6.8046
# 6 -3.7922 -9.0720 -7.6828 2.2606 6.8046 55.1799
#
#
#
# Elastic Compliance Matrix: (Units=1/GPa)
#
#
# Indices 1 2 3 4 5 6 
#
# 1 0.010456 -0.001193 -0.002868 -0.003537 -0.000812 0.000368
# 2 -0.001193 0.011324 -0.001624 0.000773 -0.002169 0.001789
# 3 -0.002868 -0.001624 0.010296 -0.004637 -0.001591 0.001356
# 4 -0.003537 0.000773 -0.004637 0.033211 0.002115 -0.002383
# 5 -0.000812 -0.002169 -0.001591 0.002115 0.022319 -0.003473
# 6 0.000368 0.001789 0.001356 -0.002383 -0.003473 0.019157
#
#
# Mechanical properties :
#
#
# Convention : Reuss Voigt Hill
#
# Bulk Modulus (GPa) = 48.29582 57.51375 52.90478
# Shear Modulus (GPa) = 39.98898 44.29890 42.14394
#
# Velocity S-wave (km/s) = 3.94441 4.15154 4.04930
# Velocity P-wave (km/s) = 6.28768 6.73477 6.51506
#
# Compressibility (1/GPa) = 0.02070573
#
# Stress axis : x y z
#
# Youngs Moduli (GPa) = 95.64209 88.31139 97.12241
#
# Poissons Ratio (x) = 0.10537 0.27853
# Poissons Ratio (y) = 0.11412 0.15772
# Poissons Ratio (z) = 0.27428 0.14341
#
# Static dielectric constant tensor:
#      x y z
#    x 2.037540 0.008400 -0.006010 
#    y 0.008400 1.956580 0.023640 
#    z -0.006010 0.023640 2.095870 
# 
# From -- ./inp_files/371081.got.cif
#   From: 2010.05.17/outbox.cif.g08.bks.cpg/sg2_186_cif.got.tgz:371081.got - 2010.06.03 11:33:40.
