data_PCOD9069477
_publ_section_title
;
Structure prediction by ZEFSAII (Michael W. Deem and Ramdas Pophale) SiO2 
 PCOD9069477
Probable space group: P -1
;
_chemical_formula_sum "Si O2"
_cell_formula_units_Z 16
_cell_length_a 9.228061
_cell_length_b 12.511284
_cell_length_c 9.497715
_cell_angle_alpha 93.593251
_cell_angle_beta 136.296415
_cell_angle_gamma 76.734862
_cell_volume 728.691044
_symmetry_space_group_name_H-M "P -1"
_symmetry_group_IT_number 2
_symmetry_cell_setting 'triclinic'
loop_
_space_group_symop_operation_xyz
x,y,z
-x,-y,-z
loop_
_atom_site_type_symbol
_atom_site_label
_atom_site_fract_x
_atom_site_fract_y
_atom_site_fract_z
Si Si1 0.081698 0.110773 0.066948
Si Si2 0.208798 0.783960 0.619688
Si Si3 0.639381 0.639990 0.458913
Si Si4 0.784946 0.273047 0.680180
Si Si5 0.503693 0.459154 0.156709
Si Si6 0.780699 0.853216 0.514834
Si Si7 0.493787 0.056288 0.152590
Si Si8 0.982213 0.534043 0.151015
O O1 0.171545 0.130314 0.285356
O O2 0.263138 0.101162 0.072234
O O3 0.879584 0.211495 0.885136
O O4 0.000000 0.000000 0.000000
O O5 0.158515 0.807253 0.420724
O O6 0.307384 0.652014 0.692524
O O7 0.391928 0.845944 0.784639
O O8 0.003586 0.823758 0.580047
O O9 0.473768 0.676830 0.477064
O O10 0.535437 0.558206 0.287268
O O11 0.668589 0.751479 0.416753
O O12 0.878621 0.568995 0.668544
O O13 0.901959 0.368714 0.741977
O O14 0.500000 0.500000 0.000000
O O15 0.273238 0.431482 0.002757
O O16 0.630367 0.964223 0.349546
O O17 0.500000 0.000000 0.000000
O O18 0.000000 0.500000 0.000000
#
# Coordination Sequence:
#
# PCOD9069477 Si02
#       8
#     2   2   2   2   2   2   2   2
#     4  12  25  46  74 104 139 185 236 290 357 420
#     4  12  26  46  70 105 139 185 238 290 352 415
#     4  12  26  46  69 106 145 187 236 289 352 417
#     4  12  24  44  72 102 142 184 236 292 347 420
#     4  12  28  43  71 102 147 188 234 290 351 420
#     4  12  27  45  73 103 144 183 233 293 353 421
#     4  12  26  48  73 103 140 183 237 293 352 419
#     4  12  23  44  68 100 137 188 237 281 348 412
#
# _framework density 21.957177999999999
#
# number of rings (size 3 to 8) (size 9 to 14) (size 15 to 20)
#    0.000    0.000    2.500    7.875    5.250    1.000 
#    0.000    0.000    0.000    0.000    0.000    0.000 
#    0.000    0.000    0.000    0.000    0.000    0.000 
#
# Total GULP energy -89579.978967 kJ/mol
# GULP energy per Si atom -5598.748685 kJ/mol
# Density = 2.190720 g / cm^3
# Si number density = 21.957178 Si / 1000 Ang^3
#
#
#
# Elastic Constant Matrix: (Units=GPa)
#
#
# Indices 1 2 3 4 5 6 
#
# 1 61.6755 1.0954 -0.8551 24.4099 8.3533 -4.6445
# 2 1.0954 96.0526 11.6805 10.0129 2.8592 13.8231
# 3 -0.8551 11.6805 90.5616 -0.8571 -14.8482 -11.1663
# 4 24.4099 10.0129 -0.8571 47.8917 -2.4039 4.1502
# 5 8.3533 2.8592 -14.8482 -2.4039 43.4408 3.4786
# 6 -4.6445 13.8231 -11.1663 4.1502 3.4786 35.8812
#
#
#
# Elastic Compliance Matrix: (Units=1/GPa)
#
#
# Indices 1 2 3 4 5 6 
#
# 1 0.022015 0.000559 -0.000314 -0.011999 -0.005398 0.004448
# 2 0.000559 0.011666 -0.002340 -0.002427 -0.001431 -0.004731
# 3 -0.000314 -0.002340 0.012565 0.000715 0.004206 0.004281
# 4 -0.011999 -0.002427 0.000715 0.028102 0.004594 -0.004092
# 5 -0.005398 -0.001431 0.004206 0.004594 0.025995 -0.001890
# 6 0.004448 -0.004731 0.004281 -0.004092 -0.001890 0.032257
#
#
# Mechanical properties :
#
#
# Convention : Reuss Voigt Hill
#
# Bulk Modulus (GPa) = 23.77901 30.23680 27.00790
# Shear Modulus (GPa) = 33.15452 41.20067 37.17760
#
# Velocity S-wave (km/s) = 3.89004 4.33645 4.11930
# Velocity P-wave (km/s) = 5.57044 6.23489 5.91200
#
# Compressibility (1/GPa) = 0.04205390
#
# Stress axis : x y z
#
# Youngs Moduli (GPa) = 45.42404 85.72217 79.58446
#
# Poissons Ratio (x) = -0.04788 0.02501
# Poissons Ratio (y) = -0.02537 0.18624
# Poissons Ratio (z) = 0.01428 0.20060
#
# Static dielectric constant tensor:
#      x y z
#    x 1.747510 -0.019190 -0.026170 
#    y -0.019190 1.783840 -0.020780 
#    z -0.026170 -0.020780 1.783420 
# 
# From -- ./inp_files/187939.got.cif
#   From: 2010.05.17/outbox.cif.g08.bks.cpg/sg2_94_cif.got.tgz:187939.got - 2010.06.03 11:33:40.
