data_PCOD9069431
_publ_section_title
;
Structure prediction by ZEFSAII (Michael W. Deem and Ramdas Pophale) SiO2 
 PCOD9069431
Probable space group: P -1
;
_chemical_formula_sum "Si O2"
_cell_formula_units_Z 14
_cell_length_a 8.232370
_cell_length_b 18.778862
_cell_length_c 9.857755
_cell_angle_alpha 57.053185
_cell_angle_beta 149.354896
_cell_angle_gamma 113.083494
_cell_volume 641.536227
_symmetry_space_group_name_H-M "P -1"
_symmetry_group_IT_number 2
_symmetry_cell_setting 'triclinic'
loop_
_space_group_symop_operation_xyz
x,y,z
-x,-y,-z
loop_
_atom_site_type_symbol
_atom_site_label
_atom_site_fract_x
_atom_site_fract_y
_atom_site_fract_z
Si Si1 0.348582 0.944355 0.340302
Si Si2 0.277583 0.054577 0.673479
Si Si3 0.529069 0.250401 0.267221
Si Si4 0.575692 0.318629 0.931914
Si Si5 0.271784 0.246258 0.526417
Si Si6 0.224222 0.687179 0.358456
Si Si7 0.612700 0.504412 0.729576
O O1 0.547075 0.935912 0.352310
O O2 0.368403 0.849659 0.516147
O O3 0.500000 0.000000 0.500000
O O4 0.000000 0.000000 0.000000
O O5 0.194611 0.150326 0.576590
O O6 0.000000 0.000000 0.500000
O O7 0.500000 0.000000 0.000000
O O8 0.574004 0.267209 0.123728
O O9 0.739320 0.298430 0.469728
O O10 0.148288 0.288029 0.979213
O O11 0.951273 0.301567 0.173172
O O12 0.361549 0.286265 0.693085
O O13 0.508777 0.420269 0.809896
O O14 0.575487 0.249956 0.643267
O O15 0.413732 0.592016 0.557714
O O16 0.500000 0.500000 0.500000
O O17 0.000000 0.500000 0.000000
#
# Coordination Sequence:
#
# PCOD9069431 Si02
#       7
#     2   2   2   2   2   2   2
#     4  12  28  48  70 100 143 185 229 295 361 418
#     4  12  28  46  71 106 136 179 240 293 347 419
#     4  12  28  46  70 104 144 188 236 287 366 420
#     4  12  26  45  73 108 141 188 238 292 346 424
#     4  12  25  46  74 100 142 190 235 288 353 419
#     4  12  24  46  74 100 144 193 230 291 352 424
#     4  12  23  43  72 110 143 182 242 291 348 408
#
# _framework density 21.822617000000001
#
# number of rings (size 3 to 8) (size 9 to 14) (size 15 to 20)
#    0.000    0.000    4.286    5.143    8.000    1.143 
#    0.000    0.000    0.000    0.000    0.000    0.000 
#    0.000    0.000    0.000    0.000    0.000    0.000 
#
# Total GULP energy -78337.081434 kJ/mol
# GULP energy per Si atom -5595.505817 kJ/mol
# Density = 2.177295 g / cm^3
# Si number density = 21.822617 Si / 1000 Ang^3
#
#
#
# Elastic Constant Matrix: (Units=GPa)
#
#
# Indices 1 2 3 4 5 6 
#
# 1 77.2016 24.8484 16.4182 -3.3576 -7.4551 5.2765
# 2 24.8484 184.0320 69.4735 -8.2150 -1.0769 -9.6591
# 3 16.4182 69.4735 144.8920 11.2251 11.4339 -1.6271
# 4 -3.3576 -8.2150 11.2251 50.6775 -3.9958 -7.0890
# 5 -7.4551 -1.0769 11.4339 -3.9958 40.1824 -1.8629
# 6 5.2765 -9.6591 -1.6271 -7.0890 -1.8629 34.1243
#
#
#
# Elastic Compliance Matrix: (Units=1/GPa)
#
#
# Indices 1 2 3 4 5 6 
#
# 1 0.014178 -0.001531 -0.001194 0.000857 0.002906 -0.002346
# 2 -0.001531 0.007230 -0.003544 0.002329 0.001273 0.002668
# 3 -0.001194 -0.003544 0.009226 -0.003127 -0.003309 -0.001209
# 4 0.000857 0.002329 -0.003127 0.021852 0.003521 0.005109
# 5 0.002906 0.001273 -0.003309 0.003521 0.026842 0.001950
# 6 -0.002346 0.002668 -0.001209 0.005109 0.001950 0.031533
#
#
# Mechanical properties :
#
#
# Convention : Reuss Voigt Hill
#
# Bulk Modulus (GPa) = 55.26476 69.73398 62.49937
# Shear Modulus (GPa) = 38.63026 44.68921 41.65974
#
# Velocity S-wave (km/s) = 4.21193 4.53022 4.37397
# Velocity P-wave (km/s) = 7.00238 7.70637 7.36279
#
# Compressibility (1/GPa) = 0.01809471
#
# Stress axis : x y z
#
# Youngs Moduli (GPa) = 70.53086 138.31292 108.38719
#
# Poissons Ratio (x) = 0.21181 0.12945
# Poissons Ratio (y) = 0.10801 0.38414
# Poissons Ratio (z) = 0.08423 0.49020
#
# Static dielectric constant tensor:
#      x y z
#    x 1.819020 0.010000 0.024940 
#    y 0.010000 1.724200 0.035810 
#    z 0.024940 0.035810 1.704210 
# 
# From -- ./inp_files/217199.got.cif
#   From: 2010.05.17/outbox.cif.g08.bks.cpg/sg2_109_cif.got.tgz:217199.got - 2010.06.03 11:33:40.
