data_PCOD9069914
_publ_section_title
;
Structure prediction by ZEFSAII (Michael W. Deem and Ramdas Pophale) SiO2 
 PCOD9069914
Probable space group: P -1
;
_chemical_formula_sum "Si O2"
_cell_formula_units_Z 14
_cell_length_a 14.323501
_cell_length_b 22.593581
_cell_length_c 5.133002
_cell_angle_alpha 100.727816
_cell_angle_beta 83.842207
_cell_angle_gamma 29.020617
_cell_volume 652.448203
_symmetry_space_group_name_H-M "P -1"
_symmetry_group_IT_number 2
_symmetry_cell_setting 'triclinic'
loop_
_space_group_symop_operation_xyz
x,y,z
-x,-y,-z
loop_
_atom_site_type_symbol
_atom_site_label
_atom_site_fract_x
_atom_site_fract_y
_atom_site_fract_z
Si Si1 0.631237 0.646983 0.820422
Si Si2 0.580770 0.802482 0.246499
Si Si3 0.685222 0.936283 0.586958
Si Si4 0.086350 0.110778 0.831894
Si Si5 0.882477 0.099807 0.868632
Si Si6 0.107337 0.221021 0.107559
Si Si7 0.089061 0.547981 0.919155
O O1 0.574615 0.745573 0.037188
O O2 0.773218 0.568993 0.444108
O O3 0.391429 0.753055 0.927972
O O4 0.772594 0.530949 0.916069
O O5 0.841123 0.662342 0.149217
O O6 0.364999 0.928945 0.621578
O O7 0.522405 0.895247 0.160492
O O8 0.684151 0.911274 0.272714
O O9 0.895033 0.863294 0.423049
O O10 0.777696 0.837030 0.694177
O O11 0.939455 0.137142 0.890960
O O12 0.005219 0.212849 0.125707
O O13 0.000000 0.000000 0.500000
O O14 0.000000 0.000000 0.000000
O O15 0.953354 0.362840 0.138689
#
# Coordination Sequence:
#
# PCOD9069914 Si02
#       7
#     2   2   2   2   2   2   2
#     4  12  26  41  62  95 128 167 208 246 323 379
#     4   9  22  41  65  94 125 166 208 263 311 357
#     4   8  19  35  65  89 121 152 216 258 301 343
#     4   8  22  38  69  92 119 156 218 266 303 343
#     4  12  24  43  70  92 124 155 214 271 306 359
#     4   9  20  38  60  91 127 162 209 250 304 367
#     4  12  25  42  60  91 139 171 197 245 311 402
#
# _framework density 21.457643999999998
#
# number of rings (size 3 to 8) (size 9 to 14) (size 15 to 20)
#    1.714    0.000    1.429    2.571    4.000    6.286 
#    0.000    1.429    0.000    0.000    0.000    0.000 
#    0.000    0.000    0.000    0.000    0.000    0.000 
#
# Total GULP energy -77947.578322 kJ/mol
# GULP energy per Si atom -5567.684166 kJ/mol
# Density = 2.140881 g / cm^3
# Si number density = 21.457644 Si / 1000 Ang^3
#
#
#
# Elastic Constant Matrix: (Units=GPa)
#
#
# Indices 1 2 3 4 5 6 
#
# 1 230.3628 78.1381 4.0157 -2.6057 -6.6001 12.9487
# 2 78.1381 147.6354 31.6313 -23.5413 -11.8195 -8.9504
# 3 4.0157 31.6313 41.3688 -0.4367 -2.3010 -8.8387
# 4 -2.6057 -23.5413 -0.4367 39.7607 2.2556 -3.3091
# 5 -6.6001 -11.8195 -2.3010 2.2556 27.3262 6.7433
# 6 12.9487 -8.9504 -8.8387 -3.3091 6.7433 34.6023
#
#
#
# Elastic Compliance Matrix: (Units=1/GPa)
#
#
# Indices 1 2 3 4 5 6 
#
# 1 0.005822 -0.003952 0.001813 -0.002242 0.000802 -0.003108
# 2 -0.003952 0.012034 -0.008030 0.006874 0.002330 0.002744
# 3 0.001813 -0.008030 0.031109 -0.003793 -0.001359 0.005093
# 4 -0.002242 0.006874 -0.003793 0.029513 -0.001499 0.004763
# 5 0.000802 0.002330 -0.001359 -0.001499 0.039764 -0.007937
# 6 -0.003108 0.002744 0.005093 0.004763 -0.007937 0.034076
#
#
# Mechanical properties :
#
#
# Convention : Reuss Voigt Hill
#
# Bulk Modulus (GPa) = 34.92957 71.88191 53.40574
# Shear Modulus (GPa) = 27.44257 40.70997 34.07627
#
# Velocity S-wave (km/s) = 3.58008 4.36044 3.98938
# Velocity P-wave (km/s) = 5.77953 7.67616 6.79435
#
# Compressibility (1/GPa) = 0.02862904
#
# Stress axis : x y z
#
# Youngs Moduli (GPa) = 171.75856 83.09527 32.14509
#
# Poissons Ratio (x) = 0.32837 -0.05829
# Poissons Ratio (y) = 0.67875 0.25811
# Poissons Ratio (z) = -0.31143 0.66723
#
# Static dielectric constant tensor:
#      x y z
#    x 1.899530 -0.008320 0.010580 
#    y -0.008320 1.820100 0.012190 
#    z 0.010580 0.012190 1.802960 
# 
# From -- ./inp_files/100792.got.cif
#   From: 2010.05.17/outbox.cif.g08.bks.cpg/sg2_51_cif.got.tgz:100792.got - 2010.06.03 11:33:40.
