data_PCOD9069674
_publ_section_title
;
Structure prediction by ZEFSAII (Michael W. Deem and Ramdas Pophale) SiO2 
 PCOD9069674
Probable space group: P -1
;
_chemical_formula_sum "Si O2"
_cell_formula_units_Z 14
_cell_length_a 15.344058
_cell_length_b 8.650001
_cell_length_c 14.532326
_cell_angle_alpha 39.649454
_cell_angle_beta 29.761437
_cell_angle_gamma 38.844911
_cell_volume 572.593837
_symmetry_space_group_name_H-M "P -1"
_symmetry_group_IT_number 2
_symmetry_cell_setting 'triclinic'
loop_
_space_group_symop_operation_xyz
x,y,z
-x,-y,-z
loop_
_atom_site_type_symbol
_atom_site_label
_atom_site_fract_x
_atom_site_fract_y
_atom_site_fract_z
Si Si1 0.033119 0.727691 0.648378
Si Si2 0.259281 0.977438 0.104011
Si Si3 0.979781 0.239994 0.841461
Si Si4 0.569506 0.539536 0.520229
Si Si5 0.450995 0.492651 0.853312
Si Si6 0.511356 0.921912 0.722455
Si Si7 0.923732 0.807092 0.425877
O O1 0.065935 0.463529 0.682555
O O2 0.219968 0.655662 0.570296
O O3 0.848738 0.759527 0.863918
O O4 0.000000 0.000000 0.500000
O O5 0.421802 0.793846 0.102931
O O6 0.081942 0.884008 0.296789
O O7 0.352778 0.972800 0.922193
O O8 0.067732 0.111236 0.724567
O O9 0.759089 0.404946 0.962851
O O10 0.000000 0.000000 0.000000
O O11 0.500000 0.500000 0.500000
O O12 0.461909 0.513571 0.723557
O O13 0.556647 0.835212 0.393864
O O14 0.540848 0.671177 0.748155
O O15 0.704402 0.898154 0.608231
O O16 0.000000 0.500000 0.500000
#
# Coordination Sequence:
#
# PCOD9069674 Si02
#       7
#     2   2   2   2   2   2   2
#     4  12  27  52  78 110 163 208 258 321 400 467
#     4  12  26  47  76 116 151 201 264 316 388 467
#     4  12  27  47  79 114 151 204 264 322 389 465
#     4  12  28  49  76 110 154 205 259 323 397 458
#     4  12  24  49  75 110 154 202 257 320 386 466
#     4  12  25  47  78 113 155 199 262 326 387 458
#     4  12  23  46  77 112 158 201 259 319 383 472
#
# _framework density 24.450142
#
# number of rings (size 3 to 8) (size 9 to 14) (size 15 to 20)
#    0.000    0.000    4.286    6.000    2.000    2.286 
#    0.000    0.000    0.000    0.000    0.000    0.000 
#    0.000    0.000    0.000    0.000    0.000    0.000 
#
# Total GULP energy -78330.253363 kJ/mol
# GULP energy per Si atom -5595.018097 kJ/mol
# Density = 2.439449 g / cm^3
# Si number density = 24.450142 Si / 1000 Ang^3
#
#
#
# Elastic Constant Matrix: (Units=GPa)
#
#
# Indices 1 2 3 4 5 6 
#
# 1 103.5492 6.6685 33.3569 -1.2749 -1.1881 -2.9148
# 2 6.6685 74.0455 11.7616 12.3397 -18.7969 -20.9845
# 3 33.3569 11.7616 105.8013 21.1077 -1.8547 -4.6305
# 4 -1.2749 12.3397 21.1077 53.8481 -4.0768 3.2407
# 5 -1.1881 -18.7969 -1.8547 -4.0768 50.3386 12.2856
# 6 -2.9148 -20.9845 -4.6305 3.2407 12.2856 48.8030
#
#
#
# Elastic Compliance Matrix: (Units=1/GPa)
#
#
# Indices 1 2 3 4 5 6 
#
# 1 0.010933 -0.000743 -0.003752 0.001912 0.000036 -0.000159
# 2 -0.000743 0.017270 -0.000567 -0.003797 0.004531 0.006439
# 3 -0.003752 -0.000567 0.011660 -0.004633 -0.000508 0.001074
# 4 0.001912 -0.003797 -0.004633 0.021607 0.001102 -0.003670
# 5 0.000036 0.004531 -0.000508 0.001102 0.022569 -0.003852
# 6 -0.000159 0.006439 0.001074 -0.003670 -0.003852 0.024565
#
#
# Mechanical properties :
#
#
# Convention : Reuss Voigt Hill
#
# Bulk Modulus (GPa) = 33.62552 42.99667 38.31110
# Shear Modulus (GPa) = 38.86768 46.03854 42.45311
#
# Velocity S-wave (km/s) = 3.99139 4.34401 4.17143
# Velocity P-wave (km/s) = 5.91812 6.54096 6.23732
#
# Compressibility (1/GPa) = 0.02973931
#
# Stress axis : x y z
#
# Youngs Moduli (GPa) = 91.46353 57.90332 85.76326
#
# Poissons Ratio (x) = 0.04303 0.32180
# Poissons Ratio (y) = 0.06797 0.04860
# Poissons Ratio (z) = 0.34319 0.03281
#
# Static dielectric constant tensor:
#      x y z
#    x 2.052600 0.148030 -0.014120 
#    y 0.148030 2.061070 -0.012570 
#    z -0.014120 -0.012570 1.967280 
# 
# From -- ./inp_files/308419.got.cif
#   From: 2010.05.17/outbox.cif.g08.bks.cpg/sg2_155_cif.got.tgz:308419.got - 2010.06.03 11:33:40.
