data_PCOD9069141
_publ_section_title
;
Structure prediction by ZEFSAII (Michael W. Deem and Ramdas Pophale) SiO2 
 PCOD9069141
Probable space group: P -1
;
_chemical_formula_sum "Si O2"
_cell_formula_units_Z 8
_cell_length_a 6.953866
_cell_length_b 12.933345
_cell_length_c 4.880870
_cell_angle_alpha 83.773410
_cell_angle_beta 74.273601
_cell_angle_gamma 41.960291
_cell_volume 279.544234
_symmetry_space_group_name_H-M "P -1"
_symmetry_group_IT_number 2
_symmetry_cell_setting 'triclinic'
loop_
_space_group_symop_operation_xyz
x,y,z
-x,-y,-z
loop_
_atom_site_type_symbol
_atom_site_label
_atom_site_fract_x
_atom_site_fract_y
_atom_site_fract_z
Si Si1 0.834434 0.512369 0.813375
Si Si2 0.827085 0.330419 0.536164
Si Si3 0.522790 0.876967 0.646042
Si Si4 0.330176 0.827104 0.193794
O O1 0.838403 0.388249 0.804465
O O2 0.507234 0.683694 0.950211
O O3 0.000000 0.500000 0.500000
O O4 0.000000 0.500000 0.000000
O O5 0.500000 0.500000 0.500000
O O6 0.141205 0.250559 0.312182
O O7 0.855877 0.194743 0.587765
O O8 0.288977 0.938010 0.961237
O O9 0.500000 0.000000 0.500000
O O10 0.478794 0.821239 0.409068
#
# Coordination Sequence:
#
# PCOD9069141 Si02
#       4
#     2   2   2   2
#     4  12  22  43  72 109 148 187 235 307 380 433
#     4  12  27  46  80 117 150 192 254 313 382 446
#     4  12  29  51  74 106 155 205 250 306 372 447
#     4  12  26  47  76 109 153 196 250 310 377 443
#
# _framework density 28.618010000000002
#
# number of rings (size 3 to 8) (size 9 to 14) (size 15 to 20)
#    0.000    0.000    5.000    4.500    0.000    8.000 
#    0.000    0.000    0.000    0.000    0.000    0.000 
#    0.000    0.000    0.000    0.000    0.000    0.000 
#
# Total GULP energy -44615.805662 kJ/mol
# GULP energy per Si atom -5576.975708 kJ/mol
# Density = 2.855287 g / cm^3
# Si number density = 28.618010 Si / 1000 Ang^3
#
#
#
# Elastic Constant Matrix: (Units=GPa)
#
#
# Indices 1 2 3 4 5 6 
#
# 1 227.5885 65.5500 91.6948 -12.7124 -10.6666 39.9770
# 2 65.5500 84.5707 24.3727 -28.0082 1.1465 18.1283
# 3 91.6948 24.3727 199.4162 -12.4390 5.7363 8.4899
# 4 -12.7124 -28.0082 -12.4390 57.5291 1.5366 -11.9959
# 5 -10.6666 1.1465 5.7363 1.5366 60.3009 11.2700
# 6 39.9770 18.1283 8.4899 -11.9959 11.2700 59.1796
#
#
#
# Elastic Compliance Matrix: (Units=1/GPa)
#
#
# Indices 1 2 3 4 5 6 
#
# 1 0.007814 -0.005093 -0.003012 -0.002363 0.002623 -0.004265
# 2 -0.005093 0.018296 0.000655 0.007881 -0.001440 -0.000386
# 3 -0.003012 0.000655 0.006385 0.001381 -0.001464 0.001477
# 4 -0.002363 0.007881 0.001381 0.021838 -0.001963 0.003785
# 5 0.002623 -0.001440 -0.001464 -0.001963 0.018196 -0.004984
# 6 -0.004265 -0.000386 0.001477 0.003785 -0.004984 0.021402
#
#
# Mechanical properties :
#
#
# Convention : Reuss Voigt Hill
#
# Bulk Modulus (GPa) = 56.83286 97.20117 77.01701
# Shear Modulus (GPa) = 43.59421 57.39912 50.49667
#
# Velocity S-wave (km/s) = 3.90720 4.48336 4.20516
# Velocity P-wave (km/s) = 6.34485 7.79997 7.10973
#
# Compressibility (1/GPa) = 0.01759545
#
# Stress axis : x y z
#
# Youngs Moduli (GPa) = 127.96911 54.65823 156.61902
#
# Poissons Ratio (x) = 0.27836 0.47174
# Poissons Ratio (y) = 0.65172 -0.10261
# Poissons Ratio (z) = 0.38545 -0.03581
#
# Static dielectric constant tensor:
#      x y z
#    x 2.368780 -0.194900 -0.108490 
#    y -0.194900 2.415000 -0.091640 
#    z -0.108490 -0.091640 2.273130 
# 
# From -- ./inp_files/1875.got.cif
#   From: 2010.05.17/outbox.cif.g08.bks.cpg/sg2_1_cif.got.tgz:1875.got - 2010.06.03 11:33:40.
