data_PCOD9069943
_publ_section_title
;
Structure prediction by ZEFSAII (Michael W. Deem and Ramdas Pophale) SiO2 
 PCOD9069943
Probable space group: P -1
;
_chemical_formula_sum "Si O2"
_cell_formula_units_Z 12
_cell_length_a 7.534466
_cell_length_b 15.437800
_cell_length_c 7.050198
_cell_angle_alpha 41.282990
_cell_angle_beta 101.363439
_cell_angle_gamma 95.861577
_cell_volume 529.104626
_symmetry_space_group_name_H-M "P -1"
_symmetry_group_IT_number 2
_symmetry_cell_setting 'triclinic'
loop_
_space_group_symop_operation_xyz
x,y,z
-x,-y,-z
loop_
_atom_site_type_symbol
_atom_site_label
_atom_site_fract_x
_atom_site_fract_y
_atom_site_fract_z
Si Si1 0.392986 0.635880 0.695032
Si Si2 0.704315 0.832006 0.391536
Si Si3 0.181654 0.703350 0.182754
Si Si4 0.680268 0.042516 0.367618
Si Si5 0.051127 0.635761 0.878118
Si Si6 0.100301 0.082458 0.044052
O O1 0.530012 0.750678 0.522364
O O2 0.299585 0.620700 0.496372
O O3 0.232194 0.673063 0.747400
O O4 0.500000 0.500000 0.000000
O O5 0.304601 0.807132 0.934009
O O6 0.700679 0.957974 0.318804
O O7 0.883717 0.741144 0.634820
O O8 0.092207 0.623469 0.129650
O O9 0.028614 0.794144 0.113790
O O10 0.837377 0.001254 0.621485
O O11 0.500000 0.000000 0.500000
O O12 0.271669 0.130032 0.885221
O O13 0.000000 0.500000 0.000000
O O14 0.000000 0.000000 0.000000
#
# Coordination Sequence:
#
# PCOD9069943 Si02
#       6
#     2   2   2   2   2   2
#     4  12  28  49  73 108 147 196 256 305 358 439
#     4  12  25  47  76 110 151 194 242 305 374 442
#     4  12  26  46  76 107 147 196 246 303 379 440
#     4  12  26  44  73 113 149 188 243 304 377 446
#     4  12  26  51  74 103 150 200 250 307 362 435
#     4  12  24  43  74 108 150 191 235 298 376 447
#
# _framework density 22.679827
#
# number of rings (size 3 to 8) (size 9 to 14) (size 15 to 20)
#    0.000    0.000    6.667    3.500    2.333    2.667 
#    3.000    0.000    0.000    0.000    0.000    0.000 
#    0.000    0.000    0.000    0.000    0.000    0.000 
#
# Total GULP energy -67292.313949 kJ/mol
# GULP energy per Si atom -5607.692829 kJ/mol
# Density = 2.262821 g / cm^3
# Si number density = 22.679827 Si / 1000 Ang^3
#
#
#
# Elastic Constant Matrix: (Units=GPa)
#
#
# Indices 1 2 3 4 5 6 
#
# 1 138.3863 32.5797 2.2297 11.7070 -1.0501 -13.3106
# 2 32.5797 136.1319 35.9809 29.1335 -0.4242 5.6184
# 3 2.2297 35.9809 145.8915 26.2176 -4.8643 -10.7439
# 4 11.7070 29.1335 26.2176 37.4308 -4.0683 -3.1953
# 5 -1.0501 -0.4242 -4.8643 -4.0683 33.3977 1.5177
# 6 -13.3106 5.6184 -10.7439 -3.1953 1.5177 30.8568
#
#
#
# Elastic Compliance Matrix: (Units=1/GPa)
#
#
# Indices 1 2 3 4 5 6 
#
# 1 0.008209 -0.002119 0.000918 -0.001206 0.000031 0.004120
# 2 -0.002119 0.009759 -0.001559 -0.006251 -0.000757 -0.003844
# 3 0.000918 -0.001559 0.008288 -0.004560 0.000521 0.003068
# 4 -0.001206 -0.006251 -0.004560 0.035747 0.003457 0.002562
# 5 0.000031 -0.000757 0.000521 0.003457 0.030467 -0.000808
# 6 0.004120 -0.003844 0.003068 0.002562 -0.000808 0.036258
#
#
# Mechanical properties :
#
#
# Convention : Reuss Voigt Hill
#
# Bulk Modulus (GPa) = 48.22648 62.44335 55.33492
# Shear Modulus (GPa) = 35.42064 43.64502 39.53283
#
# Velocity S-wave (km/s) = 3.95621 4.39156 4.17955
# Velocity P-wave (km/s) = 6.49454 7.30114 6.90962
#
# Compressibility (1/GPa) = 0.02073550
#
# Stress axis : x y z
#
# Youngs Moduli (GPa) = 121.82010 102.46653 120.66040
#
# Poissons Ratio (x) = 0.21714 -0.11081
# Poissons Ratio (y) = 0.25815 0.18816
# Poissons Ratio (z) = -0.11188 0.15979
#
# Static dielectric constant tensor:
#      x y z
#    x 1.892200 0.014690 0.006030 
#    y 0.014690 1.804520 0.009150 
#    z 0.006030 0.009150 1.832980 
# 
# From -- ./inp_files/192533.got.cif
#   From: 2010.05.17/outbox.cif.g08.bks.cpg/sg2_97_cif.got.tgz:192533.got - 2010.06.03 11:33:40.
