data_PCOD9069397
_publ_section_title
;
Structure prediction by ZEFSAII (Michael W. Deem and Ramdas Pophale) SiO2 
 PCOD9069397
Probable space group: P -1
;
_chemical_formula_sum "Si O2"
_cell_formula_units_Z 14
_cell_length_a 17.893845
_cell_length_b 7.966056
_cell_length_c 5.454733
_cell_angle_alpha 62.137548
_cell_angle_beta 115.489594
_cell_angle_gamma 118.368221
_cell_volume 582.764149
_symmetry_space_group_name_H-M "P -1"
_symmetry_group_IT_number 2
_symmetry_cell_setting 'triclinic'
loop_
_space_group_symop_operation_xyz
x,y,z
-x,-y,-z
loop_
_atom_site_type_symbol
_atom_site_label
_atom_site_fract_x
_atom_site_fract_y
_atom_site_fract_z
Si Si1 0.160358 0.421826 0.073134
Si Si2 0.847604 0.231363 0.877701
Si Si3 0.602631 0.630663 0.069051
Si Si4 0.992911 0.269139 0.687044
Si Si5 0.296339 0.664501 0.723641
Si Si6 0.339629 0.112998 0.525155
Si Si7 0.162270 0.053237 0.556707
O O1 0.123372 0.590543 0.002783
O O2 0.162999 0.278252 0.398129
O O3 0.251561 0.543975 0.987793
O O4 0.091136 0.279459 0.878868
O O5 0.931440 0.211360 0.877983
O O6 0.782880 0.305092 0.567742
O O7 0.802108 0.026566 0.102058
O O8 0.654992 0.471342 0.243200
O O9 0.622210 0.755046 0.267522
O O10 0.500000 0.500000 0.000000
O O11 0.627460 0.768704 0.762862
O O12 0.935155 0.104858 0.525907
O O13 0.000000 0.500000 0.500000
O O14 0.355201 0.897652 0.700441
O O15 0.233302 0.057344 0.443362
#
# Coordination Sequence:
#
# PCOD9069397 Si02
#       7
#     2   2   2   2   2   2   2
#     4  12  25  43  67 105 144 203 253 311 377 443
#     4  12  23  43  68  99 144 199 255 309 376 441
#     4  12  30  52  82 121 155 194 255 323 393 478
#     4  12  23  43  64  99 152 193 257 317 368 441
#     4  12  26  47  81 106 155 205 252 309 396 455
#     4  12  25  50  81 114 159 198 255 318 388 469
#     4  12  25  42  69 104 142 196 254 308 375 442
#
# _framework density 24.023443
#
# number of rings (size 3 to 8) (size 9 to 14) (size 15 to 20)
#    0.000    0.000    7.143    3.000    0.000    2.857 
#    0.000    0.000    0.000    0.000    0.000    0.000 
#    0.000    0.000    0.000    0.000    0.000    0.000 
#
# Total GULP energy -78338.240674 kJ/mol
# GULP energy per Si atom -5595.588620 kJ/mol
# Density = 2.396876 g / cm^3
# Si number density = 24.023443 Si / 1000 Ang^3
#
#
#
# Elastic Constant Matrix: (Units=GPa)
#
#
# Indices 1 2 3 4 5 6 
#
# 1 56.0457 47.7744 32.5704 -7.5389 -11.6532 3.6354
# 2 47.7744 172.5152 74.3292 -3.0595 2.0332 -7.4732
# 3 32.5704 74.3292 143.0135 -35.8974 -17.9843 -10.4638
# 4 -7.5389 -3.0595 -35.8974 50.7514 -2.8170 -0.3746
# 5 -11.6532 2.0332 -17.9843 -2.8170 35.0006 -3.8870
# 6 3.6354 -7.4732 -10.4638 -0.3746 -3.8870 35.3039
#
#
#
# Elastic Compliance Matrix: (Units=1/GPa)
#
#
# Indices 1 2 3 4 5 6 
#
# 1 0.027142 -0.007524 -0.000428 0.003759 0.009172 -0.003465
# 2 -0.007524 0.010307 -0.005603 -0.004805 -0.006308 0.000551
# 3 -0.000428 -0.005603 0.013855 0.009903 0.008545 0.004010
# 4 0.003759 -0.004805 0.009903 0.027506 0.009147 0.002830
# 5 0.009172 -0.006308 0.008545 0.009147 0.037617 0.004491
# 6 -0.003465 0.000551 0.004010 0.002830 0.004491 0.030512
#
#
# Mechanical properties :
#
#
# Convention : Reuss Voigt Hill
#
# Bulk Modulus (GPa) = 41.32837 75.65805 58.49321
# Shear Modulus (GPa) = 27.45581 38.67120 33.06351
#
# Velocity S-wave (km/s) = 3.38431 4.01649 3.71388
# Velocity P-wave (km/s) = 5.70194 7.28501 6.54154
#
# Compressibility (1/GPa) = 0.02419645
#
# Stress axis : x y z
#
# Youngs Moduli (GPa) = 36.84354 97.02183 72.17557
#
# Poissons Ratio (x) = 0.72996 0.03086
# Poissons Ratio (y) = 0.27720 0.40436
# Poissons Ratio (z) = 0.01575 0.54357
#
# Static dielectric constant tensor:
#      x y z
#    x 1.892820 0.000000 0.002220 
#    y 0.000000 1.967670 0.046030 
#    z 0.002220 0.046030 1.922490 
# 
# From -- ./inp_files/106137.got.cif
#   From: 2010.05.17/outbox.cif.g08.bks.cpg/sg2_54_cif.got.tgz:106137.got - 2010.06.03 11:33:40.
