data_PCOD9069088
_publ_section_title
;
Structure prediction by ZEFSAII (Michael W. Deem and Ramdas Pophale) SiO2 
 PCOD9069088
Probable space group: P -1
;
_chemical_formula_sum "Si O2"
_cell_formula_units_Z 15
_cell_length_a 11.591876
_cell_length_b 8.365084
_cell_length_c 8.787595
_cell_angle_alpha 70.250551
_cell_angle_beta 99.281462
_cell_angle_gamma 119.413335
_cell_volume 698.597731
_symmetry_space_group_name_H-M "P -1"
_symmetry_group_IT_number 2
_symmetry_cell_setting 'triclinic'
loop_
_space_group_symop_operation_xyz
x,y,z
-x,-y,-z
loop_
_atom_site_type_symbol
_atom_site_label
_atom_site_fract_x
_atom_site_fract_y
_atom_site_fract_z
Si Si1 0.211215 0.564398 0.144726
Si Si2 0.463454 0.307346 0.152650
Si Si3 0.762705 0.483878 0.174532
Si Si4 0.202499 0.166781 0.711915
Si Si5 0.630649 0.590009 0.601262
Si Si6 0.967422 0.368777 0.385262
Si Si7 0.000000 0.000000 0.500000
Si Si8 0.641764 0.000047 0.019418
O O1 0.331017 0.563338 0.267713
O O2 0.084085 0.464338 0.254979
O O3 0.248297 0.781630 0.045200
O O4 0.203778 0.464867 0.012666
O O5 0.608370 0.331503 0.204532
O O6 0.395928 0.308045 0.295197
O O7 0.373369 0.125567 0.092103
O O8 0.500000 0.500000 0.000000
O O9 0.789797 0.670398 0.221823
O O10 0.842250 0.377170 0.284929
O O11 0.246603 0.265761 0.521746
O O12 0.057670 0.003434 0.689666
O O13 0.307627 0.096080 0.809601
O O14 0.500000 0.500000 0.500000
O O15 0.000000 0.500000 0.500000
O O16 0.954654 0.162376 0.486244
O O17 0.500000 0.000000 0.000000
#
# Coordination Sequence:
#
# PCOD9069088 Si02
#       8
#     2   2   2   2   2   2   1   2
#     4  12  25  46  74 103 146 194 244 301 369 439
#     4  12  22  42  71 102 144 188 237 297 371 442
#     4  12  23  47  72 102 148 194 240 306 364 437
#     4  12  25  46  74 103 146 195 246 304 368 441
#     4  12  22  42  71 101 139 188 241 296 371 434
#     4  12  27  51  73 106 149 195 250 311 364 434
#     4  12  26  48  76 102 144 196 244 306 372 420
#     4  12  24  45  71 110 145 189 242 305 368 446
#
# _framework density 21.471582999999999
#
# number of rings (size 3 to 8) (size 9 to 14) (size 15 to 20)
#    0.000    0.000    8.000    2.000    0.000    1.067 
#    2.400    5.333    0.000    0.000    0.000    0.000 
#    0.000    0.000    0.000    0.000    0.000    0.000 
#
# Total GULP energy -83624.332237 kJ/mol
# GULP energy per Si atom -5574.955482 kJ/mol
# Density = 2.142271 g / cm^3
# Si number density = 21.471583 Si / 1000 Ang^3
#
#
#
# Elastic Constant Matrix: (Units=GPa)
#
#
# Indices 1 2 3 4 5 6 
#
# 1 115.1350 13.4904 47.5893 -0.7871 26.6762 -21.0974
# 2 13.4904 81.1524 40.8240 19.4669 -3.5839 -29.9773
# 3 47.5893 40.8240 114.3843 20.2652 2.7771 -24.4593
# 4 -0.7871 19.4669 20.2652 37.3286 -6.9251 0.9849
# 5 26.6762 -3.5839 2.7771 -6.9251 65.1131 1.3318
# 6 -21.0974 -29.9773 -24.4593 0.9849 1.3318 29.7400
#
#
#
# Elastic Compliance Matrix: (Units=1/GPa)
#
#
# Indices 1 2 3 4 5 6 
#
# 1 0.013012 0.003257 -0.004478 -0.000191 -0.005166 0.009069
# 2 0.003257 0.026174 -0.002496 -0.013268 -0.001754 0.027159
# 3 -0.004478 -0.002496 0.013900 -0.006440 0.000298 0.005940
# 4 -0.000191 -0.013268 -0.006440 0.038502 0.004132 -0.020267
# 5 -0.005166 -0.001754 0.000298 0.004132 0.017930 -0.006128
# 6 0.009069 0.027159 0.005940 -0.020267 -0.006128 0.073265
#
#
# Mechanical properties :
#
#
# Convention : Reuss Voigt Hill
#
# Bulk Modulus (GPa) = 21.90405 57.16435 39.53420
# Shear Modulus (GPa) = 24.33869 40.35419 32.34644
#
# Velocity S-wave (km/s) = 3.37045 4.33993 3.88555
# Velocity P-wave (km/s) = 5.03687 7.19683 6.21146
#
# Compressibility (1/GPa) = 0.04565366
#
# Stress axis : x y z
#
# Youngs Moduli (GPa) = 76.85154 38.20524 71.94214
#
# Poissons Ratio (x) = -0.12444 0.32213
# Poissons Ratio (y) = -0.25031 0.17957
# Poissons Ratio (z) = 0.34411 0.09536
#
# Static dielectric constant tensor:
#      x y z
#    x 1.776860 -0.072110 0.065330 
#    y -0.072110 1.712310 0.029140 
#    z 0.065330 0.029140 1.781770 
# 
# From -- ./inp_files/233885.got.cif
#   From: 2010.05.17/outbox.cif.g08.bks.cpg/sg2_117_cif.got.tgz:233885.got - 2010.06.03 11:33:40.
