data_PCOD9069242
_publ_section_title
;
Structure prediction by ZEFSAII (Michael W. Deem and Ramdas Pophale) SiO2 
 PCOD9069242
Probable space group: P -1
;
_chemical_formula_sum "Si O2"
_cell_formula_units_Z 13
_cell_length_a 9.052741
_cell_length_b 14.830379
_cell_length_c 11.833649
_cell_angle_alpha 138.432715
_cell_angle_beta 56.157953
_cell_angle_gamma 145.832725
_cell_volume 583.718049
_symmetry_space_group_name_H-M "P -1"
_symmetry_group_IT_number 2
_symmetry_cell_setting 'triclinic'
loop_
_space_group_symop_operation_xyz
x,y,z
-x,-y,-z
loop_
_atom_site_type_symbol
_atom_site_label
_atom_site_fract_x
_atom_site_fract_y
_atom_site_fract_z
Si Si1 0.604304 0.108270 0.932769
Si Si2 0.188157 0.289095 0.441448
Si Si3 0.000000 0.500000 0.000000
Si Si4 0.034149 0.857948 0.847908
Si Si5 0.226929 0.082711 0.395819
Si Si6 0.217396 0.547974 0.372975
Si Si7 0.752960 0.238185 0.652264
O O1 0.815220 0.349114 0.049923
O O2 0.753053 0.064584 0.772606
O O3 0.332266 0.988447 0.873039
O O4 0.500000 0.000000 0.000000
O O5 0.500000 0.500000 0.500000
O O6 0.053011 0.229341 0.322740
O O7 0.174043 0.129093 0.344527
O O8 0.011076 0.285448 0.591737
O O9 0.757809 0.312896 0.841990
O O10 0.857919 0.652436 0.804138
O O11 0.000000 0.000000 0.000000
O O12 0.506266 0.288215 0.523263
O O13 0.000000 0.000000 0.500000
O O14 0.231992 0.641522 0.339993
O O15 0.000000 0.500000 0.500000
O O16 0.500000 0.000000 0.500000
#
# Coordination Sequence:
#
# PCOD9069242 Si02
#       7
#     2   2   1   2   2   2   2
#     4  12  27  49  75 112 160 211 268 332 413 487
#     4  12  24  43  72 107 147 196 254 315 392 476
#     4  12  28  44  80 114 154 202 270 340 400 474
#     4  12  26  43  74 115 155 201 270 329 399 490
#     4  12  25  44  74 112 153 199 268 330 399 489
#     4  12  22  47  78 108 151 216 265 325 412 488
#     4  12  26  49  75 111 156 205 262 332 402 479
#
# _framework density 22.271025999999999
#
# number of rings (size 3 to 8) (size 9 to 14) (size 15 to 20)
#    0.000    0.000    4.615    5.538    4.308    1.231 
#    0.000    0.000    0.000    8.308    0.000    0.000 
#    0.000    0.000    0.000    0.000    0.000    0.000 
#
# Total GULP energy -72457.442182 kJ/mol
# GULP energy per Si atom -5573.649399 kJ/mol
# Density = 2.222034 g / cm^3
# Si number density = 22.271026 Si / 1000 Ang^3
#
#
#
# Elastic Constant Matrix: (Units=GPa)
#
#
# Indices 1 2 3 4 5 6 
#
# 1 158.9937 48.7522 32.7243 4.4164 6.3671 -6.1196
# 2 48.7522 131.7549 28.1168 5.9428 16.5626 1.8093
# 3 32.7243 28.1168 82.1059 9.7486 1.3884 -0.7728
# 4 4.4164 5.9428 9.7486 35.4679 2.6150 -2.9971
# 5 6.3671 16.5626 1.3884 2.6150 46.1041 0.4049
# 6 -6.1196 1.8093 -0.7728 -2.9971 0.4049 55.1895
#
#
#
# Elastic Compliance Matrix: (Units=1/GPa)
#
#
# Indices 1 2 3 4 5 6 
#
# 1 0.007484 -0.002298 -0.002202 0.000145 -0.000158 0.000883
# 2 -0.002298 0.009301 -0.002165 -0.000512 -0.002925 -0.000596
# 3 -0.002202 -0.002165 0.014179 -0.003336 0.000845 -0.000162
# 4 0.000145 -0.000512 -0.003336 0.029419 -0.001418 0.001594
# 5 -0.000158 -0.002925 0.000845 -0.001418 0.022819 -0.000154
# 6 0.000883 -0.000596 -0.000162 0.001594 -0.000154 0.018322
#
#
# Mechanical properties :
#
#
# Convention : Reuss Voigt Hill
#
# Bulk Modulus (GPa) = 56.70812 65.78234 61.24523
# Shear Modulus (GPa) = 41.41470 44.90305 43.15887
#
# Velocity S-wave (km/s) = 4.31696 4.49509 4.40693
# Velocity P-wave (km/s) = 7.09691 7.51947 7.31125
#
# Compressibility (1/GPa) = 0.01763416
#
# Stress axis : x y z
#
# Youngs Moduli (GPa) = 133.62338 107.51504 70.52913
#
# Poissons Ratio (x) = 0.24708 0.15530
# Poissons Ratio (y) = 0.30708 0.15266
# Poissons Ratio (z) = 0.29423 0.23272
#
# Static dielectric constant tensor:
#      x y z
#    x 1.748610 -0.035770 -0.040600 
#    y -0.035770 1.851140 0.022660 
#    z -0.040600 0.022660 1.866980 
# 
# From -- ./inp_files/153425.got.cif
#   From: 2010.05.17/outbox.cif.g08.bks.cpg/sg2_77_cif.got.tgz:153425.got - 2010.06.03 11:33:40.
