data_PCOD9069202
_publ_section_title
;
Structure prediction by ZEFSAII (Michael W. Deem and Ramdas Pophale) SiO2 
 PCOD9069202
Probable space group: P -1
;
_chemical_formula_sum "Si O2"
_cell_formula_units_Z 15
_cell_length_a 11.542316
_cell_length_b 8.528069
_cell_length_c 11.725262
_cell_angle_alpha 133.458372
_cell_angle_beta 50.956069
_cell_angle_gamma 114.442262
_cell_volume 650.280136
_symmetry_space_group_name_H-M "P -1"
_symmetry_group_IT_number 2
_symmetry_cell_setting 'triclinic'
loop_
_space_group_symop_operation_xyz
x,y,z
-x,-y,-z
loop_
_atom_site_type_symbol
_atom_site_label
_atom_site_fract_x
_atom_site_fract_y
_atom_site_fract_z
Si Si1 0.072371 0.720292 0.524346
Si Si2 0.063236 0.923787 0.045261
Si Si3 0.000000 0.500000 0.000000
Si Si4 0.626756 0.906364 0.787034
Si Si5 0.600687 0.602295 0.087609
Si Si6 0.133281 0.736128 0.237958
Si Si7 0.642543 0.428126 0.602358
Si Si8 0.615325 0.092011 0.248924
O O1 0.058537 0.769506 0.423894
O O2 0.247270 0.686453 0.431864
O O3 0.000000 0.500000 0.500000
O O4 0.002261 0.906532 0.739105
O O5 0.242643 0.922871 0.929873
O O6 0.018449 0.683735 0.981891
O O7 0.000000 0.000000 0.000000
O O8 0.974835 0.313654 0.823349
O O9 0.687524 0.672917 0.674567
O O10 0.535840 0.868837 0.707886
O O11 0.754289 0.075293 0.770025
O O12 0.500000 0.000000 0.000000
O O13 0.521885 0.557851 0.234327
O O14 0.609659 0.857803 0.194000
O O15 0.500000 0.500000 0.000000
O O16 0.758327 0.477897 0.923397
O O17 0.641711 0.281077 0.417328
#
# Coordination Sequence:
#
# PCOD9069202 Si02
#       8
#     2   2   1   2   2   2   2   2
#     4  12  27  47  75 109 151 208 261 310 385 469
#     4  12  27  52  77 112 157 208 257 319 385 465
#     4  12  30  50  78 110 154 208 258 322 386 466
#     4  12  25  48  76 111 151 196 254 323 395 459
#     4  12  22  45  75 107 143 192 249 311 387 452
#     4  12  27  49  76 110 151 201 259 321 389 464
#     4  12  26  44  75 112 149 196 250 316 388 463
#     4  12  25  46  75 109 151 196 253 319 383 457
#
# _framework density 23.066980999999998
#
# number of rings (size 3 to 8) (size 9 to 14) (size 15 to 20)
#    0.000    0.000    5.333    4.000    3.733    1.600 
#    0.000    0.000    0.000    0.000    0.000    0.000 
#    0.000    0.000    0.000    0.000    0.000    0.000 
#
# Total GULP energy -83851.379920 kJ/mol
# GULP energy per Si atom -5590.091995 kJ/mol
# Density = 2.301448 g / cm^3
# Si number density = 23.066981 Si / 1000 Ang^3
#
#
#
# Elastic Constant Matrix: (Units=GPa)
#
#
# Indices 1 2 3 4 5 6 
#
# 1 71.3756 30.0447 25.9694 -5.0645 26.2117 -4.4110
# 2 30.0447 181.2011 55.1824 16.1177 15.2989 -4.4139
# 3 25.9694 55.1824 127.8783 -10.6166 18.8512 7.7590
# 4 -5.0645 16.1177 -10.6166 40.7433 -3.5844 3.2232
# 5 26.2117 15.2989 18.8512 -3.5844 34.1341 2.3983
# 6 -4.4110 -4.4139 7.7590 3.2232 2.3983 33.4745
#
#
#
# Elastic Compliance Matrix: (Units=1/GPa)
#
#
# Indices 1 2 3 4 5 6 
#
# 1 0.021015 -0.001845 -0.001427 0.001383 -0.014642 0.003773
# 2 -0.001845 0.007238 -0.003104 -0.004109 -0.000677 0.001875
# 3 -0.001427 -0.003104 0.010338 0.003766 -0.002604 -0.003170
# 4 0.001383 -0.004109 0.003766 0.027810 0.001904 -0.004047
# 5 -0.014642 -0.000677 -0.002604 0.001904 0.042809 -0.004666
# 6 0.003773 0.001875 -0.003170 -0.004047 -0.004666 0.032076
#
#
# Mechanical properties :
#
#
# Convention : Reuss Voigt Hill
#
# Bulk Modulus (GPa) = 38.70111 66.98309 52.84210
# Shear Modulus (GPa) = 30.74056 39.62093 35.18074
#
# Velocity S-wave (km/s) = 3.65453 4.14895 3.90956
# Velocity P-wave (km/s) = 5.88401 7.21479 6.58311
#
# Compressibility (1/GPa) = 0.02583905
#
# Stress axis : x y z
#
# Youngs Moduli (GPa) = 47.58612 138.15588 96.72992
#
# Poissons Ratio (x) = 0.25486 0.13805
# Poissons Ratio (y) = 0.08778 0.30025
# Poissons Ratio (z) = 0.06791 0.42884
#
# Static dielectric constant tensor:
#      x y z
#    x 1.887460 -0.063910 0.052020 
#    y -0.063910 1.625840 0.174850 
#    z 0.052020 0.174850 1.700800 
# 
# From -- ./inp_files/245173.got.cif
#   From: 2010.05.17/outbox.cif.g08.bks.cpg/sg2_123_cif.got.tgz:245173.got - 2010.06.03 11:33:40.
