data_PCOD9069281
_publ_section_title
;
Structure prediction by ZEFSAII (Michael W. Deem and Ramdas Pophale) SiO2 
 PCOD9069281
Probable space group: P -1
;
_chemical_formula_sum "Si O2"
_cell_formula_units_Z 16
_cell_length_a 13.069552
_cell_length_b 12.934240
_cell_length_c 14.217653
_cell_angle_alpha 147.592001
_cell_angle_beta 30.317361
_cell_angle_gamma 144.170899
_cell_volume 619.653950
_symmetry_space_group_name_H-M "P -1"
_symmetry_group_IT_number 2
_symmetry_cell_setting 'triclinic'
loop_
_space_group_symop_operation_xyz
x,y,z
-x,-y,-z
loop_
_atom_site_type_symbol
_atom_site_label
_atom_site_fract_x
_atom_site_fract_y
_atom_site_fract_z
Si Si1 0.185445 0.142740 0.100360
Si Si2 0.305509 0.866016 0.652369
Si Si3 0.925049 0.521220 0.796449
Si Si4 0.846364 0.501376 0.209771
Si Si5 0.824841 0.913320 0.495181
Si Si6 0.791971 0.084373 0.471876
Si Si7 0.426584 0.954181 0.915041
Si Si8 0.518046 0.424238 0.822528
O O1 0.301603 0.378785 0.207672
O O2 0.930793 0.093294 0.273759
O O3 0.239929 0.061676 0.894272
O O4 0.279056 0.042608 0.034221
O O5 0.116092 0.686454 0.715497
O O6 0.385081 0.760209 0.416137
O O7 0.549370 0.944339 0.559572
O O8 0.024713 0.463476 0.768100
O O9 0.836666 0.314838 0.648200
O O10 0.721382 0.599602 0.043320
O O11 0.746015 0.676560 0.396876
O O12 0.680349 0.284098 0.183952
O O13 0.000000 0.500000 0.000000
O O14 0.646641 0.018786 0.735159
O O15 0.901176 0.972519 0.375720
O O16 0.000000 0.000000 0.500000
O O17 0.500000 0.000000 0.000000
O O18 0.500000 0.500000 0.000000
#
# Coordination Sequence:
#
# PCOD9069281 Si02
#       8
#     2   2   2   2   2   2   2   2
#     4  12  25  49  77 111 153 203 256 316 387 451
#     4  12  26  49  83 110 149 202 248 324 393 456
#     4  12  25  51  76 110 157 203 260 318 386 460
#     4  12  26  40  66 106 147 201 250 305 370 445
#     4  12  23  40  62  99 147 197 251 295 359 436
#     4  12  24  47  76 110 155 202 255 314 380 458
#     4  12  26  42  67 106 152 204 252 303 368 451
#     4  12  30  53  83 115 150 199 258 327 399 467
#
# _framework density 25.820865999999999
#
# number of rings (size 3 to 8) (size 9 to 14) (size 15 to 20)
#    0.000    0.000    6.250    3.375    3.500    1.000 
#    0.000    1.250    0.000    0.000    0.000    0.000 
#    0.000    0.000    0.000    0.000    0.000    0.000 
#
# Total GULP energy -89411.460555 kJ/mol
# GULP energy per Si atom -5588.216285 kJ/mol
# Density = 2.576210 g / cm^3
# Si number density = 25.820866 Si / 1000 Ang^3
#
#
#
# Elastic Constant Matrix: (Units=GPa)
#
#
# Indices 1 2 3 4 5 6 
#
# 1 10.0066 19.7503 70.5277 10.5373 5.0916 13.8335
# 2 19.7503 116.6339 -0.2014 9.0235 -9.6881 22.7585
# 3 70.5277 -0.2014 124.9575 -11.1405 -4.4054 20.7503
# 4 10.5373 9.0235 -11.1405 56.5426 6.9348 -3.7540
# 5 5.0916 -9.6881 -4.4054 6.9348 51.8930 1.8769
# 6 13.8335 22.7585 20.7503 -3.7540 1.8769 45.0345
#
#
#
# Elastic Compliance Matrix: (Units=1/GPa)
#
#
# Indices 1 2 3 4 5 6 
#
# 1 -0.025946 0.004428 0.015553 0.006653 0.003841 -0.001039
# 2 0.004428 0.009312 -0.001783 -0.003253 0.001790 -0.005590
# 3 0.015553 -0.001783 -0.000436 -0.002786 -0.001384 -0.003850
# 4 0.006653 -0.003253 -0.002786 0.017054 -0.003865 0.002467
# 5 0.003841 0.001790 -0.001384 -0.003865 0.019720 -0.002591
# 6 -0.001039 -0.005590 -0.003850 0.002467 -0.002591 0.027437
#
#
# Mechanical properties :
#
#
# Convention : Reuss Voigt Hill
#
# Bulk Modulus (GPa) = 51.74587 47.97234 49.85910
# Shear Modulus (GPa) = 290.91252 41.46212 166.18732
#
# Velocity S-wave (km/s) = 10.62592 4.01154 8.03127
# Velocity P-wave (km/s) = 13.06257 6.33055 10.26418
#
# Compressibility (1/GPa) = 0.01932521
#
# Stress axis : x y z
#
# Youngs Moduli (GPa) = -38.54096 107.38604 -2292.87602
#
# Poissons Ratio (x) = -0.47546 35.66052
# Poissons Ratio (y) = 0.17064 -4.08724
# Poissons Ratio (z) = 0.59942 0.19142
#
# Static dielectric constant tensor:
#      x y z
#    x 2.160980 0.136650 -0.102590 
#    y 0.136650 1.753680 0.139980 
#    z -0.102590 0.139980 2.019830 
# 
# From -- ./inp_files/534546.got.cif
#   From: 2010.05.17/outbox.cif.g08.bks.cpg/sg2_268_cif.got.tgz:534546.got - 2010.06.03 11:33:40.
