data_PCOD9069564
_publ_section_title
;
Structure prediction by ZEFSAII (Michael W. Deem and Ramdas Pophale) SiO2 
 PCOD9069564
Probable space group: P -1
;
_chemical_formula_sum "Si O2"
_cell_formula_units_Z 16
_cell_length_a 11.242139
_cell_length_b 14.239057
_cell_length_c 9.198314
_cell_angle_alpha 126.974254
_cell_angle_beta 41.012125
_cell_angle_gamma 106.197533
_cell_volume 727.718052
_symmetry_space_group_name_H-M "P -1"
_symmetry_group_IT_number 2
_symmetry_cell_setting 'triclinic'
loop_
_space_group_symop_operation_xyz
x,y,z
-x,-y,-z
loop_
_atom_site_type_symbol
_atom_site_label
_atom_site_fract_x
_atom_site_fract_y
_atom_site_fract_z
Si Si1 0.181657 0.673622 0.777360
Si Si2 0.147581 0.935739 0.174578
Si Si3 0.869033 0.822852 0.710242
Si Si4 0.885976 0.640905 0.793818
Si Si5 0.461904 0.225402 0.212770
Si Si6 0.272491 0.670585 0.130367
Si Si7 0.539795 0.359139 0.778329
Si Si8 0.775454 0.523126 0.200683
O O1 0.343651 0.666614 0.501699
O O2 0.265899 0.564739 0.716664
O O3 0.003492 0.653922 0.839140
O O4 0.115699 0.809898 0.034759
O O5 0.131767 0.036005 0.155022
O O6 0.368527 0.888053 0.980917
O O7 0.000000 0.000000 0.500000
O O8 0.891322 0.742000 0.760820
O O9 0.682710 0.816923 0.791951
O O10 0.054109 0.751569 0.375626
O O11 0.000000 0.500000 0.500000
O O12 0.662130 0.663724 0.050047
O O13 0.340836 0.331933 0.534817
O O14 0.572589 0.296058 0.077040
O O15 0.316264 0.707225 0.285710
O O16 0.271852 0.533110 0.958956
O O17 0.500000 0.500000 0.000000
O O18 0.000000 0.500000 0.000000
#
# Coordination Sequence:
#
# PCOD9069564 Si02
#       8
#     2   2   2   2   2   2   2   2
#     4  12  27  48  72 110 150 193 242 307 376 437
#     4  12  28  51  72 102 152 206 254 302 356 438
#     4  12  24  48  73 102 145 201 248 300 360 437
#     4  12  25  45  76 111 148 187 242 310 376 443
#     4  12  24  44  76 104 145 193 248 305 372 429
#     4  12  23  45  73 104 150 192 231 309 381 429
#     4  12  25  43  73 109 150 187 235 302 383 446
#     4  12  26  42  74 114 149 184 246 310 378 443
#
# _framework density 21.986539
#
# number of rings (size 3 to 8) (size 9 to 14) (size 15 to 20)
#    0.000    0.000    7.500    2.250    3.500    0.500 
#    2.250    0.625    0.000    0.000    0.000    0.000 
#    0.000    0.000    0.000    0.000    0.000    0.000 
#
# Total GULP energy -89524.484634 kJ/mol
# GULP energy per Si atom -5595.280290 kJ/mol
# Density = 2.193650 g / cm^3
# Si number density = 21.986539 Si / 1000 Ang^3
#
#
#
# Elastic Constant Matrix: (Units=GPa)
#
#
# Indices 1 2 3 4 5 6 
#
# 1 130.9712 29.4681 33.2644 -6.1235 -6.8854 9.9526
# 2 29.4681 103.3375 33.8976 0.7346 -0.5904 -11.6668
# 3 33.2644 33.8976 125.1603 -7.7319 -11.2384 1.5401
# 4 -6.1235 0.7346 -7.7319 35.7258 5.6468 -13.6023
# 5 -6.8854 -0.5904 -11.2384 5.6468 40.5852 -5.7970
# 6 9.9526 -11.6668 1.5401 -13.6023 -5.7970 39.8541
#
#
#
# Elastic Compliance Matrix: (Units=1/GPa)
#
#
# Indices 1 2 3 4 5 6 
#
# 1 0.008801 -0.002275 -0.001630 0.000084 0.000614 -0.002683
# 2 -0.002275 0.011648 -0.002609 0.000460 -0.000407 0.004177
# 3 -0.001630 -0.002609 0.009410 0.001519 0.002095 0.000103
# 4 0.000084 0.000460 0.001519 0.032883 -0.002576 0.010903
# 5 0.000614 -0.000407 0.002095 -0.002576 0.026041 0.002555
# 6 -0.002683 0.004177 0.000103 0.010903 0.002555 0.031073
#
#
# Mechanical properties :
#
#
# Convention : Reuss Voigt Hill
#
# Bulk Modulus (GPa) = 59.41501 61.41435 60.41468
# Shear Modulus (GPa) = 36.10227 40.75562 38.42894
#
# Velocity S-wave (km/s) = 4.05658 4.31009 4.18525
# Velocity P-wave (km/s) = 7.00165 7.26378 7.13392
#
# Compressibility (1/GPa) = 0.01683076
#
# Stress axis : x y z
#
# Youngs Moduli (GPa) = 113.62154 85.85357 106.26749
#
# Poissons Ratio (x) = 0.19534 0.17317
# Poissons Ratio (y) = 0.25851 0.27729
# Poissons Ratio (z) = 0.18516 0.22402
#
# Static dielectric constant tensor:
#      x y z
#    x 1.953020 -0.110500 0.042960 
#    y -0.110500 1.892940 -0.051160 
#    z 0.042960 -0.051160 1.813490 
# 
# From -- ./inp_files/274228.got.cif
#   From: 2010.05.17/outbox.cif.g08.bks.cpg/sg2_138_cif.got.tgz:274228.got - 2010.06.03 11:33:40.
