data_PCOD9069106
_publ_section_title
;
Structure prediction by ZEFSAII (Michael W. Deem and Ramdas Pophale) SiO2 
 PCOD9069106
Probable space group: P -1
;
_chemical_formula_sum "Si O2"
_cell_formula_units_Z 14
_cell_length_a 6.515474
_cell_length_b 11.211508
_cell_length_c 11.788218
_cell_angle_alpha 50.968074
_cell_angle_beta 118.270911
_cell_angle_gamma 109.424780
_cell_volume 588.376484
_symmetry_space_group_name_H-M "P -1"
_symmetry_group_IT_number 2
_symmetry_cell_setting 'triclinic'
loop_
_space_group_symop_operation_xyz
x,y,z
-x,-y,-z
loop_
_atom_site_type_symbol
_atom_site_label
_atom_site_fract_x
_atom_site_fract_y
_atom_site_fract_z
Si Si1 0.241558 0.046816 0.098334
Si Si2 0.436594 0.312908 0.830106
Si Si3 0.579183 0.773952 0.378303
Si Si4 0.821527 0.549851 0.829395
Si Si5 0.061665 0.767865 0.592267
Si Si6 0.437244 0.149639 0.316341
Si Si7 0.770968 0.412583 0.445399
O O1 0.249907 0.107388 0.193849
O O2 0.393130 0.899344 0.234845
O O3 0.373624 0.172618 0.977665
O O4 0.000000 0.000000 0.000000
O O5 0.363488 0.281283 0.700021
O O6 0.694538 0.387724 0.857737
O O7 0.306740 0.464688 0.740868
O O8 0.814246 0.845104 0.459021
O O9 0.438859 0.638400 0.493742
O O10 0.960223 0.616325 0.717999
O O11 0.667290 0.697173 0.742834
O O12 0.000000 0.500000 0.000000
O O13 0.302986 0.815756 0.689669
O O14 0.157660 0.738404 0.509605
O O15 0.500000 0.000000 0.500000
O O16 0.000000 0.500000 0.500000
#
# Coordination Sequence:
#
# PCOD9069106 Si02
#       7
#     2   2   2   2   2   2   2
#     4  12  30  50  76 112 160 205 256 325 396 464
#     4  12  25  46  74 113 153 193 256 319 390 456
#     4  12  26  48  75 114 151 208 258 313 397 469
#     4  12  28  46  77 115 152 201 262 331 398 457
#     4  12  24  46  78 108 153 198 264 315 383 473
#     4  12  29  52  79 112 159 210 264 317 397 475
#     4  12  22  42  75 112 149 193 252 316 380 459
#
# _framework density 23.794291999999999
#
# number of rings (size 3 to 8) (size 9 to 14) (size 15 to 20)
#    0.000    0.000    4.286    5.143    6.000    4.571 
#    0.000    0.000    0.000    0.000    0.000    0.000 
#    0.000    0.000    0.000    0.000    0.000    0.000 
#
# Total GULP energy -78032.059179 kJ/mol
# GULP energy per Si atom -5573.718513 kJ/mol
# Density = 2.374013 g / cm^3
# Si number density = 23.794292 Si / 1000 Ang^3
#
#
#
# Elastic Constant Matrix: (Units=GPa)
#
#
# Indices 1 2 3 4 5 6 
#
# 1 83.5924 23.8937 28.9434 -0.4935 3.8125 6.3536
# 2 23.8937 93.9777 26.9450 4.1398 -4.8222 7.2861
# 3 28.9434 26.9450 116.1223 -4.9475 -1.0496 12.3545
# 4 -0.4935 4.1398 -4.9475 45.0900 8.6796 1.2765
# 5 3.8125 -4.8222 -1.0496 8.6796 45.9204 -0.2394
# 6 6.3536 7.2861 12.3545 1.2765 -0.2394 50.1143
#
#
#
# Elastic Compliance Matrix: (Units=1/GPa)
#
#
# Indices 1 2 3 4 5 6 
#
# 1 0.013829 -0.002782 -0.002723 0.000433 -0.001588 -0.000696
# 2 -0.002782 0.012182 -0.002099 -0.001698 0.001779 -0.000849
# 3 -0.002723 -0.002099 0.010031 0.001321 -0.000024 -0.001856
# 4 0.000433 -0.001698 0.001321 0.023392 -0.004609 -0.000752
# 5 -0.001588 0.001779 -0.000024 -0.004609 0.022967 0.000176
# 6 -0.000696 -0.000849 -0.001856 -0.000752 0.000176 0.020644
#
#
# Mechanical properties :
#
#
# Convention : Reuss Voigt Hill
#
# Bulk Modulus (GPa) = 48.00013 50.36186 49.18100
# Shear Modulus (GPa) = 39.93709 42.48564 41.21137
#
# Velocity S-wave (km/s) = 4.10131 4.23015 4.16623
# Velocity P-wave (km/s) = 6.53027 6.71344 6.62249
#
# Compressibility (1/GPa) = 0.02083328
#
# Stress axis : x y z
#
# Youngs Moduli (GPa) = 72.31337 82.08937 99.69095
#
# Poissons Ratio (x) = 0.22835 0.27147
# Poissons Ratio (y) = 0.20116 0.20927
# Poissons Ratio (z) = 0.19692 0.17232
#
# Static dielectric constant tensor:
#      x y z
#    x 2.069990 -0.009820 0.015370 
#    y -0.009820 2.104860 0.066490 
#    z 0.015370 0.066490 1.786460 
# 
# From -- ./inp_files/363758.got.cif
#   From: 2010.05.17/outbox.cif.g08.bks.cpg/sg2_182_cif.got.tgz:363758.got - 2010.06.03 11:33:40.
