data_PCOD9069453
_publ_section_title
;
Structure prediction by ZEFSAII (Michael W. Deem and Ramdas Pophale) SiO2 
 PCOD9069453
Probable space group: P -1
;
_chemical_formula_sum "Si O2"
_cell_formula_units_Z 16
_cell_length_a 9.813631
_cell_length_b 9.072790
_cell_length_c 10.713682
_cell_angle_alpha 94.478577
_cell_angle_beta 91.842649
_cell_angle_gamma 135.435433
_cell_volume 662.054554
_symmetry_space_group_name_H-M "P -1"
_symmetry_group_IT_number 2
_symmetry_cell_setting 'triclinic'
loop_
_space_group_symop_operation_xyz
x,y,z
-x,-y,-z
loop_
_atom_site_type_symbol
_atom_site_label
_atom_site_fract_x
_atom_site_fract_y
_atom_site_fract_z
Si Si1 0.483615 0.151323 0.957946
Si Si2 0.174981 0.835556 0.743313
Si Si3 0.018102 0.820895 0.243309
Si Si4 0.109858 0.326329 0.484966
Si Si5 0.416759 0.505324 0.872447
Si Si6 0.651503 0.716441 0.661947
Si Si7 0.599673 0.199148 0.427268
Si Si8 0.122266 0.586006 0.136991
O O1 0.666932 0.315000 0.882049
O O2 0.288721 0.019970 0.861794
O O3 0.512247 0.272472 0.088235
O O4 0.500000 0.000000 0.000000
O O5 0.326247 0.832403 0.693498
O O6 0.077846 0.836141 0.620859
O O7 0.998764 0.613183 0.789575
O O8 0.955337 0.753438 0.381319
O O9 0.816121 0.679557 0.153490
O O10 0.127154 0.755425 0.202092
O O11 0.156738 0.069188 0.249784
O O12 0.270502 0.334156 0.443478
O O13 0.210126 0.566922 0.496356
O O14 0.512485 0.530184 0.747167
O O15 0.500000 0.500000 0.000000
O O16 0.544415 0.778173 0.608549
O O17 0.500000 0.000000 0.500000
O O18 0.000000 0.500000 0.000000
#
# Coordination Sequence:
#
# PCOD9069453 Si02
#       8
#     2   2   2   2   2   2   2   2
#     4  12  25  47  73 108 148 196 253 307 378 441
#     4  12  27  44  75 114 148 191 258 313 372 459
#     4  12  25  50  78 106 154 197 251 313 383 449
#     4  12  28  50  76 113 158 197 252 317 388 454
#     4  12  29  48  75 109 154 199 254 310 369 462
#     4  12  28  50  78 109 157 207 244 316 390 449
#     4  12  26  49  80 112 151 200 255 312 382 456
#     4  12  23  43  75 108 147 195 246 315 374 435
#
# _framework density 24.167193999999999
#
# number of rings (size 3 to 8) (size 9 to 14) (size 15 to 20)
#    0.000    0.000    5.000    4.125    7.000    0.500 
#    0.000    0.000    0.000    0.000    0.000    0.000 
#    0.000    0.000    0.000    0.000    0.000    0.000 
#
# Total GULP energy -89708.963085 kJ/mol
# GULP energy per Si atom -5606.810193 kJ/mol
# Density = 2.411219 g / cm^3
# Si number density = 24.167194 Si / 1000 Ang^3
#
#
#
# Elastic Constant Matrix: (Units=GPa)
#
#
# Indices 1 2 3 4 5 6 
#
# 1 83.9596 -5.3937 28.9774 -0.7677 7.2343 0.8230
# 2 -5.3937 70.4438 -8.6101 -2.5316 4.2184 19.6492
# 3 28.9774 -8.6101 80.6701 -4.4091 0.1675 8.8834
# 4 -0.7677 -2.5316 -4.4091 50.1650 8.1702 8.4962
# 5 7.2343 4.2184 0.1675 8.1702 61.3594 7.1257
# 6 0.8230 19.6492 8.8834 8.4962 7.1257 27.5348
#
#
#
# Elastic Compliance Matrix: (Units=1/GPa)
#
#
# Indices 1 2 3 4 5 6 
#
# 1 0.013832 0.000031 -0.005170 -0.000250 -0.001791 0.001773
# 2 0.000031 0.019444 0.004105 0.004131 0.000012 -0.016479
# 3 -0.005170 0.004105 0.015841 0.002894 0.000947 -0.009024
# 4 -0.000250 0.004131 0.002894 0.022469 -0.002061 -0.010274
# 5 -0.001791 0.000012 0.000947 -0.002061 0.017255 -0.004090
# 6 0.001773 -0.016479 -0.009024 -0.010274 -0.004090 0.055164
#
#
# Mechanical properties :
#
#
# Convention : Reuss Voigt Hill
#
# Bulk Modulus (GPa) = 21.25534 29.44675 25.35104
# Shear Modulus (GPa) = 30.91058 42.48516 36.69787
#
# Velocity S-wave (km/s) = 3.58023 4.19736 3.90102
# Velocity P-wave (km/s) = 5.08969 5.97507 5.55007
#
# Compressibility (1/GPa) = 0.04704700
#
# Stress axis : x y z
#
# Youngs Moduli (GPa) = 72.29805 51.42988 63.12564
#
# Poissons Ratio (x) = -0.00158 0.32638
# Poissons Ratio (y) = -0.00222 -0.25911
# Poissons Ratio (z) = 0.37381 -0.21110
#
# Static dielectric constant tensor:
#      x y z
#    x 1.910900 0.232130 0.015890 
#    y 0.232130 0.794210 -0.027110 
#    z 0.015890 -0.027110 1.920750 
# 
# From -- ./inp_files/382615.got.cif
#   From: 2010.05.17/outbox.cif.g08.bks.cpg/sg2_192_cif.got.tgz:382615.got - 2010.06.03 11:33:40.
