data_PCOD9069830
_publ_section_title
;
Structure prediction by ZEFSAII (Michael W. Deem and Ramdas Pophale) SiO2 
 PCOD9069830
Probable space group: P -1
;
_chemical_formula_sum "Si O2"
_cell_formula_units_Z 14
_cell_length_a 33.410410
_cell_length_b 32.740707
_cell_length_c 13.315266
_cell_angle_alpha 162.305262
_cell_angle_beta 161.534531
_cell_angle_gamma 8.322656
_cell_volume 635.099197
_symmetry_space_group_name_H-M "P -1"
_symmetry_group_IT_number 2
_symmetry_cell_setting 'triclinic'
loop_
_space_group_symop_operation_xyz
x,y,z
-x,-y,-z
loop_
_atom_site_type_symbol
_atom_site_label
_atom_site_fract_x
_atom_site_fract_y
_atom_site_fract_z
Si Si1 0.483143 0.753045 0.838129
Si Si2 0.501595 0.117070 0.360495
Si Si3 0.495112 0.641923 0.203115
Si Si4 0.069202 0.976571 0.264289
Si Si5 0.299280 0.420080 0.263307
Si Si6 0.970955 0.671146 0.776019
Si Si7 0.986941 0.443877 0.623462
O O1 0.283029 0.816681 0.487614
O O2 0.534880 0.767613 0.884610
O O3 0.795699 0.445316 0.901907
O O4 0.324892 0.994698 0.107535
O O5 0.407617 0.343085 0.613029
O O6 0.306185 0.267972 0.343196
O O7 0.812923 0.833798 0.480028
O O8 0.500000 0.000000 0.000000
O O9 0.492274 0.725476 0.496167
O O10 0.721525 0.308668 0.974672
O O11 0.200290 0.861100 0.981113
O O12 0.924380 0.250710 0.523156
O O13 0.132342 0.451066 0.978018
O O14 0.013606 0.611523 0.620133
O O15 0.000000 0.500000 0.500000
#
# Coordination Sequence:
#
# PCOD9069830 Si02
#       7
#     2   2   2   2   2   2   2
#     4  12  24  42  65 105 139 175 224 278 357 402
#     4  12  27  48  69 101 139 193 223 278 335 409
#     4  12  27  42  71  95 147 182 232 272 338 419
#     4  12  25  44  66 105 139 183 227 283 345 404
#     4  12  26  40  71 109 142 176 221 291 351 414
#     4  12  24  41  70 101 140 180 220 289 354 400
#     4  12  27  44  72 103 144 173 233 280 348 414
#
# _framework density 22.043801999999999
#
# number of rings (size 3 to 8) (size 9 to 14) (size 15 to 20)
#    0.000    0.000    5.714    3.429    8.000    0.000 
#    0.000    0.000    0.000   17.143    0.000    0.000 
#    0.000    0.000    0.000    0.000    0.000    0.000 
#
# Total GULP energy -78301.572069 kJ/mol
# GULP energy per Si atom -5592.969434 kJ/mol
# Density = 2.199363 g / cm^3
# Si number density = 22.043802 Si / 1000 Ang^3
#
#
#
# Elastic Constant Matrix: (Units=GPa)
#
#
# Indices 1 2 3 4 5 6 
#
# 1 91.3521 12.6794 33.8459 -0.2405 -10.6617 -7.9317
# 2 12.6794 91.9290 15.3876 -12.2628 1.2101 -17.2570
# 3 33.8459 15.3876 81.2705 -19.3784 -0.8787 -2.6895
# 4 -0.2405 -12.2628 -19.3784 35.9235 -4.5370 -7.2293
# 5 -10.6617 1.2101 -0.8787 -4.5370 38.2497 -2.8201
# 6 -7.9317 -17.2570 -2.6895 -7.2293 -2.8201 41.3523
#
#
#
# Elastic Compliance Matrix: (Units=1/GPa)
#
#
# Indices 1 2 3 4 5 6 
#
# 1 0.013926 -0.001008 -0.006190 -0.002819 0.003555 0.001598
# 2 -0.001008 0.012983 -0.000536 0.005426 0.000394 0.006165
# 3 -0.006190 -0.000536 0.017254 0.009338 -0.000106 0.001336
# 4 -0.002819 0.005426 0.009338 0.037088 0.004328 0.009110
# 5 0.003555 0.000394 -0.000106 0.004328 0.027891 0.003498
# 6 0.001598 0.006165 0.001336 0.009110 0.003498 0.028980
#
#
# Mechanical properties :
#
#
# Convention : Reuss Voigt Hill
#
# Bulk Modulus (GPa) = 34.84950 43.15304 39.00127
# Shear Modulus (GPa) = 30.64602 36.61436 33.63019
#
# Velocity S-wave (km/s) = 3.73263 4.07994 3.91014
# Velocity P-wave (km/s) = 5.86687 6.46630 6.17387
#
# Compressibility (1/GPa) = 0.02869482
#
# Stress axis : x y z
#
# Youngs Moduli (GPa) = 71.80818 77.02564 57.95880
#
# Poissons Ratio (x) = 0.07761 0.35875
# Poissons Ratio (y) = 0.07236 0.03109
# Poissons Ratio (z) = 0.44447 0.04131
#
# Static dielectric constant tensor:
#      x y z
#    x 1.786980 0.006330 -0.024770 
#    y 0.006330 1.824220 0.006860 
#    z -0.024770 0.006860 1.835090 
# 
# From -- ./inp_files/477847.got.cif
#   From: 2010.05.17/outbox.cif.g08.bks.cpg/sg2_239_cif.got.tgz:477847.got - 2010.06.03 11:33:40.
