data_PCOD9069016
_publ_section_title
;
Structure prediction by ZEFSAII (Michael W. Deem and Ramdas Pophale) SiO2 
 PCOD9069016
Probable space group: P -1
;
_chemical_formula_sum "Si O2"
_cell_formula_units_Z 16
_cell_length_a 11.887115
_cell_length_b 17.551986
_cell_length_c 8.552415
_cell_angle_alpha 30.743111
_cell_angle_beta 64.023077
_cell_angle_gamma 55.952852
_cell_volume 751.860758
_symmetry_space_group_name_H-M "P -1"
_symmetry_group_IT_number 2
_symmetry_cell_setting 'triclinic'
loop_
_space_group_symop_operation_xyz
x,y,z
-x,-y,-z
loop_
_atom_site_type_symbol
_atom_site_label
_atom_site_fract_x
_atom_site_fract_y
_atom_site_fract_z
Si Si1 0.237522 0.331601 0.826148
Si Si2 0.183090 0.063842 0.820932
Si Si3 0.584898 0.278171 0.256474
Si Si4 0.763711 0.243788 0.500168
Si Si5 0.066126 0.602058 0.683217
Si Si6 0.626141 0.832143 0.269548
Si Si7 0.484482 0.435318 0.456579
Si Si8 0.649396 0.989588 0.481942
O O1 0.123393 0.495273 0.679162
O O2 0.254576 0.247082 0.793985
O O3 0.365512 0.377361 0.651994
O O4 0.266910 0.190368 0.184236
O O5 0.295415 0.122947 0.719166
O O6 0.255904 0.982451 0.758314
O O7 0.046465 0.221243 0.598514
O O8 0.152690 0.941547 0.172442
O O9 0.710618 0.267107 0.312284
O O10 0.451852 0.280806 0.427909
O O11 0.627169 0.118708 0.405103
O O12 0.541696 0.430662 0.898075
O O13 0.825810 0.363413 0.329248
O O14 0.621484 0.284044 0.602812
O O15 0.000000 0.500000 0.000000
O O16 0.500000 0.000000 0.000000
O O17 0.500000 0.500000 0.500000
O O18 0.500000 0.000000 0.500000
#
# Coordination Sequence:
#
# PCOD9069016 Si02
#       8
#     2   2   2   2   2   2   2   2
#     4  12  24  44  68 106 142 182 241 293 366 422
#     4  12  25  46  73  99 145 196 244 286 360 437
#     4  12  25  41  71 116 142 180 228 308 373 416
#     4  12  25  47  70 103 145 187 241 302 359 417
#     4  12  29  48  70  99 147 205 243 288 350 440
#     4  12  22  43  75 111 144 175 233 307 372 424
#     4  12  24  41  71 109 141 176 234 304 364 416
#     4  12  22  39  73 106 138 181 237 294 365 428
#
# _framework density 21.280536000000001
#
# number of rings (size 3 to 8) (size 9 to 14) (size 15 to 20)
#    0.000    0.000    7.500    3.000    1.750    0.500 
#    0.000    0.625    0.000    0.000    0.000    0.000 
#    0.000    0.000    0.000    0.000    0.000    0.000 
#
# Total GULP energy -89339.752983 kJ/mol
# GULP energy per Si atom -5583.734561 kJ/mol
# Density = 2.123210 g / cm^3
# Si number density = 21.280536 Si / 1000 Ang^3
#
#
#
# Elastic Constant Matrix: (Units=GPa)
#
#
# Indices 1 2 3 4 5 6 
#
# 1 21.0214 49.5897 22.1540 14.3122 6.9535 -4.4406
# 2 49.5897 111.9103 1.4094 -16.7406 10.0136 20.1422
# 3 22.1540 1.4094 117.4594 1.5099 4.7545 8.5951
# 4 14.3122 -16.7406 1.5099 30.1955 -4.7791 6.5911
# 5 6.9535 10.0136 4.7545 -4.7791 32.0319 4.6050
# 6 -4.4406 20.1422 8.5951 6.5911 4.6050 26.0284
#
#
#
# Elastic Compliance Matrix: (Units=1/GPa)
#
#
# Indices 1 2 3 4 5 6 
#
# 1 -0.019767 0.016314 0.004801 0.024487 0.005696 -0.024791
# 2 0.016314 -0.000833 -0.003305 -0.010704 -0.005568 0.008215
# 3 0.004801 -0.003305 0.007618 -0.005437 -0.002332 0.002651
# 4 0.024487 -0.010704 -0.005437 0.013324 -0.000758 0.011016
# 5 0.005696 -0.005568 -0.002332 -0.000758 0.031869 0.000605
# 6 -0.024791 0.008215 0.002651 0.011016 0.000605 0.024061
#
#
# Mechanical properties :
#
#
# Convention : Reuss Voigt Hill
#
# Bulk Modulus (GPa) = 44.17360 44.07748 44.12554
# Shear Modulus (GPa) = 177.32485 29.46705 103.39595
#
# Velocity S-wave (km/s) = 9.13828 3.72519 6.97801
# Velocity P-wave (km/s) = 11.49552 6.26580 9.25762
#
# Compressibility (1/GPa) = 0.02263796
#
# Stress axis : x y z
#
# Youngs Moduli (GPa) = -50.58876 -1200.00679 131.26818
#
# Poissons Ratio (x) = 19.57706 -0.63026
# Poissons Ratio (y) = 0.82531 0.43386
# Poissons Ratio (z) = 0.24289 -3.96622
#
# Static dielectric constant tensor:
#      x y z
#    x 1.874930 0.208620 0.068890 
#    y 0.208620 2.080190 0.058990 
#    z 0.068890 0.058990 1.825010 
# 
# From -- ./inp_files/217118.got.cif
#   From: 2010.05.17/outbox.cif.g08.bks.cpg/sg2_109_cif.got.tgz:217118.got - 2010.06.03 11:33:40.
