data_PCOD9069316
_publ_section_title
;
Structure prediction by ZEFSAII (Michael W. Deem and Ramdas Pophale) SiO2 
 PCOD9069316
Probable space group: P -1
;
_chemical_formula_sum "Si O2"
_cell_formula_units_Z 16
_cell_length_a 19.250980
_cell_length_b 16.003892
_cell_length_c 9.535751
_cell_angle_alpha 44.801777
_cell_angle_beta 28.262462
_cell_angle_gamma 27.703101
_cell_volume 612.877846
_symmetry_space_group_name_H-M "P -1"
_symmetry_group_IT_number 2
_symmetry_cell_setting 'triclinic'
loop_
_space_group_symop_operation_xyz
x,y,z
-x,-y,-z
loop_
_atom_site_type_symbol
_atom_site_label
_atom_site_fract_x
_atom_site_fract_y
_atom_site_fract_z
Si Si1 0.271341 0.837512 0.824786
Si Si2 0.145554 0.674447 0.335563
Si Si3 0.957448 0.165952 0.375689
Si Si4 0.618754 0.055110 0.277130
Si Si5 0.196819 0.446861 0.132505
Si Si6 0.101418 0.428501 0.746850
Si Si7 0.392060 0.937095 0.245407
Si Si8 0.935534 0.228981 0.035760
O O1 0.374257 0.817485 0.815642
O O2 0.393808 0.841081 0.485325
O O3 0.002662 0.061617 0.047435
O O4 0.282777 0.688869 0.986507
O O5 0.164933 0.699073 0.435414
O O6 0.164949 0.521168 0.470723
O O7 0.875028 0.872982 0.543742
O O8 0.836954 0.268787 0.318324
O O9 0.000000 0.000000 0.500000
O O10 0.224363 0.044366 0.022336
O O11 0.201468 0.115577 0.724386
O O12 0.346474 0.200968 0.575568
O O13 0.097666 0.500058 0.085220
O O14 0.000000 0.500000 0.500000
O O15 0.204260 0.577481 0.013744
O O16 0.445914 0.228152 0.960234
O O17 0.000000 0.500000 0.000000
O O18 0.500000 0.000000 0.000000
#
# Coordination Sequence:
#
# PCOD9069316 Si02
#       8
#     2   2   2   2   2   2   2   2
#     4   9  21  45  66  95 127 169 212 273 331 382
#     4  12  23  41  70  95 133 169 219 272 321 394
#     4   9  17  41  64  95 126 165 205 266 334 381
#     4   8  21  39  66  89 128 161 210 262 330 376
#     4  12  26  43  64  93 130 179 222 266 321 393
#     4  12  26  41  64 102 131 172 222 268 329 390
#     4  12  25  44  64  93 133 176 215 267 328 386
#     4   8  20  40  65  85 131 158 212 263 321 380
#
# _framework density 26.106342000000001
#
# number of rings (size 3 to 8) (size 9 to 14) (size 15 to 20)
#    1.500    0.000    3.750    2.625    1.750    1.000 
#    2.250    0.625    0.000    0.000    0.000    0.000 
#    0.000    0.000    0.000    0.000    0.000    0.000 
#
# Total GULP energy -89307.962488 kJ/mol
# GULP energy per Si atom -5581.747655 kJ/mol
# Density = 2.604692 g / cm^3
# Si number density = 26.106342 Si / 1000 Ang^3
#
#
#
# Elastic Constant Matrix: (Units=GPa)
#
#
# Indices 1 2 3 4 5 6 
#
# 1 69.8756 1.5028 11.6356 -13.7630 8.2671 12.0002
# 2 1.5028 121.3664 46.3478 -25.3202 -14.5424 3.0055
# 3 11.6356 46.3478 112.7712 -29.1395 9.9250 -3.2868
# 4 -13.7630 -25.3202 -29.1395 66.4157 2.2206 -17.1369
# 5 8.2671 -14.5424 9.9250 2.2206 39.3333 -8.1053
# 6 12.0002 3.0055 -3.2868 -17.1369 -8.1053 32.0691
#
#
#
# Elastic Compliance Matrix: (Units=1/GPa)
#
#
# Indices 1 2 3 4 5 6 
#
# 1 0.016472 0.000162 -0.001209 0.001361 -0.004560 -0.006728
# 2 0.000162 0.010998 -0.004337 0.002428 0.005212 0.001079
# 3 -0.001209 -0.004337 0.012421 0.004603 -0.004006 0.003579
# 4 0.001361 0.002428 0.004603 0.021149 0.000559 0.011178
# 5 -0.004560 0.005212 -0.004006 0.000559 0.031138 0.008976
# 6 -0.006728 0.001079 0.003579 0.011178 0.008976 0.042208
#
#
# Mechanical properties :
#
#
# Convention : Reuss Voigt Hill
#
# Bulk Modulus (GPa) = 34.33691 46.99841 40.66766
# Shear Modulus (GPa) = 32.28683 43.86541 38.07612
#
# Velocity S-wave (km/s) = 3.52055 4.10354 3.82318
# Velocity P-wave (km/s) = 5.45041 6.36348 5.92456
#
# Compressibility (1/GPa) = 0.02912318
#
# Stress axis : x y z
#
# Youngs Moduli (GPa) = 60.70861 90.92705 80.50959
#
# Poissons Ratio (x) = -0.01472 0.09735
# Poissons Ratio (y) = -0.00983 0.34914
# Poissons Ratio (z) = 0.07341 0.39431
#
# Static dielectric constant tensor:
#      x y z
#    x 2.207070 0.011470 -0.020680 
#    y 0.011470 2.061270 -0.012170 
#    z -0.020680 -0.012170 2.117020 
# 
# From -- ./inp_files/475432.got.cif
#   From: 2010.05.17/outbox.cif.g08.bks.cpg/sg2_238_cif.got.tgz:475432.got - 2010.06.03 11:33:40.
