data_PCOD9069176
_publ_section_title
;
Structure prediction by ZEFSAII (Michael W. Deem and Ramdas Pophale) SiO2 
 PCOD9069176
Probable space group: P -1
;
_chemical_formula_sum "Si O2"
_cell_formula_units_Z 16
_cell_length_a 11.695423
_cell_length_b 8.308766
_cell_length_c 14.298331
_cell_angle_alpha 140.847790
_cell_angle_beta 59.929334
_cell_angle_gamma 123.280211
_cell_volume 725.841021
_symmetry_space_group_name_H-M "P -1"
_symmetry_group_IT_number 2
_symmetry_cell_setting 'triclinic'
loop_
_space_group_symop_operation_xyz
x,y,z
-x,-y,-z
loop_
_atom_site_type_symbol
_atom_site_label
_atom_site_fract_x
_atom_site_fract_y
_atom_site_fract_z
Si Si1 0.085947 0.954886 0.664538
Si Si2 0.937669 0.682310 0.863445
Si Si3 0.792151 0.716146 0.750123
Si Si4 0.355089 0.842806 0.941702
Si Si5 0.624894 0.381030 0.377040
Si Si6 0.901086 0.728532 0.379550
Si Si7 0.865504 0.565229 0.039560
Si Si8 0.639749 0.203544 0.493966
O O1 0.216264 0.844708 0.552315
O O2 0.927155 0.774609 0.652551
O O3 0.102425 0.191651 0.690433
O O4 0.105827 0.117275 0.825195
O O5 0.843022 0.623371 0.784405
O O6 0.055377 0.535782 0.737160
O O7 0.858099 0.516202 0.910190
O O8 0.000000 0.000000 0.000000
O O9 0.663578 0.502799 0.658144
O O10 0.746596 0.973339 0.915631
O O11 0.371403 0.761461 0.789868
O O12 0.275317 0.583354 0.917334
O O13 0.500000 0.000000 0.000000
O O14 0.500000 0.500000 0.500000
O O15 0.751040 0.651126 0.448076
O O16 0.634499 0.203996 0.383742
O O17 0.000000 0.000000 0.500000
O O18 0.000000 0.500000 0.000000
O O19 0.500000 0.000000 0.500000
#
# Coordination Sequence:
#
# PCOD9069176 Si02
#       8
#     2   2   2   2   2   2   2   2
#     4  12  23  43  74 101 141 179 237 288 351 411
#     4  12  23  41  72 108 142 178 232 301 357 414
#     4  12  25  46  72 108 140 181 239 296 348 421
#     4  12  27  47  73 104 140 186 238 291 355 424
#     4  12  26  48  71 100 142 190 233 288 357 427
#     4  12  24  42  72 104 136 184 238 289 352 421
#     4  12  22  44  72 103 136 182 228 292 349 420
#     4  12  29  48  70 102 148 191 233 288 356 425
#
# _framework density 22.043395
#
# number of rings (size 3 to 8) (size 9 to 14) (size 15 to 20)
#    0.000    0.000    5.000    4.875    3.500    2.000 
#    0.000    1.250    0.000    0.000    0.000    0.000 
#    0.000    0.000    0.000    0.000    0.000    0.000 
#
# Total GULP energy -89309.273380 kJ/mol
# GULP energy per Si atom -5581.829586 kJ/mol
# Density = 2.199322 g / cm^3
# Si number density = 22.043395 Si / 1000 Ang^3
#
#
#
# Elastic Constant Matrix: (Units=GPa)
#
#
# Indices 1 2 3 4 5 6 
#
# 1 96.5192 58.7015 32.6531 -7.9844 3.6334 10.0949
# 2 58.7015 161.3889 44.8257 -19.5601 15.7954 29.0944
# 3 32.6531 44.8257 99.9355 0.1907 -4.7024 14.2084
# 4 -7.9844 -19.5601 0.1907 40.5844 -6.0563 2.9293
# 5 3.6334 15.7954 -4.7024 -6.0563 41.8659 -0.5604
# 6 10.0949 29.0944 14.2084 2.9293 -0.5604 48.2396
#
#
#
# Elastic Compliance Matrix: (Units=1/GPa)
#
#
# Indices 1 2 3 4 5 6 
#
# 1 0.013896 -0.004345 -0.002646 0.000655 0.000237 0.000455
# 2 -0.004345 0.010144 -0.002621 0.003903 -0.003243 -0.004712
# 3 -0.002646 -0.002621 0.012360 -0.001385 0.002388 -0.001394
# 4 0.000655 0.003903 -0.001385 0.027254 0.002208 -0.003712
# 5 0.000237 -0.003243 0.002388 0.002208 0.025695 0.001368
# 6 0.000455 -0.004712 -0.001394 -0.003712 0.001368 0.024128
#
#
# Mechanical properties :
#
#
# Convention : Reuss Voigt Hill
#
# Bulk Modulus (GPa) = 58.22029 70.02267 64.12148
# Shear Modulus (GPa) = 36.12012 40.91554 38.51783
#
# Velocity S-wave (km/s) = 4.05234 4.31296 4.18468
# Velocity P-wave (km/s) = 6.95445 7.52576 7.24573
#
# Compressibility (1/GPa) = 0.01717614
#
# Stress axis : x y z
#
# Youngs Moduli (GPa) = 71.96173 98.57600 80.90780
#
# Poissons Ratio (x) = 0.42835 0.21410
# Poissons Ratio (y) = 0.31270 0.21202
# Poissons Ratio (z) = 0.19043 0.25833
#
# Static dielectric constant tensor:
#      x y z
#    x 1.928930 -0.020050 0.039960 
#    y -0.020050 1.793710 -0.038220 
#    z 0.039960 -0.038220 2.401080 
# 
# From -- ./inp_files/516357.got.cif
#   From: 2010.05.17/outbox.cif.g08.bks.cpg/sg2_259_cif.got.tgz:516357.got - 2010.06.03 11:33:40.
