data_PCOD9069326
_publ_section_title
;
Structure prediction by ZEFSAII (Michael W. Deem and Ramdas Pophale) SiO2 
 PCOD9069326
Probable space group: P -1
;
_chemical_formula_sum "Si O2"
_cell_formula_units_Z 12
_cell_length_a 12.693162
_cell_length_b 9.651674
_cell_length_c 9.446370
_cell_angle_alpha 47.530984
_cell_angle_beta 45.181431
_cell_angle_gamma 47.704558
_cell_volume 560.961163
_symmetry_space_group_name_H-M "P -1"
_symmetry_group_IT_number 2
_symmetry_cell_setting 'triclinic'
loop_
_space_group_symop_operation_xyz
x,y,z
-x,-y,-z
loop_
_atom_site_type_symbol
_atom_site_label
_atom_site_fract_x
_atom_site_fract_y
_atom_site_fract_z
Si Si1 0.420218 0.993311 0.927469
Si Si2 0.126611 0.494337 0.119148
Si Si3 0.689538 0.373275 0.395768
Si Si4 0.624719 0.612539 0.810923
Si Si5 0.835882 0.969750 0.656619
Si Si6 0.244549 0.362452 0.636208
O O1 0.536010 0.811489 0.851121
O O2 0.355343 0.193074 0.755947
O O3 0.500000 0.000000 0.000000
O O4 0.260497 0.965432 0.150191
O O5 0.212064 0.508761 0.174718
O O6 0.144358 0.260827 0.236415
O O7 0.937220 0.627234 0.204102
O O8 0.225538 0.558113 0.860534
O O9 0.500000 0.500000 0.500000
O O10 0.762215 0.429589 0.430006
O O11 0.734721 0.132352 0.521828
O O12 0.673219 0.662225 0.576532
O O13 0.500000 0.500000 0.000000
O O14 0.000000 0.000000 0.500000
#
# Coordination Sequence:
#
# PCOD9069326 Si02
#       6
#     2   2   2   2   2   2
#     4  12  24  47  74 103 140 188 243 296 351 426
#     4  12  25  48  70 107 149 189 241 299 351 435
#     4  12  24  41  74 107 140 189 246 290 356 427
#     4  12  27  47  70 103 148 191 239 296 365 425
#     4  12  23  41  73 106 140 183 243 295 353 416
#     4  12  24  45  70 101 147 192 229 300 366 417
#
# _framework density 21.391855
#
# number of rings (size 3 to 8) (size 9 to 14) (size 15 to 20)
#    0.000    0.000    5.000    6.500    0.000    0.000 
#    3.000    0.833    0.000    0.000    0.000    0.000 
#    0.000    0.000    0.000    0.000    0.000    0.000 
#
# Total GULP energy -67116.017451 kJ/mol
# GULP energy per Si atom -5593.001454 kJ/mol
# Density = 2.134317 g / cm^3
# Si number density = 21.391855 Si / 1000 Ang^3
#
#
#
# Elastic Constant Matrix: (Units=GPa)
#
#
# Indices 1 2 3 4 5 6 
#
# 1 136.8573 52.2115 74.1263 11.6325 5.6074 -18.6229
# 2 52.2115 88.6023 65.0751 -11.9275 13.3243 -21.9405
# 3 74.1263 65.0751 198.6531 15.4755 8.9891 -3.9203
# 4 11.6325 -11.9275 15.4755 42.5958 -2.5565 -4.6430
# 5 5.6074 13.3243 8.9891 -2.5565 41.7099 9.9507
# 6 -18.6229 -21.9405 -3.9203 -4.6430 9.9507 32.8065
#
#
#
# Elastic Compliance Matrix: (Units=1/GPa)
#
#
# Indices 1 2 3 4 5 6 
#
# 1 0.010879 -0.004457 -0.002289 -0.003127 -0.000354 0.002586
# 2 -0.004457 0.028064 -0.007687 0.013455 -0.010774 0.020493
# 3 -0.002289 -0.007687 0.008580 -0.005256 0.002222 -0.006832
# 4 -0.003127 0.013455 -0.005256 0.031106 -0.003733 0.012130
# 5 -0.000354 -0.010774 0.002222 -0.003733 0.030816 -0.017016
# 6 0.002586 0.020493 -0.006832 0.012130 -0.017016 0.051716
#
#
# Mechanical properties :
#
#
# Convention : Reuss Voigt Hill
#
# Bulk Modulus (GPa) = 53.59428 89.65984 71.62706
# Shear Modulus (GPa) = 25.47818 38.93576 32.20697
#
# Velocity S-wave (km/s) = 3.45486 4.27092 3.88438
# Velocity P-wave (km/s) = 6.40490 8.14402 7.32625
#
# Compressibility (1/GPa) = 0.01865871
#
# Stress axis : x y z
#
# Youngs Moduli (GPa) = 91.91888 35.63236 116.55051
#
# Poissons Ratio (x) = 0.15882 0.26676
# Poissons Ratio (y) = 0.40969 0.89587
# Poissons Ratio (z) = 0.21038 0.27389
#
# Static dielectric constant tensor:
#      x y z
#    x 1.809250 -0.045130 -0.033620 
#    y -0.045130 1.812790 -0.033310 
#    z -0.033620 -0.033310 1.805730 
# 
# From -- ./inp_files/148686.got.cif
#   From: 2010.05.17/outbox.cif.g08.bks.cpg/sg2_75_cif.got.tgz:148686.got - 2010.06.03 11:33:40.
