data_PCOD9069771
_publ_section_title
;
Structure prediction by ZEFSAII (Michael W. Deem and Ramdas Pophale) SiO2 
 PCOD9069771
Probable space group: P -1
;
_chemical_formula_sum "Si O2"
_cell_formula_units_Z 12
_cell_length_a 9.657526
_cell_length_b 8.715874
_cell_length_c 11.351379
_cell_angle_alpha 138.688532
_cell_angle_beta 51.404864
_cell_angle_gamma 131.101938
_cell_volume 458.787122
_symmetry_space_group_name_H-M "P -1"
_symmetry_group_IT_number 2
_symmetry_cell_setting 'triclinic'
loop_
_space_group_symop_operation_xyz
x,y,z
-x,-y,-z
loop_
_atom_site_type_symbol
_atom_site_label
_atom_site_fract_x
_atom_site_fract_y
_atom_site_fract_z
Si Si1 0.020699 0.248129 0.703072
Si Si2 0.695145 0.242883 0.538663
Si Si3 0.039704 0.050206 0.826112
Si Si4 0.409259 0.089400 0.985313
Si Si5 0.645436 0.380485 0.400276
Si Si6 0.726403 0.455955 0.905704
O O1 0.092182 0.215024 0.773931
O O2 0.162687 0.479421 0.690580
O O3 0.829673 0.302788 0.838547
O O4 0.000000 0.000000 0.500000
O O5 0.674008 0.414835 0.543336
O O6 0.726843 0.358802 0.717588
O O7 0.500000 0.000000 0.500000
O O8 0.870206 0.159599 0.359439
O O9 0.153468 0.249408 0.979427
O O10 0.812236 0.957426 0.902637
O O11 0.525014 0.363121 0.027007
O O12 0.500000 0.000000 0.000000
O O13 0.420235 0.905524 0.767873
O O14 0.500000 0.500000 0.500000
#
# Coordination Sequence:
#
# PCOD9069771 Si02
#       6
#     2   2   2   2   2   2
#     4  12  23  48  79 115 157 213 264 325 394 480
#     4  12  28  54  80 119 162 214 273 334 408 481
#     4  12  27  51  83 119 166 207 271 340 396 479
#     4  12  25  48  82 121 157 210 273 324 403 484
#     4  12  27  50  79 114 156 211 273 329 405 488
#     4  12  25  51  80 118 165 210 267 333 401 475
#
# _framework density 26.155920999999999
#
# number of rings (size 3 to 8) (size 9 to 14) (size 15 to 20)
#    0.000    0.000    6.667    3.500    0.000    2.000 
#    3.000    0.000    0.000    0.000    0.000    0.000 
#    0.000    0.000    0.000    0.000    0.000    0.000 
#
# Total GULP energy -67408.554872 kJ/mol
# GULP energy per Si atom -5617.379573 kJ/mol
# Density = 2.609639 g / cm^3
# Si number density = 26.155921 Si / 1000 Ang^3
#
#
#
# Elastic Constant Matrix: (Units=GPa)
#
#
# Indices 1 2 3 4 5 6 
#
# 1 144.7292 56.2970 71.2346 -9.4776 3.5170 -6.1985
# 2 56.2970 125.1475 22.6062 -21.3115 1.6182 8.7623
# 3 71.2346 22.6062 146.5223 -0.7496 2.8532 9.0591
# 4 -9.4776 -21.3115 -0.7496 39.3047 -2.3633 0.9438
# 5 3.5170 1.6182 2.8532 -2.3633 61.6320 -9.5526
# 6 -6.1985 8.7623 9.0591 0.9438 -9.5526 60.7040
#
#
#
# Elastic Compliance Matrix: (Units=1/GPa)
#
#
# Indices 1 2 3 4 5 6 
#
# 1 0.011084 -0.004239 -0.004889 0.000227 0.000099 0.002485
# 2 -0.004239 0.010782 0.000562 0.004874 -0.000219 -0.002183
# 3 -0.004889 0.000562 0.009247 -0.000680 -0.000504 -0.002029
# 4 0.000227 0.004874 -0.000680 0.028198 0.000834 -0.000886
# 5 0.000099 -0.000219 -0.000504 0.000834 0.016704 0.002733
# 6 0.002485 -0.002183 -0.002029 -0.000886 0.002733 0.017789
#
#
# Mechanical properties :
#
#
# Convention : Reuss Voigt Hill
#
# Bulk Modulus (GPa) = 71.53457 79.63051 75.58254
# Shear Modulus (GPa) = 43.25385 50.07890 46.66637
#
# Velocity S-wave (km/s) = 4.07097 4.38039 4.22852
# Velocity P-wave (km/s) = 7.03603 7.48962 7.26637
#
# Compressibility (1/GPa) = 0.01397925
#
# Stress axis : x y z
#
# Youngs Moduli (GPa) = 90.22245 92.74846 108.14492
#
# Poissons Ratio (x) = 0.39321 0.52871
# Poissons Ratio (y) = 0.38250 -0.06076
# Poissons Ratio (z) = 0.44109 -0.05211
#
# Static dielectric constant tensor:
#      x y z
#    x 2.533770 0.333330 -0.460140 
#    y 0.333330 2.309720 -0.193670 
#    z -0.460140 -0.193670 2.558610 
# 
# From -- ./inp_files/383655.got.cif
#   From: 2010.05.17/outbox.cif.g08.bks.cpg/sg2_192_cif.got.tgz:383655.got - 2010.06.03 11:33:40.
