data_PCOD9069507
_publ_section_title
;
Structure prediction by ZEFSAII (Michael W. Deem and Ramdas Pophale) SiO2 
 PCOD9069507
Probable space group: P -1
;
_chemical_formula_sum "Si O2"
_cell_formula_units_Z 14
_cell_length_a 7.536149
_cell_length_b 10.848313
_cell_length_c 14.268231
_cell_angle_alpha 146.209032
_cell_angle_beta 108.454127
_cell_angle_gamma 80.811090
_cell_volume 603.469136
_symmetry_space_group_name_H-M "P -1"
_symmetry_group_IT_number 2
_symmetry_cell_setting 'triclinic'
loop_
_space_group_symop_operation_xyz
x,y,z
-x,-y,-z
loop_
_atom_site_type_symbol
_atom_site_label
_atom_site_fract_x
_atom_site_fract_y
_atom_site_fract_z
Si Si1 0.439224 0.700757 0.670815
Si Si2 0.056467 0.351840 0.691310
Si Si3 0.864066 0.403114 0.331141
Si Si4 0.802180 0.915557 0.966837
Si Si5 0.466580 0.210562 0.691627
Si Si6 0.249503 0.006523 0.693897
Si Si7 0.821310 0.595327 0.935701
O O1 0.500000 0.500000 0.500000
O O2 0.342021 0.553279 0.651332
O O3 0.624189 0.879012 0.845362
O O4 0.318211 0.823534 0.656386
O O5 0.990684 0.466692 0.847596
O O6 0.063168 0.520825 0.710115
O O7 0.733375 0.706673 0.307749
O O8 0.901718 0.133024 0.493510
O O9 0.000000 0.500000 0.500000
O O10 0.805348 0.136241 0.167124
O O11 0.779197 0.704716 0.898397
O O12 0.000000 0.000000 0.000000
O O13 0.432774 0.130516 0.743327
O O14 0.646446 0.410295 0.828479
O O15 0.500000 0.000000 0.500000
O O16 0.157746 0.190147 0.853710
#
# Coordination Sequence:
#
# PCOD9069507 Si02
#       7
#     2   2   2   2   2   2   2
#     4  12  26  43  73 111 156 195 244 309 378 455
#     4  12  26  50  78 107 151 198 249 313 381 444
#     4  12  23  44  72 110 148 187 243 303 378 452
#     4  12  24  44  71 110 147 189 238 302 379 444
#     4  12  29  52  76 105 149 201 256 315 374 443
#     4  12  27  50  74 112 148 199 257 305 374 449
#     4  12  26  50  76 108 151 192 255 313 374 447
#
# _framework density 23.199197000000002
#
# number of rings (size 3 to 8) (size 9 to 14) (size 15 to 20)
#    0.000    0.000    5.714    3.857    4.000    0.571 
#    2.571    0.000    0.000    0.000    0.000    0.000 
#    0.000    0.000    0.000    0.000    0.000    0.000 
#
# Total GULP energy -78098.939573 kJ/mol
# GULP energy per Si atom -5578.495684 kJ/mol
# Density = 2.314639 g / cm^3
# Si number density = 23.199197 Si / 1000 Ang^3
#
#
#
# Elastic Constant Matrix: (Units=GPa)
#
#
# Indices 1 2 3 4 5 6 
#
# 1 109.7650 36.0131 38.2793 -0.1221 -14.2701 25.6158
# 2 36.0131 117.2809 15.4278 11.6226 -6.7454 16.3449
# 3 38.2793 15.4278 124.0378 10.4792 -21.8161 -4.6414
# 4 -0.1221 11.6226 10.4792 27.5023 9.7869 0.9754
# 5 -14.2701 -6.7454 -21.8161 9.7869 53.7121 -2.6962
# 6 25.6158 16.3449 -4.6414 0.9754 -2.6962 55.4510
#
#
#
# Elastic Compliance Matrix: (Units=1/GPa)
#
#
# Indices 1 2 3 4 5 6 
#
# 1 0.012762 -0.002885 -0.003889 0.002705 0.000685 -0.005385
# 2 -0.002885 0.010150 0.000229 -0.004838 0.001408 -0.001486
# 3 -0.003889 0.000229 0.010639 -0.005887 0.004537 0.002944
# 4 0.002705 -0.004838 -0.005887 0.044439 -0.010458 -0.001607
# 5 0.000685 0.001408 0.004537 -0.010458 0.022772 0.000939
# 6 -0.005385 -0.001486 0.002944 -0.001607 0.000939 0.021280
#
#
# Mechanical properties :
#
#
# Convention : Reuss Voigt Hill
#
# Bulk Modulus (GPa) = 48.87617 58.94711 53.91164
# Shear Modulus (GPa) = 35.22276 44.75731 39.99003
#
# Velocity S-wave (km/s) = 3.90073 4.39710 4.15633
# Velocity P-wave (km/s) = 6.43439 7.15846 6.80606
#
# Compressibility (1/GPa) = 0.02045987
#
# Stress axis : x y z
#
# Youngs Moduli (GPa) = 78.35700 98.52236 93.99063
#
# Poissons Ratio (x) = 0.28428 0.36554
# Poissons Ratio (y) = 0.22609 -0.02150
# Poissons Ratio (z) = 0.30474 -0.02253
#
# Static dielectric constant tensor:
#      x y z
#    x 0.867150 -0.143410 0.581490 
#    y -0.143410 1.861540 0.076270 
#    z 0.581490 0.076270 1.569510 
# 
# From -- ./inp_files/222362.got.cif
#   From: 2010.05.17/outbox.cif.g08.bks.cpg/sg2_112_cif.got.tgz:222362.got - 2010.06.03 11:33:40.
