data_PCOD9069460
_publ_section_title
;
Structure prediction by ZEFSAII (Michael W. Deem and Ramdas Pophale) SiO2 
 PCOD9069460
Probable space group: P -1
;
_chemical_formula_sum "Si O2"
_cell_formula_units_Z 12
_cell_length_a 17.297018
_cell_length_b 17.819052
_cell_length_c 9.059799
_cell_angle_alpha 136.048032
_cell_angle_beta 43.659588
_cell_angle_gamma 164.069941
_cell_volume 524.755019
_symmetry_space_group_name_H-M "P -1"
_symmetry_group_IT_number 2
_symmetry_cell_setting 'triclinic'
loop_
_space_group_symop_operation_xyz
x,y,z
-x,-y,-z
loop_
_atom_site_type_symbol
_atom_site_label
_atom_site_fract_x
_atom_site_fract_y
_atom_site_fract_z
Si Si1 0.289292 0.407818 0.118049
Si Si2 0.711281 0.114765 0.771448
Si Si3 0.316226 0.230051 0.395717
Si Si4 0.309987 0.562307 0.585623
Si Si5 0.255725 0.060021 0.939768
Si Si6 0.801778 0.238295 0.485070
O O1 0.193620 0.379748 0.361159
O O2 0.472416 0.657451 0.126284
O O3 0.500000 0.500000 0.000000
O O4 0.025370 0.126761 0.992546
O O5 0.797931 0.242059 0.673635
O O6 0.017011 0.353582 0.761327
O O7 0.511148 0.832912 0.620674
O O8 0.500000 0.000000 0.000000
O O9 0.500000 0.500000 0.500000
O O10 0.473035 0.309879 0.427929
O O11 0.319519 0.144988 0.139834
O O12 0.000000 0.000000 0.500000
O O13 0.163327 0.855545 0.743594
O O14 0.000000 0.500000 0.500000
O O15 0.500000 0.000000 0.500000
#
# Coordination Sequence:
#
# PCOD9069460 Si02
#       6
#     2   2   2   2   2   2
#     4  12  23  43  76 106 141 194 247 309 376 447
#     4  12  27  50  74 112 148 198 256 313 381 445
#     4  12  27  48  72 111 152 199 248 304 381 455
#     4  12  24  48  73 107 154 193 248 313 372 451
#     4  12  25  47  71 107 150 190 253 307 371 456
#     4  12  26  48  78 107 149 196 256 315 378 448
#
# _framework density 22.867813000000002
#
# number of rings (size 3 to 8) (size 9 to 14) (size 15 to 20)
#    0.000    0.000    3.333    7.000    2.333    0.000 
#    0.000    0.000    0.000    0.000    0.000    0.000 
#    0.000    0.000    0.000    0.000    0.000    0.000 
#
# Total GULP energy -67103.242641 kJ/mol
# GULP energy per Si atom -5591.936887 kJ/mol
# Density = 2.281577 g / cm^3
# Si number density = 22.867813 Si / 1000 Ang^3
#
#
#
# Elastic Constant Matrix: (Units=GPa)
#
#
# Indices 1 2 3 4 5 6 
#
# 1 110.1699 40.3060 29.4452 -9.2420 2.6774 8.5492
# 2 40.3060 169.4308 23.2008 -10.2066 -3.4923 10.7832
# 3 29.4452 23.2008 94.6682 -5.4073 6.3154 -17.4853
# 4 -9.2420 -10.2066 -5.4073 32.7146 14.8778 -3.4686
# 5 2.6774 -3.4923 6.3154 14.8778 30.7286 -2.6800
# 6 8.5492 10.7832 -17.4853 -3.4686 -2.6800 51.1938
#
#
#
# Elastic Compliance Matrix: (Units=1/GPa)
#
#
# Indices 1 2 3 4 5 6 
#
# 1 0.011087 -0.001933 -0.003135 0.002687 -0.002055 -0.002440
# 2 -0.001933 0.006698 -0.001298 0.000884 0.000643 -0.001438
# 3 -0.003135 -0.001298 0.013267 0.003129 -0.003649 0.005349
# 4 0.002687 0.000884 0.003129 0.041827 -0.020838 0.002177
# 5 -0.002055 0.000643 -0.003649 -0.020838 0.043620 -0.000167
# 6 -0.002440 -0.001438 0.005349 0.002177 -0.000167 0.022210
#
#
# Mechanical properties :
#
#
# Convention : Reuss Voigt Hill
#
# Bulk Modulus (GPa) = 54.58913 62.24142 58.41527
# Shear Modulus (GPa) = 31.73673 41.68185 36.70929
#
# Velocity S-wave (km/s) = 3.72941 4.27398 4.01094
# Velocity P-wave (km/s) = 6.51675 7.18560 6.85933
#
# Compressibility (1/GPa) = 0.01831867
#
# Stress axis : x y z
#
# Youngs Moduli (GPa) = 90.19783 149.30264 75.37779
#
# Poissons Ratio (x) = 0.28866 0.23629
# Poissons Ratio (y) = 0.17439 0.09785
# Poissons Ratio (z) = 0.28275 0.19380
#
# Static dielectric constant tensor:
#      x y z
#    x 1.841670 -0.021000 0.036690 
#    y -0.021000 1.780040 0.001780 
#    z 0.036690 0.001780 1.787700 
# 
# From -- ./inp_files/315839.got.cif
#   From: 2010.05.17/outbox.cif.g08.bks.cpg/sg2_158_cif.got.tgz:315839.got - 2010.06.03 11:33:40.
