data_PCOD9069851
_publ_section_title
;
Structure prediction by ZEFSAII (Michael W. Deem and Ramdas Pophale) SiO2 
 PCOD9069851
Probable space group: P -1
;
_chemical_formula_sum "Si O2"
_cell_formula_units_Z 14
_cell_length_a 5.160084
_cell_length_b 28.044036
_cell_length_c 4.974425
_cell_angle_alpha 89.957610
_cell_angle_beta 61.590539
_cell_angle_gamma 89.427142
_cell_volume 633.117557
_symmetry_space_group_name_H-M "P -1"
_symmetry_group_IT_number 2
_symmetry_cell_setting 'triclinic'
loop_
_space_group_symop_operation_xyz
x,y,z
-x,-y,-z
loop_
_atom_site_type_symbol
_atom_site_label
_atom_site_fract_x
_atom_site_fract_y
_atom_site_fract_z
Si Si1 0.207005 0.831951 0.253942
Si Si2 0.138830 0.131819 0.071451
Si Si3 0.145274 0.309730 0.307522
Si Si4 0.806780 0.274257 0.975521
Si Si5 0.172427 0.020518 0.164743
Si Si6 0.516931 0.551590 0.628038
Si Si7 0.146296 0.413709 0.040676
O O1 0.199043 0.778600 0.143073
O O2 0.016874 0.838219 0.615772
O O3 0.540144 0.847316 0.145938
O O4 0.061887 0.864865 0.094321
O O5 0.170907 0.077602 0.153771
O O6 0.150140 0.362026 0.175644
O O7 0.955712 0.306835 0.672589
O O8 0.476918 0.292166 0.198548
O O9 0.996422 0.277128 0.152623
O O10 0.000000 0.000000 0.500000
O O11 0.500000 0.000000 0.000000
O O12 0.000000 0.000000 0.000000
O O13 0.500000 0.500000 0.500000
O O14 0.705918 0.552329 0.807724
O O15 0.188091 0.570190 0.849453
O O16 0.670369 0.584285 0.325302
#
# Coordination Sequence:
#
# PCOD9069851 Si02
#       7
#     2   2   2   2   2   2   2
#     4  12  25  43  66  94 128 166 210 262 316 375
#     4  12  25  44  67  96 129 168 211 260 316 375
#     4  12  25  43  66  94 128 169 213 262 316 378
#     4  12  24  43  65  94 126 166 212 262 315 375
#     4  12  25  44  67  96 129 168 211 260 313 375
#     4  12  24  42  66  96 129 168 213 264 318 378
#     4  12  24  43  65  94 129 169 212 262 318 378
#
# _framework density 22.112797
#
# number of rings (size 3 to 8) (size 9 to 14) (size 15 to 20)
#    0.000    0.000    0.000   12.000    0.000    0.000 
#    0.000    0.000    0.000    0.000    0.000    0.000 
#    0.000    0.000    0.000    0.000    0.000    0.000 
#
# Total GULP energy -78542.344999 kJ/mol
# GULP energy per Si atom -5610.167500 kJ/mol
# Density = 2.206247 g / cm^3
# Si number density = 22.112797 Si / 1000 Ang^3
#
#
#
# Elastic Constant Matrix: (Units=GPa)
#
#
# Indices 1 2 3 4 5 6 
#
# 1 54.8736 -19.3680 90.1760 -2.0170 -16.0886 1.7778
# 2 -19.3680 73.1288 -18.1442 -1.6624 -18.3310 3.9756
# 3 90.1760 -18.1442 39.5905 4.2097 -8.0084 -0.8002
# 4 -2.0170 -1.6624 4.2097 28.0790 -4.1054 3.9184
# 5 -16.0886 -18.3310 -8.0084 -4.1054 49.7983 4.2534
# 6 1.7778 3.9756 -0.8002 3.9184 4.2534 30.0918
#
#
#
# Elastic Compliance Matrix: (Units=1/GPa)
#
#
# Indices 1 2 3 4 5 6 
#
# 1 -0.006064 0.002423 0.015438 -0.002524 0.001155 0.000614
# 2 0.002423 0.017686 0.003964 0.002406 0.008461 -0.003884
# 3 0.015438 0.003964 -0.007363 0.003708 0.005819 -0.002937
# 4 -0.002524 0.002406 0.003708 0.036374 0.004126 -0.005390
# 5 0.001155 0.008461 0.005819 0.004126 0.025284 -0.005142
# 6 0.000614 -0.003884 -0.002937 -0.005390 -0.005142 0.035059
#
#
# Mechanical properties :
#
#
# Convention : Reuss Voigt Hill
#
# Bulk Modulus (GPa) = 20.87344 30.32450 25.59897
# Shear Modulus (GPa) = 68.21673 29.25575 48.73624
#
# Velocity S-wave (km/s) = 5.56025 3.64129 4.69975
# Velocity P-wave (km/s) = 7.11912 5.60553 6.40718
#
# Compressibility (1/GPa) = 0.04790777
#
# Stress axis : x y z
#
# Youngs Moduli (GPa) = -164.89915 56.54058 -135.80532
#
# Poissons Ratio (x) = -0.13699 2.09650
# Poissons Ratio (y) = 0.39952 0.53836
# Poissons Ratio (z) = 2.54563 -0.22414
#
# Static dielectric constant tensor:
#      x y z
#    x 1.756880 0.016460 0.008150 
#    y 0.016460 1.815280 -0.013990 
#    z 0.008150 -0.013990 1.746540 
# 
# From -- ./inp_files/14534.got.cif
#   From: 2010.05.17/outbox.cif.g08.bks.cpg/sg2_8_cif.got.tgz:14534.got - 2010.06.03 11:33:40.
