data_PCOD9069784
_publ_section_title
;
Structure prediction by ZEFSAII (Michael W. Deem and Ramdas Pophale) SiO2 
 PCOD9069784
Probable space group: P -1
;
_chemical_formula_sum "Si O2"
_cell_formula_units_Z 16
_cell_length_a 8.834782
_cell_length_b 9.374291
_cell_length_c 13.244961
_cell_angle_alpha 60.087836
_cell_angle_beta 136.675199
_cell_angle_gamma 117.886831
_cell_volume 642.151700
_symmetry_space_group_name_H-M "P -1"
_symmetry_group_IT_number 2
_symmetry_cell_setting 'triclinic'
loop_
_space_group_symop_operation_xyz
x,y,z
-x,-y,-z
loop_
_atom_site_type_symbol
_atom_site_label
_atom_site_fract_x
_atom_site_fract_y
_atom_site_fract_z
Si Si1 0.914716 0.900576 0.108689
Si Si2 0.861905 0.386086 0.700315
Si Si3 0.447643 0.293301 0.859746
Si Si4 0.057324 0.616314 0.886774
Si Si5 0.803257 0.074646 0.433855
Si Si6 0.597404 0.120046 0.794816
Si Si7 0.708395 0.369962 0.402470
Si Si8 0.246265 0.123670 0.315547
O O1 0.732741 0.848779 0.126770
O O2 0.939081 0.718923 0.143602
O O3 0.156597 0.978087 0.244560
O O4 0.816305 0.038000 0.949440
O O5 0.644309 0.267867 0.683309
O O6 0.824247 0.402297 0.557242
O O7 0.923206 0.544130 0.747059
O O8 0.528546 0.213288 0.826336
O O9 0.339956 0.456373 0.726143
O O10 0.677036 0.349993 0.013158
O O11 0.962310 0.781207 0.809554
O O12 0.000000 0.500000 0.000000
O O13 0.839889 0.263589 0.427829
O O14 0.593974 0.033912 0.272331
O O15 0.730041 0.964532 0.536445
O O16 0.000000 0.000000 0.500000
O O17 0.466758 0.249997 0.345257
#
# Coordination Sequence:
#
# PCOD9069784 Si02
#       8
#     2   2   2   2   2   2   2   2
#     4  12  27  47  74 109 151 193 248 312 369 430
#     4  12  26  47  76 109 147 201 246 306 364 440
#     4  12  28  48  74 111 154 192 242 311 373 439
#     4  12  25  46  75 110 147 194 244 301 367 436
#     4  12  28  46  74 111 146 194 244 314 373 431
#     4  12  25  46  76 109 145 195 251 299 372 441
#     4  12  27  50  75 110 150 194 253 300 370 451
#     4  12  23  49  77 103 150 195 251 300 363 445
#
# _framework density 24.916233999999999
#
# number of rings (size 3 to 8) (size 9 to 14) (size 15 to 20)
#    0.000    0.000    6.250    2.625    5.250    3.000 
#    0.000    0.000    0.000    0.000    0.000    0.000 
#    0.000    0.000    0.000    0.000    0.000    0.000 
#
# Total GULP energy -89670.647455 kJ/mol
# GULP energy per Si atom -5604.415466 kJ/mol
# Density = 2.485952 g / cm^3
# Si number density = 24.916234 Si / 1000 Ang^3
#
#
#
# Elastic Constant Matrix: (Units=GPa)
#
#
# Indices 1 2 3 4 5 6 
#
# 1 66.8349 29.4020 13.9434 14.1515 8.5793 -3.7310
# 2 29.4020 105.4046 32.1140 8.5541 -12.5274 1.6682
# 3 13.9434 32.1140 91.6951 8.3495 1.7033 11.6162
# 4 14.1515 8.5541 8.3495 55.7050 -4.6679 4.1768
# 5 8.5793 -12.5274 1.7033 -4.6679 28.5064 3.7575
# 6 -3.7310 1.6682 11.6162 4.1768 3.7575 39.9632
#
#
#
# Elastic Compliance Matrix: (Units=1/GPa)
#
#
# Indices 1 2 3 4 5 6 
#
# 1 0.020592 -0.006387 -0.000716 -0.005304 -0.010347 0.003925
# 2 -0.006387 0.013362 -0.003829 0.000908 0.008293 -0.000916
# 3 -0.000716 -0.003829 0.012917 -0.001079 -0.001972 -0.003363
# 4 -0.005304 0.000908 -0.001079 0.020014 0.005713 -0.002848
# 5 -0.010347 0.008293 -0.001972 0.005713 0.043608 -0.005436
# 6 0.003925 -0.000916 -0.003363 -0.002848 -0.005436 0.027214
#
#
# Mechanical properties :
#
#
# Convention : Reuss Voigt Hill
#
# Bulk Modulus (GPa) = 39.99150 46.09481 43.04316
# Shear Modulus (GPa) = 29.77839 37.39994 33.58917
#
# Velocity S-wave (km/s) = 3.46083 3.87851 3.67561
# Velocity P-wave (km/s) = 5.66172 6.21267 5.94358
#
# Compressibility (1/GPa) = 0.02500531
#
# Stress axis : x y z
#
# Youngs Moduli (GPa) = 48.56247 74.83952 77.41927
#
# Poissons Ratio (x) = 0.47802 0.05545
# Poissons Ratio (y) = 0.31018 0.29645
# Poissons Ratio (z) = 0.03478 0.28657
#
# Static dielectric constant tensor:
#      x y z
#    x 2.016640 0.011550 -0.003810 
#    y 0.011550 1.897140 -0.011980 
#    z -0.003810 -0.011980 1.979950 
# 
# From -- ./inp_files/333650.got.cif
#   From: 2010.05.17/outbox.cif.g08.bks.cpg/sg2_167_cif.got.tgz:333650.got - 2010.06.03 11:33:40.
