data_PCOD9069894
_publ_section_title
;
Structure prediction by ZEFSAII (Michael W. Deem and Ramdas Pophale) SiO2 
 PCOD9069894
Probable space group: P -1
;
_chemical_formula_sum "Si O2"
_cell_formula_units_Z 16
_cell_length_a 9.676495
_cell_length_b 13.944510
_cell_length_c 13.029656
_cell_angle_alpha 137.343799
_cell_angle_beta 40.858308
_cell_angle_gamma 131.624816
_cell_volume 755.852455
_symmetry_space_group_name_H-M "P -1"
_symmetry_group_IT_number 2
_symmetry_cell_setting 'triclinic'
loop_
_space_group_symop_operation_xyz
x,y,z
-x,-y,-z
loop_
_atom_site_type_symbol
_atom_site_label
_atom_site_fract_x
_atom_site_fract_y
_atom_site_fract_z
Si Si1 0.754153 0.422052 0.044627
Si Si2 0.478624 0.141615 0.062003
Si Si3 0.854364 0.394557 0.738121
Si Si4 0.460333 0.315431 0.588596
Si Si5 0.676238 0.659964 0.529937
Si Si6 0.210067 0.128782 0.001427
Si Si7 0.972180 0.373467 0.333399
Si Si8 0.523512 0.838011 0.333882
O O1 0.695036 0.264977 0.008496
O O2 0.591170 0.525231 0.243330
O O3 0.735248 0.398207 0.915031
O O4 0.000000 0.500000 0.000000
O O5 0.362786 0.236184 0.275634
O O6 0.357297 0.097417 0.987263
O O7 0.500000 0.000000 0.000000
O O8 0.916329 0.551681 0.773723
O O9 0.706611 0.274372 0.652673
O O10 0.085637 0.363366 0.607826
O O11 0.338540 0.262190 0.509320
O O12 0.390956 0.225963 0.661678
O O13 0.712177 0.315326 0.425692
O O14 0.500000 0.500000 0.500000
O O15 0.334234 0.157163 0.845230
O O16 0.109768 0.260801 0.198082
O O17 0.000000 0.000000 0.000000
O O18 0.000000 0.500000 0.500000
O O19 0.500000 0.000000 0.500000
#
# Coordination Sequence:
#
# PCOD9069894 Si02
#       8
#     2   2   2   2   2   2   2   2
#     4  12  24  47  72 111 146 190 247 309 369 443
#     4  12  29  48  76 109 150 194 251 307 375 446
#     4  12  24  44  77 105 148 189 244 306 364 435
#     4  12  25  44  76 106 149 187 247 298 364 442
#     4  12  24  46  74 111 146 193 243 299 369 452
#     4  12  29  51  74 104 151 196 249 306 378 446
#     4  12  24  42  77 110 139 192 246 299 366 435
#     4  12  29  48  72 108 149 193 249 308 373 436
#
# _framework density 21.168153
#
# number of rings (size 3 to 8) (size 9 to 14) (size 15 to 20)
#    0.000    0.000    6.250    3.000    5.250    2.000 
#    0.000    1.250    0.000    0.000    0.000    0.000 
#    0.000    0.000    0.000    0.000    0.000    0.000 
#
# Total GULP energy -89469.368078 kJ/mol
# GULP energy per Si atom -5591.835505 kJ/mol
# Density = 2.111997 g / cm^3
# Si number density = 21.168153 Si / 1000 Ang^3
#
#
#
# Elastic Constant Matrix: (Units=GPa)
#
#
# Indices 1 2 3 4 5 6 
#
# 1 112.3929 54.5192 4.5921 -6.6853 6.7913 -13.8049
# 2 54.5192 133.9243 32.6361 -9.2551 -1.4087 -23.4744
# 3 4.5921 32.6361 89.5842 -2.1731 8.4647 -10.5900
# 4 -6.6853 -9.2551 -2.1731 28.6283 -5.8154 -0.5512
# 5 6.7913 -1.4087 8.4647 -5.8154 39.2259 -5.1652
# 6 -13.8049 -23.4744 -10.5900 -0.5512 -5.1652 42.6943
#
#
#
# Elastic Compliance Matrix: (Units=1/GPa)
#
#
# Indices 1 2 3 4 5 6 
#
# 1 0.011498 -0.004812 0.001534 0.000819 -0.002216 0.001195
# 2 -0.004812 0.011258 -0.003576 0.002932 0.002990 0.004147
# 3 0.001534 -0.003576 0.012823 -0.000418 -0.003047 0.001336
# 4 0.000819 0.002932 -0.000418 0.037309 0.005977 0.002978
# 5 -0.002216 0.002990 -0.003047 0.005977 0.028007 0.003637
# 6 0.001195 0.004147 0.001336 0.002978 0.003637 0.026899
#
#
# Mechanical properties :
#
#
# Convention : Reuss Voigt Hill
#
# Bulk Modulus (GPa) = 45.72172 57.71069 51.71621
# Shear Modulus (GPa) = 33.60408 38.38663 35.99536
#
# Velocity S-wave (km/s) = 3.98865 4.26304 4.12812
# Velocity P-wave (km/s) = 6.54665 7.18008 6.87067
#
# Compressibility (1/GPa) = 0.02187144
#
# Stress axis : x y z
#
# Youngs Moduli (GPa) = 86.97006 88.82525 77.98773
#
# Poissons Ratio (x) = 0.42742 -0.11964
# Poissons Ratio (y) = 0.41849 0.27888
# Poissons Ratio (z) = -0.13342 0.31763
#
# Static dielectric constant tensor:
#      x y z
#    x 1.741270 -0.005910 0.022060 
#    y -0.005910 1.800320 -0.029640 
#    z 0.022060 -0.029640 1.764020 
# 
# From -- ./inp_files/392977.got.cif
#   From: 2010.05.17/outbox.cif.g08.bks.cpg/sg2_197_cif.got.tgz:392977.got - 2010.06.03 11:33:40.
