data_PCOD9069244
_publ_section_title
;
Structure prediction by ZEFSAII (Michael W. Deem and Ramdas Pophale) SiO2 
 PCOD9069244
Probable space group: P -1
;
_chemical_formula_sum "Si O2"
_cell_formula_units_Z 14
_cell_length_a 14.122287
_cell_length_b 9.518263
_cell_length_c 8.563984
_cell_angle_alpha 49.383136
_cell_angle_beta 112.654417
_cell_angle_gamma 142.021382
_cell_volume 517.152311
_symmetry_space_group_name_H-M "P -1"
_symmetry_group_IT_number 2
_symmetry_cell_setting 'triclinic'
loop_
_space_group_symop_operation_xyz
x,y,z
-x,-y,-z
loop_
_atom_site_type_symbol
_atom_site_label
_atom_site_fract_x
_atom_site_fract_y
_atom_site_fract_z
Si Si1 0.640165 0.509334 0.241007
Si Si2 0.052774 0.857972 0.627760
Si Si3 0.742486 0.302158 0.651843
Si Si4 0.319206 0.612255 0.959642
Si Si5 0.598108 0.593672 0.647307
Si Si6 0.032895 0.818393 0.997510
Si Si7 0.500000 0.000000 0.000000
Si Si8 0.000000 0.500000 0.500000
O O1 0.672380 0.391707 0.469705
O O2 0.602137 0.357056 0.165402
O O3 0.500762 0.453767 0.242440
O O4 0.809046 0.850634 0.098077
O O5 0.922274 0.589317 0.625744
O O6 0.223666 0.088581 0.488311
O O7 0.062522 0.790198 0.858326
O O8 0.000000 0.000000 0.500000
O O9 0.799414 0.243067 0.594817
O O10 0.632908 0.106966 0.869706
O O11 0.134698 0.308054 0.046660
O O12 0.385438 0.607605 0.168156
O O13 0.371097 0.882721 0.853445
O O14 0.500000 0.500000 0.500000
O O15 0.988129 0.630991 0.251932
#
# Coordination Sequence:
#
# PCOD9069244 Si02
#       8
#     2   2   2   2   2   2   1   1
#     4  12  26  48  86 116 152 201 274 332 384 467
#     4  12  22  47  85 113 149 200 267 323 389 468
#     4  12  27  52  79 115 155 212 263 325 399 474
#     4  12  26  49  74 114 156 213 252 320 398 464
#     4  12  24  43  78 124 148 193 267 335 387 459
#     4  12  25  52  80 114 154 205 256 326 388 476
#     4  12  28  48  78 106 174 204 254 320 402 470
#     4  12  32  48  76 122 158 208 260 320 414 470
#
# _framework density 27.071327
#
# number of rings (size 3 to 8) (size 9 to 14) (size 15 to 20)
#    0.000    0.000    7.143    1.714    4.000    3.429 
#    5.143    0.000    0.000    0.000    0.000    0.000 
#    0.000    0.000    0.000    0.000    0.000    0.000 
#
# Total GULP energy -78012.250721 kJ/mol
# GULP energy per Si atom -5572.303623 kJ/mol
# Density = 2.700971 g / cm^3
# Si number density = 27.071327 Si / 1000 Ang^3
#
#
#
# Elastic Constant Matrix: (Units=GPa)
#
#
# Indices 1 2 3 4 5 6 
#
# 1 119.7335 42.0296 42.3904 -13.0001 -28.6062 18.1508
# 2 42.0296 139.9128 57.0481 7.8289 -26.1955 3.6439
# 3 42.3904 57.0481 176.6327 17.2678 -16.5837 18.6593
# 4 -13.0001 7.8289 17.2678 38.7589 18.7410 -23.5746
# 5 -28.6062 -26.1955 -16.5837 18.7410 42.3193 -2.3247
# 6 18.1508 3.6439 18.6593 -23.5746 -2.3247 52.5126
#
#
#
# Elastic Compliance Matrix: (Units=1/GPa)
#
#
# Indices 1 2 3 4 5 6 
#
# 1 0.011271 -0.001667 -0.001272 -0.000081 0.005954 -0.003101
# 2 -0.001667 0.010071 -0.001050 -0.007709 0.007952 -0.002858
# 3 -0.001272 -0.001050 0.009071 -0.012645 0.007201 -0.008069
# 4 -0.000081 -0.007709 -0.012645 0.075420 -0.041144 0.037093
# 5 0.005954 0.007952 0.007201 -0.041144 0.052449 -0.021318
# 6 -0.003101 -0.002858 -0.008069 0.037093 -0.021318 0.038889
#
#
# Mechanical properties :
#
#
# Convention : Reuss Voigt Hill
#
# Bulk Modulus (GPa) = 44.57508 79.91279 62.24393
# Shear Modulus (GPa) = 23.51523 46.37221 34.94372
#
# Velocity S-wave (km/s) = 2.95047 4.14329 3.59667
# Velocity P-wave (km/s) = 5.30175 7.24379 6.34748
#
# Compressibility (1/GPa) = 0.02243406
#
# Stress axis : x y z
#
# Youngs Moduli (GPa) = 88.72126 99.29382 110.24545
#
# Poissons Ratio (x) = 0.16553 0.14023
# Poissons Ratio (y) = 0.14791 0.11580
# Poissons Ratio (z) = 0.11285 0.10430
#
# Static dielectric constant tensor:
#      x y z
#    x -114.755770 -14.814420 60.550910 
#    y -14.814420 0.696340 7.457730 
#    z 60.550910 7.457730 -29.055720 
# 
# From -- ./inp_files/280167.got.cif
#   From: 2010.05.17/outbox.cif.g08.bks.cpg/sg2_141_cif.got.tgz:280167.got - 2010.06.03 11:33:40.
