data_PCOD9069510
_publ_section_title
;
Structure prediction by ZEFSAII (Michael W. Deem and Ramdas Pophale) SiO2 
 PCOD9069510
Probable space group: P -1
;
_chemical_formula_sum "Si O2"
_cell_formula_units_Z 16
_cell_length_a 9.569893
_cell_length_b 28.972832
_cell_length_c 13.544449
_cell_angle_alpha 21.753330
_cell_angle_beta 147.585127
_cell_angle_gamma 153.449233
_cell_volume 620.099412
_symmetry_space_group_name_H-M "P -1"
_symmetry_group_IT_number 2
_symmetry_cell_setting 'triclinic'
loop_
_space_group_symop_operation_xyz
x,y,z
-x,-y,-z
loop_
_atom_site_type_symbol
_atom_site_label
_atom_site_fract_x
_atom_site_fract_y
_atom_site_fract_z
Si Si1 0.642502 0.429963 0.453667
Si Si2 0.770749 0.201640 0.048028
Si Si3 0.872289 0.743736 0.646082
Si Si4 0.609267 0.892430 0.307347
Si Si5 0.529294 0.427194 0.759773
Si Si6 0.849897 0.096491 0.705994
Si Si7 0.156236 0.174174 0.161548
Si Si8 0.175176 0.680302 0.625063
O O1 0.431338 0.407175 0.278300
O O2 0.566512 0.509687 0.332269
O O3 0.000000 0.500000 0.500000
O O4 0.574900 0.275374 0.765201
O O5 0.971524 0.265230 0.142740
O O6 0.976368 0.220839 0.036201
O O7 0.520164 0.025903 0.261205
O O8 0.740820 0.845681 0.391158
O O9 0.092035 0.823193 0.524770
O O10 0.316908 0.740513 0.481621
O O11 0.906180 0.996856 0.348843
O O12 0.500000 0.000000 0.000000
O O13 0.500000 0.500000 0.500000
O O14 0.906578 0.505479 0.827317
O O15 0.268352 0.250775 0.966937
O O16 0.950477 0.222360 0.599318
O O17 0.000000 0.000000 0.000000
O O18 0.504270 0.255199 0.252346
#
# Coordination Sequence:
#
# PCOD9069510 Si02
#       8
#     2   2   2   2   2   2   2   2
#     4  12  27  49  73 102 147 191 241 301 354 434
#     4  12  24  46  76 107 143 193 241 298 364 431
#     4  12  26  45  73 111 142 187 242 299 367 424
#     4  12  24  42  76 105 141 188 242 294 361 429
#     4  12  28  49  73 103 146 192 239 294 368 430
#     4  12  23  44  73 104 149 185 236 306 363 417
#     4  12  25  47  72 107 146 188 241 302 355 430
#     4  12  24  45  70 103 145 185 237 298 356 427
#
# _framework density 25.802313999999999
#
# number of rings (size 3 to 8) (size 9 to 14) (size 15 to 20)
#    0.000    0.000    6.250    4.125    1.750    2.500 
#    2.250    0.000    0.000    0.000    0.000    0.000 
#    0.000    0.000    0.000    0.000    0.000    0.000 
#
# Total GULP energy -89526.351841 kJ/mol
# GULP energy per Si atom -5595.396990 kJ/mol
# Density = 2.574359 g / cm^3
# Si number density = 25.802314 Si / 1000 Ang^3
#
#
#
# Elastic Constant Matrix: (Units=GPa)
#
#
# Indices 1 2 3 4 5 6 
#
# 1 99.3011 42.9894 11.7242 -15.3265 -14.1677 19.3355
# 2 42.9894 107.1790 1.5765 -0.1681 -26.3329 24.6806
# 3 11.7242 1.5765 50.9178 2.8111 -12.3646 9.8967
# 4 -15.3265 -0.1681 2.8111 48.0878 9.1543 -13.6561
# 5 -14.1677 -26.3329 -12.3646 9.1543 54.0907 -8.5743
# 6 19.3355 24.6806 9.8967 -13.6561 -8.5743 55.5279
#
#
#
# Elastic Compliance Matrix: (Units=1/GPa)
#
#
# Indices 1 2 3 4 5 6 
#
# 1 0.013492 -0.005339 -0.003190 0.004371 -0.000659 -0.000783
# 2 -0.005339 0.014148 0.003572 -0.004531 0.006246 -0.005216
# 3 -0.003190 0.003572 0.022981 -0.004900 0.006222 -0.004817
# 4 0.004371 -0.004531 -0.004900 0.025414 -0.005407 0.006780
# 5 -0.000659 0.006246 0.006222 -0.005407 0.023477 -0.001360
# 6 -0.000783 -0.005216 -0.004817 0.006780 -0.001360 0.022916
#
#
# Mechanical properties :
#
#
# Convention : Reuss Voigt Hill
#
# Bulk Modulus (GPa) = 24.56686 41.10868 32.83777
# Shear Modulus (GPa) = 34.26745 44.94847 39.60796
#
# Velocity S-wave (km/s) = 3.64823 4.17829 3.92223
# Velocity P-wave (km/s) = 5.22379 6.26453 5.76768
#
# Compressibility (1/GPa) = 0.04070525
#
# Stress axis : x y z
#
# Youngs Moduli (GPa) = 74.12019 70.68350 43.51370
#
# Poissons Ratio (x) = 0.37739 0.13882
# Poissons Ratio (y) = 0.39574 -0.15543
# Poissons Ratio (z) = 0.23646 -0.25247
#
# Static dielectric constant tensor:
#      x y z
#    x 1.968920 0.070740 -0.081730 
#    y 0.070740 2.273710 -0.088430 
#    z -0.081730 -0.088430 2.272360 
# 
# From -- ./inp_files/407333.got.cif
#   From: 2010.05.17/outbox.cif.g08.bks.cpg/sg2_204_cif.got.tgz:407333.got - 2010.06.03 11:33:40.
