data_PCOD9069482
_publ_section_title
;
Structure prediction by ZEFSAII (Michael W. Deem and Ramdas Pophale) SiO2 
 PCOD9069482
Probable space group: P -1
;
_chemical_formula_sum "Si O2"
_cell_formula_units_Z 16
_cell_length_a 21.637027
_cell_length_b 8.911583
_cell_length_c 23.120979
_cell_angle_alpha 28.755884
_cell_angle_beta 160.347326
_cell_angle_gamma 152.026063
_cell_volume 674.138860
_symmetry_space_group_name_H-M "P -1"
_symmetry_group_IT_number 2
_symmetry_cell_setting 'triclinic'
loop_
_space_group_symop_operation_xyz
x,y,z
-x,-y,-z
loop_
_atom_site_type_symbol
_atom_site_label
_atom_site_fract_x
_atom_site_fract_y
_atom_site_fract_z
Si Si1 0.020451 0.305871 0.218546
Si Si2 0.941044 0.547911 0.672079
Si Si3 0.526567 0.594735 0.424717
Si Si4 0.541781 0.511878 0.277924
Si Si5 0.169340 0.420152 0.709786
Si Si6 0.720424 0.259946 0.181496
Si Si7 0.790161 0.774992 0.825245
Si Si8 0.481730 0.689278 0.801622
O O1 0.961939 0.254125 0.251917
O O2 0.254343 0.399053 0.396083
O O3 0.922771 0.952128 0.220583
O O4 0.939517 0.574909 0.029313
O O5 0.726349 0.553453 0.467767
O O6 0.078527 0.698056 0.688065
O O7 0.905987 0.163598 0.785758
O O8 0.500000 0.500000 0.500000
O O9 0.365020 0.359277 0.318578
O O10 0.503700 0.955049 0.280967
O O11 0.343556 0.304881 0.207265
O O12 0.576399 0.344938 0.305413
O O13 0.561389 0.893360 0.153702
O O14 0.250514 0.680680 0.744673
O O15 0.333443 0.442597 0.799695
O O16 0.000000 0.500000 0.500000
O O17 0.664544 0.567354 0.004935
#
# Coordination Sequence:
#
# PCOD9069482 Si02
#       8
#     2   2   2   2   2   2   2   2
#     4  12  26  47  73 103 143 186 235 290 352 417
#     4  12  26  46  73 105 142 183 239 294 348 420
#     4  12  28  46  71 103 146 189 232 287 352 423
#     4  12  24  47  74 103 143 185 236 294 352 415
#     4  12  23  44  69 101 140 182 233 285 354 418
#     4  12  26  44  73 106 138 187 238 290 354 419
#     4  12  27  48  75 105 142 187 238 292 350 420
#     4  12  25  45  71 104 143 182 237 292 350 420
#
# _framework density 23.733982000000001
#
# number of rings (size 3 to 8) (size 9 to 14) (size 15 to 20)
#    0.000    0.000    2.500    7.875    5.250    0.500 
#    0.000    0.000    0.000    0.000    0.000    0.000 
#    0.000    0.000    0.000    0.000    0.000    0.000 
#
# Total GULP energy -89640.525104 kJ/mol
# GULP energy per Si atom -5602.532819 kJ/mol
# Density = 2.367996 g / cm^3
# Si number density = 23.733982 Si / 1000 Ang^3
#
#
#
# Elastic Constant Matrix: (Units=GPa)
#
#
# Indices 1 2 3 4 5 6 
#
# 1 124.9269 29.0921 -4.1248 12.6036 3.8184 -3.3347
# 2 29.0921 76.7632 -1.7977 -3.7501 9.9703 -0.2145
# 3 -4.1248 -1.7977 87.9593 -18.5476 9.5151 9.6363
# 4 12.6036 -3.7501 -18.5476 27.9233 -0.1659 -10.0706
# 5 3.8184 9.9703 9.5151 -0.1659 32.0605 0.5340
# 6 -3.3347 -0.2145 9.6363 -10.0706 0.5340 30.5687
#
#
#
# Elastic Compliance Matrix: (Units=1/GPa)
#
#
# Indices 1 2 3 4 5 6 
#
# 1 0.009415 -0.003894 -0.000764 -0.005485 0.000298 -0.000571
# 2 -0.003894 0.015426 0.001654 0.005251 -0.004813 0.000976
# 3 -0.000764 0.001654 0.013968 0.009343 -0.004498 -0.001318
# 4 -0.005485 0.005251 0.009343 0.049860 -0.003711 0.012984
# 5 0.000298 -0.004813 -0.004498 -0.003711 0.033975 -0.000399
# 6 -0.000571 0.000976 -0.001318 0.012984 -0.000399 0.037358
#
#
# Mechanical properties :
#
#
# Convention : Reuss Voigt Hill
#
# Bulk Modulus (GPa) = 30.48791 37.33206 33.90999
# Shear Modulus (GPa) = 28.25739 35.87583 32.06661
#
# Velocity S-wave (km/s) = 3.45423 3.89212 3.67970
# Velocity P-wave (km/s) = 5.36494 5.99681 5.68965
#
# Compressibility (1/GPa) = 0.03279989
#
# Stress axis : x y z
#
# Youngs Moduli (GPa) = 106.20974 64.82490 71.59210
#
# Poissons Ratio (x) = 0.25245 0.05471
# Poissons Ratio (y) = 0.41362 -0.11840
# Poissons Ratio (z) = 0.08117 -0.10720
#
# Static dielectric constant tensor:
#      x y z
#    x 2.399550 0.076610 0.411070 
#    y 0.076610 1.905590 -0.000940 
#    z 0.411070 -0.000940 2.294370 
# 
# From -- ./inp_files/355266.got.cif
#   From: 2010.05.17/outbox.cif.g08.bks.cpg/sg2_178_cif.got.tgz:355266.got - 2010.06.03 11:33:40.
