data_PCOD9069516
_publ_section_title
;
Structure prediction by ZEFSAII (Michael W. Deem and Ramdas Pophale) SiO2 
 PCOD9069516
Probable space group: P -1
;
_chemical_formula_sum "Si O2"
_cell_formula_units_Z 16
_cell_length_a 14.879945
_cell_length_b 11.452476
_cell_length_c 14.376867
_cell_angle_alpha 60.799176
_cell_angle_beta 149.244687
_cell_angle_gamma 139.116886
_cell_volume 717.780092
_symmetry_space_group_name_H-M "P -1"
_symmetry_group_IT_number 2
_symmetry_cell_setting 'triclinic'
loop_
_space_group_symop_operation_xyz
x,y,z
-x,-y,-z
loop_
_atom_site_type_symbol
_atom_site_label
_atom_site_fract_x
_atom_site_fract_y
_atom_site_fract_z
Si Si1 0.921490 0.214614 0.606475
Si Si2 0.555055 0.812847 0.560749
Si Si3 0.452490 0.776411 0.688404
Si Si4 0.203104 0.780070 0.838218
Si Si5 0.211170 0.345782 0.628890
Si Si6 0.898051 0.568885 0.824903
Si Si7 0.744751 0.504018 0.037874
Si Si8 0.059155 0.206269 0.066101
O O1 0.753155 0.252977 0.424235
O O2 0.032078 0.213690 0.611397
O O3 0.718539 0.005728 0.565367
O O4 0.165861 0.392783 0.822054
O O5 0.426793 0.797864 0.546711
O O6 0.335824 0.614562 0.379594
O O7 0.762697 0.821722 0.779335
O O8 0.375928 0.577445 0.706251
O O9 0.755748 0.988303 0.900457
O O10 0.985757 0.732942 0.600691
O O11 0.128661 0.752545 0.890406
O O12 0.197385 0.619125 0.872007
O O13 0.500000 0.000000 0.000000
O O14 0.433423 0.361660 0.799954
O O15 0.826275 0.642957 0.804617
O O16 0.000000 0.500000 0.000000
O O17 0.915260 0.684147 0.043248
#
# Coordination Sequence:
#
# PCOD9069516 Si02
#       8
#     2   2   2   2   2   2   2   2
#     4  12  26  41  74 108 142 185 237 291 353 424
#     4  12  24  45  70 107 142 186 241 293 353 418
#     4  12  23  44  74 103 142 187 235 292 354 412
#     4  12  29  48  71 101 144 192 236 290 360 427
#     4  12  27  47  71 104 148 187 235 294 352 427
#     4  12  25  45  70 101 140 187 238 291 353 419
#     4  12  24  48  73 106 142 186 237 296 355 416
#     4  12  25  42  76 107 141 184 239 300 351 417
#
# _framework density 22.290949000000001
#
# number of rings (size 3 to 8) (size 9 to 14) (size 15 to 20)
#    0.000    0.000    6.250    3.375    3.500    1.500 
#    0.000    0.000    0.000    0.000    0.000    0.000 
#    0.000    0.000    0.000    0.000    0.000    0.000 
#
# Total GULP energy -89664.208023 kJ/mol
# GULP energy per Si atom -5604.013001 kJ/mol
# Density = 2.224021 g / cm^3
# Si number density = 22.290949 Si / 1000 Ang^3
#
#
#
# Elastic Constant Matrix: (Units=GPa)
#
#
# Indices 1 2 3 4 5 6 
#
# 1 63.1270 -2.1777 -5.5483 -1.2262 3.2001 11.2937
# 2 -2.1777 49.4571 -0.6949 6.7927 3.3446 13.7316
# 3 -5.5483 -0.6949 118.2106 6.2487 8.3853 -3.7202
# 4 -1.2262 6.7927 6.2487 27.8815 -0.9946 0.9449
# 5 3.2001 3.3446 8.3853 -0.9946 33.7771 1.2102
# 6 11.2937 13.7316 -3.7202 0.9449 1.2102 31.0967
#
#
#
# Elastic Compliance Matrix: (Units=1/GPa)
#
#
# Indices 1 2 3 4 5 6 
#
# 1 0.017443 0.002975 0.000729 0.000067 -0.001858 -0.007491
# 2 0.002975 0.024520 0.000398 -0.005631 -0.002559 -0.011590
# 3 0.000729 0.000398 0.008803 -0.002149 -0.002385 0.000771
# 4 0.000067 -0.005631 -0.002149 0.037767 0.002162 0.000973
# 5 -0.001858 -0.002559 -0.002385 0.002162 0.030682 0.000260
# 6 -0.007491 -0.011590 0.000771 0.000973 0.000260 0.040049
#
#
# Mechanical properties :
#
#
# Convention : Reuss Voigt Hill
#
# Bulk Modulus (GPa) = 16.95774 23.77253 20.36514
# Shear Modulus (GPa) = 29.28817 34.49876 31.89347
#
# Velocity S-wave (km/s) = 3.62871 3.93830 3.78667
# Velocity P-wave (km/s) = 5.01804 5.60072 5.31737
#
# Compressibility (1/GPa) = 0.05897013
#
# Stress axis : x y z
#
# Youngs Moduli (GPa) = 57.32817 40.78233 113.59705
#
# Poissons Ratio (x) = -0.12132 -0.08278
# Poissons Ratio (y) = -0.17053 -0.04524
# Poissons Ratio (z) = -0.04178 -0.01624
#
# Static dielectric constant tensor:
#      x y z
#    x 1.791020 0.002280 0.004460 
#    y 0.002280 1.816620 -0.003110 
#    z 0.004460 -0.003110 1.820990 
# 
# From -- ./inp_files/261641.got.cif
#   From: 2010.05.17/outbox.cif.g08.bks.cpg/sg2_131_cif.got.tgz:261641.got - 2010.06.03 11:33:40.
