data_PCOD9069622
_publ_section_title
;
Structure prediction by ZEFSAII (Michael W. Deem and Ramdas Pophale) SiO2 
 PCOD9069622
Probable space group: P -1
;
_chemical_formula_sum "Si O2"
_cell_formula_units_Z 11
_cell_length_a 7.164656
_cell_length_b 13.908355
_cell_length_c 8.293973
_cell_angle_alpha 60.863607
_cell_angle_beta 142.966958
_cell_angle_gamma 118.137027
_cell_volume 429.351108
_symmetry_space_group_name_H-M "P -1"
_symmetry_group_IT_number 2
_symmetry_cell_setting 'triclinic'
loop_
_space_group_symop_operation_xyz
x,y,z
-x,-y,-z
loop_
_atom_site_type_symbol
_atom_site_label
_atom_site_fract_x
_atom_site_fract_y
_atom_site_fract_z
Si Si1 0.335578 0.499120 0.154548
Si Si2 0.923314 0.409726 0.662764
Si Si3 0.188993 0.815235 0.425962
Si Si4 0.148218 0.935253 0.798488
Si Si5 0.000000 0.000000 0.000000
Si Si6 0.466440 0.762352 0.995838
O O1 0.591537 0.440142 0.471635
O O2 0.458627 0.630162 0.106220
O O3 0.000000 0.500000 0.000000
O O4 0.220335 0.430393 0.968737
O O5 0.000000 0.500000 0.500000
O O6 0.847669 0.289035 0.633227
O O7 0.388435 0.796633 0.733256
O O8 0.271769 0.926760 0.292967
O O9 0.825022 0.819377 0.225738
O O10 0.210610 0.810722 0.890305
O O11 0.000000 0.000000 0.500000
O O12 0.500000 0.000000 0.000000
O O13 0.982343 0.942745 0.848732
#
# Coordination Sequence:
#
# PCOD9069622 Si02
#       6
#     2   2   2   2   1   2
#     4  12  26  44  69 107 147 186 240 303 368 443
#     4  12  23  46  71 103 137 192 241 290 369 437
#     4  12  26  44  76 103 143 192 246 303 363 444
#     4  12  26  49  73 104 145 192 246 312 366 435
#     4  12  28  50  74 110 146 200 254 300 376 448
#     4  12  23  48  70 103 144 191 237 307 380 427
#
# _framework density 25.620058
#
# number of rings (size 3 to 8) (size 9 to 14) (size 15 to 20)
#    0.000    0.000    7.273    2.182    2.545    2.909 
#    3.273    0.000    0.000    0.000    0.000    0.000 
#    0.000    0.000    0.000    0.000    0.000    0.000 
#
# Total GULP energy -61346.331842 kJ/mol
# GULP energy per Si atom -5576.939258 kJ/mol
# Density = 2.556175 g / cm^3
# Si number density = 25.620058 Si / 1000 Ang^3
#
#
#
# Elastic Constant Matrix: (Units=GPa)
#
#
# Indices 1 2 3 4 5 6 
#
# 1 114.9246 -2.8575 -14.2603 -17.9860 6.4198 -18.5575
# 2 -2.8575 104.8560 46.8460 -11.2846 6.2584 -51.6412
# 3 -14.2603 46.8460 188.3411 28.2076 15.8568 -23.3638
# 4 -17.9860 -11.2846 28.2076 65.1515 -3.7947 -0.4771
# 5 6.4198 6.2584 15.8568 -3.7947 44.0981 -1.0697
# 6 -18.5575 -51.6412 -23.3638 -0.4771 -1.0697 68.3167
#
#
#
# Elastic Compliance Matrix: (Units=1/GPa)
#
#
# Indices 1 2 3 4 5 6 
#
# 1 0.010269 0.003206 0.000298 0.003204 -0.001653 0.005311
# 2 0.003206 0.018622 -0.003433 0.005636 -0.001055 0.013796
# 3 0.000298 -0.003433 0.006903 -0.003640 -0.002357 -0.000216
# 4 0.003204 0.005636 -0.003640 0.018918 0.001768 0.004046
# 5 -0.001653 -0.001055 -0.002357 0.001768 0.024026 -0.001664
# 6 0.005311 0.013796 -0.000216 0.004046 -0.001664 0.026438
#
#
# Mechanical properties :
#
#
# Convention : Reuss Voigt Hill
#
# Bulk Modulus (GPa) = 27.82647 51.95313 39.88980
# Shear Modulus (GPa) = 42.73024 60.73949 51.73487
#
# Velocity S-wave (km/s) = 4.08835 4.87435 4.49855
# Velocity P-wave (km/s) = 5.75942 7.21120 6.52581
#
# Compressibility (1/GPa) = 0.03593700
#
# Stress axis : x y z
#
# Youngs Moduli (GPa) = 97.37580 53.69922 144.86914
#
# Poissons Ratio (x) = -0.17215 -0.04323
# Poissons Ratio (y) = -0.31218 0.49734
# Poissons Ratio (z) = -0.02906 0.18435
#
# Static dielectric constant tensor:
#      x y z
#    x 2.243140 -0.015420 0.002890 
#    y -0.015420 2.119200 -0.021250 
#    z 0.002890 -0.021250 1.978020 
# 
# From -- ./inp_files/115327.got.cif
#   From: 2010.05.17/outbox.cif.g08.bks.cpg/sg2_58_cif.got.tgz:115327.got - 2010.06.03 11:33:40.
