data_PCOD9069761
_publ_section_title
;
Structure prediction by ZEFSAII (Michael W. Deem and Ramdas Pophale) SiO2 
 PCOD9069761
Probable space group: P -1
;
_chemical_formula_sum "Si O2"
_cell_formula_units_Z 13
_cell_length_a 16.317314
_cell_length_b 9.217854
_cell_length_c 12.498467
_cell_angle_alpha 138.315959
_cell_angle_beta 27.450089
_cell_angle_gamma 128.312627
_cell_volume 570.659968
_symmetry_space_group_name_H-M "P -1"
_symmetry_group_IT_number 2
_symmetry_cell_setting 'triclinic'
loop_
_space_group_symop_operation_xyz
x,y,z
-x,-y,-z
loop_
_atom_site_type_symbol
_atom_site_label
_atom_site_fract_x
_atom_site_fract_y
_atom_site_fract_z
Si Si1 0.827544 0.154845 0.324783
Si Si2 0.585110 0.366165 0.433375
Si Si3 0.559876 0.759423 0.845956
Si Si4 0.079587 0.358051 0.530932
Si Si5 0.040426 0.708634 0.136947
Si Si6 0.500000 0.000000 0.500000
Si Si7 0.817232 0.153483 0.582748
O O1 0.876047 0.398374 0.395110
O O2 0.800179 0.110389 0.455079
O O3 0.657715 0.118673 0.432322
O O4 0.000000 0.000000 0.000000
O O5 0.500000 0.500000 0.500000
O O6 0.614739 0.564317 0.590129
O O7 0.484818 0.188472 0.515777
O O8 0.774604 0.239100 0.099857
O O9 0.724535 0.775179 0.744410
O O10 0.372825 0.714006 0.089764
O O11 0.500000 0.000000 0.000000
O O12 0.951797 0.340694 0.772670
O O13 0.976791 0.285692 0.507557
O O14 0.882117 0.912691 0.424127
O O15 0.000000 0.500000 0.000000
#
# Coordination Sequence:
#
# PCOD9069761 Si02
#       7
#     2   2   2   2   2   1   2
#     4  12  29  51  78 111 154 207 262 331 400 475
#     4  12  28  48  81 112 154 211 260 330 393 465
#     4  12  26  48  74 115 156 206 260 322 401 469
#     4  12  26  49  76 114 158 201 267 322 399 482
#     4  12  23  48  76 111 150 205 265 315 384 474
#     4  12  28  52  76 118 154 196 278 328 386 474
#     4  12  28  46  76 112 156 205 252 330 400 472
#
# _framework density 22.780642
#
# number of rings (size 3 to 8) (size 9 to 14) (size 15 to 20)
#    0.000    0.000    4.615    3.692   10.769    1.846 
#    2.769    0.000    0.000    0.000    0.000    0.000 
#    0.000    0.000    0.000    0.000    0.000    0.000 
#
# Total GULP energy -72443.840983 kJ/mol
# GULP energy per Si atom -5572.603153 kJ/mol
# Density = 2.272879 g / cm^3
# Si number density = 22.780642 Si / 1000 Ang^3
#
#
#
# Elastic Constant Matrix: (Units=GPa)
#
#
# Indices 1 2 3 4 5 6 
#
# 1 166.1268 34.9050 74.1230 -7.8474 7.1981 14.6617
# 2 34.9050 119.2663 43.8534 8.1701 5.5882 0.3027
# 3 74.1230 43.8534 199.0694 -7.6892 20.8968 -8.1995
# 4 -7.8474 8.1701 -7.6892 23.3707 3.7035 -2.0534
# 5 7.1981 5.5882 20.8968 3.7035 30.2568 -11.2021
# 6 14.6617 0.3027 -8.1995 -2.0534 -11.2021 58.5512
#
#
#
# Elastic Compliance Matrix: (Units=1/GPa)
#
#
# Indices 1 2 3 4 5 6 
#
# 1 0.007802 -0.001471 -0.002484 0.002270 -0.001040 -0.002413
# 2 -0.001471 0.009782 -0.001822 -0.004571 0.000350 -0.000031
# 3 -0.002484 -0.001822 0.006896 0.002761 -0.003817 0.000964
# 4 0.002270 -0.004571 0.002761 0.047230 -0.007350 0.000092
# 5 -0.001040 0.000350 -0.003817 -0.007350 0.039360 0.006997
# 6 -0.002413 -0.000031 0.000964 0.000092 0.006997 0.019160
#
#
# Mechanical properties :
#
#
# Convention : Reuss Voigt Hill
#
# Bulk Modulus (GPa) = 77.35127 87.80282 82.57704
# Shear Modulus (GPa) = 34.22513 44.54115 39.38314
#
# Velocity S-wave (km/s) = 3.88026 4.42658 4.16239
# Velocity P-wave (km/s) = 7.35552 8.04690 7.70897
#
# Compressibility (1/GPa) = 0.01292804
#
# Stress axis : x y z
#
# Youngs Moduli (GPa) = 128.17354 102.23185 145.00201
#
# Poissons Ratio (x) = 0.15036 0.36012
# Poissons Ratio (y) = 0.18851 0.26415
# Poissons Ratio (z) = 0.31832 0.18624
#
# Static dielectric constant tensor:
#      x y z
#    x 1.902360 -0.062930 -0.019740 
#    y -0.062930 1.883260 -0.064720 
#    z -0.019740 -0.064720 1.724620 
# 
# From -- ./inp_files/179691.got.cif
#   From: 2010.05.17/outbox.cif.g08.bks.cpg/sg2_90_cif.got.tgz:179691.got - 2010.06.03 11:33:40.
