data_PCOD9069959
_publ_section_title
;
Structure prediction by ZEFSAII (Michael W. Deem and Ramdas Pophale) SiO2 
 PCOD9069959
Probable space group: P -1
;
_chemical_formula_sum "Si O2"
_cell_formula_units_Z 16
_cell_length_a 15.922566
_cell_length_b 15.777303
_cell_length_c 9.289819
_cell_angle_alpha 93.445312
_cell_angle_beta 112.116682
_cell_angle_gamma 26.817276
_cell_volume 732.656692
_symmetry_space_group_name_H-M "P -1"
_symmetry_group_IT_number 2
_symmetry_cell_setting 'triclinic'
loop_
_space_group_symop_operation_xyz
x,y,z
-x,-y,-z
loop_
_atom_site_type_symbol
_atom_site_label
_atom_site_fract_x
_atom_site_fract_y
_atom_site_fract_z
Si Si1 0.744018 0.762234 0.440203
Si Si2 0.277748 0.039302 0.205126
Si Si3 0.728791 0.066221 0.541840
Si Si4 0.224054 0.974592 0.906776
Si Si5 0.619471 0.475765 0.495011
Si Si6 0.975334 0.455644 0.107763
Si Si7 0.365330 0.535069 0.846052
Si Si8 0.607908 0.052455 0.209992
O O1 0.000000 0.500000 0.500000
O O2 0.813288 0.714648 0.647852
O O3 0.511340 0.897510 0.294939
O O4 0.690134 0.898504 0.339451
O O5 0.015857 0.327145 0.055072
O O6 0.302811 0.985667 0.377602
O O7 0.255763 0.974860 0.091104
O O8 0.542314 0.303479 0.513785
O O9 0.627851 0.118248 0.330291
O O10 0.046301 0.809675 0.704408
O O11 0.933948 0.195409 0.706250
O O12 0.230701 0.058655 0.834660
O O13 0.465899 0.695086 0.009266
O O14 0.500000 0.500000 0.500000
O O15 0.599670 0.493362 0.309101
O O16 0.683531 0.713862 0.011033
O O17 0.000000 0.500000 0.000000
O O18 0.500000 0.500000 0.000000
#
# Coordination Sequence:
#
# PCOD9069959 Si02
#       8
#     2   2   2   2   2   2   2   2
#     4  12  28  43  68 103 150 195 248 307 353 425
#     4  12  25  46  72 105 148 196 247 301 362 428
#     4  12  26  49  79 107 155 194 244 309 363 442
#     4  12  28  47  78 111 148 193 249 301 370 446
#     4  12  29  51  79 114 148 190 243 305 380 450
#     4  12  24  44  67  99 140 197 249 296 362 417
#     4  12  29  52  78 113 150 189 242 307 378 450
#     4  12  26  46  71 105 148 196 246 300 363 425
#
# _framework density 21.838332999999999
#
# number of rings (size 3 to 8) (size 9 to 14) (size 15 to 20)
#    0.000    0.000    5.000    4.125    8.750    3.000 
#    0.000    0.000    0.000    0.000    0.000    0.000 
#    0.000    0.000    0.000    0.000    0.000    0.000 
#
# Total GULP energy -89407.499417 kJ/mol
# GULP energy per Si atom -5587.968714 kJ/mol
# Density = 2.178863 g / cm^3
# Si number density = 21.838333 Si / 1000 Ang^3
#
#
#
# Elastic Constant Matrix: (Units=GPa)
#
#
# Indices 1 2 3 4 5 6 
#
# 1 87.7944 -2.9069 22.8084 -13.2633 -11.3016 -11.1686
# 2 -2.9069 81.0972 25.5855 -6.1116 -3.1460 6.6739
# 3 22.8084 25.5855 110.0227 -6.1790 8.7065 -3.4853
# 4 -13.2633 -6.1116 -6.1790 33.2823 -2.6854 2.2940
# 5 -11.3016 -3.1460 8.7065 -2.6854 36.1919 -3.6183
# 6 -11.1686 6.6739 -3.4853 2.2940 -3.6183 45.6805
#
#
#
# Elastic Compliance Matrix: (Units=1/GPa)
#
#
# Indices 1 2 3 4 5 6 
#
# 1 0.014467 0.002057 -0.003551 0.005773 0.006296 0.003175
# 2 0.002057 0.014094 -0.003813 0.003051 0.002834 -0.001776
# 3 -0.003551 -0.003813 0.011020 -0.000416 -0.004100 0.000226
# 4 0.005773 0.003051 -0.000416 0.033226 0.004596 -0.000370
# 5 0.006296 0.002834 -0.004100 0.004596 0.031478 0.003075
# 6 0.003175 -0.001776 0.000226 -0.000370 0.003075 0.023206
#
#
# Mechanical properties :
#
#
# Convention : Reuss Voigt Hill
#
# Bulk Modulus (GPa) = 34.52203 41.09870 37.81037
# Shear Modulus (GPa) = 33.83849 38.59275 36.21562
#
# Velocity S-wave (km/s) = 3.94064 4.20837 4.07670
# Velocity P-wave (km/s) = 6.04542 6.51723 6.28575
#
# Compressibility (1/GPa) = 0.02896701
#
# Stress axis : x y z
#
# Youngs Moduli (GPa) = 69.12090 70.95445 90.74330
#
# Poissons Ratio (x) = -0.14595 0.32223
# Poissons Ratio (y) = -0.14218 0.34600
# Poissons Ratio (z) = 0.24545 0.27055
#
# Static dielectric constant tensor:
#      x y z
#    x 1.918360 0.001160 -0.032620 
#    y 0.001160 1.838160 -0.012540 
#    z -0.032620 -0.012540 1.770060 
# 
# From -- ./inp_files/52159.got.cif
#   From: 2010.05.17/outbox.cif.g08.bks.cpg/sg2_27_cif.got.tgz:52159.got - 2010.06.03 11:33:40.
