data_PCOD9069597
_publ_section_title
;
Structure prediction by ZEFSAII (Michael W. Deem and Ramdas Pophale) SiO2 
 PCOD9069597
Probable space group: P -1
;
_chemical_formula_sum "Si O2"
_cell_formula_units_Z 14
_cell_length_a 9.362752
_cell_length_b 14.989402
_cell_length_c 11.055730
_cell_angle_alpha 121.917265
_cell_angle_beta 132.197742
_cell_angle_gamma 31.129710
_cell_volume 589.892304
_symmetry_space_group_name_H-M "P -1"
_symmetry_group_IT_number 2
_symmetry_cell_setting 'triclinic'
loop_
_space_group_symop_operation_xyz
x,y,z
-x,-y,-z
loop_
_atom_site_type_symbol
_atom_site_label
_atom_site_fract_x
_atom_site_fract_y
_atom_site_fract_z
Si Si1 0.206769 0.710068 0.248586
Si Si2 0.811945 0.684175 0.981125
Si Si3 0.284354 0.697340 0.026660
Si Si4 0.082946 0.561080 0.498777
Si Si5 0.432671 0.214753 0.826694
Si Si6 0.721945 0.878008 0.684934
Si Si7 0.695764 0.062173 0.337269
O O1 0.275618 0.744249 0.190596
O O2 0.542588 0.579417 0.413313
O O3 0.887672 0.885307 0.256530
O O4 0.102405 0.639927 0.096334
O O5 0.572928 0.781470 0.799389
O O6 0.608252 0.801618 0.069788
O O7 0.000000 0.500000 0.000000
O O8 0.381365 0.755868 0.045845
O O9 0.500000 0.500000 0.000000
O O10 0.944586 0.802848 0.871911
O O11 0.000000 0.500000 0.500000
O O12 0.901826 0.618637 0.311859
O O13 0.941612 0.727421 0.601943
O O14 0.581919 0.055711 0.715841
O O15 0.463453 0.908099 0.607978
O O16 0.000000 0.000000 0.500000
#
# Coordination Sequence:
#
# PCOD9069597 Si02
#       7
#     2   2   2   2   2   2   2
#     4  12  24  49  75 105 146 198 246 294 377 445
#     4  12  28  48  77 110 152 194 250 307 376 444
#     4  12  23  45  77 104 142 198 248 298 366 452
#     4  12  26  46  77 107 149 198 249 305 371 444
#     4  12  27  47  73 114 150 193 251 313 370 443
#     4  12  25  48  73 109 149 192 252 308 374 441
#     4  12  28  48  78 107 152 197 246 307 379 440
#
# _framework density 23.733145
#
# number of rings (size 3 to 8) (size 9 to 14) (size 15 to 20)
#    0.000    0.000    5.714    3.857    4.000    1.714 
#    0.000    0.000    0.000    0.000    0.000    0.000 
#    0.000    0.000    0.000    0.000    0.000    0.000 
#
# Total GULP energy -78189.236611 kJ/mol
# GULP energy per Si atom -5584.945472 kJ/mol
# Density = 2.367913 g / cm^3
# Si number density = 23.733145 Si / 1000 Ang^3
#
#
#
# Elastic Constant Matrix: (Units=GPa)
#
#
# Indices 1 2 3 4 5 6 
#
# 1 91.0916 11.0573 10.6130 1.7543 24.0964 6.8409
# 2 11.0573 118.2606 5.2802 -1.6694 12.4831 7.4534
# 3 10.6130 5.2802 80.0190 -22.4765 19.8313 18.7727
# 4 1.7543 -1.6694 -22.4765 44.3957 -8.5033 0.6897
# 5 24.0964 12.4831 19.8313 -8.5033 45.0887 6.0616
# 6 6.8409 7.4534 18.7727 0.6897 6.0616 32.1131
#
#
#
# Elastic Compliance Matrix: (Units=1/GPa)
#
#
# Indices 1 2 3 4 5 6 
#
# 1 0.013022 -0.000427 -0.000258 -0.001973 -0.006942 -0.001171
# 2 -0.000427 0.008819 0.000502 0.000221 -0.002144 -0.001849
# 3 -0.000258 0.000502 0.018574 0.008596 -0.005188 -0.010125
# 4 -0.001973 0.000221 0.008596 0.027670 0.003218 -0.005858
# 5 -0.006942 -0.002144 -0.005188 0.003218 0.029454 -0.000619
# 6 -0.001171 -0.001849 -0.010125 -0.005858 -0.000619 0.037980
#
#
# Mechanical properties :
#
#
# Convention : Reuss Voigt Hill
#
# Bulk Modulus (GPa) = 24.96928 38.14136 31.55532
# Shear Modulus (GPa) = 33.50398 41.81423 37.65911
#
# Velocity S-wave (km/s) = 3.76133 4.20199 3.98775
# Velocity P-wave (km/s) = 5.42284 6.29668 5.87602
#
# Compressibility (1/GPa) = 0.04004922
#
# Stress axis : x y z
#
# Youngs Moduli (GPa) = 76.79172 113.38625 53.83946
#
# Poissons Ratio (x) = 0.04845 0.01387
# Poissons Ratio (y) = 0.03281 -0.02702
# Poissons Ratio (z) = 0.01979 -0.05691
#
# Static dielectric constant tensor:
#      x y z
#    x 1.885300 -0.005150 -0.044250 
#    y -0.005150 2.066500 0.093660 
#    z -0.044250 0.093660 1.989290 
# 
# From -- ./inp_files/158451.got.cif
#   From: 2010.05.17/outbox.cif.g08.bks.cpg/sg2_80_cif.got.tgz:158451.got - 2010.06.03 11:33:40.
