data_PCOD9069149
_publ_section_title
;
Structure prediction by ZEFSAII (Michael W. Deem and Ramdas Pophale) SiO2 
 PCOD9069149
Probable space group: P -1
;
_chemical_formula_sum "Si O2"
_cell_formula_units_Z 15
_cell_length_a 19.976440
_cell_length_b 8.593388
_cell_length_c 9.174068
_cell_angle_alpha 52.763200
_cell_angle_beta 62.519311
_cell_angle_gamma 34.424119
_cell_volume 706.311659
_symmetry_space_group_name_H-M "P -1"
_symmetry_group_IT_number 2
_symmetry_cell_setting 'triclinic'
loop_
_space_group_symop_operation_xyz
x,y,z
-x,-y,-z
loop_
_atom_site_type_symbol
_atom_site_label
_atom_site_fract_x
_atom_site_fract_y
_atom_site_fract_z
Si Si1 0.986756 0.747530 0.932301
Si Si2 0.000000 0.000000 0.500000
Si Si3 0.398737 0.136843 0.134828
Si Si4 0.631896 0.151048 0.086306
Si Si5 0.573934 0.817545 0.384144
Si Si6 0.221884 0.187483 0.145134
Si Si7 0.192314 0.878224 0.535908
Si Si8 0.767308 0.167548 0.130867
O O1 0.959064 0.938871 0.714142
O O2 0.000000 0.500000 0.000000
O O3 0.115409 0.533268 0.994932
O O4 0.888825 0.941232 0.047100
O O5 0.083974 0.958250 0.552415
O O6 0.320613 0.120249 0.160830
O O7 0.473738 0.930243 0.316210
O O8 0.315356 0.491112 0.037106
O O9 0.500000 0.000000 0.000000
O O10 0.697777 0.109265 0.184742
O O11 0.619966 0.940570 0.220524
O O12 0.500000 0.500000 0.000000
O O13 0.714450 0.039636 0.928933
O O14 0.688307 0.451199 0.469991
O O15 0.500000 0.000000 0.500000
O O16 0.173667 0.127377 0.341885
O O17 0.212906 0.853474 0.703650
#
# Coordination Sequence:
#
# PCOD9069149 Si02
#       8
#     2   1   2   2   2   2   2   2
#     4  12  26  51  76 107 149 193 248 309 373 444
#     4  12  26  50  80 102 146 196 250 300 378 440
#     4  12  24  48  71 103 152 189 245 309 373 437
#     4  12  22  43  74 101 148 194 242 304 380 434
#     4  12  27  43  70 108 144 196 243 305 376 447
#     4  12  26  49  71 104 152 195 245 314 367 450
#     4  12  28  47  74 110 145 196 254 302 375 449
#     4  12  26  47  75 112 143 195 247 309 371 443
#
# _framework density 21.237082999999998
#
# number of rings (size 3 to 8) (size 9 to 14) (size 15 to 20)
#    0.000    0.000    6.667    2.400    3.733    3.200 
#    2.400    0.000    0.000    0.000    0.000    0.000 
#    0.000    0.000    0.000    0.000    0.000    0.000 
#
# Total GULP energy -83647.661079 kJ/mol
# GULP energy per Si atom -5576.510739 kJ/mol
# Density = 2.118875 g / cm^3
# Si number density = 21.237083 Si / 1000 Ang^3
#
#
#
# Elastic Constant Matrix: (Units=GPa)
#
#
# Indices 1 2 3 4 5 6 
#
# 1 161.2328 6.9831 12.6480 5.2089 23.4614 -18.5595
# 2 6.9831 105.1966 12.1926 15.2763 1.2558 -4.2750
# 3 12.6480 12.1926 71.8720 11.2557 0.6542 -5.9006
# 4 5.2089 15.2763 11.2557 31.1057 0.0937 -1.2401
# 5 23.4614 1.2558 0.6542 0.0937 28.4809 -1.0367
# 6 -18.5595 -4.2750 -5.9006 -1.2401 -1.0367 25.5223
#
#
#
# Elastic Compliance Matrix: (Units=1/GPa)
#
#
# Indices 1 2 3 4 5 6 
#
# 1 0.007789 -0.000029 -0.000759 -0.000790 -0.006206 0.005193
# 2 -0.000029 0.010351 -0.000908 -0.004699 -0.000350 0.001260
# 3 -0.000759 -0.000908 0.015163 -0.004812 0.000427 0.002585
# 4 -0.000790 -0.004699 -0.004812 0.036300 0.000824 -0.000676
# 5 -0.006206 -0.000350 0.000427 0.000824 0.040125 -0.002803
# 6 0.005193 0.001260 0.002585 -0.000676 -0.002803 0.043620
#
#
# Mechanical properties :
#
#
# Convention : Reuss Voigt Hill
#
# Bulk Modulus (GPa) = 33.43390 44.66097 39.04744
# Shear Modulus (GPa) = 29.99188 37.45365 33.72276
#
# Velocity S-wave (km/s) = 3.76206 4.20408 3.98919
# Velocity P-wave (km/s) = 5.88626 6.68139 6.29639
#
# Compressibility (1/GPa) = 0.02990976
#
# Stress axis : x y z
#
# Youngs Moduli (GPa) = 128.37854 96.60971 65.94900
#
# Poissons Ratio (x) = 0.00283 0.05008
# Poissons Ratio (y) = 0.00376 0.05990
# Poissons Ratio (z) = 0.09748 0.08776
#
# Static dielectric constant tensor:
#      x y z
#    x 1.784860 0.013150 -0.013870 
#    y 0.013150 1.981640 0.113570 
#    z -0.013870 0.113570 1.848940 
# 
# From -- ./inp_files/343308.got.cif
#   From: 2010.05.17/outbox.cif.g08.bks.cpg/sg2_172_cif.got.tgz:343308.got - 2010.06.03 11:33:40.
