data_PCOD9069611
_publ_section_title
;
Structure prediction by ZEFSAII (Michael W. Deem and Ramdas Pophale) SiO2 
 PCOD9069611
Probable space group: P -1
;
_chemical_formula_sum "Si O2"
_cell_formula_units_Z 16
_cell_length_a 9.374016
_cell_length_b 8.190267
_cell_length_c 17.478145
_cell_angle_alpha 94.754143
_cell_angle_beta 97.937847
_cell_angle_gamma 31.714073
_cell_volume 697.105889
_symmetry_space_group_name_H-M "P -1"
_symmetry_group_IT_number 2
_symmetry_cell_setting 'triclinic'
loop_
_space_group_symop_operation_xyz
x,y,z
-x,-y,-z
loop_
_atom_site_type_symbol
_atom_site_label
_atom_site_fract_x
_atom_site_fract_y
_atom_site_fract_z
Si Si1 0.227142 0.207069 0.947532
Si Si2 0.763382 0.401047 0.420272
Si Si3 0.377790 0.229858 0.801012
Si Si4 0.059708 0.637105 0.407126
Si Si5 0.774001 0.180089 0.051800
Si Si6 0.907291 0.919271 0.805236
Si Si7 0.235205 0.764911 0.342608
Si Si8 0.524154 0.973447 0.364385
O O1 0.255489 0.255255 0.866518
O O2 0.220916 0.016596 0.935490
O O3 0.000000 0.500000 0.000000
O O4 0.500000 0.000000 0.000000
O O5 0.831532 0.370642 0.511823
O O6 0.038150 0.078538 0.386462
O O7 0.624142 0.699410 0.388157
O O8 0.536351 0.482986 0.389760
O O9 0.116380 0.589518 0.768737
O O10 0.472027 0.031380 0.727826
O O11 0.652393 0.072318 0.833322
O O12 0.237898 0.302529 0.392215
O O13 0.109918 0.706664 0.341681
O O14 0.749515 0.885056 0.405113
O O15 0.881177 0.184440 0.130661
O O16 0.500000 0.500000 0.000000
O O17 0.000000 0.000000 0.000000
O O18 0.768589 0.170005 0.742074
#
# Coordination Sequence:
#
# PCOD9069611 Si02
#       8
#     2   2   2   2   2   2   2   2
#     4  12  26  47  74 106 137 176 221 275 339 407
#     4  12  23  46  68  98 134 191 233 284 347 410
#     4  12  25  46  72  98 142 183 227 282 339 410
#     4  12  26  41  69 100 142 176 237 297 339 405
#     4  12  26  46  73 105 137 175 222 275 337 407
#     4  12  24  46  70  99 139 185 228 280 337 409
#     4  12  24  44  68 100 138 183 235 282 349 405
#     4  12  24  44  66 102 139 181 233 283 351 404
#
# _framework density 22.952037000000001
#
# number of rings (size 3 to 8) (size 9 to 14) (size 15 to 20)
#    0.000    0.000    2.500    9.000    1.750    0.000 
#    2.250    0.000    0.000    0.000    0.000    0.000 
#    0.000    0.000    0.000    0.000    0.000    0.000 
#
# Total GULP energy -89568.245160 kJ/mol
# GULP energy per Si atom -5598.015323 kJ/mol
# Density = 2.289980 g / cm^3
# Si number density = 22.952037 Si / 1000 Ang^3
#
#
#
# Elastic Constant Matrix: (Units=GPa)
#
#
# Indices 1 2 3 4 5 6 
#
# 1 94.7869 30.1098 2.1839 -8.3869 -13.7876 -9.9230
# 2 30.1098 106.2639 18.5163 4.9889 6.7495 -20.0938
# 3 2.1839 18.5163 86.0528 -2.2575 -2.6196 -5.0560
# 4 -8.3869 4.9889 -2.2575 25.9182 -2.9576 -1.4127
# 5 -13.7876 6.7495 -2.6196 -2.9576 36.6563 -6.8597
# 6 -9.9230 -20.0938 -5.0560 -1.4127 -6.8597 37.4089
#
#
#
# Elastic Compliance Matrix: (Units=1/GPa)
#
#
# Indices 1 2 3 4 5 6 
#
# 1 0.013811 -0.004285 0.001137 0.006376 0.007154 0.003068
# 2 -0.004285 0.012299 -0.002502 -0.004145 -0.003581 0.004318
# 3 0.001137 -0.002502 0.012319 0.002228 0.002155 0.001102
# 4 0.006376 -0.004145 0.002228 0.042615 0.007266 0.002708
# 5 0.007154 -0.003581 0.002155 0.007266 0.032590 0.006515
# 6 0.003068 0.004318 0.001102 0.002708 0.006515 0.031311
#
#
# Mechanical properties :
#
#
# Convention : Reuss Voigt Hill
#
# Bulk Modulus (GPa) = 36.86050 43.19150 40.02600
# Shear Modulus (GPa) = 30.25021 35.74960 32.99990
#
# Velocity S-wave (km/s) = 3.63433 3.95090 3.79592
# Velocity P-wave (km/s) = 5.80567 6.29856 6.05713
#
# Compressibility (1/GPa) = 0.02712931
#
# Stress axis : x y z
#
# Youngs Moduli (GPa) = 72.40674 81.30561 81.17521
#
# Poissons Ratio (x) = 0.34839 -0.09228
# Poissons Ratio (y) = 0.31026 0.20308
# Poissons Ratio (z) = -0.08231 0.20341
#
# Static dielectric constant tensor:
#      x y z
#    x 1.844100 0.021290 -0.003290 
#    y 0.021290 1.808930 -0.015120 
#    z -0.003290 -0.015120 1.871110 
# 
# From -- ./inp_files/329733.got.cif
#   From: 2010.05.17/outbox.cif.g08.bks.cpg/sg2_165_cif.got.tgz:329733.got - 2010.06.03 11:33:40.
