data_PCOD9069555
_publ_section_title
;
Structure prediction by ZEFSAII (Michael W. Deem and Ramdas Pophale) SiO2 
 PCOD9069555
Probable space group: P -1
;
_chemical_formula_sum "Si O2"
_cell_formula_units_Z 16
_cell_length_a 9.033437
_cell_length_b 18.978426
_cell_length_c 11.643383
_cell_angle_alpha 149.280563
_cell_angle_beta 37.888324
_cell_angle_gamma 135.693189
_cell_volume 621.818371
_symmetry_space_group_name_H-M "P -1"
_symmetry_group_IT_number 2
_symmetry_cell_setting 'triclinic'
loop_
_space_group_symop_operation_xyz
x,y,z
-x,-y,-z
loop_
_atom_site_type_symbol
_atom_site_label
_atom_site_fract_x
_atom_site_fract_y
_atom_site_fract_z
Si Si1 0.489411 0.461875 0.318662
Si Si2 0.152788 0.933853 0.471099
Si Si3 0.179017 0.345218 0.788147
Si Si4 0.359126 0.745258 0.514940
Si Si5 0.150164 0.820138 0.978268
Si Si6 0.957968 0.527670 0.724844
Si Si7 0.484850 0.187432 0.048542
Si Si8 0.069691 0.886855 0.708780
O O1 0.500000 0.500000 0.500000
O O2 0.679004 0.560299 0.264413
O O3 0.216893 0.477613 0.470224
O O4 0.523410 0.300460 0.080848
O O5 0.010015 0.781537 0.317930
O O6 0.402550 0.944033 0.260652
O O7 0.190012 0.945097 0.600105
O O8 0.976121 0.050660 0.719309
O O9 0.365428 0.267869 0.642145
O O10 0.066875 0.448891 0.090139
O O11 0.244420 0.583606 0.358514
O O12 0.247952 0.794759 0.534902
O O13 0.266247 0.836079 0.803591
O O14 0.353508 0.786003 0.898022
O O15 0.961433 0.682291 0.890619
O O16 0.204316 0.183924 0.249868
O O17 0.000000 0.000000 0.000000
#
# Coordination Sequence:
#
# PCOD9069555 Si02
#       8
#     2   2   2   2   2   2   2   2
#     4  12  23  45  71 107 147 190 244 303 371 428
#     4  12  28  50  76 111 149 197 253 303 365 447
#     4  12  28  46  78 111 147 199 251 305 365 444
#     4  12  26  49  73 109 152 196 242 306 374 439
#     4  12  25  50  76 106 149 199 248 301 366 441
#     4  12  26  47  73 110 149 193 248 308 368 435
#     4  12  27  48  79 107 147 199 245 313 362 442
#     4  12  28  49  73 110 151 195 244 303 377 443
#
# _framework density 25.730986999999999
#
# number of rings (size 3 to 8) (size 9 to 14) (size 15 to 20)
#    0.000    0.000    6.250    2.625    3.500    2.500 
#    2.250    0.000    0.000    0.000    0.000    0.000 
#    0.000    0.000    0.000    0.000    0.000    0.000 
#
# Total GULP energy -89645.122066 kJ/mol
# GULP energy per Si atom -5602.820129 kJ/mol
# Density = 2.567242 g / cm^3
# Si number density = 25.730987 Si / 1000 Ang^3
#
#
#
# Elastic Constant Matrix: (Units=GPa)
#
#
# Indices 1 2 3 4 5 6 
#
# 1 82.4813 19.7416 30.2285 -9.2465 1.4109 -20.7438
# 2 19.7416 71.1964 20.7822 -17.9770 -5.6003 -7.6895
# 3 30.2285 20.7822 104.3448 -1.6663 -4.0837 0.9934
# 4 -9.2465 -17.9770 -1.6663 35.8922 -4.5642 3.8855
# 5 1.4109 -5.6003 -4.0837 -4.5642 46.0535 6.4019
# 6 -20.7438 -7.6895 0.9934 3.8855 6.4019 40.3074
#
#
#
# Elastic Compliance Matrix: (Units=1/GPa)
#
#
# Indices 1 2 3 4 5 6 
#
# 1 0.016659 -0.002082 -0.004547 0.001848 -0.002159 0.008453
# 2 -0.002082 0.017910 -0.002734 0.008522 0.002682 0.001165
# 3 -0.004547 -0.002734 0.011495 -0.001521 0.001117 -0.003175
# 4 0.001848 0.008522 -0.001521 0.033221 0.004314 -0.001273
# 5 -0.002159 0.002682 0.001117 0.004314 0.023292 -0.004742
# 6 0.008453 0.001165 -0.003175 -0.001273 -0.004742 0.030336
#
#
# Mechanical properties :
#
#
# Convention : Reuss Voigt Hill
#
# Bulk Modulus (GPa) = 36.57971 44.39188 40.48580
# Shear Modulus (GPa) = 31.10417 36.93530 34.01973
#
# Velocity S-wave (km/s) = 3.48058 3.79283 3.64006
# Velocity P-wave (km/s) = 5.51359 6.03908 5.78231
#
# Compressibility (1/GPa) = 0.02733756
#
# Stress axis : x y z
#
# Youngs Moduli (GPa) = 60.02921 55.83612 86.99494
#
# Poissons Ratio (x) = 0.11626 0.39554
# Poissons Ratio (y) = 0.12499 0.23783
# Poissons Ratio (z) = 0.27293 0.15265
#
# Static dielectric constant tensor:
#      x y z
#    x 2.000690 0.002420 0.003510 
#    y 0.002420 2.142560 0.051600 
#    z 0.003510 0.051600 2.051470 
# 
# From -- ./inp_files/405649.got.cif
#   From: 2010.05.17/outbox.cif.g08.bks.cpg/sg2_203_cif.got.tgz:405649.got - 2010.06.03 11:33:40.
