data_PCOD9069114
_publ_section_title
;
Structure prediction by ZEFSAII (Michael W. Deem and Ramdas Pophale) SiO2 
 PCOD9069114
Probable space group: P -1
;
_chemical_formula_sum "Si O2"
_cell_formula_units_Z 16
_cell_length_a 15.995131
_cell_length_b 4.947305
_cell_length_c 9.723369
_cell_angle_alpha 87.999803
_cell_angle_beta 77.720044
_cell_angle_gamma 68.347995
_cell_volume 697.980085
_symmetry_space_group_name_H-M "P -1"
_symmetry_group_IT_number 2
_symmetry_cell_setting 'triclinic'
loop_
_space_group_symop_operation_xyz
x,y,z
-x,-y,-z
loop_
_atom_site_type_symbol
_atom_site_label
_atom_site_fract_x
_atom_site_fract_y
_atom_site_fract_z
Si Si1 0.705970 0.649273 0.839741
Si Si2 0.187512 0.422563 0.935845
Si Si3 0.651474 0.971302 0.301461
Si Si4 0.911076 0.067124 0.435072
Si Si5 0.079775 0.045880 0.882606
Si Si6 0.584481 0.285425 0.885346
Si Si7 0.469765 0.399594 0.654491
Si Si8 0.782280 0.725717 0.518262
O O1 0.792805 0.595805 0.908989
O O2 0.669856 0.387850 0.869537
O O3 0.732526 0.685768 0.674012
O O4 0.621908 0.943317 0.909713
O O5 0.279362 0.210638 0.835116
O O6 0.165791 0.747034 0.884981
O O7 0.107504 0.310096 0.919771
O O8 0.566700 0.861484 0.341764
O O9 0.708215 0.891119 0.425046
O O10 0.614538 0.310880 0.274919
O O11 0.939060 0.943275 0.273495
O O12 0.849828 0.410697 0.445380
O O13 0.845259 0.911811 0.520943
O O14 0.000000 0.000000 0.500000
O O15 0.000000 0.000000 0.000000
O O16 0.549317 0.324951 0.740181
O O17 0.500000 0.500000 0.000000
O O18 0.500000 0.500000 0.500000
#
# Coordination Sequence:
#
# PCOD9069114 Si02
#       8
#     2   2   2   2   2   2   2   2
#     4  12  26  43  69 100 137 180 224 278 334 395
#     4  12  25  45  69 100 132 180 226 266 335 393
#     4  12  22  43  65  94 129 176 220 272 326 391
#     4  12  26  46  71 101 136 178 216 274 341 395
#     4  12  26  46  71 101 136 173 224 276 327 402
#     4  12  24  45  64  99 137 178 227 277 337 394
#     4  12  24  39  66  95 129 172 221 273 331 386
#     4  12  25  45  69 100 140 174 226 274 331 407
#
# _framework density 22.923287999999999
#
# number of rings (size 3 to 8) (size 9 to 14) (size 15 to 20)
#    0.000    0.000    2.500    8.250    3.500    0.000 
#    0.000    0.000    0.000    0.000    0.000    0.000 
#    0.000    0.000    0.000    0.000    0.000    0.000 
#
# Total GULP energy -89714.720618 kJ/mol
# GULP energy per Si atom -5607.170039 kJ/mol
# Density = 2.287111 g / cm^3
# Si number density = 22.923288 Si / 1000 Ang^3
#
#
#
# Elastic Constant Matrix: (Units=GPa)
#
#
# Indices 1 2 3 4 5 6 
#
# 1 88.3200 17.5064 33.8012 5.7836 23.3171 19.4506
# 2 17.5064 72.5104 -23.5717 5.3878 14.3733 10.6162
# 3 33.8012 -23.5717 76.4518 -7.9715 19.3600 -7.5960
# 4 5.7836 5.3878 -7.9715 23.4138 -5.3136 -3.6293
# 5 23.3171 14.3733 19.3600 -5.3136 48.8851 -4.2077
# 6 19.4506 10.6162 -7.5960 -3.6293 -4.2077 37.6670
#
#
#
# Elastic Compliance Matrix: (Units=1/GPa)
#
#
# Indices 1 2 3 4 5 6 
#
# 1 0.023529 -0.005281 -0.013091 -0.013077 -0.007230 -0.015369
# 2 -0.005281 0.020410 0.010220 -0.002028 -0.007926 -0.002045
# 3 -0.013091 0.010220 0.025206 0.009809 -0.004871 0.009363
# 4 -0.013077 -0.002028 0.009809 0.054500 0.010224 0.015696
# 5 -0.007230 -0.007926 -0.004871 0.010224 0.030078 0.009330
# 6 -0.015369 -0.002045 0.009363 0.015696 0.009330 0.039504
#
#
# Mechanical properties :
#
#
# Convention : Reuss Voigt Hill
#
# Bulk Modulus (GPa) = 18.92486 32.52824 25.72655
# Shear Modulus (GPa) = 22.01250 35.96292 28.98771
#
# Velocity S-wave (km/s) = 3.10218 3.96515 3.55991
# Velocity P-wave (km/s) = 4.59402 5.93162 5.30514
#
# Compressibility (1/GPa) = 0.05284055
#
# Stress axis : x y z
#
# Youngs Moduli (GPa) = 42.50056 48.99614 39.67369
#
# Poissons Ratio (x) = 0.25876 0.51936
# Poissons Ratio (y) = 0.22446 -0.40547
# Poissons Ratio (z) = 0.55637 -0.50075
#
# Static dielectric constant tensor:
#      x y z
#    x 1.834940 -0.031950 -0.004110 
#    y -0.031950 1.790970 0.025000 
#    z -0.004110 0.025000 1.835130 
# 
# From -- ./inp_files/288824.got.cif
#   From: 2010.05.17/outbox.cif.g08.bks.cpg/sg2_145_cif.got.tgz:288824.got - 2010.06.03 11:33:40.
