data_PCOD9069726
_publ_section_title
;
Structure prediction by ZEFSAII (Michael W. Deem and Ramdas Pophale) SiO2 
 PCOD9069726
Probable space group: P -1
;
_chemical_formula_sum "Si O2"
_cell_formula_units_Z 14
_cell_length_a 9.374130
_cell_length_b 8.388170
_cell_length_c 11.004365
_cell_angle_alpha 68.507218
_cell_angle_beta 69.433439
_cell_angle_gamma 114.263353
_cell_volume 591.767235
_symmetry_space_group_name_H-M "P -1"
_symmetry_group_IT_number 2
_symmetry_cell_setting 'triclinic'
loop_
_space_group_symop_operation_xyz
x,y,z
-x,-y,-z
loop_
_atom_site_type_symbol
_atom_site_label
_atom_site_fract_x
_atom_site_fract_y
_atom_site_fract_z
Si Si1 0.300341 0.216583 0.981173
Si Si2 0.298948 0.408503 0.516671
Si Si3 0.719022 0.157359 0.014652
Si Si4 0.033773 0.900810 0.700738
Si Si5 0.154769 0.381877 0.814471
Si Si6 0.715935 0.503885 0.766183
Si Si7 0.648740 0.147478 0.305472
O O1 0.133457 0.150428 0.143144
O O2 0.223023 0.240850 0.870925
O O3 0.509726 0.442637 0.882794
O O4 0.332162 0.036722 0.003568
O O5 0.500000 0.500000 0.500000
O O6 0.168663 0.406338 0.659119
O O7 0.313083 0.536316 0.358431
O O8 0.192304 0.161527 0.573189
O O9 0.597726 0.076865 0.199162
O O10 0.729767 0.341991 0.887039
O O11 0.940615 0.270991 0.953480
O O12 0.157752 0.825332 0.729662
O O13 0.906717 0.748801 0.667372
O O14 0.299300 0.616987 0.765765
O O15 0.500000 0.000000 0.500000
#
# Coordination Sequence:
#
# PCOD9069726 Si02
#       7
#     2   2   2   2   2   2   2
#     4  12  25  47  81 107 147 205 250 307 373 457
#     4  12  26  48  78 109 150 200 255 304 375 449
#     4  12  25  51  74 111 149 200 254 310 373 442
#     4  12  25  51  75 113 150 196 253 312 373 447
#     4  12  23  47  77 105 148 204 254 300 372 455
#     4  12  28  48  75 114 157 195 247 317 377 439
#     4  12  27  45  79 111 151 195 251 313 378 446
#
# _framework density 23.657951000000001
#
# number of rings (size 3 to 8) (size 9 to 14) (size 15 to 20)
#    0.000    0.000    5.714    4.714    2.000    0.571 
#    2.571    0.000    0.000    0.000    0.000    0.000 
#    0.000    0.000    0.000    0.000    0.000    0.000 
#
# Total GULP energy -78302.267644 kJ/mol
# GULP energy per Si atom -5593.019117 kJ/mol
# Density = 2.360410 g / cm^3
# Si number density = 23.657951 Si / 1000 Ang^3
#
#
#
# Elastic Constant Matrix: (Units=GPa)
#
#
# Indices 1 2 3 4 5 6 
#
# 1 108.1705 38.2126 45.2866 -4.8873 3.2802 14.1251
# 2 38.2126 94.2731 28.9601 0.4381 5.6834 7.5290
# 3 45.2866 28.9601 92.0454 21.0624 0.9626 7.8629
# 4 -4.8873 0.4381 21.0624 51.1887 11.6876 -3.5949
# 5 3.2802 5.6834 0.9626 11.6876 31.7556 -0.1297
# 6 14.1251 7.5290 7.8629 -3.5949 -0.1297 34.6366
#
#
#
# Elastic Compliance Matrix: (Units=1/GPa)
#
#
# Indices 1 2 3 4 5 6 
#
# 1 0.013739 -0.003235 -0.006444 0.004291 -0.002236 -0.003000
# 2 -0.003235 0.012929 -0.002648 0.001146 -0.002324 -0.000780
# 3 -0.006444 -0.002648 0.016904 -0.008511 0.003753 -0.001503
# 4 0.004291 0.001146 -0.008511 0.025880 -0.009905 0.002582
# 5 -0.002236 -0.002324 0.003753 -0.009905 0.035668 -0.000329
# 6 -0.003000 -0.000780 -0.001503 0.002582 -0.000329 0.030872
#
#
# Mechanical properties :
#
#
# Convention : Reuss Voigt Hill
#
# Bulk Modulus (GPa) = 52.85583 57.71198 55.28390
# Shear Modulus (GPa) = 29.94888 35.65148 32.80018
#
# Velocity S-wave (km/s) = 3.56183 3.88616 3.72752
# Velocity P-wave (km/s) = 6.26942 6.67710 6.47647
#
# Compressibility (1/GPa) = 0.01891939
#
# Stress axis : x y z
#
# Youngs Moduli (GPa) = 72.78767 77.34488 59.15675
#
# Poissons Ratio (x) = 0.25020 0.38120
# Poissons Ratio (y) = 0.23546 0.15662
# Poissons Ratio (z) = 0.46903 0.20478
#
# Static dielectric constant tensor:
#      x y z
#    x 1.850610 0.027350 -0.009000 
#    y 0.027350 1.935790 0.000980 
#    z -0.009000 0.000980 1.959460 
# 
# From -- ./inp_files/328528.got.cif
#   From: 2010.05.17/outbox.cif.g08.bks.cpg/sg2_165_cif.got.tgz:328528.got - 2010.06.03 11:33:40.
