data_PCOD9069937
_publ_section_title
;
Structure prediction by ZEFSAII (Michael W. Deem and Ramdas Pophale) SiO2 
 PCOD9069937
Probable space group: P -1
;
_chemical_formula_sum "Si O2"
_cell_formula_units_Z 12
_cell_length_a 15.126195
_cell_length_b 6.355998
_cell_length_c 12.022778
_cell_angle_alpha 113.907895
_cell_angle_beta 28.484170
_cell_angle_gamma 114.503378
_cell_volume 499.402140
_symmetry_space_group_name_H-M "P -1"
_symmetry_group_IT_number 2
_symmetry_cell_setting 'triclinic'
loop_
_space_group_symop_operation_xyz
x,y,z
-x,-y,-z
loop_
_atom_site_type_symbol
_atom_site_label
_atom_site_fract_x
_atom_site_fract_y
_atom_site_fract_z
Si Si1 0.425785 0.026234 0.462457
Si Si2 0.219425 0.944576 0.046312
Si Si3 0.265470 0.529312 0.460221
Si Si4 0.997947 0.303940 0.368665
Si Si5 0.284510 0.032182 0.242345
Si Si6 0.885810 0.698851 0.213046
O O1 0.236240 0.147894 0.694895
O O2 0.500000 0.000000 0.500000
O O3 0.389007 0.777700 0.386883
O O4 0.599845 0.148097 0.223474
O O5 0.044606 0.846680 0.142742
O O6 0.203352 0.920457 0.191873
O O7 0.198425 0.217969 0.117219
O O8 0.068194 0.603149 0.654578
O O9 0.289281 0.311079 0.308158
O O10 0.263698 0.426050 0.562314
O O11 0.000000 0.500000 0.500000
O O12 0.838152 0.103858 0.553240
O O13 0.500000 0.000000 0.000000
O O14 0.000000 0.500000 0.000000
#
# Coordination Sequence:
#
# PCOD9069937 Si02
#       6
#     2   2   2   2   2   2
#     4  12  30  50  73 111 144 196 257 303 370 434
#     4  12  25  48  74 105 153 187 243 306 364 439
#     4  12  24  47  73 103 153 185 246 303 363 444
#     4  12  24  43  73 110 145 191 240 290 376 439
#     4  12  26  44  72 114 149 188 242 304 371 437
#     4  12  28  50  76 105 146 198 252 309 365 435
#
# _framework density 24.028732000000002
#
# number of rings (size 3 to 8) (size 9 to 14) (size 15 to 20)
#    0.000    0.000    5.000    4.500    4.667    6.667 
#    0.000    0.000    0.000    0.000    0.000    0.000 
#    0.000    0.000    0.000    0.000    0.000    0.000 
#
# Total GULP energy -66969.132597 kJ/mol
# GULP energy per Si atom -5580.761050 kJ/mol
# Density = 2.397404 g / cm^3
# Si number density = 24.028732 Si / 1000 Ang^3
#
#
#
# Elastic Constant Matrix: (Units=GPa)
#
#
# Indices 1 2 3 4 5 6 
#
# 1 148.4747 47.1694 42.9020 23.4513 -9.5813 -4.3554
# 2 47.1694 78.6479 40.9947 26.9913 -15.4836 5.4073
# 3 42.9020 40.9947 115.6743 36.8594 -17.0221 10.0983
# 4 23.4513 26.9913 36.8594 35.1999 -0.7697 1.6448
# 5 -9.5813 -15.4836 -17.0221 -0.7697 41.9146 4.8884
# 6 -4.3554 5.4073 10.0983 1.6448 4.8884 30.0143
#
#
#
# Elastic Compliance Matrix: (Units=1/GPa)
#
#
# Indices 1 2 3 4 5 6 
#
# 1 0.008820 -0.004426 -0.001826 -0.000719 -0.000705 0.002846
# 2 -0.004426 0.021785 -0.000511 -0.012837 0.007159 -0.004858
# 3 -0.001826 -0.000511 0.015363 -0.014088 0.006022 -0.005551
# 4 -0.000719 -0.012837 -0.014088 0.052991 -0.010323 0.005726
# 5 -0.000705 0.007159 0.006022 -0.010323 0.029490 -0.007655
# 6 0.002846 -0.004858 -0.005551 0.005726 -0.007655 0.037406
#
#
# Mechanical properties :
#
#
# Convention : Reuss Voigt Hill
#
# Bulk Modulus (GPa) = 30.82358 67.21435 49.01896
# Shear Modulus (GPa) = 26.28872 35.54113 30.91492
#
# Velocity S-wave (km/s) = 3.31124 3.85009 3.59079
# Velocity P-wave (km/s) = 5.24163 6.91357 6.13483
#
# Compressibility (1/GPa) = 0.03244270
#
# Stress axis : x y z
#
# Youngs Moduli (GPa) = 113.37316 45.90351 65.09125
#
# Poissons Ratio (x) = 0.20318 0.11885
# Poissons Ratio (y) = 0.50181 0.03324
# Poissons Ratio (z) = 0.20701 0.02344
#
# Static dielectric constant tensor:
#      x y z
#    x 1.953320 0.058920 0.025280 
#    y 0.058920 2.261150 0.048730 
#    z 0.025280 0.048730 1.999440 
# 
# From -- ./inp_files/26421.got.cif
#   From: 2010.05.17/outbox.cif.g08.bks.cpg/sg2_14_cif.got.tgz:26421.got - 2010.06.03 11:33:40.
