data_PCOD9069707
_publ_section_title
;
Structure prediction by ZEFSAII (Michael W. Deem and Ramdas Pophale) SiO2 
 PCOD9069707
Probable space group: P -1
;
_chemical_formula_sum "Si O2"
_cell_formula_units_Z 13
_cell_length_a 9.632853
_cell_length_b 10.609492
_cell_length_c 8.244178
_cell_angle_alpha 105.100559
_cell_angle_beta 61.451789
_cell_angle_gamma 139.909032
_cell_volume 468.337231
_symmetry_space_group_name_H-M "P -1"
_symmetry_group_IT_number 2
_symmetry_cell_setting 'triclinic'
loop_
_space_group_symop_operation_xyz
x,y,z
-x,-y,-z
loop_
_atom_site_type_symbol
_atom_site_label
_atom_site_fract_x
_atom_site_fract_y
_atom_site_fract_z
Si Si1 0.860405 0.647025 0.125441
Si Si2 0.639710 0.340193 0.865033
Si Si3 0.022868 0.903348 0.588855
Si Si4 0.000000 0.000000 0.000000
Si Si5 0.520409 0.990987 0.680616
Si Si6 0.449954 0.562761 0.335076
Si Si7 0.863612 0.437468 0.299404
O O1 0.658516 0.610138 0.314518
O O2 0.968557 0.616045 0.185875
O O3 0.693993 0.449573 0.037003
O O4 0.003892 0.845029 0.012379
O O5 0.464879 0.324186 0.849918
O O6 0.919623 0.496202 0.704240
O O7 0.541856 0.134512 0.823665
O O8 0.051495 0.980816 0.777258
O O9 0.778011 0.668151 0.652114
O O10 0.240139 0.946646 0.422874
O O11 0.000000 0.000000 0.500000
O O12 0.281024 0.762451 0.784243
O O13 0.500000 0.000000 0.500000
O O14 0.345841 0.622859 0.503563
#
# Coordination Sequence:
#
# PCOD9069707 Si02
#       7
#     2   2   2   1   2   2   2
#     4  12  28  47  72 111 149 194 251 317 374 449
#     4  12  26  47  71 110 150 194 245 308 379 446
#     4  12  26  48  76 113 148 199 258 315 375 455
#     4  12  28  44  78 106 152 194 258 310 384 442
#     4  12  26  46  78 109 148 203 251 300 387 454
#     4  12  23  47  75 101 151 193 248 310 378 442
#     4  12  25  49  76 106 148 197 250 310 378 456
#
# _framework density 27.757777000000001
#
# number of rings (size 3 to 8) (size 9 to 14) (size 15 to 20)
#    0.000    0.000    4.615    5.538    0.000    0.615 
#    0.000    0.000    0.000    0.000    0.000    0.000 
#    0.000    0.000    0.000    0.000    0.000    0.000 
#
# Total GULP energy -72670.503361 kJ/mol
# GULP energy per Si atom -5590.038720 kJ/mol
# Density = 2.769460 g / cm^3
# Si number density = 27.757777 Si / 1000 Ang^3
#
#
#
# Elastic Constant Matrix: (Units=GPa)
#
#
# Indices 1 2 3 4 5 6 
#
# 1 125.2356 33.5652 11.5564 -9.5505 -3.2535 -23.7043
# 2 33.5652 189.4614 20.4627 27.7624 10.4336 -20.7878
# 3 11.5564 20.4627 118.4654 12.1849 2.0525 -16.0801
# 4 -9.5505 27.7624 12.1849 46.6012 -9.0457 8.4506
# 5 -3.2535 10.4336 2.0525 -9.0457 50.7478 -5.7624
# 6 -23.7043 -20.7878 -16.0801 8.4506 -5.7624 50.7432
#
#
#
# Elastic Compliance Matrix: (Units=1/GPa)
#
#
# Indices 1 2 3 4 5 6 
#
# 1 0.009389 -0.001782 -0.000500 0.002895 0.001871 0.003228
# 2 -0.001782 0.006771 -0.000071 -0.005260 -0.002152 0.002550
# 3 -0.000500 -0.000071 0.009264 -0.003167 -0.000601 0.003132
# 4 0.002895 -0.005260 -0.003167 0.028192 0.005756 -0.005848
# 5 0.001871 -0.002152 -0.000601 0.005756 0.021463 0.001281
# 6 0.003228 0.002550 0.003132 -0.005848 0.001281 0.024371
#
#
# Mechanical properties :
#
#
# Convention : Reuss Voigt Hill
#
# Bulk Modulus (GPa) = 48.27142 62.70345 55.48743
# Shear Modulus (GPa) = 45.01964 54.12364 49.57164
#
# Velocity S-wave (km/s) = 4.03162 4.42051 4.23053
# Velocity P-wave (km/s) = 6.25299 6.97804 6.62544
#
# Compressibility (1/GPa) = 0.02071619
#
# Stress axis : x y z
#
# Youngs Moduli (GPa) = 106.50604 147.69513 107.94917
#
# Poissons Ratio (x) = 0.26326 0.05398
# Poissons Ratio (y) = 0.18984 0.00768
# Poissons Ratio (z) = 0.05326 0.01051
#
# Static dielectric constant tensor:
#      x y z
#    x 1.810460 -0.267170 0.237040 
#    y -0.267170 1.981080 0.156080 
#    z 0.237040 0.156080 1.849540 
# 
# From -- ./inp_files/159176.got.cif
#   From: 2010.05.17/outbox.cif.g08.bks.cpg/sg2_80_cif.got.tgz:159176.got - 2010.06.03 11:33:40.
