data_PCOD9069540
_publ_section_title
;
Structure prediction by ZEFSAII (Michael W. Deem and Ramdas Pophale) SiO2 
 PCOD9069540
Probable space group: P -1
;
_chemical_formula_sum "Si O2"
_cell_formula_units_Z 16
_cell_length_a 7.578527
_cell_length_b 16.958685
_cell_length_c 11.524182
_cell_angle_alpha 140.636204
_cell_angle_beta 83.226971
_cell_angle_gamma 123.847366
_cell_volume 627.852044
_symmetry_space_group_name_H-M "P -1"
_symmetry_group_IT_number 2
_symmetry_cell_setting 'triclinic'
loop_
_space_group_symop_operation_xyz
x,y,z
-x,-y,-z
loop_
_atom_site_type_symbol
_atom_site_label
_atom_site_fract_x
_atom_site_fract_y
_atom_site_fract_z
Si Si1 0.754504 0.048260 0.050972
Si Si2 0.008283 0.195130 0.946365
Si Si3 0.436525 0.640035 0.875788
Si Si4 0.720260 0.866018 0.435540
Si Si5 0.300165 0.572456 0.295345
Si Si6 0.316166 0.614221 0.603158
Si Si7 0.932263 0.263514 0.518093
Si Si8 0.541826 0.915166 0.305573
O O1 0.898806 0.171598 0.294976
O O2 0.916707 0.154546 0.041263
O O3 0.500000 0.000000 0.000000
O O4 0.596899 0.837634 0.836771
O O5 0.265767 0.241821 0.986569
O O6 0.086361 0.354429 0.042907
O O7 0.774466 0.007864 0.681179
O O8 0.351361 0.564595 0.664980
O O9 0.225343 0.450199 0.744789
O O10 0.401358 0.770891 0.045111
O O11 0.557434 0.689908 0.329766
O O12 0.535414 0.798035 0.263709
O O13 0.000000 0.000000 0.500000
O O14 0.342587 0.566864 0.421995
O O15 0.205079 0.668481 0.403556
O O16 0.000000 0.500000 0.500000
O O17 0.800306 0.103871 0.438844
O O18 0.500000 0.000000 0.500000
#
# Coordination Sequence:
#
# PCOD9069540 Si02
#       8
#     2   2   2   2   2   2   2   2
#     4  12  23  45  77 109 148 195 243 301 378 449
#     4  12  29  47  76 110 153 198 243 309 380 449
#     4  12  28  48  73 114 152 190 248 309 378 441
#     4  12  27  52  72 104 149 203 257 306 375 433
#     4  12  26  46  77 109 147 199 247 306 379 450
#     4  12  23  44  79 114 148 186 245 309 377 455
#     4  12  26  46  75 110 147 190 252 312 369 445
#     4  12  28  48  75 106 145 195 261 311 356 437
#
# _framework density 25.483711
#
# number of rings (size 3 to 8) (size 9 to 14) (size 15 to 20)
#    0.000    0.000    7.500    1.500    3.500    4.500 
#    0.000    0.000    0.000    0.000    0.000    0.000 
#    0.000    0.000    0.000    0.000    0.000    0.000 
#
# Total GULP energy -89148.905819 kJ/mol
# GULP energy per Si atom -5571.806614 kJ/mol
# Density = 2.542571 g / cm^3
# Si number density = 25.483711 Si / 1000 Ang^3
#
#
#
# Elastic Constant Matrix: (Units=GPa)
#
#
# Indices 1 2 3 4 5 6 
#
# 1 43.6397 25.0001 16.5920 3.3956 -3.4249 10.9808
# 2 25.0001 203.8643 63.9965 24.8193 -7.9383 28.2553
# 3 16.5920 63.9965 89.4704 39.5110 8.8628 9.8275
# 4 3.3956 24.8193 39.5110 61.9775 -3.3247 1.1911
# 5 -3.4249 -7.9383 8.8628 -3.3247 22.8360 -1.7239
# 6 10.9808 28.2553 9.8275 1.1911 -1.7239 35.4569
#
#
#
# Elastic Compliance Matrix: (Units=1/GPa)
#
#
# Indices 1 2 3 4 5 6 
#
# 1 0.027314 -0.000861 -0.005655 0.002889 0.005959 -0.006013
# 2 -0.000861 0.007334 -0.005510 0.000933 0.004403 -0.003868
# 3 -0.005655 -0.005510 0.023393 -0.013126 -0.013796 -0.000571
# 4 0.002889 0.000933 -0.013126 0.024451 0.009536 0.001642
# 5 0.005959 0.004403 -0.013796 0.009536 0.053012 0.000727
# 6 -0.006013 -0.003868 -0.000571 0.001642 0.000727 0.033287
#
#
# Mechanical properties :
#
#
# Convention : Reuss Voigt Hill
#
# Bulk Modulus (GPa) = 29.42059 60.90573 45.16316
# Shear Modulus (GPa) = 24.48920 39.47981 31.98451
#
# Velocity S-wave (km/s) = 3.10332 3.94028 3.54658
# Velocity P-wave (km/s) = 4.94072 6.68228 5.87637
#
# Compressibility (1/GPa) = 0.03398980
#
# Stress axis : x y z
#
# Youngs Moduli (GPa) = 36.61130 136.34407 42.74860
#
# Poissons Ratio (x) = 0.11733 0.24175
# Poissons Ratio (y) = 0.03150 0.23554
# Poissons Ratio (z) = 0.20704 0.75124
#
# Static dielectric constant tensor:
#      x y z
#    x 2.199370 0.062560 0.015690 
#    y 0.062560 1.930210 -0.023880 
#    z 0.015690 -0.023880 2.018540 
# 
# From -- ./inp_files/403373.got.cif
#   From: 2010.05.17/outbox.cif.g08.bks.cpg/sg2_202_cif.got.tgz:403373.got - 2010.06.03 11:33:40.
