data_PCOD9069573
_publ_section_title
;
Structure prediction by ZEFSAII (Michael W. Deem and Ramdas Pophale) SiO2 
 PCOD9069573
Probable space group: P -1
;
_chemical_formula_sum "Si O2"
_cell_formula_units_Z 16
_cell_length_a 11.994807
_cell_length_b 12.086080
_cell_length_c 9.706606
_cell_angle_alpha 81.237288
_cell_angle_beta 127.557806
_cell_angle_gamma 60.662051
_cell_volume 736.808505
_symmetry_space_group_name_H-M "P -1"
_symmetry_group_IT_number 2
_symmetry_cell_setting 'triclinic'
loop_
_space_group_symop_operation_xyz
x,y,z
-x,-y,-z
loop_
_atom_site_type_symbol
_atom_site_label
_atom_site_fract_x
_atom_site_fract_y
_atom_site_fract_z
Si Si1 0.651639 0.990706 0.200787
Si Si2 0.443705 0.126010 0.317128
Si Si3 0.316066 0.568764 0.947478
Si Si4 0.972429 0.355171 0.827757
Si Si5 0.555921 0.627665 0.638005
Si Si6 0.094990 0.852429 0.197499
Si Si7 0.948832 0.398959 0.478780
Si Si8 0.134929 0.921914 0.753483
O O1 0.869737 0.796685 0.385775
O O2 0.573161 0.035968 0.289986
O O3 0.677674 0.099546 0.133769
O O4 0.500000 0.000000 0.000000
O O5 0.507017 0.208108 0.409131
O O6 0.500000 0.000000 0.500000
O O7 0.194787 0.277641 0.056002
O O8 0.197033 0.756082 0.860051
O O9 0.208229 0.538499 0.775216
O O10 0.500000 0.500000 0.000000
O O11 0.391503 0.467637 0.163545
O O12 0.906948 0.402429 0.608556
O O13 0.767734 0.509850 0.730568
O O14 0.007300 0.203861 0.907615
O O15 0.347099 0.695444 0.404379
O O16 0.015678 0.935568 0.272199
O O17 0.000000 0.000000 0.000000
O O18 0.000000 0.500000 0.500000
O O19 0.000000 0.000000 0.500000
#
# Coordination Sequence:
#
# PCOD9069573 Si02
#       8
#     2   2   2   2   2   2   2   2
#     4  12  25  47  72 103 141 185 242 295 346 425
#     4  12  27  46  72 103 139 191 241 292 356 419
#     4  12  26  45  73 106 142 188 236 297 360 418
#     4  12  25  49  66 105 145 183 235 291 352 427
#     4  12  28  46  71 105 146 184 236 294 358 425
#     4  12  25  47  71 104 138 187 231 288 355 424
#     4  12  27  45  72 102 143 187 236 293 358 418
#     4  12  23  45  74 103 142 183 241 293 349 424
#
# _framework density 21.715275999999999
#
# number of rings (size 3 to 8) (size 9 to 14) (size 15 to 20)
#    0.000    0.000    3.750    6.000    5.250    1.000 
#    0.000    0.000    0.000    0.000    0.000    0.000 
#    0.000    0.000    0.000    0.000    0.000    0.000 
#
# Total GULP energy -89430.542322 kJ/mol
# GULP energy per Si atom -5589.408895 kJ/mol
# Density = 2.166585 g / cm^3
# Si number density = 21.715276 Si / 1000 Ang^3
#
#
#
# Elastic Constant Matrix: (Units=GPa)
#
#
# Indices 1 2 3 4 5 6 
#
# 1 104.4167 31.7332 21.3847 -1.8295 -17.6159 -4.5372
# 2 31.7332 89.3912 -12.1386 1.8227 -10.4072 -1.6193
# 3 21.3847 -12.1386 79.1140 -1.4359 -3.9202 -0.3312
# 4 -1.8295 1.8227 -1.4359 30.1172 13.0463 -0.1466
# 5 -17.6159 -10.4072 -3.9202 13.0463 41.0083 4.0732
# 6 -4.5372 -1.6193 -0.3312 -0.1466 4.0732 70.0625
#
#
#
# Elastic Compliance Matrix: (Units=1/GPa)
#
#
# Indices 1 2 3 4 5 6 
#
# 1 0.012400 -0.004421 -0.003842 -0.000932 0.004090 0.000443
# 2 -0.004421 0.013544 0.003360 -0.002017 0.002512 -0.000108
# 3 -0.003842 0.003360 0.014222 -0.000010 0.000579 -0.000138
# 4 -0.000932 -0.002017 -0.000010 0.039087 -0.013423 0.000755
# 5 0.004090 0.002512 0.000579 -0.013423 0.031256 -0.001520
# 6 0.000443 -0.000108 -0.000138 0.000755 -0.001520 0.014388
#
#
# Mechanical properties :
#
#
# Convention : Reuss Voigt Hill
#
# Bulk Modulus (GPa) = 32.93695 39.43116 36.18405
# Shear Modulus (GPa) = 34.52465 43.70043 39.11254
#
# Velocity S-wave (km/s) = 3.99165 4.49088 4.24860
# Velocity P-wave (km/s) = 6.03697 6.71478 6.38488
#
# Compressibility (1/GPa) = 0.03036104
#
# Stress axis : x y z
#
# Youngs Moduli (GPa) = 80.64274 73.83359 70.31299
#
# Poissons Ratio (x) = 0.32639 0.27018
# Poissons Ratio (y) = 0.35649 -0.23628
# Poissons Ratio (z) = 0.30987 -0.24811
#
# Static dielectric constant tensor:
#      x y z
#    x 1.779560 0.003540 0.020980 
#    y 0.003540 1.841020 0.007550 
#    z 0.020980 0.007550 1.726350 
# 
# From -- ./inp_files/262606.got.cif
#   From: 2010.05.17/outbox.cif.g08.bks.cpg/sg2_132_cif.got.tgz:262606.got - 2010.06.03 11:33:40.
