data_PCOD9069011
_publ_section_title
;
Structure prediction by ZEFSAII (Michael W. Deem and Ramdas Pophale) SiO2 
 PCOD9069011
Probable space group: P -1
;
_chemical_formula_sum "Si O2"
_cell_formula_units_Z 16
_cell_length_a 13.265038
_cell_length_b 6.436692
_cell_length_c 21.334040
_cell_angle_alpha 101.152104
_cell_angle_beta 157.381534
_cell_angle_gamma 76.407429
_cell_volume 679.588850
_symmetry_space_group_name_H-M "P -1"
_symmetry_group_IT_number 2
_symmetry_cell_setting 'triclinic'
loop_
_space_group_symop_operation_xyz
x,y,z
-x,-y,-z
loop_
_atom_site_type_symbol
_atom_site_label
_atom_site_fract_x
_atom_site_fract_y
_atom_site_fract_z
Si Si1 0.960050 0.623827 0.609925
Si Si2 0.504548 0.739601 0.889080
Si Si3 0.110342 0.679593 0.112924
Si Si4 0.707267 0.078734 0.946471
Si Si5 0.176097 0.361393 0.244459
Si Si6 0.355957 0.977140 0.482291
Si Si7 0.578618 0.603227 0.283437
Si Si8 0.976976 0.640825 0.249547
O O1 0.841646 0.549534 0.472614
O O2 0.211881 0.740175 0.746879
O O3 0.043002 0.429540 0.694462
O O4 0.743798 0.798973 0.529425
O O5 0.597372 0.962105 0.935511
O O6 0.502037 0.593788 0.815490
O O7 0.709600 0.649145 0.056102
O O8 0.167462 0.567116 0.206514
O O9 0.363289 0.699081 0.217556
O O10 0.000000 0.500000 0.000000
O O11 0.895354 0.889377 0.007127
O O12 0.451358 0.201907 0.771462
O O13 0.912957 0.247261 0.084050
O O14 0.425134 0.182497 0.362374
O O15 0.182841 0.455742 0.323224
O O16 0.102150 0.855634 0.324152
O O17 0.500000 0.000000 0.500000
#
# Coordination Sequence:
#
# PCOD9069011 Si02
#       8
#     2   2   2   2   2   2   2   2
#     4  12  30  47  73 107 147 194 242 296 360 428
#     4  12  27  50  74 103 144 198 248 292 351 428
#     4  12  22  39  67 109 140 181 236 293 359 421
#     4  12  23  42  73 103 148 186 241 290 357 424
#     4  12  24  43  73 107 143 185 231 299 366 420
#     4  12  27  44  72 109 146 181 232 298 369 425
#     4  12  26  46  72 107 147 190 239 302 358 426
#     4  12  25  50  76 104 144 190 238 302 357 431
#
# _framework density 23.543648000000001
#
# number of rings (size 3 to 8) (size 9 to 14) (size 15 to 20)
#    0.000    0.000    6.250    3.750    3.500    3.000 
#    0.000    0.000    0.000    0.000    0.000    0.000 
#    0.000    0.000    0.000    0.000    0.000    0.000 
#
# Total GULP energy -89465.139109 kJ/mol
# GULP energy per Si atom -5591.571194 kJ/mol
# Density = 2.349006 g / cm^3
# Si number density = 23.543648 Si / 1000 Ang^3
#
#
#
# Elastic Constant Matrix: (Units=GPa)
#
#
# Indices 1 2 3 4 5 6 
#
# 1 96.0082 26.4202 31.3942 -7.9683 -9.0765 11.8375
# 2 26.4202 75.8951 18.8911 -3.0580 -23.0577 7.9955
# 3 31.3942 18.8911 126.1597 -3.6861 -25.4490 8.4011
# 4 -7.9683 -3.0580 -3.6861 29.2301 4.8559 -9.9554
# 5 -9.0765 -23.0577 -25.4490 4.8559 36.8624 1.2950
# 6 11.8375 7.9955 8.4011 -9.9554 1.2950 28.8367
#
#
#
# Elastic Compliance Matrix: (Units=1/GPa)
#
#
# Indices 1 2 3 4 5 6 
#
# 1 0.012686 -0.003775 -0.002599 0.002035 -0.001207 -0.002647
# 2 -0.003775 0.018246 0.000811 -0.002714 0.011584 -0.005203
# 3 -0.002599 0.000811 0.010034 -0.001536 0.007100 -0.002930
# 4 0.002035 -0.002714 -0.001536 0.040670 -0.008134 0.014771
# 5 -0.001207 0.011584 0.007100 -0.008134 0.040380 -0.009406
# 6 -0.002647 -0.005203 -0.002930 0.014771 -0.009406 0.043583
#
#
# Mechanical properties :
#
#
# Convention : Reuss Voigt Hill
#
# Bulk Modulus (GPa) = 33.51207 50.16376 41.83791
# Shear Modulus (GPa) = 26.78483 33.74301 30.26392
#
# Velocity S-wave (km/s) = 3.37659 3.78988 3.58919
# Velocity P-wave (km/s) = 5.42833 6.36427 5.91484
#
# Compressibility (1/GPa) = 0.02984000
#
# Stress axis : x y z
#
# Youngs Moduli (GPa) = 78.82921 54.80506 99.65802
#
# Poissons Ratio (x) = 0.20689 0.25904
# Poissons Ratio (y) = 0.29758 -0.08083
# Poissons Ratio (z) = 0.20490 -0.04445
#
# Static dielectric constant tensor:
#      x y z
#    x 2.030660 0.125800 0.012210 
#    y 0.125800 2.035450 -0.020940 
#    z 0.012210 -0.020940 1.963930 
# 
# From -- ./inp_files/101108.got.cif
#   From: 2010.05.17/outbox.cif.g08.bks.cpg/sg2_51_cif.got.tgz:101108.got - 2010.06.03 11:33:40.
