data_PCOD9069824
_publ_section_title
;
Structure prediction by ZEFSAII (Michael W. Deem and Ramdas Pophale) SiO2 
 PCOD9069824
Probable space group: P -1
;
_chemical_formula_sum "Si O2"
_cell_formula_units_Z 16
_cell_length_a 12.428098
_cell_length_b 7.595712
_cell_length_c 8.527048
_cell_angle_alpha 126.579017
_cell_angle_beta 105.813761
_cell_angle_gamma 87.653592
_cell_volume 614.210760
_symmetry_space_group_name_H-M "P -1"
_symmetry_group_IT_number 2
_symmetry_cell_setting 'triclinic'
loop_
_space_group_symop_operation_xyz
x,y,z
-x,-y,-z
loop_
_atom_site_type_symbol
_atom_site_label
_atom_site_fract_x
_atom_site_fract_y
_atom_site_fract_z
Si Si1 0.048507 0.014863 0.848778
Si Si2 0.182779 0.967769 0.350978
Si Si3 0.350350 0.627453 0.780645
Si Si4 0.871218 0.410951 0.436847
Si Si5 0.411046 0.389605 0.164793
Si Si6 0.392099 0.030832 0.244946
Si Si7 0.636346 0.010696 0.302147
Si Si8 0.824247 0.495720 0.827018
O O1 0.936190 0.947065 0.662808
O O2 0.134361 0.843959 0.757450
O O3 0.116054 0.259656 0.975297
O O4 0.000000 0.000000 0.000000
O O5 0.281990 0.051005 0.312657
O O6 0.141072 0.703305 0.164512
O O7 0.251448 0.981491 0.547410
O O8 0.225316 0.492519 0.649175
O O9 0.457907 0.501150 0.741419
O O10 0.354908 0.793698 0.720559
O O11 0.366434 0.791413 0.021085
O O12 0.852427 0.460079 0.637347
O O13 0.000000 0.500000 0.500000
O O14 0.311429 0.530341 0.218874
O O15 0.401563 0.225956 0.223468
O O16 0.384845 0.224029 0.920039
O O17 0.520275 0.036307 0.359950
#
# Coordination Sequence:
#
# PCOD9069824 Si02
#       8
#     2   2   2   2   2   2   2   2
#     4  12  26  49  70  93 138 184 231 281 339 404
#     4  12  24  41  65 104 142 180 224 288 341 404
#     4   9  18  41  68  98 134 181 225 275 333 405
#     4  12  25  44  72 103 133 176 243 280 325 413
#     4   9  20  42  73  96 136 183 222 275 342 401
#     4   9  19  37  71  98 138 186 222 274 343 403
#     4   9  18  40  66 102 136 177 228 285 335 396
#     4  12  26  44  69 105 137 177 230 284 342 402
#
# _framework density 26.049690999999999
#
# number of rings (size 3 to 8) (size 9 to 14) (size 15 to 20)
#    0.000    1.500    2.500    5.250    0.000    1.000 
#    2.250    3.750    0.000    0.000    0.000    0.000 
#    0.000    0.000    0.000    0.000    0.000    0.000 
#
# Total GULP energy -89629.515438 kJ/mol
# GULP energy per Si atom -5601.844715 kJ/mol
# Density = 2.599040 g / cm^3
# Si number density = 26.049691 Si / 1000 Ang^3
#
#
#
# Elastic Constant Matrix: (Units=GPa)
#
#
# Indices 1 2 3 4 5 6 
#
# 1 191.8188 19.5685 35.6530 1.7789 18.2975 -22.3393
# 2 19.5685 38.1830 11.9648 7.0905 2.0558 -7.8194
# 3 35.6530 11.9648 74.4495 8.3276 12.2595 -1.6379
# 4 1.7789 7.0905 8.3276 34.4834 -1.1605 2.4768
# 5 18.2975 2.0558 12.2595 -1.1605 53.8856 8.7508
# 6 -22.3393 -7.8194 -1.6379 2.4768 8.7508 37.9690
#
#
#
# Elastic Compliance Matrix: (Units=1/GPa)
#
#
# Indices 1 2 3 4 5 6 
#
# 1 0.006494 -0.001709 -0.002414 0.000248 -0.002212 0.003859
# 2 -0.001709 0.030347 -0.003130 -0.005836 -0.000917 0.005702
# 3 -0.002414 -0.003130 0.015862 -0.003111 -0.002644 -0.000568
# 4 0.000248 -0.005836 -0.003111 0.031277 0.002124 -0.003720
# 5 -0.002212 -0.000917 -0.002644 0.002124 0.021063 -0.006597
# 6 0.003859 0.005702 -0.000568 -0.003720 -0.006597 0.031520
#
#
# Mechanical properties :
#
#
# Convention : Reuss Voigt Hill
#
# Bulk Modulus (GPa) = 26.17895 48.75822 37.46858
# Shear Modulus (GPa) = 30.52508 41.08528 35.80518
#
# Velocity S-wave (km/s) = 3.42687 3.97569 3.71144
# Velocity P-wave (km/s) = 5.07241 6.31133 5.72548
#
# Compressibility (1/GPa) = 0.03819864
#
# Stress axis : x y z
#
# Youngs Moduli (GPa) = 153.98015 32.95254 63.04445
#
# Poissons Ratio (x) = 0.05630 0.15219
# Poissons Ratio (y) = 0.26308 0.19730
# Poissons Ratio (z) = 0.37171 0.10313
#
# Static dielectric constant tensor:
#      x y z
#    x 2.055850 0.034610 0.046440 
#    y 0.034610 2.071100 0.025490 
#    z 0.046440 0.025490 2.055510 
# 
# From -- ./inp_files/246100.got.cif
#   From: 2010.05.17/outbox.cif.g08.bks.cpg/sg2_124_cif.got.tgz:246100.got - 2010.06.03 11:33:40.
